MODEL 1
REMARK VINA RESULT:     -12.2      0.000      0.000
REMARK SMILES COCC[C@H](NC(=O)N1CCN2C(=O)NC[C@H]2C1)C(=O)OCCOC(=O)c1ccc(-c2c3nc(c(-c4c(F)c(F)c(F)c(F)c4F)c4ccc([nH]4)c(-c4c(F)c(F)c(F)c(F)c4F)c4nc(c(-c5c(F)c(F)c(F)c(F)c5F)c5ccc2[nH]5)C=C4)C=C3)cc1
REMARK SMILES IDX 22 1 21 2 19 3 20 4 5 5 4 6 3 7 2 8 1 9 6 10 7 11 8 13 9 14
REMARK SMILES IDX 10 15 18 16 11 17 17 18 12 19 16 20 13 21 15 22 14 23 23 25
REMARK SMILES IDX 24 26 25 27 26 28 27 29 28 30 89 31 29 32 88 33 30 34 31 35
REMARK SMILES IDX 32 36 82 37 33 38 87 39 81 40 83 41 34 42 86 43 80 44 79 45
REMARK SMILES IDX 35 47 67 48 47 49 66 50 48 51 51 52 65 53 84 54 49 55 50 56
REMARK SMILES IDX 64 58 85 59 52 60 36 61 37 62 45 63 38 64 39 65 43 66 46 67
REMARK SMILES IDX 40 68 41 69 44 70 42 71 68 72 69 73 77 74 70 75 71 76 75 77
REMARK SMILES IDX 78 78 72 79 73 80 76 81 74 82 53 83 54 84 62 85 55 86 56 87
REMARK SMILES IDX 60 88 63 89 57 90 58 91 61 92 59 93
REMARK H PARENT 6 12 15 24 83 46 51 57
REMARK Flexibility Score: inf
ROOT
ATOM      1  C   UNL A   1      32.215  29.372  25.309  1.00  0.00     0.274 C 
ENDROOT
BRANCH   1   2
ATOM      2  O   UNL A   1      31.161  28.388  25.392  1.00  0.00    -0.461 OA
BRANCH   2   3
ATOM      3  C   UNL A   1      31.285  27.478  26.390  1.00  0.00     0.328 C 
ATOM      4  O   UNL A   1      31.400  27.769  27.580  1.00  0.00    -0.250 OA
BRANCH   3   5
ATOM      5  C   UNL A   1      31.386  26.016  25.908  1.00  0.00     0.196 C 
BRANCH   5   6
ATOM      6  C   UNL A   1      30.334  25.839  24.788  1.00  0.00     0.065 C 
BRANCH   6   7
ATOM      7  C   UNL A   1      30.895  25.629  23.378  1.00  0.00     0.162 C 
BRANCH   7   8
ATOM      8  O   UNL A   1      32.317  25.724  23.345  1.00  0.00    -0.385 OA
ATOM      9  C   UNL A   1      32.946  24.811  22.449  1.00  0.00     0.194 C 
ENDBRANCH   7   8
ENDBRANCH   6   7
ENDBRANCH   5   6
BRANCH   5  10
ATOM     10  N   UNL A   1      31.305  24.909  26.879  1.00  0.00    -0.324 N 
ATOM     11  C   UNL A   1      31.234  23.573  26.692  1.00  0.00     0.318 C 
ATOM     12  H   UNL A   1      31.301  25.192  27.823  1.00  0.00     0.166 HD
ATOM     13  O   UNL A   1      30.440  22.954  27.399  1.00  0.00    -0.249 OA
BRANCH  11  14
ATOM     14  N   UNL A   1      32.021  22.958  25.773  1.00  0.00    -0.321 N 
ATOM     15  C   UNL A   1      31.558  22.159  24.648  1.00  0.00     0.143 C 
ATOM     16  C   UNL A   1      33.492  23.099  25.820  1.00  0.00     0.148 C 
ATOM     17  C   UNL A   1      32.154  20.754  24.717  1.00  0.00     0.143 C 
ATOM     18  C   UNL A   1      34.099  21.711  26.029  1.00  0.00     0.125 C 
ATOM     19  N   UNL A   1      33.536  20.732  25.118  1.00  0.00    -0.317 N 
ATOM     20  C   UNL A   1      35.591  21.522  25.767  1.00  0.00     0.144 C 
ATOM     21  C   UNL A   1      34.425  19.698  24.894  1.00  0.00     0.317 C 
ATOM     22  N   UNL A   1      35.663  20.141  25.338  1.00  0.00    -0.336 N 
ATOM     23  O   UNL A   1      34.183  18.622  24.391  1.00  0.00    -0.249 OA
ATOM     24  H   UNL A   1      36.479  19.591  25.358  1.00  0.00     0.165 HD
ENDBRANCH  11  14
ENDBRANCH   5  10
ENDBRANCH   3   5
ENDBRANCH   2   3
ENDBRANCH   1   2
BRANCH   1  25
ATOM     25  C   UNL A   1      31.788  30.690  25.943  1.00  0.00     0.275 C 
BRANCH  25  26
ATOM     26  O   UNL A   1      32.339  30.794  27.268  1.00  0.00    -0.458 OA
BRANCH  26  27
ATOM     27  C   UNL A   1      33.147  31.858  27.465  1.00  0.00     0.338 C 
ATOM     28  O   UNL A   1      32.823  33.030  27.571  1.00  0.00    -0.246 OA
BRANCH  27  29
ATOM     29  C   UNL A   1      34.549  31.433  27.627  1.00  0.00     0.060 A 
ATOM     30  C   UNL A   1      34.853  30.081  27.722  1.00  0.00     0.016 A 
ATOM     31  C   UNL A   1      35.512  32.391  27.957  1.00  0.00     0.016 A 
ATOM     32  C   UNL A   1      36.070  29.702  28.293  1.00  0.00     0.010 A 
ATOM     33  C   UNL A   1      36.768  31.994  28.442  1.00  0.00     0.010 A 
ATOM     34  C   UNL A   1      37.042  30.643  28.707  1.00  0.00    -0.014 A 
BRANCH  34  35
ATOM     35  C   UNL A   1      38.241  30.237  29.532  1.00  0.00     0.031 A 
ATOM     36  C   UNL A   1      39.362  29.379  28.948  1.00  0.00     0.074 A 
ATOM     37  C   UNL A   1      38.425  30.706  30.785  1.00  0.00     0.049 A 
ATOM     38  N   UNL A   1      40.333  28.737  29.560  1.00  0.00    -0.248 NA
ATOM     39  C   UNL A   1      39.398  29.219  27.483  1.00  0.00     0.031 C 
ATOM     40  C   UNL A   1      37.555  31.653  31.479  1.00  0.00     0.029 A 
ATOM     41  N   UNL A   1      39.438  30.477  31.690  1.00  0.00    -0.354 N 
ATOM     42  C   UNL A   1      41.044  28.059  28.572  1.00  0.00     0.074 A 
ATOM     43  C   UNL A   1      40.403  28.368  27.313  1.00  0.00     0.031 C 
ATOM     44  C   UNL A   1      38.121  32.008  32.638  1.00  0.00     0.029 A 
ATOM     45  C   UNL A   1      39.285  31.164  32.868  1.00  0.00     0.049 A 
ATOM     46  H   UNL A   1      40.199  29.879  31.509  1.00  0.00     0.167 HD
ATOM     47  C   UNL A   1      42.124  27.246  28.704  1.00  0.00     0.037 A 
ATOM     48  C   UNL A   1      39.931  31.075  34.047  1.00  0.00     0.037 A 
ATOM     49  C   UNL A   1      42.824  27.007  29.945  1.00  0.00     0.049 A 
ATOM     50  C   UNL A   1      41.033  30.071  34.212  1.00  0.00     0.074 A 
ATOM     51  C   UNL A   1      43.911  26.178  30.179  1.00  0.00     0.029 A 
ATOM     52  N   UNL A   1      42.527  27.616  31.154  1.00  0.00    -0.354 N 
ATOM     53  N   UNL A   1      41.587  29.292  33.318  1.00  0.00    -0.248 NA
ATOM     54  C   UNL A   1      41.569  29.900  35.570  1.00  0.00     0.031 C 
ATOM     55  C   UNL A   1      44.229  26.237  31.540  1.00  0.00     0.029 A 
ATOM     56  C   UNL A   1      43.386  27.154  32.142  1.00  0.00     0.049 A 
ATOM     57  H   UNL A   1      41.811  28.277  31.292  1.00  0.00     0.167 HD
ATOM     58  C   UNL A   1      42.539  28.547  33.998  1.00  0.00     0.074 A 
ATOM     59  C   UNL A   1      42.507  28.986  35.377  1.00  0.00     0.031 C 
ATOM     60  C   UNL A   1      43.358  27.581  33.517  1.00  0.00     0.037 A 
BRANCH  47  61
ATOM     61  C   UNL A   1      42.599  26.478  27.498  1.00  0.00     0.064 A 
ATOM     62  C   UNL A   1      43.645  26.918  26.678  1.00  0.00     0.173 A 
ATOM     63  C   UNL A   1      42.049  25.210  27.230  1.00  0.00     0.173 A 
ATOM     64  F   UNL A   1      44.204  28.121  26.881  1.00  0.00    -0.203 F 
ATOM     65  C   UNL A   1      44.116  26.127  25.630  1.00  0.00     0.198 A 
ATOM     66  C   UNL A   1      42.543  24.409  26.202  1.00  0.00     0.198 A 
ATOM     67  F   UNL A   1      41.055  24.729  27.991  1.00  0.00    -0.203 F 
ATOM     68  F   UNL A   1      45.101  26.579  24.840  1.00  0.00    -0.200 F 
ATOM     69  C   UNL A   1      43.574  24.870  25.401  1.00  0.00     0.200 A 
ATOM     70  F   UNL A   1      42.031  23.187  26.001  1.00  0.00    -0.200 F 
ATOM     71  F   UNL A   1      44.046  24.102  24.409  1.00  0.00    -0.200 F 
ENDBRANCH  47  61
BRANCH  48  72
ATOM     72  C   UNL A   1      39.445  31.875  35.205  1.00  0.00     0.064 A 
ATOM     73  C   UNL A   1      38.583  31.330  36.163  1.00  0.00     0.173 A 
ATOM     74  C   UNL A   1      39.854  33.209  35.380  1.00  0.00     0.173 A 
ATOM     75  F   UNL A   1      38.125  30.078  36.020  1.00  0.00    -0.203 F 
ATOM     76  C   UNL A   1      38.158  32.084  37.257  1.00  0.00     0.198 A 
ATOM     77  C   UNL A   1      39.471  33.943  36.497  1.00  0.00     0.198 A 
ATOM     78  F   UNL A   1      40.663  33.790  34.481  1.00  0.00    -0.203 F 
ATOM     79  F   UNL A   1      37.297  31.556  38.136  1.00  0.00    -0.200 F 
ATOM     80  C   UNL A   1      38.618  33.382  37.432  1.00  0.00     0.200 A 
ATOM     81  F   UNL A   1      39.938  35.186  36.671  1.00  0.00    -0.200 F 
ATOM     82  F   UNL A   1      38.230  34.095  38.497  1.00  0.00    -0.200 F 
ENDBRANCH  48  72
BRANCH  60  83
ATOM     83  C   UNL A   1      44.318  26.953  34.486  1.00  0.00     0.064 A 
ATOM     84  C   UNL A   1      45.574  27.520  34.751  1.00  0.00     0.173 A 
ATOM     85  C   UNL A   1      43.978  25.769  35.156  1.00  0.00     0.173 A 
ATOM     86  F   UNL A   1      45.955  28.643  34.125  1.00  0.00    -0.203 F 
ATOM     87  C   UNL A   1      46.468  26.902  35.623  1.00  0.00     0.198 A 
ATOM     88  C   UNL A   1      44.861  25.173  36.052  1.00  0.00     0.198 A 
ATOM     89  F   UNL A   1      42.787  25.187  34.945  1.00  0.00    -0.203 F 
ATOM     90  F   UNL A   1      47.686  27.428  35.812  1.00  0.00    -0.200 F 
ATOM     91  C   UNL A   1      46.109  25.733  36.275  1.00  0.00     0.200 A 
ATOM     92  F   UNL A   1      44.508  24.049  36.693  1.00  0.00    -0.200 F 
ATOM     93  F   UNL A   1      46.972  25.139  37.112  1.00  0.00    -0.200 F 
ENDBRANCH  60  83
ENDBRANCH  34  35
ENDBRANCH  27  29
ENDBRANCH  26  27
ENDBRANCH  25  26
ENDBRANCH   1  25
TORSDOF 16
ENDMDL
MODEL 2
REMARK VINA RESULT:     -11.9      1.378      2.667
REMARK SMILES COCC[C@H](NC(=O)N1CCN2C(=O)NC[C@H]2C1)C(=O)OCCOC(=O)c1ccc(-c2c3nc(c(-c4c(F)c(F)c(F)c(F)c4F)c4ccc([nH]4)c(-c4c(F)c(F)c(F)c(F)c4F)c4nc(c(-c5c(F)c(F)c(F)c(F)c5F)c5ccc2[nH]5)C=C4)C=C3)cc1
REMARK SMILES IDX 22 1 21 2 19 3 20 4 5 5 4 6 3 7 2 8 1 9 6 10 7 11 8 13 9 14
REMARK SMILES IDX 10 15 18 16 11 17 17 18 12 19 16 20 13 21 15 22 14 23 23 25
REMARK SMILES IDX 24 26 25 27 26 28 27 29 28 30 89 31 29 32 88 33 30 34 31 35
REMARK SMILES IDX 32 36 82 37 33 38 87 39 81 40 83 41 34 42 86 43 80 44 79 45
REMARK SMILES IDX 35 47 67 48 47 49 66 50 48 51 51 52 65 53 84 54 49 55 50 56
REMARK SMILES IDX 64 58 85 59 52 60 36 61 37 62 45 63 38 64 39 65 43 66 46 67
REMARK SMILES IDX 40 68 41 69 44 70 42 71 68 72 69 73 77 74 70 75 71 76 75 77
REMARK SMILES IDX 78 78 72 79 73 80 76 81 74 82 53 83 54 84 62 85 55 86 56 87
REMARK SMILES IDX 60 88 63 89 57 90 58 91 61 92 59 93
REMARK H PARENT 6 12 15 24 83 46 51 57
REMARK Flexibility Score: inf
ROOT
ATOM      1  C   UNL A   1      33.116  29.516  24.903  1.00  0.00     0.274 C 
ENDROOT
BRANCH   1   2
ATOM      2  O   UNL A   1      32.847  28.100  25.008  1.00  0.00    -0.461 OA
BRANCH   2   3
ATOM      3  C   UNL A   1      31.556  27.733  24.809  1.00  0.00     0.328 C 
ATOM      4  O   UNL A   1      30.844  27.217  25.669  1.00  0.00    -0.250 OA
BRANCH   3   5
ATOM      5  C   UNL A   1      31.063  27.911  23.358  1.00  0.00     0.196 C 
BRANCH   5   6
ATOM      6  C   UNL A   1      29.567  27.519  23.341  1.00  0.00     0.065 C 
BRANCH   6   7
ATOM      7  C   UNL A   1      28.614  28.565  22.753  1.00  0.00     0.162 C 
BRANCH   7   8
ATOM      8  O   UNL A   1      29.224  29.325  21.714  1.00  0.00    -0.385 OA
ATOM      9  C   UNL A   1      29.036  30.733  21.827  1.00  0.00     0.194 C 
ENDBRANCH   7   8
ENDBRANCH   6   7
ENDBRANCH   5   6
BRANCH   5  10
ATOM     10  N   UNL A   1      31.784  27.264  22.246  1.00  0.00    -0.324 N 
ATOM     11  C   UNL A   1      32.649  26.226  22.239  1.00  0.00     0.318 C 
ATOM     12  H   UNL A   1      31.605  27.654  21.360  1.00  0.00     0.166 HD
ATOM     13  O   UNL A   1      33.647  26.339  21.529  1.00  0.00    -0.249 OA
BRANCH  11  14
ATOM     14  N   UNL A   1      32.405  25.113  22.977  1.00  0.00    -0.321 N 
ATOM     15  C   UNL A   1      31.147  24.382  23.031  1.00  0.00     0.143 C 
ATOM     16  C   UNL A   1      33.472  24.496  23.793  1.00  0.00     0.148 C 
ATOM     17  C   UNL A   1      30.641  24.306  24.470  1.00  0.00     0.143 C 
ATOM     18  C   UNL A   1      33.038  24.539  25.258  1.00  0.00     0.125 C 
ATOM     19  N   UNL A   1      31.680  24.059  25.435  1.00  0.00    -0.317 N 
ATOM     20  C   UNL A   1      33.784  23.666  26.265  1.00  0.00     0.144 C 
ATOM     21  C   UNL A   1      31.495  23.560  26.710  1.00  0.00     0.317 C 
ATOM     22  N   UNL A   1      32.760  23.373  27.247  1.00  0.00    -0.336 N 
ATOM     23  O   UNL A   1      30.440  23.313  27.252  1.00  0.00    -0.249 OA
ATOM     24  H   UNL A   1      32.939  23.081  28.169  1.00  0.00     0.165 HD
ENDBRANCH  11  14
ENDBRANCH   5  10
ENDBRANCH   3   5
ENDBRANCH   2   3
ENDBRANCH   1   2
BRANCH   1  25
ATOM     25  C   UNL A   1      32.178  30.321  25.795  1.00  0.00     0.275 C 
BRANCH  25  26
ATOM     26  O   UNL A   1      32.682  30.337  27.142  1.00  0.00    -0.458 OA
BRANCH  26  27
ATOM     27  C   UNL A   1      33.440  31.411  27.452  1.00  0.00     0.338 C 
ATOM     28  O   UNL A   1      33.068  32.561  27.625  1.00  0.00    -0.246 OA
BRANCH  27  29
ATOM     29  C   UNL A   1      34.849  31.024  27.649  1.00  0.00     0.060 A 
ATOM     30  C   UNL A   1      35.185  29.681  27.757  1.00  0.00     0.016 A 
ATOM     31  C   UNL A   1      35.777  32.007  27.999  1.00  0.00     0.016 A 
ATOM     32  C   UNL A   1      36.397  29.335  28.360  1.00  0.00     0.010 A 
ATOM     33  C   UNL A   1      37.031  31.645  28.517  1.00  0.00     0.010 A 
ATOM     34  C   UNL A   1      37.333  30.303  28.794  1.00  0.00    -0.014 A 
BRANCH  34  35
ATOM     35  C   UNL A   1      38.522  29.931  29.650  1.00  0.00     0.031 A 
ATOM     36  C   UNL A   1      39.648  29.047  29.116  1.00  0.00     0.074 A 
ATOM     37  C   UNL A   1      38.693  30.454  30.883  1.00  0.00     0.049 A 
ATOM     38  N   UNL A   1      40.610  28.429  29.766  1.00  0.00    -0.248 NA
ATOM     39  C   UNL A   1      39.700  28.822  27.661  1.00  0.00     0.031 C 
ATOM     40  C   UNL A   1      37.817  31.432  31.524  1.00  0.00     0.029 A 
ATOM     41  N   UNL A   1      39.695  30.263  31.809  1.00  0.00    -0.354 N 
ATOM     42  C   UNL A   1      41.331  27.708  28.818  1.00  0.00     0.074 A 
ATOM     43  C   UNL A   1      40.705  27.963  27.539  1.00  0.00     0.031 C 
ATOM     44  C   UNL A   1      38.371  31.836  32.673  1.00  0.00     0.029 A 
ATOM     45  C   UNL A   1      39.530  31.001  32.954  1.00  0.00     0.049 A 
ATOM     46  H   UNL A   1      40.456  29.656  31.663  1.00  0.00     0.167 HD
ATOM     47  C   UNL A   1      42.407  26.899  28.998  1.00  0.00     0.037 A 
ATOM     48  C   UNL A   1      40.163  30.962  34.143  1.00  0.00     0.037 A 
ATOM     49  C   UNL A   1      43.093  26.714  30.256  1.00  0.00     0.049 A 
ATOM     50  C   UNL A   1      41.260  29.964  34.364  1.00  0.00     0.074 A 
ATOM     51  C   UNL A   1      44.175  25.894  30.538  1.00  0.00     0.029 A 
ATOM     52  N   UNL A   1      42.784  27.375  31.434  1.00  0.00    -0.354 N 
ATOM     53  N   UNL A   1      41.822  29.146  33.511  1.00  0.00    -0.248 NA
ATOM     54  C   UNL A   1      41.780  29.852  35.734  1.00  0.00     0.031 C 
ATOM     55  C   UNL A   1      44.477  26.011  31.899  1.00  0.00     0.029 A 
ATOM     56  C   UNL A   1      43.630  26.956  32.450  1.00  0.00     0.049 A 
ATOM     57  H   UNL A   1      42.068  28.043  31.535  1.00  0.00     0.167 HD
ATOM     58  C   UNL A   1      42.765  28.430  34.234  1.00  0.00     0.074 A 
ATOM     59  C   UNL A   1      42.719  28.928  35.592  1.00  0.00     0.031 C 
ATOM     60  C   UNL A   1      43.587  27.442  33.805  1.00  0.00     0.037 A 
BRANCH  47  61
ATOM     61  C   UNL A   1      42.894  26.079  27.832  1.00  0.00     0.064 A 
ATOM     62  C   UNL A   1      42.341  24.839  27.488  1.00  0.00     0.173 A 
ATOM     63  C   UNL A   1      43.878  26.613  26.978  1.00  0.00     0.173 A 
ATOM     64  F   UNL A   1      41.405  24.276  28.267  1.00  0.00    -0.203 F 
ATOM     65  C   UNL A   1      42.758  24.160  26.343  1.00  0.00     0.198 A 
ATOM     66  C   UNL A   1      44.269  25.948  25.818  1.00  0.00     0.198 A 
ATOM     67  F   UNL A   1      44.433  27.804  27.248  1.00  0.00    -0.203 F 
ATOM     68  F   UNL A   1      42.233  22.962  26.046  1.00  0.00    -0.200 F 
ATOM     69  C   UNL A   1      43.711  24.719  25.503  1.00  0.00     0.200 A 
ATOM     70  F   UNL A   1      45.173  26.504  25.000  1.00  0.00    -0.200 F 
ATOM     71  F   UNL A   1      44.091  24.077  24.391  1.00  0.00    -0.200 F 
ENDBRANCH  47  61
BRANCH  48  72
ATOM     72  C   UNL A   1      39.665  31.813  35.259  1.00  0.00     0.064 A 
ATOM     73  C   UNL A   1      40.129  33.120  35.448  1.00  0.00     0.173 A 
ATOM     74  C   UNL A   1      38.692  31.331  36.152  1.00  0.00     0.173 A 
ATOM     75  F   UNL A   1      41.090  33.613  34.653  1.00  0.00    -0.203 F 
ATOM     76  C   UNL A   1      39.633  33.914  36.481  1.00  0.00     0.198 A 
ATOM     77  C   UNL A   1      38.161  32.142  37.150  1.00  0.00     0.198 A 
ATOM     78  F   UNL A   1      38.226  30.079  36.031  1.00  0.00    -0.203 F 
ATOM     79  F   UNL A   1      40.126  35.145  36.672  1.00  0.00    -0.200 F 
ATOM     80  C   UNL A   1      38.637  33.431  37.318  1.00  0.00     0.200 A 
ATOM     81  F   UNL A   1      37.183  31.675  37.938  1.00  0.00    -0.200 F 
ATOM     82  F   UNL A   1      38.143  34.205  38.293  1.00  0.00    -0.200 F 
ENDBRANCH  48  72
BRANCH  60  83
ATOM     83  C   UNL A   1      44.535  26.856  34.811  1.00  0.00     0.064 A 
ATOM     84  C   UNL A   1      45.793  27.424  35.057  1.00  0.00     0.173 A 
ATOM     85  C   UNL A   1      44.179  25.709  35.538  1.00  0.00     0.173 A 
ATOM     86  F   UNL A   1      46.190  28.510  34.377  1.00  0.00    -0.203 F 
ATOM     87  C   UNL A   1      46.676  26.843  35.965  1.00  0.00     0.198 A 
ATOM     88  C   UNL A   1      45.050  25.152  36.470  1.00  0.00     0.198 A 
ATOM     89  F   UNL A   1      42.984  25.129  35.348  1.00  0.00    -0.203 F 
ATOM     90  F   UNL A   1      47.898  27.367  36.137  1.00  0.00    -0.200 F 
ATOM     91  C   UNL A   1      46.302  25.712  36.673  1.00  0.00     0.200 A 
ATOM     92  F   UNL A   1      44.682  24.065  37.163  1.00  0.00    -0.200 F 
ATOM     93  F   UNL A   1      47.154  25.152  37.545  1.00  0.00    -0.200 F 
ENDBRANCH  60  83
ENDBRANCH  34  35
ENDBRANCH  27  29
ENDBRANCH  26  27
ENDBRANCH  25  26
ENDBRANCH   1  25
TORSDOF 16
ENDMDL
MODEL 3
REMARK VINA RESULT:     -11.9      1.430      2.134
REMARK SMILES COCC[C@H](NC(=O)N1CCN2C(=O)NC[C@H]2C1)C(=O)OCCOC(=O)c1ccc(-c2c3nc(c(-c4c(F)c(F)c(F)c(F)c4F)c4ccc([nH]4)c(-c4c(F)c(F)c(F)c(F)c4F)c4nc(c(-c5c(F)c(F)c(F)c(F)c5F)c5ccc2[nH]5)C=C4)C=C3)cc1
REMARK SMILES IDX 22 1 21 2 19 3 20 4 5 5 4 6 3 7 2 8 1 9 6 10 7 11 8 13 9 14
REMARK SMILES IDX 10 15 18 16 11 17 17 18 12 19 16 20 13 21 15 22 14 23 23 25
REMARK SMILES IDX 24 26 25 27 26 28 27 29 28 30 89 31 29 32 88 33 30 34 31 35
REMARK SMILES IDX 32 36 82 37 33 38 87 39 81 40 83 41 34 42 86 43 80 44 79 45
REMARK SMILES IDX 35 47 67 48 47 49 66 50 48 51 51 52 65 53 84 54 49 55 50 56
REMARK SMILES IDX 64 58 85 59 52 60 36 61 37 62 45 63 38 64 39 65 43 66 46 67
REMARK SMILES IDX 40 68 41 69 44 70 42 71 68 72 69 73 77 74 70 75 71 76 75 77
REMARK SMILES IDX 78 78 72 79 73 80 76 81 74 82 53 83 54 84 62 85 55 86 56 87
REMARK SMILES IDX 60 88 63 89 57 90 58 91 61 92 59 93
REMARK H PARENT 6 12 15 24 83 46 51 57
REMARK Flexibility Score: inf
ROOT
ATOM      1  C   UNL A   1      32.364  29.299  24.993  1.00  0.00     0.274 C 
ENDROOT
BRANCH   1   2
ATOM      2  O   UNL A   1      31.805  28.019  25.361  1.00  0.00    -0.461 OA
BRANCH   2   3
ATOM      3  C   UNL A   1      30.942  27.478  24.465  1.00  0.00     0.328 C 
ATOM      4  O   UNL A   1      30.122  26.602  24.736  1.00  0.00    -0.250 OA
BRANCH   3   5
ATOM      5  C   UNL A   1      31.138  27.973  23.016  1.00  0.00     0.196 C 
BRANCH   5   6
ATOM      6  C   UNL A   1      29.798  28.607  22.573  1.00  0.00     0.065 C 
BRANCH   6   7
ATOM      7  C   UNL A   1      29.903  29.984  21.910  1.00  0.00     0.162 C 
BRANCH   7   8
ATOM      8  O   UNL A   1      28.642  30.641  21.831  1.00  0.00    -0.385 OA
ATOM      9  C   UNL A   1      28.265  31.336  23.018  1.00  0.00     0.194 C 
ENDBRANCH   7   8
ENDBRANCH   6   7
ENDBRANCH   5   6
BRANCH   5  10
ATOM     10  N   UNL A   1      31.647  27.053  21.982  1.00  0.00    -0.324 N 
ATOM     11  C   UNL A   1      32.681  26.183  22.005  1.00  0.00     0.318 C 
ATOM     12  H   UNL A   1      31.150  27.077  21.132  1.00  0.00     0.166 HD
ATOM     13  O   UNL A   1      33.395  26.142  21.004  1.00  0.00    -0.249 OA
BRANCH  11  14
ATOM     14  N   UNL A   1      32.897  25.390  23.084  1.00  0.00    -0.321 N 
ATOM     15  C   UNL A   1      33.903  25.602  24.114  1.00  0.00     0.143 C 
ATOM     16  C   UNL A   1      32.048  24.206  23.335  1.00  0.00     0.148 C 
ATOM     17  C   UNL A   1      34.823  24.387  24.213  1.00  0.00     0.143 C 
ATOM     18  C   UNL A   1      32.938  22.963  23.298  1.00  0.00     0.125 C 
ATOM     19  N   UNL A   1      34.133  23.129  24.104  1.00  0.00    -0.317 N 
ATOM     20  C   UNL A   1      32.388  21.656  23.866  1.00  0.00     0.144 C 
ATOM     21  C   UNL A   1      34.609  21.906  24.537  1.00  0.00     0.317 C 
ATOM     22  N   UNL A   1      33.583  20.993  24.343  1.00  0.00    -0.336 N 
ATOM     23  O   UNL A   1      35.700  21.674  25.012  1.00  0.00    -0.249 OA
ATOM     24  H   UNL A   1      33.658  20.026  24.508  1.00  0.00     0.165 HD
ENDBRANCH  11  14
ENDBRANCH   5  10
ENDBRANCH   3   5
ENDBRANCH   2   3
ENDBRANCH   1   2
BRANCH   1  25
ATOM     25  C   UNL A   1      31.744  30.425  25.813  1.00  0.00     0.275 C 
BRANCH  25  26
ATOM     26  O   UNL A   1      32.346  30.465  27.119  1.00  0.00    -0.458 OA
BRANCH  26  27
ATOM     27  C   UNL A   1      33.088  31.565  27.368  1.00  0.00     0.338 C 
ATOM     28  O   UNL A   1      32.694  32.712  27.515  1.00  0.00    -0.246 OA
BRANCH  27  29
ATOM     29  C   UNL A   1      34.510  31.217  27.533  1.00  0.00     0.060 A 
ATOM     30  C   UNL A   1      34.890  29.882  27.589  1.00  0.00     0.016 A 
ATOM     31  C   UNL A   1      35.413  32.216  27.905  1.00  0.00     0.016 A 
ATOM     32  C   UNL A   1      36.121  29.554  28.163  1.00  0.00     0.010 A 
ATOM     33  C   UNL A   1      36.684  31.876  28.394  1.00  0.00     0.010 A 
ATOM     34  C   UNL A   1      37.032  30.536  28.619  1.00  0.00    -0.014 A 
BRANCH  34  35
ATOM     35  C   UNL A   1      38.245  30.172  29.446  1.00  0.00     0.031 A 
ATOM     36  C   UNL A   1      39.377  29.320  28.875  1.00  0.00     0.074 A 
ATOM     37  C   UNL A   1      38.429  30.675  30.685  1.00  0.00     0.049 A 
ATOM     38  N   UNL A   1      40.364  28.711  29.495  1.00  0.00    -0.248 NA
ATOM     39  C   UNL A   1      39.406  29.124  27.414  1.00  0.00     0.031 C 
ATOM     40  C   UNL A   1      37.546  31.624  31.361  1.00  0.00     0.029 A 
ATOM     41  N   UNL A   1      39.451  30.487  31.588  1.00  0.00    -0.354 N 
ATOM     42  C   UNL A   1      41.081  28.021  28.520  1.00  0.00     0.074 A 
ATOM     43  C   UNL A   1      40.426  28.288  27.258  1.00  0.00     0.031 C 
ATOM     44  C   UNL A   1      38.113  32.018  32.507  1.00  0.00     0.029 A 
ATOM     45  C   UNL A   1      39.293  31.200  32.750  1.00  0.00     0.049 A 
ATOM     46  H   UNL A   1      40.221  29.898  31.417  1.00  0.00     0.167 HD
ATOM     47  C   UNL A   1      42.176  27.232  28.665  1.00  0.00     0.037 A 
ATOM     48  C   UNL A   1      39.949  31.153  33.926  1.00  0.00     0.037 A 
ATOM     49  C   UNL A   1      42.889  27.037  29.906  1.00  0.00     0.049 A 
ATOM     50  C   UNL A   1      41.070  30.173  34.109  1.00  0.00     0.074 A 
ATOM     51  C   UNL A   1      43.992  26.234  30.153  1.00  0.00     0.029 A 
ATOM     52  N   UNL A   1      42.589  27.670  31.102  1.00  0.00    -0.354 N 
ATOM     53  N   UNL A   1      41.632  29.382  33.230  1.00  0.00    -0.248 NA
ATOM     54  C   UNL A   1      41.618  30.046  35.466  1.00  0.00     0.031 C 
ATOM     55  C   UNL A   1      44.318  26.332  31.510  1.00  0.00     0.029 A 
ATOM     56  C   UNL A   1      43.462  27.249  32.095  1.00  0.00     0.049 A 
ATOM     57  H   UNL A   1      41.862  28.322  31.229  1.00  0.00     0.167 HD
ATOM     58  C   UNL A   1      42.602  28.672  33.922  1.00  0.00     0.074 A 
ATOM     59  C   UNL A   1      42.571  29.145  35.289  1.00  0.00     0.031 C 
ATOM     60  C   UNL A   1      43.435  27.709  33.458  1.00  0.00     0.037 A 
BRANCH  47  61
ATOM     61  C   UNL A   1      42.657  26.443  27.475  1.00  0.00     0.064 A 
ATOM     62  C   UNL A   1      43.691  26.881  26.637  1.00  0.00     0.173 A 
ATOM     63  C   UNL A   1      42.127  25.160  27.241  1.00  0.00     0.173 A 
ATOM     64  F   UNL A   1      44.231  28.097  26.808  1.00  0.00    -0.203 F 
ATOM     65  C   UNL A   1      44.169  26.072  25.606  1.00  0.00     0.198 A 
ATOM     66  C   UNL A   1      42.629  24.342  26.230  1.00  0.00     0.198 A 
ATOM     67  F   UNL A   1      41.146  24.681  28.020  1.00  0.00    -0.203 F 
ATOM     68  F   UNL A   1      45.142  26.521  24.800  1.00  0.00    -0.200 F 
ATOM     69  C   UNL A   1      43.648  24.801  25.411  1.00  0.00     0.200 A 
ATOM     70  F   UNL A   1      42.137  23.107  26.062  1.00  0.00    -0.200 F 
ATOM     71  F   UNL A   1      44.127  24.017  24.436  1.00  0.00    -0.200 F 
ENDBRANCH  47  61
BRANCH  48  72
ATOM     72  C   UNL A   1      39.455  31.973  35.067  1.00  0.00     0.064 A 
ATOM     73  C   UNL A   1      38.600  31.440  36.038  1.00  0.00     0.173 A 
ATOM     74  C   UNL A   1      39.852  33.314  35.213  1.00  0.00     0.173 A 
ATOM     75  F   UNL A   1      38.154  30.180  35.921  1.00  0.00    -0.203 F 
ATOM     76  C   UNL A   1      38.169  32.213  37.115  1.00  0.00     0.198 A 
ATOM     77  C   UNL A   1      39.462  34.067  36.315  1.00  0.00     0.198 A 
ATOM     78  F   UNL A   1      40.654  33.884  34.302  1.00  0.00    -0.203 F 
ATOM     79  F   UNL A   1      37.313  31.695  38.007  1.00  0.00    -0.200 F 
ATOM     80  C   UNL A   1      38.615  33.518  37.262  1.00  0.00     0.200 A 
ATOM     81  F   UNL A   1      39.917  35.319  36.462  1.00  0.00    -0.200 F 
ATOM     82  F   UNL A   1      38.221  34.250  38.312  1.00  0.00    -0.200 F 
ENDBRANCH  48  72
BRANCH  60  83
ATOM     83  C   UNL A   1      44.413  27.124  34.436  1.00  0.00     0.064 A 
ATOM     84  C   UNL A   1      45.669  27.706  34.661  1.00  0.00     0.173 A 
ATOM     85  C   UNL A   1      44.090  25.964  35.156  1.00  0.00     0.173 A 
ATOM     86  F   UNL A   1      46.035  28.806  33.986  1.00  0.00    -0.203 F 
ATOM     87  C   UNL A   1      46.580  27.126  35.542  1.00  0.00     0.198 A 
ATOM     88  C   UNL A   1      44.989  25.407  36.061  1.00  0.00     0.198 A 
ATOM     89  F   UNL A   1      42.899  25.369  34.986  1.00  0.00    -0.203 F 
ATOM     90  F   UNL A   1      47.798  27.665  35.692  1.00  0.00    -0.200 F 
ATOM     91  C   UNL A   1      46.238  25.981  36.244  1.00  0.00     0.200 A 
ATOM     92  F   UNL A   1      44.651  24.307  36.749  1.00  0.00    -0.200 F 
ATOM     93  F   UNL A   1      47.116  25.423  37.089  1.00  0.00    -0.200 F 
ENDBRANCH  60  83
ENDBRANCH  34  35
ENDBRANCH  27  29
ENDBRANCH  26  27
ENDBRANCH  25  26
ENDBRANCH   1  25
TORSDOF 16
ENDMDL
