MODEL 1
REMARK VINA RESULT:     -12.6      0.000      0.000
REMARK SMILES O=C(NC1(C(=O)OCCOC(=O)c2ccc(-c3c4nc(c(-c5c(F)c(F)c(F)c(F)c5F)c5ccc([nH]5)c(-c5c(F)c(F)c(F)c(F)c5F)c5nc(c(-c6c(F)c(F)c(F)c(F)c6F)c6ccc3[nH]6)C=C5)C=C4)cc2)CCCCC1)c1c[nH]c(=O)c(Cl)c1
REMARK SMILES IDX 8 1 7 2 5 3 6 4 4 5 76 6 80 7 77 8 79 9 78 10 3 11 1 12 2 13
REMARK SMILES IDX 81 15 82 16 88 17 83 18 86 19 84 20 87 22 85 23 9 24 10 25
REMARK SMILES IDX 11 26 12 27 13 28 14 29 75 30 15 31 74 32 16 33 17 34 18 35
REMARK SMILES IDX 68 36 19 37 73 38 67 39 69 40 20 41 72 42 66 43 65 44 21 46
REMARK SMILES IDX 53 47 33 48 52 49 34 50 37 51 51 52 70 53 35 54 36 55 50 57
REMARK SMILES IDX 71 58 38 59 22 60 23 61 31 62 24 63 25 64 29 65 32 66 26 67
REMARK SMILES IDX 27 68 30 69 28 70 54 71 55 72 63 73 56 74 57 75 61 76 64 77
REMARK SMILES IDX 58 78 59 79 62 80 60 81 39 82 40 83 48 84 41 85 42 86 46 87
REMARK SMILES IDX 49 88 43 89 44 90 47 91 45 92
REMARK H PARENT 3 14 83 21 69 45 37 56
REMARK Flexibility Score: inf
ROOT
ATOM      1  C   UNL A   1      31.780  29.036  26.631  1.00  0.00     0.274 C 
ENDROOT
BRANCH   1   2
ATOM      2  O   UNL A   1      32.028  28.684  25.260  1.00  0.00    -0.460 OA
BRANCH   2   3
ATOM      3  C   UNL A   1      31.475  27.533  24.794  1.00  0.00     0.331 C 
ATOM      4  O   UNL A   1      31.092  26.615  25.510  1.00  0.00    -0.249 OA
BRANCH   3   5
ATOM      5  C   UNL A   1      31.268  27.586  23.255  1.00  0.00     0.138 C 
ATOM      6  C   UNL A   1      31.987  26.380  22.608  1.00  0.00     0.040 C 
ATOM      7  C   UNL A   1      31.891  28.882  22.655  1.00  0.00     0.040 C 
ATOM      8  C   UNL A   1      33.512  26.443  22.754  1.00  0.00     0.003 C 
ATOM      9  C   UNL A   1      33.408  28.969  22.814  1.00  0.00     0.003 C 
ATOM     10  C   UNL A   1      34.099  27.747  22.224  1.00  0.00     0.000 C 
BRANCH   5  11
ATOM     11  N   UNL A   1      29.827  27.584  22.842  1.00  0.00    -0.336 N 
ATOM     12  O   UNL A   1      27.677  27.919  23.254  1.00  0.00    -0.269 OA
ATOM     13  C   UNL A   1      28.782  28.428  23.053  1.00  0.00     0.253 C 
ATOM     14  H   UNL A   1      29.584  26.800  22.298  1.00  0.00     0.165 HD
BRANCH  13  15
ATOM     15  C   UNL A   1      28.891  29.905  22.895  1.00  0.00     0.057 A 
ATOM     16  C   UNL A   1      29.271  30.616  23.972  1.00  0.00     0.099 A 
ATOM     17  C   UNL A   1      28.348  30.622  21.760  1.00  0.00     0.041 A 
ATOM     18  N   UNL A   1      29.235  31.992  23.961  1.00  0.00    -0.327 N 
ATOM     19  C   UNL A   1      28.307  31.963  21.719  1.00  0.00     0.106 A 
ATOM     20  C   UNL A   1      28.797  32.748  22.893  1.00  0.00     0.266 A 
ATOM     21  H   UNL A   1      29.540  32.468  24.767  1.00  0.00     0.169 HD
ATOM     22  Cl  UNL A   1      27.663  32.814  20.371  1.00  0.00    -0.078 Cl
ATOM     23  O   UNL A   1      28.790  33.974  22.935  1.00  0.00    -0.268 OA
ENDBRANCH  13  15
ENDBRANCH   5  11
ENDBRANCH   3   5
ENDBRANCH   2   3
ENDBRANCH   1   2
BRANCH   1  24
ATOM     24  C   UNL A   1      31.796  30.563  26.748  1.00  0.00     0.275 C 
BRANCH  24  25
ATOM     25  O   UNL A   1      33.123  31.062  26.474  1.00  0.00    -0.458 OA
BRANCH  25  26
ATOM     26  C   UNL A   1      33.568  32.035  27.313  1.00  0.00     0.338 C 
ATOM     27  O   UNL A   1      32.970  33.045  27.639  1.00  0.00    -0.246 OA
BRANCH  26  28
ATOM     28  C   UNL A   1      34.841  31.610  27.946  1.00  0.00     0.060 A 
ATOM     29  C   UNL A   1      34.941  30.279  28.373  1.00  0.00     0.016 A 
ATOM     30  C   UNL A   1      35.930  32.474  28.104  1.00  0.00     0.016 A 
ATOM     31  C   UNL A   1      36.117  29.812  28.962  1.00  0.00     0.010 A 
ATOM     32  C   UNL A   1      37.100  32.013  28.723  1.00  0.00     0.010 A 
ATOM     33  C   UNL A   1      37.190  30.686  29.176  1.00  0.00    -0.014 A 
BRANCH  33  34
ATOM     34  C   UNL A   1      38.316  30.256  30.042  1.00  0.00     0.031 A 
ATOM     35  C   UNL A   1      39.302  29.262  29.491  1.00  0.00     0.074 A 
ATOM     36  C   UNL A   1      38.491  30.753  31.278  1.00  0.00     0.049 A 
ATOM     37  N   UNL A   1      40.383  28.769  30.040  1.00  0.00    -0.248 NA
ATOM     38  C   UNL A   1      39.038  28.768  28.130  1.00  0.00     0.031 C 
ATOM     39  C   UNL A   1      37.649  31.760  31.916  1.00  0.00     0.029 A 
ATOM     40  N   UNL A   1      39.450  30.466  32.220  1.00  0.00    -0.354 N 
ATOM     41  C   UNL A   1      40.944  27.937  29.083  1.00  0.00     0.074 A 
ATOM     42  C   UNL A   1      40.068  27.962  27.930  1.00  0.00     0.031 C 
ATOM     43  C   UNL A   1      38.116  31.993  33.157  1.00  0.00     0.029 A 
ATOM     44  C   UNL A   1      39.281  31.142  33.402  1.00  0.00     0.049 A 
ATOM     45  H   UNL A   1      40.188  29.835  32.062  1.00  0.00     0.167 HD
ATOM     46  C   UNL A   1      42.089  27.219  29.149  1.00  0.00     0.037 A 
ATOM     47  C   UNL A   1      39.981  31.070  34.552  1.00  0.00     0.037 A 
ATOM     48  C   UNL A   1      42.941  27.143  30.304  1.00  0.00     0.049 A 
ATOM     49  C   UNL A   1      41.180  30.158  34.646  1.00  0.00     0.074 A 
ATOM     50  C   UNL A   1      44.113  26.424  30.465  1.00  0.00     0.029 A 
ATOM     51  N   UNL A   1      42.698  27.790  31.505  1.00  0.00    -0.354 N 
ATOM     52  N   UNL A   1      41.730  29.411  33.721  1.00  0.00    -0.248 NA
ATOM     53  C   UNL A   1      41.855  30.083  35.952  1.00  0.00     0.031 C 
ATOM     54  C   UNL A   1      44.554  26.599  31.782  1.00  0.00     0.029 A 
ATOM     55  C   UNL A   1      43.680  27.461  32.424  1.00  0.00     0.049 A 
ATOM     56  H   UNL A   1      41.940  28.393  31.678  1.00  0.00     0.167 HD
ATOM     57  C   UNL A   1      42.831  28.807  34.319  1.00  0.00     0.074 A 
ATOM     58  C   UNL A   1      42.874  29.277  35.687  1.00  0.00     0.031 C 
ATOM     59  C   UNL A   1      43.725  27.943  33.780  1.00  0.00     0.037 A 
BRANCH  46  60
ATOM     60  C   UNL A   1      42.469  26.433  27.933  1.00  0.00     0.064 A 
ATOM     61  C   UNL A   1      43.352  26.953  26.977  1.00  0.00     0.173 A 
ATOM     62  C   UNL A   1      41.957  25.144  27.730  1.00  0.00     0.173 A 
ATOM     63  F   UNL A   1      43.852  28.190  27.122  1.00  0.00    -0.203 F 
ATOM     64  C   UNL A   1      43.695  26.217  25.848  1.00  0.00     0.198 A 
ATOM     65  C   UNL A   1      42.317  24.403  26.609  1.00  0.00     0.198 A 
ATOM     66  F   UNL A   1      41.106  24.607  28.617  1.00  0.00    -0.203 F 
ATOM     67  F   UNL A   1      44.510  26.747  24.925  1.00  0.00    -0.200 F 
ATOM     68  C   UNL A   1      43.181  24.941  25.667  1.00  0.00     0.200 A 
ATOM     69  F   UNL A   1      41.823  23.169  26.436  1.00  0.00    -0.200 F 
ATOM     70  F   UNL A   1      43.511  24.233  24.579  1.00  0.00    -0.200 F 
ENDBRANCH  46  60
BRANCH  47  71
ATOM     71  C   UNL A   1      39.566  31.872  35.732  1.00  0.00     0.064 A 
ATOM     72  C   UNL A   1      38.561  31.419  36.599  1.00  0.00     0.173 A 
ATOM     73  C   UNL A   1      40.125  33.134  35.979  1.00  0.00     0.173 A 
ATOM     74  F   UNL A   1      37.973  30.235  36.381  1.00  0.00    -0.203 F 
ATOM     75  C   UNL A   1      38.117  32.209  37.657  1.00  0.00     0.198 A 
ATOM     76  C   UNL A   1      39.696  33.912  37.052  1.00  0.00     0.198 A 
ATOM     77  F   UNL A   1      41.079  33.617  35.171  1.00  0.00    -0.203 F 
ATOM     78  F   UNL A   1      37.118  31.777  38.439  1.00  0.00    -0.200 F 
ATOM     79  C   UNL A   1      38.686  33.453  37.884  1.00  0.00     0.200 A 
ATOM     80  F   UNL A   1      40.248  35.114  37.269  1.00  0.00    -0.200 F 
ATOM     81  F   UNL A   1      38.251  34.216  38.896  1.00  0.00    -0.200 F 
ENDBRANCH  47  71
BRANCH  59  82
ATOM     82  C   UNL A   1      44.851  27.470  34.652  1.00  0.00     0.064 A 
ATOM     83  C   UNL A   1      44.757  26.285  35.397  1.00  0.00     0.173 A 
ATOM     84  C   UNL A   1      46.061  28.180  34.697  1.00  0.00     0.173 A 
ATOM     85  F   UNL A   1      43.618  25.578  35.398  1.00  0.00    -0.203 F 
ATOM     86  C   UNL A   1      45.828  25.838  36.167  1.00  0.00     0.198 A 
ATOM     87  C   UNL A   1      47.138  27.716  35.448  1.00  0.00     0.198 A 
ATOM     88  F   UNL A   1      46.204  29.316  33.997  1.00  0.00    -0.203 F 
ATOM     89  F   UNL A   1      45.705  24.721  36.898  1.00  0.00    -0.200 F 
ATOM     90  C   UNL A   1      47.020  26.549  36.186  1.00  0.00     0.200 A 
ATOM     91  F   UNL A   1      48.292  28.398  35.453  1.00  0.00    -0.200 F 
ATOM     92  F   UNL A   1      48.052  26.110  36.918  1.00  0.00    -0.200 F 
ENDBRANCH  59  82
ENDBRANCH  33  34
ENDBRANCH  26  28
ENDBRANCH  25  26
ENDBRANCH  24  25
ENDBRANCH   1  24
TORSDOF 13
ENDMDL
MODEL 2
REMARK VINA RESULT:     -12.5      2.526      4.281
REMARK SMILES O=C(NC1(C(=O)OCCOC(=O)c2ccc(-c3c4nc(c(-c5c(F)c(F)c(F)c(F)c5F)c5ccc([nH]5)c(-c5c(F)c(F)c(F)c(F)c5F)c5nc(c(-c6c(F)c(F)c(F)c(F)c6F)c6ccc3[nH]6)C=C5)C=C4)cc2)CCCCC1)c1c[nH]c(=O)c(Cl)c1
REMARK SMILES IDX 8 1 7 2 5 3 6 4 4 5 76 6 80 7 77 8 79 9 78 10 3 11 1 12 2 13
REMARK SMILES IDX 81 15 82 16 88 17 83 18 86 19 84 20 87 22 85 23 9 24 10 25
REMARK SMILES IDX 11 26 12 27 13 28 14 29 75 30 15 31 74 32 16 33 17 34 18 35
REMARK SMILES IDX 68 36 19 37 73 38 67 39 69 40 20 41 72 42 66 43 65 44 21 46
REMARK SMILES IDX 53 47 33 48 52 49 34 50 37 51 51 52 70 53 35 54 36 55 50 57
REMARK SMILES IDX 71 58 38 59 22 60 23 61 31 62 24 63 25 64 29 65 32 66 26 67
REMARK SMILES IDX 27 68 30 69 28 70 54 71 55 72 63 73 56 74 57 75 61 76 64 77
REMARK SMILES IDX 58 78 59 79 62 80 60 81 39 82 40 83 48 84 41 85 42 86 46 87
REMARK SMILES IDX 49 88 43 89 44 90 47 91 45 92
REMARK H PARENT 3 14 83 21 69 45 37 56
REMARK Flexibility Score: inf
ROOT
ATOM      1  C   UNL A   1      31.161  29.611  24.713  1.00  0.00     0.274 C 
ENDROOT
BRANCH   1   2
ATOM      2  O   UNL A   1      31.432  28.332  25.310  1.00  0.00    -0.460 OA
BRANCH   2   3
ATOM      3  C   UNL A   1      30.954  27.228  24.680  1.00  0.00     0.331 C 
ATOM      4  O   UNL A   1      29.906  27.198  24.043  1.00  0.00    -0.249 OA
BRANCH   3   5
ATOM      5  C   UNL A   1      31.964  26.049  24.755  1.00  0.00     0.138 C 
ATOM      6  C   UNL A   1      33.385  26.585  24.463  1.00  0.00     0.040 C 
ATOM      7  C   UNL A   1      31.639  24.970  23.678  1.00  0.00     0.040 C 
ATOM      8  C   UNL A   1      33.551  27.093  23.026  1.00  0.00     0.003 C 
ATOM      9  C   UNL A   1      31.778  25.469  22.241  1.00  0.00     0.003 C 
ATOM     10  C   UNL A   1      33.163  26.047  21.986  1.00  0.00     0.000 C 
BRANCH   5  11
ATOM     11  N   UNL A   1      31.964  25.338  26.074  1.00  0.00    -0.336 N 
ATOM     12  O   UNL A   1      31.479  23.595  27.352  1.00  0.00    -0.269 OA
ATOM     13  C   UNL A   1      32.191  24.053  26.454  1.00  0.00     0.253 C 
ATOM     14  H   UNL A   1      31.751  25.931  26.831  1.00  0.00     0.165 HD
BRANCH  13  15
ATOM     15  C   UNL A   1      33.343  23.253  25.953  1.00  0.00     0.057 A 
ATOM     16  C   UNL A   1      33.088  22.002  25.526  1.00  0.00     0.099 A 
ATOM     17  C   UNL A   1      34.724  23.635  26.162  1.00  0.00     0.041 A 
ATOM     18  N   UNL A   1      34.112  21.140  25.206  1.00  0.00    -0.327 N 
ATOM     19  C   UNL A   1      35.742  22.818  25.853  1.00  0.00     0.106 A 
ATOM     20  C   UNL A   1      35.452  21.455  25.313  1.00  0.00     0.266 A 
ATOM     21  H   UNL A   1      33.875  20.242  24.881  1.00  0.00     0.169 HD
ATOM     22  Cl  UNL A   1      37.381  23.272  26.102  1.00  0.00    -0.078 Cl
ATOM     23  O   UNL A   1      36.326  20.649  25.009  1.00  0.00    -0.268 OA
ENDBRANCH  13  15
ENDBRANCH   5  11
ENDBRANCH   3   5
ENDBRANCH   2   3
ENDBRANCH   1   2
BRANCH   1  24
ATOM     24  C   UNL A   1      31.388  30.695  25.771  1.00  0.00     0.275 C 
BRANCH  24  25
ATOM     25  O   UNL A   1      32.716  30.569  26.326  1.00  0.00    -0.458 OA
BRANCH  25  26
ATOM     26  C   UNL A   1      33.159  31.640  27.034  1.00  0.00     0.338 C 
ATOM     27  O   UNL A   1      32.558  32.680  27.237  1.00  0.00    -0.246 OA
BRANCH  26  28
ATOM     28  C   UNL A   1      34.440  31.305  27.705  1.00  0.00     0.060 A 
ATOM     29  C   UNL A   1      34.674  29.960  28.018  1.00  0.00     0.016 A 
ATOM     30  C   UNL A   1      35.409  32.268  28.006  1.00  0.00     0.016 A 
ATOM     31  C   UNL A   1      35.865  29.575  28.637  1.00  0.00     0.010 A 
ATOM     32  C   UNL A   1      36.591  31.885  28.654  1.00  0.00     0.010 A 
ATOM     33  C   UNL A   1      36.814  30.540  28.994  1.00  0.00    -0.014 A 
BRANCH  33  34
ATOM     34  C   UNL A   1      37.937  30.160  29.887  1.00  0.00     0.031 A 
ATOM     35  C   UNL A   1      38.962  29.188  29.372  1.00  0.00     0.074 A 
ATOM     36  C   UNL A   1      38.075  30.684  31.116  1.00  0.00     0.049 A 
ATOM     37  N   UNL A   1      40.048  28.738  29.949  1.00  0.00    -0.248 NA
ATOM     38  C   UNL A   1      38.738  28.662  28.015  1.00  0.00     0.031 C 
ATOM     39  C   UNL A   1      37.191  31.676  31.721  1.00  0.00     0.029 A 
ATOM     40  N   UNL A   1      39.024  30.443  32.080  1.00  0.00    -0.354 N 
ATOM     41  C   UNL A   1      40.651  27.906  29.017  1.00  0.00     0.074 A 
ATOM     42  C   UNL A   1      39.796  27.884  27.848  1.00  0.00     0.031 C 
ATOM     43  C   UNL A   1      37.628  31.945  32.966  1.00  0.00     0.029 A 
ATOM     44  C   UNL A   1      38.814  31.135  33.247  1.00  0.00     0.049 A 
ATOM     45  H   UNL A   1      39.784  29.833  31.947  1.00  0.00     0.167 HD
ATOM     46  C   UNL A   1      41.817  27.225  29.117  1.00  0.00     0.037 A 
ATOM     47  C   UNL A   1      39.494  31.105  34.410  1.00  0.00     0.037 A 
ATOM     48  C   UNL A   1      42.649  27.196  30.287  1.00  0.00     0.049 A 
ATOM     49  C   UNL A   1      40.718  30.232  34.542  1.00  0.00     0.074 A 
ATOM     50  C   UNL A   1      43.839  26.516  30.483  1.00  0.00     0.029 A 
ATOM     51  N   UNL A   1      42.364  27.856  31.471  1.00  0.00    -0.354 N 
ATOM     52  N   UNL A   1      41.308  29.486  33.640  1.00  0.00    -0.248 NA
ATOM     53  C   UNL A   1      41.371  30.201  35.861  1.00  0.00     0.031 C 
ATOM     54  C   UNL A   1      44.251  26.728  31.804  1.00  0.00     0.029 A 
ATOM     55  C   UNL A   1      43.340  27.574  32.414  1.00  0.00     0.049 A 
ATOM     56  H   UNL A   1      41.586  28.439  31.621  1.00  0.00     0.167 HD
ATOM     57  C   UNL A   1      42.415  28.927  34.269  1.00  0.00     0.074 A 
ATOM     58  C   UNL A   1      42.420  29.422  35.629  1.00  0.00     0.031 C 
ATOM     59  C   UNL A   1      43.345  28.081  33.762  1.00  0.00     0.037 A 
BRANCH  46  60
ATOM     60  C   UNL A   1      42.242  26.430  27.922  1.00  0.00     0.064 A 
ATOM     61  C   UNL A   1      41.777  25.123  27.715  1.00  0.00     0.173 A 
ATOM     62  C   UNL A   1      43.109  26.983  26.970  1.00  0.00     0.173 A 
ATOM     63  F   UNL A   1      40.960  24.548  28.611  1.00  0.00    -0.203 F 
ATOM     64  C   UNL A   1      42.182  24.390  26.605  1.00  0.00     0.198 A 
ATOM     65  C   UNL A   1      43.496  26.254  25.850  1.00  0.00     0.198 A 
ATOM     66  F   UNL A   1      43.581  28.228  27.128  1.00  0.00    -0.203 F 
ATOM     67  F   UNL A   1      41.758  23.129  26.445  1.00  0.00    -0.200 F 
ATOM     68  C   UNL A   1      43.038  24.957  25.671  1.00  0.00     0.200 A 
ATOM     69  F   UNL A   1      44.320  26.802  24.947  1.00  0.00    -0.200 F 
ATOM     70  F   UNL A   1      43.427  24.250  24.602  1.00  0.00    -0.200 F 
ENDBRANCH  46  60
BRANCH  47  71
ATOM     71  C   UNL A   1      39.033  31.915  35.567  1.00  0.00     0.064 A 
ATOM     72  C   UNL A   1      39.442  33.246  35.729  1.00  0.00     0.173 A 
ATOM     73  C   UNL A   1      38.224  31.352  36.565  1.00  0.00     0.173 A 
ATOM     74  F   UNL A   1      40.245  33.815  34.819  1.00  0.00    -0.203 F 
ATOM     75  C   UNL A   1      39.075  33.977  36.856  1.00  0.00     0.198 A 
ATOM     76  C   UNL A   1      37.838  32.092  37.680  1.00  0.00     0.198 A 
ATOM     77  F   UNL A   1      37.818  30.078  36.462  1.00  0.00    -0.203 F 
ATOM     78  F   UNL A   1      39.522  35.231  37.015  1.00  0.00    -0.200 F 
ATOM     79  C   UNL A   1      38.271  33.401  37.830  1.00  0.00     0.200 A 
ATOM     80  F   UNL A   1      37.062  31.533  38.618  1.00  0.00    -0.200 F 
ATOM     81  F   UNL A   1      37.928  34.102  38.919  1.00  0.00    -0.200 F 
ENDBRANCH  47  71
BRANCH  59  82
ATOM     82  C   UNL A   1      44.469  27.659  34.662  1.00  0.00     0.064 A 
ATOM     83  C   UNL A   1      44.393  26.491  35.436  1.00  0.00     0.173 A 
ATOM     84  C   UNL A   1      45.660  28.400  34.706  1.00  0.00     0.173 A 
ATOM     85  F   UNL A   1      43.271  25.756  35.438  1.00  0.00    -0.203 F 
ATOM     86  C   UNL A   1      45.462  26.090  36.232  1.00  0.00     0.198 A 
ATOM     87  C   UNL A   1      46.736  27.982  35.484  1.00  0.00     0.198 A 
ATOM     88  F   UNL A   1      45.786  29.521  33.979  1.00  0.00    -0.203 F 
ATOM     89  F   UNL A   1      45.356  24.989  36.990  1.00  0.00    -0.200 F 
ATOM     90  C   UNL A   1      46.636  26.831  36.250  1.00  0.00     0.200 A 
ATOM     91  F   UNL A   1      47.873  28.691  35.489  1.00  0.00    -0.200 F 
ATOM     92  F   UNL A   1      47.667  26.436  37.009  1.00  0.00    -0.200 F 
ENDBRANCH  59  82
ENDBRANCH  33  34
ENDBRANCH  26  28
ENDBRANCH  25  26
ENDBRANCH  24  25
ENDBRANCH   1  24
TORSDOF 13
ENDMDL
MODEL 3
REMARK VINA RESULT:     -12.5      1.430      2.581
REMARK SMILES O=C(NC1(C(=O)OCCOC(=O)c2ccc(-c3c4nc(c(-c5c(F)c(F)c(F)c(F)c5F)c5ccc([nH]5)c(-c5c(F)c(F)c(F)c(F)c5F)c5nc(c(-c6c(F)c(F)c(F)c(F)c6F)c6ccc3[nH]6)C=C5)C=C4)cc2)CCCCC1)c1c[nH]c(=O)c(Cl)c1
REMARK SMILES IDX 8 1 7 2 5 3 6 4 4 5 76 6 80 7 77 8 79 9 78 10 3 11 1 12 2 13
REMARK SMILES IDX 81 15 82 16 88 17 83 18 86 19 84 20 87 22 85 23 9 24 10 25
REMARK SMILES IDX 11 26 12 27 13 28 14 29 75 30 15 31 74 32 16 33 17 34 18 35
REMARK SMILES IDX 68 36 19 37 73 38 67 39 69 40 20 41 72 42 66 43 65 44 21 46
REMARK SMILES IDX 53 47 33 48 52 49 34 50 37 51 51 52 70 53 35 54 36 55 50 57
REMARK SMILES IDX 71 58 38 59 22 60 23 61 31 62 24 63 25 64 29 65 32 66 26 67
REMARK SMILES IDX 27 68 30 69 28 70 54 71 55 72 63 73 56 74 57 75 61 76 64 77
REMARK SMILES IDX 58 78 59 79 62 80 60 81 39 82 40 83 48 84 41 85 42 86 46 87
REMARK SMILES IDX 49 88 43 89 44 90 47 91 45 92
REMARK H PARENT 3 14 83 21 69 45 37 56
REMARK Flexibility Score: inf
ROOT
ATOM      1  C   UNL A   1      31.627  28.436  26.742  1.00  0.00     0.274 C 
ENDROOT
BRANCH   1   2
ATOM      2  O   UNL A   1      32.174  27.254  26.135  1.00  0.00    -0.460 OA
BRANCH   2   3
ATOM      3  C   UNL A   1      31.365  26.168  26.025  1.00  0.00     0.331 C 
ATOM      4  O   UNL A   1      30.291  26.050  26.603  1.00  0.00    -0.249 OA
BRANCH   3   5
ATOM      5  C   UNL A   1      31.908  25.160  24.975  1.00  0.00     0.138 C 
ATOM      6  C   UNL A   1      30.915  23.983  24.845  1.00  0.00     0.040 C 
ATOM      7  C   UNL A   1      33.278  24.570  25.428  1.00  0.00     0.040 C 
ATOM      8  C   UNL A   1      30.818  23.137  26.120  1.00  0.00     0.003 C 
ATOM      9  C   UNL A   1      33.201  23.744  26.710  1.00  0.00     0.003 C 
ATOM     10  C   UNL A   1      32.177  22.624  26.588  1.00  0.00     0.000 C 
BRANCH   5  11
ATOM     11  N   UNL A   1      32.139  25.764  23.623  1.00  0.00    -0.336 N 
ATOM     12  O   UNL A   1      31.630  26.010  21.481  1.00  0.00    -0.269 OA
ATOM     13  C   UNL A   1      31.320  26.247  22.651  1.00  0.00     0.253 C 
ATOM     14  H   UNL A   1      33.093  25.824  23.386  1.00  0.00     0.165 HD
BRANCH  13  15
ATOM     15  C   UNL A   1      30.182  27.164  22.936  1.00  0.00     0.057 A 
ATOM     16  C   UNL A   1      29.045  26.613  23.402  1.00  0.00     0.099 A 
ATOM     17  C   UNL A   1      30.137  28.538  22.480  1.00  0.00     0.041 A 
ATOM     18  N   UNL A   1      27.897  27.361  23.531  1.00  0.00    -0.327 N 
ATOM     19  C   UNL A   1      29.034  29.292  22.600  1.00  0.00     0.106 A 
ATOM     20  C   UNL A   1      27.795  28.693  23.184  1.00  0.00     0.266 A 
ATOM     21  H   UNL A   1      27.096  26.918  23.893  1.00  0.00     0.169 HD
ATOM     22  Cl  UNL A   1      28.983  30.923  22.060  1.00  0.00    -0.078 Cl
ATOM     23  O   UNL A   1      26.746  29.314  23.325  1.00  0.00    -0.268 OA
ENDBRANCH  13  15
ENDBRANCH   5  11
ENDBRANCH   3   5
ENDBRANCH   2   3
ENDBRANCH   1   2
BRANCH   1  24
ATOM     24  C   UNL A   1      31.778  29.598  25.756  1.00  0.00     0.275 C 
BRANCH  24  25
ATOM     25  O   UNL A   1      33.108  30.153  25.853  1.00  0.00    -0.458 OA
BRANCH  25  26
ATOM     26  C   UNL A   1      33.283  31.090  26.822  1.00  0.00     0.338 C 
ATOM     27  O   UNL A   1      32.465  31.909  27.200  1.00  0.00    -0.246 OA
BRANCH  26  28
ATOM     28  C   UNL A   1      34.578  30.864  27.512  1.00  0.00     0.060 A 
ATOM     29  C   UNL A   1      34.962  29.539  27.752  1.00  0.00     0.016 A 
ATOM     30  C   UNL A   1      35.419  31.913  27.898  1.00  0.00     0.016 A 
ATOM     31  C   UNL A   1      36.176  29.257  28.382  1.00  0.00     0.010 A 
ATOM     32  C   UNL A   1      36.623  31.631  28.559  1.00  0.00     0.010 A 
ATOM     33  C   UNL A   1      36.995  30.303  28.825  1.00  0.00    -0.014 A 
BRANCH  33  34
ATOM     34  C   UNL A   1      38.134  30.001  29.728  1.00  0.00     0.031 A 
ATOM     35  C   UNL A   1      39.197  29.053  29.245  1.00  0.00     0.074 A 
ATOM     36  C   UNL A   1      38.251  30.574  30.937  1.00  0.00     0.049 A 
ATOM     37  N   UNL A   1      40.301  28.669  29.835  1.00  0.00    -0.248 NA
ATOM     38  C   UNL A   1      38.994  28.471  27.909  1.00  0.00     0.031 C 
ATOM     39  C   UNL A   1      37.329  31.550  31.509  1.00  0.00     0.029 A 
ATOM     40  N   UNL A   1      39.211  30.407  31.907  1.00  0.00    -0.354 N 
ATOM     41  C   UNL A   1      40.937  27.830  28.932  1.00  0.00     0.074 A 
ATOM     42  C   UNL A   1      40.082  27.731  27.767  1.00  0.00     0.031 C 
ATOM     43  C   UNL A   1      37.756  31.881  32.742  1.00  0.00     0.029 A 
ATOM     44  C   UNL A   1      38.974  31.131  33.048  1.00  0.00     0.049 A 
ATOM     45  H   UNL A   1      39.996  29.823  31.793  1.00  0.00     0.167 HD
ATOM     46  C   UNL A   1      42.129  27.201  29.053  1.00  0.00     0.037 A 
ATOM     47  C   UNL A   1      39.657  31.170  34.210  1.00  0.00     0.037 A 
ATOM     48  C   UNL A   1      42.964  27.248  30.221  1.00  0.00     0.049 A 
ATOM     49  C   UNL A   1      40.915  30.353  34.370  1.00  0.00     0.074 A 
ATOM     50  C   UNL A   1      44.180  26.625  30.438  1.00  0.00     0.029 A 
ATOM     51  N   UNL A   1      42.653  27.938  31.382  1.00  0.00    -0.354 N 
ATOM     52  N   UNL A   1      41.534  29.600  33.494  1.00  0.00    -0.248 NA
ATOM     53  C   UNL A   1      41.571  30.396  35.687  1.00  0.00     0.031 C 
ATOM     54  C   UNL A   1      44.585  26.900  31.749  1.00  0.00     0.029 A 
ATOM     55  C   UNL A   1      43.641  27.730  32.332  1.00  0.00     0.049 A 
ATOM     56  H   UNL A   1      41.852  28.494  31.512  1.00  0.00     0.167 HD
ATOM     57  C   UNL A   1      42.664  29.110  34.139  1.00  0.00     0.074 A 
ATOM     58  C   UNL A   1      42.650  29.653  35.480  1.00  0.00     0.031 C 
ATOM     59  C   UNL A   1      43.627  28.284  33.660  1.00  0.00     0.037 A 
BRANCH  46  60
ATOM     60  C   UNL A   1      42.585  26.381  27.886  1.00  0.00     0.064 A 
ATOM     61  C   UNL A   1      43.435  26.917  26.908  1.00  0.00     0.173 A 
ATOM     62  C   UNL A   1      42.181  25.046  27.753  1.00  0.00     0.173 A 
ATOM     63  F   UNL A   1      43.832  28.197  26.987  1.00  0.00    -0.203 F 
ATOM     64  C   UNL A   1      43.849  26.149  25.826  1.00  0.00     0.198 A 
ATOM     65  C   UNL A   1      42.614  24.275  26.679  1.00  0.00     0.198 A 
ATOM     66  F   UNL A   1      41.366  24.493  28.663  1.00  0.00    -0.203 F 
ATOM     67  F   UNL A   1      44.630  26.691  24.880  1.00  0.00    -0.200 F 
ATOM     68  C   UNL A   1      43.442  24.827  25.714  1.00  0.00     0.200 A 
ATOM     69  F   UNL A   1      42.222  22.997  26.573  1.00  0.00    -0.200 F 
ATOM     70  F   UNL A   1      43.841  24.088  24.670  1.00  0.00    -0.200 F 
ENDBRANCH  46  60
BRANCH  47  71
ATOM     71  C   UNL A   1      39.164  32.001  35.339  1.00  0.00     0.064 A 
ATOM     72  C   UNL A   1      39.528  33.350  35.459  1.00  0.00     0.173 A 
ATOM     73  C   UNL A   1      38.370  31.444  36.352  1.00  0.00     0.173 A 
ATOM     74  F   UNL A   1      40.315  33.915  34.533  1.00  0.00    -0.203 F 
ATOM     75  C   UNL A   1      39.132  34.104  36.560  1.00  0.00     0.198 A 
ATOM     76  C   UNL A   1      37.955  32.207  37.441  1.00  0.00     0.198 A 
ATOM     77  F   UNL A   1      38.007  30.156  36.290  1.00  0.00    -0.203 F 
ATOM     78  F   UNL A   1      39.538  35.377  36.679  1.00  0.00    -0.200 F 
ATOM     79  C   UNL A   1      38.344  33.534  37.549  1.00  0.00     0.200 A 
ATOM     80  F   UNL A   1      37.193  31.653  38.394  1.00  0.00    -0.200 F 
ATOM     81  F   UNL A   1      37.973  34.258  38.614  1.00  0.00    -0.200 F 
ENDBRANCH  47  71
BRANCH  59  82
ATOM     82  C   UNL A   1      44.768  27.941  34.572  1.00  0.00     0.064 A 
ATOM     83  C   UNL A   1      45.909  28.753  34.661  1.00  0.00     0.173 A 
ATOM     84  C   UNL A   1      44.694  26.818  35.411  1.00  0.00     0.173 A 
ATOM     85  F   UNL A   1      46.033  29.830  33.871  1.00  0.00    -0.203 F 
ATOM     86  C   UNL A   1      46.939  28.443  35.545  1.00  0.00     0.198 A 
ATOM     87  C   UNL A   1      45.715  26.527  36.311  1.00  0.00     0.198 A 
ATOM     88  F   UNL A   1      43.621  26.013  35.369  1.00  0.00    -0.203 F 
ATOM     89  F   UNL A   1      48.036  29.214  35.590  1.00  0.00    -0.200 F 
ATOM     90  C   UNL A   1      46.839  27.336  36.375  1.00  0.00     0.200 A 
ATOM     91  F   UNL A   1      45.609  25.464  37.121  1.00  0.00    -0.200 F 
ATOM     92  F   UNL A   1      47.827  27.047  37.232  1.00  0.00    -0.200 F 
ENDBRANCH  59  82
ENDBRANCH  33  34
ENDBRANCH  26  28
ENDBRANCH  25  26
ENDBRANCH  24  25
ENDBRANCH   1  24
TORSDOF 13
ENDMDL
