MODEL 1
REMARK VINA RESULT:     -10.3      0.000      0.000
REMARK SMILES CSCC[C@@H]([NH2+]Cc1cccnc1)C(=O)OCCOC(=O)c1ccc(-c2c3nc(c(-c4c(F)c(F)c(F)c(F)c4F)c4ccc([nH]4)c(-c4c(F)c(F)c(F)c(F)c4F)c4nc(c(-c5c(F)c(F)c(F)c(F)c5F)c5ccc2[nH]5)C=C4)C=C3)cc1
REMARK SMILES IDX 17 1 16 2 14 3 15 4 5 5 4 6 3 7 2 8 1 9 6 10 7 13 8 14 9 15
REMARK SMILES IDX 13 16 10 17 12 18 11 19 18 20 19 21 20 22 21 23 22 24 23 25
REMARK SMILES IDX 84 26 24 27 83 28 25 29 26 30 27 31 77 32 28 33 82 34 76 35
REMARK SMILES IDX 78 36 29 37 81 38 75 39 74 40 30 42 62 43 42 44 61 45 43 46
REMARK SMILES IDX 46 47 60 48 79 49 44 50 45 51 59 53 80 54 47 55 31 56 32 57
REMARK SMILES IDX 40 58 33 59 34 60 38 61 41 62 35 63 36 64 39 65 37 66 63 67
REMARK SMILES IDX 64 68 72 69 65 70 66 71 70 72 73 73 67 74 68 75 71 76 69 77
REMARK SMILES IDX 48 78 49 79 57 80 50 81 51 82 55 83 58 84 52 85 53 86 56 87
REMARK SMILES IDX 54 88
REMARK H PARENT 6 11 6 12 78 41 46 52
REMARK Flexibility Score: inf
ROOT
ATOM      1  C   UNL A   1      35.940  20.375  24.985  1.00  0.00     0.274 C 
ENDROOT
BRANCH   1   2
ATOM      2  O   UNL A   1      35.412  21.612  25.501  1.00  0.00    -0.458 OA
BRANCH   2   3
ATOM      3  C   UNL A   1      34.200  21.526  26.114  1.00  0.00     0.364 C 
ATOM      4  O   UNL A   1      34.043  21.113  27.260  1.00  0.00    -0.245 OA
BRANCH   3   5
ATOM      5  C   UNL A   1      33.026  22.012  25.234  1.00  0.00     0.294 C 
BRANCH   5   6
ATOM      6  C   UNL A   1      33.485  22.725  23.948  1.00  0.00     0.088 C 
BRANCH   6   7
ATOM      7  C   UNL A   1      33.244  24.240  23.930  1.00  0.00     0.076 C 
BRANCH   7   8
ATOM      8  S   UNL A   1      32.939  24.905  22.253  1.00  0.00    -0.165 SA
ATOM      9  C   UNL A   1      31.388  25.800  22.520  1.00  0.00     0.085 C 
ENDBRANCH   7   8
ENDBRANCH   6   7
ENDBRANCH   5   6
BRANCH   5  10
ATOM     10  N   UNL A   1      32.074  20.917  24.913  1.00  0.00    -0.331 N 
ATOM     11  H   UNL A   1      31.176  21.338  24.675  1.00  0.00     0.347 HD
ATOM     12  H   UNL A   1      32.035  20.321  25.740  1.00  0.00     0.347 HD
BRANCH  10  13
ATOM     13  C   UNL A   1      32.480  20.048  23.798  1.00  0.00     0.299 C 
BRANCH  13  14
ATOM     14  C   UNL A   1      32.823  18.629  24.172  1.00  0.00     0.024 A 
ATOM     15  C   UNL A   1      33.354  17.743  23.228  1.00  0.00     0.013 A 
ATOM     16  C   UNL A   1      32.628  18.137  25.457  1.00  0.00     0.120 A 
ATOM     17  C   UNL A   1      33.686  16.444  23.599  1.00  0.00     0.021 A 
ATOM     18  N   UNL A   1      32.959  16.886  25.854  1.00  0.00    -0.264 NA
ATOM     19  C   UNL A   1      33.478  16.067  24.914  1.00  0.00     0.111 A 
ENDBRANCH  13  14
ENDBRANCH  10  13
ENDBRANCH   5  10
ENDBRANCH   3   5
ENDBRANCH   2   3
ENDBRANCH   1   2
BRANCH   1  20
ATOM     20  C   UNL A   1      37.472  20.346  25.008  1.00  0.00     0.275 C 
BRANCH  20  21
ATOM     21  O   UNL A   1      38.027  21.391  25.831  1.00  0.00    -0.458 OA
BRANCH  21  22
ATOM     22  C   UNL A   1      39.292  21.172  26.255  1.00  0.00     0.338 C 
ATOM     23  O   UNL A   1      39.934  20.137  26.159  1.00  0.00    -0.246 OA
BRANCH  22  24
ATOM     24  C   UNL A   1      39.882  22.421  26.757  1.00  0.00     0.060 A 
ATOM     25  C   UNL A   1      39.462  23.618  26.176  1.00  0.00     0.016 A 
ATOM     26  C   UNL A   1      40.908  22.419  27.702  1.00  0.00     0.016 A 
ATOM     27  C   UNL A   1      40.061  24.824  26.524  1.00  0.00     0.010 A 
ATOM     28  C   UNL A   1      41.516  23.631  28.053  1.00  0.00     0.010 A 
ATOM     29  C   UNL A   1      41.104  24.837  27.457  1.00  0.00    -0.014 A 
BRANCH  29  30
ATOM     30  C   UNL A   1      41.800  26.109  27.757  1.00  0.00     0.031 A 
ATOM     31  C   UNL A   1      41.105  27.165  28.565  1.00  0.00     0.074 A 
ATOM     32  C   UNL A   1      43.061  26.304  27.330  1.00  0.00     0.049 A 
ATOM     33  N   UNL A   1      41.486  28.387  28.833  1.00  0.00    -0.248 NA
ATOM     34  C   UNL A   1      39.808  26.794  29.151  1.00  0.00     0.031 C 
ATOM     35  C   UNL A   1      43.861  25.328  26.594  1.00  0.00     0.029 A 
ATOM     36  N   UNL A   1      43.885  27.394  27.451  1.00  0.00    -0.354 N 
ATOM     37  C   UNL A   1      40.465  28.943  29.593  1.00  0.00     0.074 A 
ATOM     38  C   UNL A   1      39.448  27.924  29.744  1.00  0.00     0.031 C 
ATOM     39  C   UNL A   1      45.062  25.864  26.322  1.00  0.00     0.029 A 
ATOM     40  C   UNL A   1      45.093  27.238  26.820  1.00  0.00     0.049 A 
ATOM     41  H   UNL A   1      43.634  28.210  27.943  1.00  0.00     0.167 HD
ATOM     42  C   UNL A   1      40.387  30.190  30.112  1.00  0.00     0.037 A 
ATOM     43  C   UNL A   1      46.094  28.118  26.632  1.00  0.00     0.037 A 
ATOM     44  C   UNL A   1      41.413  31.192  29.980  1.00  0.00     0.049 A 
ATOM     45  C   UNL A   1      45.959  29.517  27.169  1.00  0.00     0.074 A 
ATOM     46  C   UNL A   1      41.428  32.485  30.474  1.00  0.00     0.029 A 
ATOM     47  N   UNL A   1      42.610  31.007  29.306  1.00  0.00    -0.354 N 
ATOM     48  N   UNL A   1      44.976  30.047  27.854  1.00  0.00    -0.248 NA
ATOM     49  C   UNL A   1      47.065  30.445  26.893  1.00  0.00     0.031 C 
ATOM     50  C   UNL A   1      42.623  33.093  30.074  1.00  0.00     0.029 A 
ATOM     51  C   UNL A   1      43.366  32.167  29.358  1.00  0.00     0.049 A 
ATOM     52  H   UNL A   1      42.884  30.175  28.857  1.00  0.00     0.167 HD
ATOM     53  C   UNL A   1      45.347  31.361  28.102  1.00  0.00     0.074 A 
ATOM     54  C   UNL A   1      46.654  31.546  27.505  1.00  0.00     0.031 C 
ATOM     55  C   UNL A   1      44.665  32.329  28.761  1.00  0.00     0.037 A 
BRANCH  42  56
ATOM     56  C   UNL A   1      39.133  30.556  30.844  1.00  0.00     0.064 A 
ATOM     57  C   UNL A   1      39.018  30.404  32.232  1.00  0.00     0.173 A 
ATOM     58  C   UNL A   1      38.044  31.102  30.147  1.00  0.00     0.173 A 
ATOM     59  F   UNL A   1      40.027  29.875  32.939  1.00  0.00    -0.203 F 
ATOM     60  C   UNL A   1      37.849  30.769  32.895  1.00  0.00     0.198 A 
ATOM     61  C   UNL A   1      36.885  31.485  30.816  1.00  0.00     0.198 A 
ATOM     62  F   UNL A   1      38.108  31.270  28.817  1.00  0.00    -0.203 F 
ATOM     63  F   UNL A   1      37.746  30.586  34.219  1.00  0.00    -0.200 F 
ATOM     64  C   UNL A   1      36.787  31.314  32.189  1.00  0.00     0.200 A 
ATOM     65  F   UNL A   1      35.864  32.019  30.132  1.00  0.00    -0.200 F 
ATOM     66  F   UNL A   1      35.666  31.670  32.830  1.00  0.00    -0.200 F 
ENDBRANCH  42  56
BRANCH  43  67
ATOM     67  C   UNL A   1      47.300  27.711  25.868  1.00  0.00     0.064 A 
ATOM     68  C   UNL A   1      48.464  27.293  26.526  1.00  0.00     0.173 A 
ATOM     69  C   UNL A   1      47.310  27.731  24.466  1.00  0.00     0.173 A 
ATOM     70  F   UNL A   1      48.507  27.281  27.866  1.00  0.00    -0.203 F 
ATOM     71  C   UNL A   1      49.597  26.916  25.808  1.00  0.00     0.198 A 
ATOM     72  C   UNL A   1      48.436  27.331  23.749  1.00  0.00     0.198 A 
ATOM     73  F   UNL A   1      46.221  28.126  23.791  1.00  0.00    -0.203 F 
ATOM     74  F   UNL A   1      50.709  26.550  26.460  1.00  0.00    -0.200 F 
ATOM     75  C   UNL A   1      49.579  26.928  24.421  1.00  0.00     0.200 A 
ATOM     76  F   UNL A   1      48.411  27.334  22.409  1.00  0.00    -0.200 F 
ATOM     77  F   UNL A   1      50.668  26.558  23.732  1.00  0.00    -0.200 F 
ENDBRANCH  43  67
BRANCH  55  78
ATOM     78  C   UNL A   1      45.329  33.666  28.892  1.00  0.00     0.064 A 
ATOM     79  C   UNL A   1      46.199  33.948  29.956  1.00  0.00     0.173 A 
ATOM     80  C   UNL A   1      45.128  34.658  27.921  1.00  0.00     0.173 A 
ATOM     81  F   UNL A   1      46.408  33.035  30.916  1.00  0.00    -0.203 F 
ATOM     82  C   UNL A   1      46.835  35.183  30.048  1.00  0.00     0.198 A 
ATOM     83  C   UNL A   1      45.781  35.884  28.007  1.00  0.00     0.198 A 
ATOM     84  F   UNL A   1      44.307  34.433  26.885  1.00  0.00    -0.203 F 
ATOM     85  F   UNL A   1      47.638  35.444  31.089  1.00  0.00    -0.200 F 
ATOM     86  C   UNL A   1      46.631  36.147  29.072  1.00  0.00     0.200 A 
ATOM     87  F   UNL A   1      45.590  36.812  27.059  1.00  0.00    -0.200 F 
ATOM     88  F   UNL A   1      47.248  37.332  29.161  1.00  0.00    -0.200 F 
ENDBRANCH  55  78
ENDBRANCH  29  30
ENDBRANCH  22  24
ENDBRANCH  21  22
ENDBRANCH  20  21
ENDBRANCH   1  20
TORSDOF 17
ENDMDL
MODEL 2
REMARK VINA RESULT:     -10.2      0.615      1.806
REMARK SMILES CSCC[C@@H]([NH2+]Cc1cccnc1)C(=O)OCCOC(=O)c1ccc(-c2c3nc(c(-c4c(F)c(F)c(F)c(F)c4F)c4ccc([nH]4)c(-c4c(F)c(F)c(F)c(F)c4F)c4nc(c(-c5c(F)c(F)c(F)c(F)c5F)c5ccc2[nH]5)C=C4)C=C3)cc1
REMARK SMILES IDX 17 1 16 2 14 3 15 4 5 5 4 6 3 7 2 8 1 9 6 10 7 13 8 14 9 15
REMARK SMILES IDX 13 16 10 17 12 18 11 19 18 20 19 21 20 22 21 23 22 24 23 25
REMARK SMILES IDX 84 26 24 27 83 28 25 29 26 30 27 31 77 32 28 33 82 34 76 35
REMARK SMILES IDX 78 36 29 37 81 38 75 39 74 40 30 42 62 43 42 44 61 45 43 46
REMARK SMILES IDX 46 47 60 48 79 49 44 50 45 51 59 53 80 54 47 55 31 56 32 57
REMARK SMILES IDX 40 58 33 59 34 60 38 61 41 62 35 63 36 64 39 65 37 66 63 67
REMARK SMILES IDX 64 68 72 69 65 70 66 71 70 72 73 73 67 74 68 75 71 76 69 77
REMARK SMILES IDX 48 78 49 79 57 80 50 81 51 82 55 83 58 84 52 85 53 86 56 87
REMARK SMILES IDX 54 88
REMARK H PARENT 6 11 6 12 78 41 46 52
REMARK Flexibility Score: inf
ROOT
ATOM      1  C   UNL A   1      35.999  20.331  25.005  1.00  0.00     0.274 C 
ENDROOT
BRANCH   1   2
ATOM      2  O   UNL A   1      35.458  21.380  25.832  1.00  0.00    -0.458 OA
BRANCH   2   3
ATOM      3  C   UNL A   1      34.648  22.272  25.198  1.00  0.00     0.364 C 
ATOM      4  O   UNL A   1      35.035  23.038  24.319  1.00  0.00    -0.245 OA
BRANCH   3   5
ATOM      5  C   UNL A   1      33.181  22.226  25.679  1.00  0.00     0.294 C 
BRANCH   5   6
ATOM      6  C   UNL A   1      32.203  22.924  24.714  1.00  0.00     0.088 C 
BRANCH   6   7
ATOM      7  C   UNL A   1      31.701  24.295  25.186  1.00  0.00     0.076 C 
BRANCH   7   8
ATOM      8  S   UNL A   1      32.675  25.692  24.518  1.00  0.00    -0.165 SA
ATOM      9  C   UNL A   1      33.153  26.534  26.047  1.00  0.00     0.085 C 
ENDBRANCH   7   8
ENDBRANCH   6   7
ENDBRANCH   5   6
BRANCH   5  10
ATOM     10  N   UNL A   1      32.728  20.842  25.971  1.00  0.00    -0.331 N 
ATOM     11  H   UNL A   1      31.993  20.891  26.677  1.00  0.00     0.347 HD
ATOM     12  H   UNL A   1      33.554  20.330  26.283  1.00  0.00     0.347 HD
BRANCH  10  13
ATOM     13  C   UNL A   1      32.199  20.104  24.814  1.00  0.00     0.299 C 
BRANCH  13  14
ATOM     14  C   UNL A   1      32.683  18.684  24.674  1.00  0.00     0.024 A 
ATOM     15  C   UNL A   1      33.196  18.214  23.460  1.00  0.00     0.013 A 
ATOM     16  C   UNL A   1      32.640  17.782  25.730  1.00  0.00     0.120 A 
ATOM     17  C   UNL A   1      33.659  16.906  23.357  1.00  0.00     0.021 A 
ATOM     18  N   UNL A   1      33.101  16.511  25.667  1.00  0.00    -0.264 NA
ATOM     19  C   UNL A   1      33.598  16.101  24.480  1.00  0.00     0.111 A 
ENDBRANCH  13  14
ENDBRANCH  10  13
ENDBRANCH   5  10
ENDBRANCH   3   5
ENDBRANCH   2   3
ENDBRANCH   1   2
BRANCH   1  20
ATOM     20  C   UNL A   1      37.524  20.417  24.886  1.00  0.00     0.275 C 
BRANCH  20  21
ATOM     21  O   UNL A   1      38.073  21.501  25.661  1.00  0.00    -0.458 OA
BRANCH  21  22
ATOM     22  C   UNL A   1      39.257  21.233  26.258  1.00  0.00     0.338 C 
ATOM     23  O   UNL A   1      39.833  20.157  26.304  1.00  0.00    -0.246 OA
BRANCH  22  24
ATOM     24  C   UNL A   1      39.861  22.473  26.764  1.00  0.00     0.060 A 
ATOM     25  C   UNL A   1      39.416  23.681  26.225  1.00  0.00     0.016 A 
ATOM     26  C   UNL A   1      40.922  22.455  27.670  1.00  0.00     0.016 A 
ATOM     27  C   UNL A   1      40.024  24.881  26.576  1.00  0.00     0.010 A 
ATOM     28  C   UNL A   1      41.539  23.661  28.023  1.00  0.00     0.010 A 
ATOM     29  C   UNL A   1      41.102  24.878  27.469  1.00  0.00    -0.014 A 
BRANCH  29  30
ATOM     30  C   UNL A   1      41.805  26.146  27.769  1.00  0.00     0.031 A 
ATOM     31  C   UNL A   1      41.119  27.202  28.586  1.00  0.00     0.074 A 
ATOM     32  C   UNL A   1      43.064  26.337  27.336  1.00  0.00     0.049 A 
ATOM     33  N   UNL A   1      41.508  28.422  28.856  1.00  0.00    -0.248 NA
ATOM     34  C   UNL A   1      39.824  26.834  29.178  1.00  0.00     0.031 C 
ATOM     35  C   UNL A   1      43.855  25.361  26.591  1.00  0.00     0.029 A 
ATOM     36  N   UNL A   1      43.893  27.423  27.455  1.00  0.00    -0.354 N 
ATOM     37  C   UNL A   1      40.494  28.978  29.624  1.00  0.00     0.074 A 
ATOM     38  C   UNL A   1      39.473  27.963  29.778  1.00  0.00     0.031 C 
ATOM     39  C   UNL A   1      45.057  25.893  26.313  1.00  0.00     0.029 A 
ATOM     40  C   UNL A   1      45.097  27.265  26.816  1.00  0.00     0.049 A 
ATOM     41  H   UNL A   1      43.648  28.238  27.952  1.00  0.00     0.167 HD
ATOM     42  C   UNL A   1      40.424  30.224  30.149  1.00  0.00     0.037 A 
ATOM     43  C   UNL A   1      46.101  28.142  26.626  1.00  0.00     0.037 A 
ATOM     44  C   UNL A   1      41.453  31.222  30.014  1.00  0.00     0.049 A 
ATOM     45  C   UNL A   1      45.975  29.539  27.169  1.00  0.00     0.074 A 
ATOM     46  C   UNL A   1      41.476  32.513  30.514  1.00  0.00     0.029 A 
ATOM     47  N   UNL A   1      42.646  31.035  29.333  1.00  0.00    -0.354 N 
ATOM     48  N   UNL A   1      44.998  30.071  27.862  1.00  0.00    -0.248 NA
ATOM     49  C   UNL A   1      47.083  30.463  26.889  1.00  0.00     0.031 C 
ATOM     50  C   UNL A   1      42.672  33.117  30.108  1.00  0.00     0.029 A 
ATOM     51  C   UNL A   1      43.406  32.191  29.384  1.00  0.00     0.049 A 
ATOM     52  H   UNL A   1      42.913  30.203  28.879  1.00  0.00     0.167 HD
ATOM     53  C   UNL A   1      45.376  31.382  28.112  1.00  0.00     0.074 A 
ATOM     54  C   UNL A   1      46.680  31.564  27.508  1.00  0.00     0.031 C 
ATOM     55  C   UNL A   1      44.702  32.350  28.780  1.00  0.00     0.037 A 
BRANCH  42  56
ATOM     56  C   UNL A   1      39.176  30.593  30.890  1.00  0.00     0.064 A 
ATOM     57  C   UNL A   1      39.053  30.397  32.272  1.00  0.00     0.173 A 
ATOM     58  C   UNL A   1      38.101  31.185  30.209  1.00  0.00     0.173 A 
ATOM     59  F   UNL A   1      40.050  29.823  32.963  1.00  0.00    -0.203 F 
ATOM     60  C   UNL A   1      37.891  30.765  32.945  1.00  0.00     0.198 A 
ATOM     61  C   UNL A   1      36.949  31.570  30.889  1.00  0.00     0.198 A 
ATOM     62  F   UNL A   1      38.172  31.395  28.886  1.00  0.00    -0.203 F 
ATOM     63  F   UNL A   1      37.780  30.540  34.261  1.00  0.00    -0.200 F 
ATOM     64  C   UNL A   1      36.843  31.355  32.255  1.00  0.00     0.200 A 
ATOM     65  F   UNL A   1      35.941  32.148  30.221  1.00  0.00    -0.200 F 
ATOM     66  F   UNL A   1      35.728  31.715  32.905  1.00  0.00    -0.200 F 
ENDBRANCH  42  56
BRANCH  43  67
ATOM     67  C   UNL A   1      47.300  27.732  25.852  1.00  0.00     0.064 A 
ATOM     68  C   UNL A   1      47.298  27.760  24.452  1.00  0.00     0.173 A 
ATOM     69  C   UNL A   1      48.469  27.307  26.499  1.00  0.00     0.173 A 
ATOM     70  F   UNL A   1      46.194  28.136  23.791  1.00  0.00    -0.203 F 
ATOM     71  C   UNL A   1      48.421  27.370  23.726  1.00  0.00     0.198 A 
ATOM     72  C   UNL A   1      49.600  26.941  25.772  1.00  0.00     0.198 A 
ATOM     73  F   UNL A   1      48.518  27.262  27.838  1.00  0.00    -0.203 F 
ATOM     74  F   UNL A   1      48.385  27.375  22.386  1.00  0.00    -0.200 F 
ATOM     75  C   UNL A   1      49.573  26.968  24.386  1.00  0.00     0.200 A 
ATOM     76  F   UNL A   1      50.714  26.563  26.414  1.00  0.00    -0.200 F 
ATOM     77  F   UNL A   1      50.656  26.600  23.687  1.00  0.00    -0.200 F 
ENDBRANCH  43  67
BRANCH  55  78
ATOM     78  C   UNL A   1      45.373  33.684  28.912  1.00  0.00     0.064 A 
ATOM     79  C   UNL A   1      45.154  34.706  27.975  1.00  0.00     0.173 A 
ATOM     80  C   UNL A   1      46.204  33.958  30.008  1.00  0.00     0.173 A 
ATOM     81  F   UNL A   1      44.379  34.483  26.903  1.00  0.00    -0.203 F 
ATOM     82  C   UNL A   1      45.756  35.952  28.127  1.00  0.00     0.198 A 
ATOM     83  C   UNL A   1      46.788  35.211  30.165  1.00  0.00     0.198 A 
ATOM     84  F   UNL A   1      46.439  33.013  30.930  1.00  0.00    -0.203 F 
ATOM     85  F   UNL A   1      45.560  36.904  27.204  1.00  0.00    -0.200 F 
ATOM     86  C   UNL A   1      46.566  36.206  29.223  1.00  0.00     0.200 A 
ATOM     87  F   UNL A   1      47.564  35.458  31.229  1.00  0.00    -0.200 F 
ATOM     88  F   UNL A   1      47.141  37.407  29.369  1.00  0.00    -0.200 F 
ENDBRANCH  55  78
ENDBRANCH  29  30
ENDBRANCH  22  24
ENDBRANCH  21  22
ENDBRANCH  20  21
ENDBRANCH   1  20
TORSDOF 17
ENDMDL
MODEL 3
REMARK VINA RESULT:     -10.1      4.749     10.274
REMARK SMILES CSCC[C@@H]([NH2+]Cc1cccnc1)C(=O)OCCOC(=O)c1ccc(-c2c3nc(c(-c4c(F)c(F)c(F)c(F)c4F)c4ccc([nH]4)c(-c4c(F)c(F)c(F)c(F)c4F)c4nc(c(-c5c(F)c(F)c(F)c(F)c5F)c5ccc2[nH]5)C=C4)C=C3)cc1
REMARK SMILES IDX 17 1 16 2 14 3 15 4 5 5 4 6 3 7 2 8 1 9 6 10 7 13 8 14 9 15
REMARK SMILES IDX 13 16 10 17 12 18 11 19 18 20 19 21 20 22 21 23 22 24 23 25
REMARK SMILES IDX 84 26 24 27 83 28 25 29 26 30 27 31 77 32 28 33 82 34 76 35
REMARK SMILES IDX 78 36 29 37 81 38 75 39 74 40 30 42 62 43 42 44 61 45 43 46
REMARK SMILES IDX 46 47 60 48 79 49 44 50 45 51 59 53 80 54 47 55 31 56 32 57
REMARK SMILES IDX 40 58 33 59 34 60 38 61 41 62 35 63 36 64 39 65 37 66 63 67
REMARK SMILES IDX 64 68 72 69 65 70 66 71 70 72 73 73 67 74 68 75 71 76 69 77
REMARK SMILES IDX 48 78 49 79 57 80 50 81 51 82 55 83 58 84 52 85 53 86 56 87
REMARK SMILES IDX 54 88
REMARK H PARENT 6 11 6 12 78 41 46 52
REMARK Flexibility Score: inf
ROOT
ATOM      1  C   UNL A   1      33.105  28.683  24.902  1.00  0.00     0.274 C 
ENDROOT
BRANCH   1   2
ATOM      2  O   UNL A   1      32.757  27.588  25.771  1.00  0.00    -0.458 OA
BRANCH   2   3
ATOM      3  C   UNL A   1      32.875  26.345  25.230  1.00  0.00     0.364 C 
ATOM      4  O   UNL A   1      33.917  25.696  25.235  1.00  0.00    -0.245 OA
BRANCH   3   5
ATOM      5  C   UNL A   1      31.563  25.812  24.612  1.00  0.00     0.294 C 
BRANCH   5   6
ATOM      6  C   UNL A   1      31.239  24.364  25.029  1.00  0.00     0.088 C 
BRANCH   6   7
ATOM      7  C   UNL A   1      31.465  23.313  23.935  1.00  0.00     0.076 C 
BRANCH   7   8
ATOM      8  S   UNL A   1      32.961  22.295  24.206  1.00  0.00    -0.165 SA
ATOM      9  C   UNL A   1      32.224  20.770  24.842  1.00  0.00     0.085 C 
ENDBRANCH   7   8
ENDBRANCH   6   7
ENDBRANCH   5   6
BRANCH   5  10
ATOM     10  N   UNL A   1      30.408  26.705  24.888  1.00  0.00    -0.331 N 
ATOM     11  H   UNL A   1      30.757  27.660  24.967  1.00  0.00     0.347 HD
ATOM     12  H   UNL A   1      29.978  26.360  25.746  1.00  0.00     0.347 HD
BRANCH  10  13
ATOM     13  C   UNL A   1      29.351  26.689  23.865  1.00  0.00     0.299 C 
BRANCH  13  14
ATOM     14  C   UNL A   1      29.167  27.976  23.102  1.00  0.00     0.024 A 
ATOM     15  C   UNL A   1      27.927  28.624  23.072  1.00  0.00     0.013 A 
ATOM     16  C   UNL A   1      30.205  28.572  22.398  1.00  0.00     0.120 A 
ATOM     17  C   UNL A   1      27.782  29.823  22.381  1.00  0.00     0.021 A 
ATOM     18  N   UNL A   1      30.102  29.747  21.734  1.00  0.00    -0.264 NA
ATOM     19  C   UNL A   1      28.890  30.344  21.739  1.00  0.00     0.111 A 
ENDBRANCH  13  14
ENDBRANCH  10  13
ENDBRANCH   5  10
ENDBRANCH   3   5
ENDBRANCH   2   3
ENDBRANCH   1   2
BRANCH   1  20
ATOM     20  C   UNL A   1      32.523  30.015  25.387  1.00  0.00     0.275 C 
BRANCH  20  21
ATOM     21  O   UNL A   1      32.669  30.189  26.811  1.00  0.00    -0.458 OA
BRANCH  21  22
ATOM     22  C   UNL A   1      33.256  31.348  27.186  1.00  0.00     0.338 C 
ATOM     23  O   UNL A   1      32.763  32.466  27.164  1.00  0.00    -0.246 OA
BRANCH  22  24
ATOM     24  C   UNL A   1      34.577  31.080  27.772  1.00  0.00     0.060 A 
ATOM     25  C   UNL A   1      34.829  29.793  28.249  1.00  0.00     0.016 A 
ATOM     26  C   UNL A   1      35.517  32.095  27.954  1.00  0.00     0.016 A 
ATOM     27  C   UNL A   1      36.013  29.503  28.916  1.00  0.00     0.010 A 
ATOM     28  C   UNL A   1      36.710  31.807  28.628  1.00  0.00     0.010 A 
ATOM     29  C   UNL A   1      36.959  30.514  29.123  1.00  0.00    -0.014 A 
BRANCH  29  30
ATOM     30  C   UNL A   1      38.178  30.224  29.913  1.00  0.00     0.031 A 
ATOM     31  C   UNL A   1      39.244  29.339  29.337  1.00  0.00     0.074 A 
ATOM     32  C   UNL A   1      38.339  30.775  31.128  1.00  0.00     0.049 A 
ATOM     33  N   UNL A   1      40.322  28.865  29.906  1.00  0.00    -0.248 NA
ATOM     34  C   UNL A   1      39.075  28.937  27.932  1.00  0.00     0.031 C 
ATOM     35  C   UNL A   1      37.404  31.700  31.765  1.00  0.00     0.029 A 
ATOM     36  N   UNL A   1      39.347  30.629  32.047  1.00  0.00    -0.354 N 
ATOM     37  C   UNL A   1      40.945  28.084  28.941  1.00  0.00     0.074 A 
ATOM     38  C   UNL A   1      40.126  28.149  27.750  1.00  0.00     0.031 C 
ATOM     39  C   UNL A   1      37.879  32.037  32.975  1.00  0.00     0.029 A 
ATOM     40  C   UNL A   1      39.123  31.311  33.218  1.00  0.00     0.049 A 
ATOM     41  H   UNL A   1      40.154  30.088  31.883  1.00  0.00     0.167 HD
ATOM     42  C   UNL A   1      42.095  27.377  29.046  1.00  0.00     0.037 A 
ATOM     43  C   UNL A   1      39.824  31.315  34.367  1.00  0.00     0.037 A 
ATOM     44  C   UNL A   1      42.920  27.336  30.225  1.00  0.00     0.049 A 
ATOM     45  C   UNL A   1      41.067  30.475  34.478  1.00  0.00     0.074 A 
ATOM     46  C   UNL A   1      44.106  26.651  30.427  1.00  0.00     0.029 A 
ATOM     47  N   UNL A   1      42.644  28.014  31.402  1.00  0.00    -0.354 N 
ATOM     48  N   UNL A   1      41.631  29.710  33.575  1.00  0.00    -0.248 NA
ATOM     49  C   UNL A   1      41.763  30.486  35.772  1.00  0.00     0.031 C 
ATOM     50  C   UNL A   1      44.533  26.892  31.738  1.00  0.00     0.029 A 
ATOM     51  C   UNL A   1      43.629  27.753  32.340  1.00  0.00     0.049 A 
ATOM     52  H   UNL A   1      41.864  28.596  31.550  1.00  0.00     0.167 HD
ATOM     53  C   UNL A   1      42.750  29.161  34.184  1.00  0.00     0.074 A 
ATOM     54  C   UNL A   1      42.795  29.690  35.532  1.00  0.00     0.031 C 
ATOM     55  C   UNL A   1      43.657  28.293  33.674  1.00  0.00     0.037 A 
BRANCH  42  56
ATOM     56  C   UNL A   1      42.513  26.560  27.863  1.00  0.00     0.064 A 
ATOM     57  C   UNL A   1      42.047  25.253  27.666  1.00  0.00     0.173 A 
ATOM     58  C   UNL A   1      43.366  27.110  26.893  1.00  0.00     0.173 A 
ATOM     59  F   UNL A   1      41.241  24.682  28.573  1.00  0.00    -0.203 F 
ATOM     60  C   UNL A   1      42.434  24.518  26.549  1.00  0.00     0.198 A 
ATOM     61  C   UNL A   1      43.733  26.379  25.766  1.00  0.00     0.198 A 
ATOM     62  F   UNL A   1      43.836  28.358  27.035  1.00  0.00    -0.203 F 
ATOM     63  F   UNL A   1      42.003  23.259  26.395  1.00  0.00    -0.200 F 
ATOM     64  C   UNL A   1      43.271  25.083  25.598  1.00  0.00     0.200 A 
ATOM     65  F   UNL A   1      44.536  26.930  24.845  1.00  0.00    -0.200 F 
ATOM     66  F   UNL A   1      43.636  24.375  24.520  1.00  0.00    -0.200 F 
ENDBRANCH  42  56
BRANCH  43  67
ATOM     67  C   UNL A   1      39.343  32.116  35.520  1.00  0.00     0.064 A 
ATOM     68  C   UNL A   1      38.492  31.556  36.482  1.00  0.00     0.173 A 
ATOM     69  C   UNL A   1      39.725  33.455  35.682  1.00  0.00     0.173 A 
ATOM     70  F   UNL A   1      38.081  30.286  36.354  1.00  0.00    -0.203 F 
ATOM     71  C   UNL A   1      38.035  32.310  37.561  1.00  0.00     0.198 A 
ATOM     72  C   UNL A   1      39.288  34.200  36.775  1.00  0.00     0.198 A 
ATOM     73  F   UNL A   1      40.536  34.036  34.786  1.00  0.00    -0.203 F 
ATOM     74  F   UNL A   1      37.197  31.762  38.451  1.00  0.00    -0.200 F 
ATOM     75  C   UNL A   1      38.439  33.628  37.710  1.00  0.00     0.200 A 
ATOM     76  F   UNL A   1      39.688  35.471  36.921  1.00  0.00    -0.200 F 
ATOM     77  F   UNL A   1      38.005  34.350  38.753  1.00  0.00    -0.200 F 
ENDBRANCH  43  67
BRANCH  55  78
ATOM     78  C   UNL A   1      44.787  27.879  34.568  1.00  0.00     0.064 A 
ATOM     79  C   UNL A   1      44.701  26.730  35.368  1.00  0.00     0.173 A 
ATOM     80  C   UNL A   1      45.982  28.612  34.590  1.00  0.00     0.173 A 
ATOM     81  F   UNL A   1      43.572  26.007  35.390  1.00  0.00    -0.203 F 
ATOM     82  C   UNL A   1      45.770  26.338  36.169  1.00  0.00     0.198 A 
ATOM     83  C   UNL A   1      47.055  28.206  35.377  1.00  0.00     0.198 A 
ATOM     84  F   UNL A   1      46.111  29.717  33.839  1.00  0.00    -0.203 F 
ATOM     85  F   UNL A   1      45.657  25.255  36.950  1.00  0.00    -0.200 F 
ATOM     86  C   UNL A   1      46.948  27.071  36.168  1.00  0.00     0.200 A 
ATOM     87  F   UNL A   1      48.195  28.911  35.370  1.00  0.00    -0.200 F 
ATOM     88  F   UNL A   1      47.977  26.689  36.936  1.00  0.00    -0.200 F 
ENDBRANCH  55  78
ENDBRANCH  29  30
ENDBRANCH  22  24
ENDBRANCH  21  22
ENDBRANCH  20  21
ENDBRANCH   1  20
TORSDOF 17
ENDMDL
