MODEL 1
REMARK VINA RESULT:     -12.6      0.000      0.000
REMARK SMILES CC(C)(C)CN1C(=O)CC[C@@H](C(=O)OCCOC(=O)c2ccc(-c3c4nc(c(-c5c(F)c(F)c(F)c(F)c5F)c5ccc([nH]5)c(-c5c(F)c(F)c(F)c(F)c5F)c5nc(c(-c6c(F)c(F)c(F)c(F)c6F)c6ccc3[nH]6)C=C5)C=C4)cc2)[C@H]1c1cccc2c1OCO2
REMARK SMILES IDX 15 1 14 2 12 3 13 4 11 5 6 6 7 7 83 8 8 9 9 10 10 11 5 12
REMARK SMILES IDX 2 13 1 14 3 15 4 16 84 17 85 18 89 19 86 20 88 21 90 22
REMARK SMILES IDX 87 23 92 24 91 25 16 26 17 27 18 28 19 29 20 30 21 31 82 32
REMARK SMILES IDX 22 33 81 34 23 35 24 36 25 37 75 38 26 39 80 40 74 41 76 42
REMARK SMILES IDX 27 43 79 44 73 45 72 46 28 48 60 49 40 50 59 51 41 52 44 53
REMARK SMILES IDX 58 54 77 55 42 56 43 57 57 59 78 60 45 61 29 62 30 63 38 64
REMARK SMILES IDX 31 65 32 66 36 67 39 68 33 69 34 70 37 71 35 72 61 73 62 74
REMARK SMILES IDX 70 75 63 76 64 77 68 78 71 79 65 80 66 81 69 82 67 83 46 84
REMARK SMILES IDX 47 85 55 86 48 87 49 88 53 89 56 90 50 91 51 92 54 93 52 94
REMARK H PARENT 76 47 44 58
REMARK Flexibility Score: inf
ROOT
ATOM      1  C   UNL A   1      31.418  28.101  26.618  1.00  0.00     0.274 C 
ENDROOT
BRANCH   1   2
ATOM      2  O   UNL A   1      32.469  27.147  26.356  1.00  0.00    -0.462 OA
BRANCH   2   3
ATOM      3  C   UNL A   1      32.416  26.559  25.127  1.00  0.00     0.311 C 
ATOM      4  O   UNL A   1      31.411  26.051  24.657  1.00  0.00    -0.252 OA
BRANCH   3   5
ATOM      5  C   UNL A   1      33.775  26.564  24.455  1.00  0.00     0.127 C 
ATOM      6  N   UNL A   1      33.405  24.747  22.723  1.00  0.00    -0.334 N 
ATOM      7  C   UNL A   1      33.238  25.677  21.696  1.00  0.00     0.223 C 
ATOM      8  C   UNL A   1      34.181  25.180  23.907  1.00  0.00     0.133 C 
ATOM      9  O   UNL A   1      33.026  25.357  20.526  1.00  0.00    -0.275 OA
ATOM     10  C   UNL A   1      33.265  27.161  22.034  1.00  0.00     0.101 C 
ATOM     11  C   UNL A   1      33.879  27.599  23.349  1.00  0.00     0.028 C 
BRANCH   6  12
ATOM     12  C   UNL A   1      33.416  23.319  22.335  1.00  0.00     0.126 C 
BRANCH  12  13
ATOM     13  C   UNL A   1      32.284  22.378  22.877  1.00  0.00    -0.021 C 
ATOM     14  C   UNL A   1      32.756  21.447  24.000  1.00  0.00     0.012 C 
ATOM     15  C   UNL A   1      31.814  21.493  21.696  1.00  0.00     0.012 C 
ATOM     16  C   UNL A   1      31.048  23.156  23.365  1.00  0.00     0.012 C 
ENDBRANCH  12  13
ENDBRANCH   6  12
BRANCH   8  17
ATOM     17  C   UNL A   1      34.381  24.195  25.050  1.00  0.00     0.022 A 
ATOM     18  C   UNL A   1      33.495  24.051  26.133  1.00  0.00     0.010 A 
ATOM     19  C   UNL A   1      35.536  23.426  25.112  1.00  0.00     0.171 A 
ATOM     20  C   UNL A   1      33.797  23.226  27.233  1.00  0.00     0.004 A 
ATOM     21  C   UNL A   1      35.822  22.603  26.179  1.00  0.00     0.166 A 
ATOM     22  O   UNL A   1      36.521  23.391  24.169  1.00  0.00    -0.453 OA
ATOM     23  C   UNL A   1      34.983  22.497  27.264  1.00  0.00     0.050 A 
ATOM     24  O   UNL A   1      37.005  21.947  26.032  1.00  0.00    -0.454 OA
ATOM     25  C   UNL A   1      37.384  22.371  24.708  1.00  0.00     0.468 C 
ENDBRANCH   8  17
ENDBRANCH   3   5
ENDBRANCH   2   3
ENDBRANCH   1   2
BRANCH   1  26
ATOM     26  C   UNL A   1      31.563  29.382  25.797  1.00  0.00     0.275 C 
BRANCH  26  27
ATOM     27  O   UNL A   1      32.918  29.865  25.859  1.00  0.00    -0.458 OA
BRANCH  27  28
ATOM     28  C   UNL A   1      33.173  30.809  26.790  1.00  0.00     0.338 C 
ATOM     29  O   UNL A   1      32.419  31.687  27.180  1.00  0.00    -0.246 OA
BRANCH  28  30
ATOM     30  C   UNL A   1      34.531  30.631  27.333  1.00  0.00     0.060 A 
ATOM     31  C   UNL A   1      35.046  29.346  27.471  1.00  0.00     0.016 A 
ATOM     32  C   UNL A   1      35.231  31.715  27.859  1.00  0.00     0.016 A 
ATOM     33  C   UNL A   1      36.210  29.118  28.196  1.00  0.00     0.010 A 
ATOM     34  C   UNL A   1      36.446  31.498  28.525  1.00  0.00     0.010 A 
ATOM     35  C   UNL A   1      36.928  30.192  28.730  1.00  0.00    -0.014 A 
BRANCH  35  36
ATOM     36  C   UNL A   1      38.113  29.922  29.585  1.00  0.00     0.031 A 
ATOM     37  C   UNL A   1      39.273  29.153  29.019  1.00  0.00     0.074 A 
ATOM     38  C   UNL A   1      38.199  30.433  30.828  1.00  0.00     0.049 A 
ATOM     39  N   UNL A   1      40.326  28.670  29.629  1.00  0.00    -0.248 NA
ATOM     40  C   UNL A   1      39.247  28.891  27.571  1.00  0.00     0.031 C 
ATOM     41  C   UNL A   1      37.196  31.288  31.462  1.00  0.00     0.029 A 
ATOM     42  N   UNL A   1      39.196  30.337  31.769  1.00  0.00    -0.354 N 
ATOM     43  C   UNL A   1      41.043  27.985  28.660  1.00  0.00     0.074 A 
ATOM     44  C   UNL A   1      40.328  28.140  27.411  1.00  0.00     0.031 C 
ATOM     45  C   UNL A   1      37.656  31.690  32.658  1.00  0.00     0.029 A 
ATOM     46  C   UNL A   1      38.943  31.052  32.914  1.00  0.00     0.049 A 
ATOM     47  H   UNL A   1      40.013  29.805  31.634  1.00  0.00     0.167 HD
ATOM     48  C   UNL A   1      42.183  27.272  28.808  1.00  0.00     0.037 A 
ATOM     49  C   UNL A   1      39.656  31.156  34.052  1.00  0.00     0.037 A 
ATOM     50  C   UNL A   1      42.923  27.176  30.040  1.00  0.00     0.049 A 
ATOM     51  C   UNL A   1      40.919  30.351  34.197  1.00  0.00     0.074 A 
ATOM     52  C   UNL A   1      44.059  26.435  30.313  1.00  0.00     0.029 A 
ATOM     53  N   UNL A   1      42.611  27.874  31.196  1.00  0.00    -0.354 N 
ATOM     54  N   UNL A   1      41.519  29.585  33.317  1.00  0.00    -0.248 NA
ATOM     55  C   UNL A   1      41.582  30.389  35.508  1.00  0.00     0.031 C 
ATOM     56  C   UNL A   1      44.422  26.667  31.645  1.00  0.00     0.029 A 
ATOM     57  C   UNL A   1      43.532  27.578  32.188  1.00  0.00     0.049 A 
ATOM     58  H   UNL A   1      41.850  28.490  31.297  1.00  0.00     0.167 HD
ATOM     59  C   UNL A   1      42.615  29.041  33.970  1.00  0.00     0.074 A 
ATOM     60  C   UNL A   1      42.626  29.597  35.307  1.00  0.00     0.031 C 
ATOM     61  C   UNL A   1      43.519  28.142  33.512  1.00  0.00     0.037 A 
BRANCH  48  62
ATOM     62  C   UNL A   1      42.658  26.477  27.632  1.00  0.00     0.064 A 
ATOM     63  C   UNL A   1      43.611  26.967  26.732  1.00  0.00     0.173 A 
ATOM     64  C   UNL A   1      42.155  25.182  27.420  1.00  0.00     0.173 A 
ATOM     65  F   UNL A   1      44.105  28.205  26.879  1.00  0.00    -0.203 F 
ATOM     66  C   UNL A   1      44.034  26.196  25.651  1.00  0.00     0.198 A 
ATOM     67  C   UNL A   1      42.596  24.407  26.353  1.00  0.00     0.198 A 
ATOM     68  F   UNL A   1      41.239  24.668  28.255  1.00  0.00    -0.203 F 
ATOM     69  F   UNL A   1      44.921  26.697  24.778  1.00  0.00    -0.200 F 
ATOM     70  C   UNL A   1      43.532  24.916  25.466  1.00  0.00     0.200 A 
ATOM     71  F   UNL A   1      42.114  23.168  26.181  1.00  0.00    -0.200 F 
ATOM     72  F   UNL A   1      43.943  24.176  24.427  1.00  0.00    -0.200 F 
ENDBRANCH  48  62
BRANCH  49  73
ATOM     73  C   UNL A   1      39.168  32.012  35.166  1.00  0.00     0.064 A 
ATOM     74  C   UNL A   1      39.445  33.386  35.192  1.00  0.00     0.173 A 
ATOM     75  C   UNL A   1      38.432  31.476  36.234  1.00  0.00     0.173 A 
ATOM     76  F   UNL A   1      40.176  33.941  34.214  1.00  0.00    -0.203 F 
ATOM     77  C   UNL A   1      39.011  34.188  36.247  1.00  0.00     0.198 A 
ATOM     78  C   UNL A   1      37.971  32.285  37.270  1.00  0.00     0.198 A 
ATOM     79  F   UNL A   1      38.150  30.166  36.265  1.00  0.00    -0.203 F 
ATOM     80  F   UNL A   1      39.330  35.489  36.270  1.00  0.00    -0.200 F 
ATOM     81  C   UNL A   1      38.267  33.639  37.280  1.00  0.00     0.200 A 
ATOM     82  F   UNL A   1      37.244  31.751  38.261  1.00  0.00    -0.200 F 
ATOM     83  F   UNL A   1      37.846  34.411  38.290  1.00  0.00    -0.200 F 
ENDBRANCH  49  73
BRANCH  61  84
ATOM     84  C   UNL A   1      44.584  27.697  34.468  1.00  0.00     0.064 A 
ATOM     85  C   UNL A   1      44.407  26.561  35.272  1.00  0.00     0.173 A 
ATOM     86  C   UNL A   1      45.804  28.382  34.550  1.00  0.00     0.173 A 
ATOM     87  F   UNL A   1      43.250  25.882  35.237  1.00  0.00    -0.203 F 
ATOM     88  C   UNL A   1      45.409  26.137  36.139  1.00  0.00     0.198 A 
ATOM     89  C   UNL A   1      46.813  27.942  35.403  1.00  0.00     0.198 A 
ATOM     90  F   UNL A   1      46.021  29.470  33.798  1.00  0.00    -0.203 F 
ATOM     91  F   UNL A   1      45.208  25.070  36.924  1.00  0.00    -0.200 F 
ATOM     92  C   UNL A   1      46.613  26.824  36.199  1.00  0.00     0.200 A 
ATOM     93  F   UNL A   1      47.979  28.601  35.455  1.00  0.00    -0.200 F 
ATOM     94  F   UNL A   1      47.580  26.412  37.031  1.00  0.00    -0.200 F 
ENDBRANCH  61  84
ENDBRANCH  35  36
ENDBRANCH  28  30
ENDBRANCH  27  28
ENDBRANCH  26  27
ENDBRANCH   1  26
TORSDOF 14
ENDMDL
MODEL 2
REMARK VINA RESULT:     -12.4      1.136      1.821
REMARK SMILES CC(C)(C)CN1C(=O)CC[C@@H](C(=O)OCCOC(=O)c2ccc(-c3c4nc(c(-c5c(F)c(F)c(F)c(F)c5F)c5ccc([nH]5)c(-c5c(F)c(F)c(F)c(F)c5F)c5nc(c(-c6c(F)c(F)c(F)c(F)c6F)c6ccc3[nH]6)C=C5)C=C4)cc2)[C@H]1c1cccc2c1OCO2
REMARK SMILES IDX 15 1 14 2 12 3 13 4 11 5 6 6 7 7 83 8 8 9 9 10 10 11 5 12
REMARK SMILES IDX 2 13 1 14 3 15 4 16 84 17 85 18 89 19 86 20 88 21 90 22
REMARK SMILES IDX 87 23 92 24 91 25 16 26 17 27 18 28 19 29 20 30 21 31 82 32
REMARK SMILES IDX 22 33 81 34 23 35 24 36 25 37 75 38 26 39 80 40 74 41 76 42
REMARK SMILES IDX 27 43 79 44 73 45 72 46 28 48 60 49 40 50 59 51 41 52 44 53
REMARK SMILES IDX 58 54 77 55 42 56 43 57 57 59 78 60 45 61 29 62 30 63 38 64
REMARK SMILES IDX 31 65 32 66 36 67 39 68 33 69 34 70 37 71 35 72 61 73 62 74
REMARK SMILES IDX 70 75 63 76 64 77 68 78 71 79 65 80 66 81 69 82 67 83 46 84
REMARK SMILES IDX 47 85 55 86 48 87 49 88 53 89 56 90 50 91 51 92 54 93 52 94
REMARK H PARENT 76 47 44 58
REMARK Flexibility Score: inf
ROOT
ATOM      1  C   UNL A   1      31.892  28.674  27.450  1.00  0.00     0.274 C 
ENDROOT
BRANCH   1   2
ATOM      2  O   UNL A   1      31.115  27.773  26.633  1.00  0.00    -0.462 OA
BRANCH   2   3
ATOM      3  C   UNL A   1      31.530  27.671  25.338  1.00  0.00     0.311 C 
ATOM      4  O   UNL A   1      30.865  28.027  24.379  1.00  0.00    -0.252 OA
BRANCH   3   5
ATOM      5  C   UNL A   1      32.888  27.003  25.246  1.00  0.00     0.127 C 
ATOM      6  N   UNL A   1      32.561  25.656  23.121  1.00  0.00    -0.334 N 
ATOM      7  C   UNL A   1      33.300  26.564  22.361  1.00  0.00     0.223 C 
ATOM      8  C   UNL A   1      32.832  25.615  24.575  1.00  0.00     0.133 C 
ATOM      9  O   UNL A   1      33.511  26.417  21.157  1.00  0.00    -0.275 OA
ATOM     10  C   UNL A   1      33.831  27.824  23.029  1.00  0.00     0.101 C 
ATOM     11  C   UNL A   1      33.920  27.867  24.542  1.00  0.00     0.028 C 
BRANCH   6  12
ATOM     12  C   UNL A   1      32.108  24.425  22.437  1.00  0.00     0.126 C 
BRANCH  12  13
ATOM     13  C   UNL A   1      33.092  23.206  22.339  1.00  0.00    -0.021 C 
ATOM     14  C   UNL A   1      34.467  23.488  22.955  1.00  0.00     0.012 C 
ATOM     15  C   UNL A   1      33.300  22.899  20.836  1.00  0.00     0.012 C 
ATOM     16  C   UNL A   1      32.516  21.928  22.976  1.00  0.00     0.012 C 
ENDBRANCH  12  13
ENDBRANCH   6  12
BRANCH   8  17
ATOM     17  C   UNL A   1      32.043  24.640  25.439  1.00  0.00     0.022 A 
ATOM     18  C   UNL A   1      30.641  24.533  25.429  1.00  0.00     0.010 A 
ATOM     19  C   UNL A   1      32.700  23.846  26.370  1.00  0.00     0.171 A 
ATOM     20  C   UNL A   1      29.953  23.716  26.346  1.00  0.00     0.004 A 
ATOM     21  C   UNL A   1      32.029  23.030  27.254  1.00  0.00     0.166 A 
ATOM     22  O   UNL A   1      34.051  23.775  26.543  1.00  0.00    -0.453 OA
ATOM     23  C   UNL A   1      30.655  22.959  27.281  1.00  0.00     0.050 A 
ATOM     24  O   UNL A   1      32.869  22.345  28.075  1.00  0.00    -0.454 OA
ATOM     25  C   UNL A   1      34.148  22.741  27.544  1.00  0.00     0.468 C 
ENDBRANCH   8  17
ENDBRANCH   3   5
ENDBRANCH   2   3
ENDBRANCH   1   2
BRANCH   1  26
ATOM     26  C   UNL A   1      31.777  30.130  27.001  1.00  0.00     0.275 C 
BRANCH  26  27
ATOM     27  O   UNL A   1      33.056  30.619  26.554  1.00  0.00    -0.458 OA
BRANCH  27  28
ATOM     28  C   UNL A   1      33.591  31.629  27.272  1.00  0.00     0.338 C 
ATOM     29  O   UNL A   1      33.082  32.711  27.522  1.00  0.00    -0.246 OA
BRANCH  28  30
ATOM     30  C   UNL A   1      34.922  31.245  27.773  1.00  0.00     0.060 A 
ATOM     31  C   UNL A   1      35.161  29.920  28.123  1.00  0.00     0.016 A 
ATOM     32  C   UNL A   1      35.882  32.216  28.053  1.00  0.00     0.016 A 
ATOM     33  C   UNL A   1      36.310  29.563  28.821  1.00  0.00     0.010 A 
ATOM     34  C   UNL A   1      37.076  31.847  28.688  1.00  0.00     0.010 A 
ATOM     35  C   UNL A   1      37.284  30.521  29.110  1.00  0.00    -0.014 A 
BRANCH  35  36
ATOM     36  C   UNL A   1      38.455  30.141  29.942  1.00  0.00     0.031 A 
ATOM     37  C   UNL A   1      39.561  29.325  29.334  1.00  0.00     0.074 A 
ATOM     38  C   UNL A   1      38.582  30.593  31.204  1.00  0.00     0.049 A 
ATOM     39  N   UNL A   1      40.584  28.751  29.914  1.00  0.00    -0.248 NA
ATOM     40  C   UNL A   1      39.508  29.125  27.877  1.00  0.00     0.031 C 
ATOM     41  C   UNL A   1      37.640  31.483  31.883  1.00  0.00     0.029 A 
ATOM     42  N   UNL A   1      39.577  30.395  32.131  1.00  0.00    -0.354 N 
ATOM     43  C   UNL A   1      41.249  28.063  28.910  1.00  0.00     0.074 A 
ATOM     44  C   UNL A   1      40.537  28.316  27.675  1.00  0.00     0.031 C 
ATOM     45  C   UNL A   1      38.132  31.805  33.089  1.00  0.00     0.029 A 
ATOM     46  C   UNL A   1      39.378  31.076  33.306  1.00  0.00     0.049 A 
ATOM     47  H   UNL A   1      40.357  29.819  31.967  1.00  0.00     0.167 HD
ATOM     48  C   UNL A   1      42.343  27.273  29.018  1.00  0.00     0.037 A 
ATOM     49  C   UNL A   1      40.103  31.086  34.441  1.00  0.00     0.037 A 
ATOM     50  C   UNL A   1      43.083  27.079  30.238  1.00  0.00     0.049 A 
ATOM     51  C   UNL A   1      41.313  30.198  34.541  1.00  0.00     0.074 A 
ATOM     52  C   UNL A   1      44.171  26.257  30.469  1.00  0.00     0.029 A 
ATOM     53  N   UNL A   1      42.825  27.747  31.425  1.00  0.00    -0.354 N 
ATOM     54  N   UNL A   1      41.857  29.433  33.625  1.00  0.00    -0.248 NA
ATOM     55  C   UNL A   1      41.986  30.139  35.847  1.00  0.00     0.031 C 
ATOM     56  C   UNL A   1      44.557  26.409  31.806  1.00  0.00     0.029 A 
ATOM     57  C   UNL A   1      43.731  27.351  32.395  1.00  0.00     0.049 A 
ATOM     58  H   UNL A   1      42.105  28.404  31.558  1.00  0.00     0.167 HD
ATOM     59  C   UNL A   1      42.921  28.794  34.245  1.00  0.00     0.074 A 
ATOM     60  C   UNL A   1      42.976  29.292  35.603  1.00  0.00     0.031 C 
ATOM     61  C   UNL A   1      43.763  27.859  33.741  1.00  0.00     0.037 A 
BRANCH  48  62
ATOM     62  C   UNL A   1      42.758  26.500  27.805  1.00  0.00     0.064 A 
ATOM     63  C   UNL A   1      43.709  26.982  26.898  1.00  0.00     0.173 A 
ATOM     64  C   UNL A   1      42.200  25.233  27.565  1.00  0.00     0.173 A 
ATOM     65  F   UNL A   1      44.255  28.195  27.073  1.00  0.00    -0.203 F 
ATOM     66  C   UNL A   1      44.076  26.232  25.783  1.00  0.00     0.198 A 
ATOM     67  C   UNL A   1      42.584  24.478  26.462  1.00  0.00     0.198 A 
ATOM     68  F   UNL A   1      41.284  24.728  28.405  1.00  0.00    -0.203 F 
ATOM     69  F   UNL A   1      44.961  26.726  24.906  1.00  0.00    -0.200 F 
ATOM     70  C   UNL A   1      43.519  24.979  25.570  1.00  0.00     0.200 A 
ATOM     71  F   UNL A   1      42.050  23.265  26.263  1.00  0.00    -0.200 F 
ATOM     72  F   UNL A   1      43.877  24.258  24.498  1.00  0.00    -0.200 F 
ENDBRANCH  48  62
BRANCH  49  73
ATOM     73  C   UNL A   1      39.679  31.924  35.595  1.00  0.00     0.064 A 
ATOM     74  C   UNL A   1      38.664  31.494  36.462  1.00  0.00     0.173 A 
ATOM     75  C   UNL A   1      40.263  33.175  35.846  1.00  0.00     0.173 A 
ATOM     76  F   UNL A   1      38.049  30.322  36.245  1.00  0.00    -0.203 F 
ATOM     77  C   UNL A   1      38.247  32.287  37.530  1.00  0.00     0.198 A 
ATOM     78  C   UNL A   1      39.866  33.951  36.933  1.00  0.00     0.198 A 
ATOM     79  F   UNL A   1      41.228  33.640  35.040  1.00  0.00    -0.203 F 
ATOM     80  F   UNL A   1      37.243  31.873  38.316  1.00  0.00    -0.200 F 
ATOM     81  C   UNL A   1      38.855  33.510  37.770  1.00  0.00     0.200 A 
ATOM     82  F   UNL A   1      40.464  35.128  37.166  1.00  0.00    -0.200 F 
ATOM     83  F   UNL A   1      38.456  34.268  38.800  1.00  0.00    -0.200 F 
ENDBRANCH  49  73
BRANCH  61  84
ATOM     84  C   UNL A   1      44.803  27.308  34.669  1.00  0.00     0.064 A 
ATOM     85  C   UNL A   1      44.557  26.156  35.431  1.00  0.00     0.173 A 
ATOM     86  C   UNL A   1      46.068  27.906  34.762  1.00  0.00     0.173 A 
ATOM     87  F   UNL A   1      43.357  25.559  35.384  1.00  0.00    -0.203 F 
ATOM     88  C   UNL A   1      45.536  25.633  36.270  1.00  0.00     0.198 A 
ATOM     89  C   UNL A   1      47.052  27.368  35.587  1.00  0.00     0.198 A 
ATOM     90  F   UNL A   1      46.351  29.005  34.049  1.00  0.00    -0.203 F 
ATOM     91  F   UNL A   1      45.270  24.553  37.017  1.00  0.00    -0.200 F 
ATOM     92  C   UNL A   1      46.784  26.236  36.343  1.00  0.00     0.200 A 
ATOM     93  F   UNL A   1      48.260  27.945  35.651  1.00  0.00    -0.200 F 
ATOM     94  F   UNL A   1      47.728  25.728  37.148  1.00  0.00    -0.200 F 
ENDBRANCH  61  84
ENDBRANCH  35  36
ENDBRANCH  28  30
ENDBRANCH  27  28
ENDBRANCH  26  27
ENDBRANCH   1  26
TORSDOF 14
ENDMDL
MODEL 3
REMARK VINA RESULT:     -12.3      1.084      2.752
REMARK SMILES CC(C)(C)CN1C(=O)CC[C@@H](C(=O)OCCOC(=O)c2ccc(-c3c4nc(c(-c5c(F)c(F)c(F)c(F)c5F)c5ccc([nH]5)c(-c5c(F)c(F)c(F)c(F)c5F)c5nc(c(-c6c(F)c(F)c(F)c(F)c6F)c6ccc3[nH]6)C=C5)C=C4)cc2)[C@H]1c1cccc2c1OCO2
REMARK SMILES IDX 15 1 14 2 12 3 13 4 11 5 6 6 7 7 83 8 8 9 9 10 10 11 5 12
REMARK SMILES IDX 2 13 1 14 3 15 4 16 84 17 85 18 89 19 86 20 88 21 90 22
REMARK SMILES IDX 87 23 92 24 91 25 16 26 17 27 18 28 19 29 20 30 21 31 82 32
REMARK SMILES IDX 22 33 81 34 23 35 24 36 25 37 75 38 26 39 80 40 74 41 76 42
REMARK SMILES IDX 27 43 79 44 73 45 72 46 28 48 60 49 40 50 59 51 41 52 44 53
REMARK SMILES IDX 58 54 77 55 42 56 43 57 57 59 78 60 45 61 29 62 30 63 38 64
REMARK SMILES IDX 31 65 32 66 36 67 39 68 33 69 34 70 37 71 35 72 61 73 62 74
REMARK SMILES IDX 70 75 63 76 64 77 68 78 71 79 65 80 66 81 69 82 67 83 46 84
REMARK SMILES IDX 47 85 55 86 48 87 49 88 53 89 56 90 50 91 51 92 54 93 52 94
REMARK H PARENT 76 47 44 58
REMARK Flexibility Score: inf
ROOT
ATOM      1  C   UNL A   1      31.401  28.797  26.611  1.00  0.00     0.274 C 
ENDROOT
BRANCH   1   2
ATOM      2  O   UNL A   1      30.915  27.618  25.934  1.00  0.00    -0.462 OA
BRANCH   2   3
ATOM      3  C   UNL A   1      31.290  26.436  26.500  1.00  0.00     0.311 C 
ATOM      4  O   UNL A   1      31.780  26.339  27.613  1.00  0.00    -0.252 OA
BRANCH   3   5
ATOM      5  C   UNL A   1      31.080  25.276  25.546  1.00  0.00     0.127 C 
ATOM      6  N   UNL A   1      33.239  24.002  25.936  1.00  0.00    -0.334 N 
ATOM      7  C   UNL A   1      32.604  23.054  26.739  1.00  0.00     0.223 C 
ATOM      8  C   UNL A   1      32.399  24.732  24.960  1.00  0.00     0.133 C 
ATOM      9  O   UNL A   1      33.194  22.100  27.247  1.00  0.00    -0.275 OA
ATOM     10  C   UNL A   1      31.124  23.224  27.050  1.00  0.00     0.101 C 
ATOM     11  C   UNL A   1      30.293  24.138  26.172  1.00  0.00     0.028 C 
BRANCH   6  12
ATOM     12  C   UNL A   1      34.666  23.766  25.625  1.00  0.00     0.126 C 
BRANCH  12  13
ATOM     13  C   UNL A   1      35.037  22.722  24.514  1.00  0.00    -0.021 C 
ATOM     14  C   UNL A   1      33.812  22.058  23.874  1.00  0.00     0.012 C 
ATOM     15  C   UNL A   1      35.881  21.611  25.186  1.00  0.00     0.012 C 
ATOM     16  C   UNL A   1      35.911  23.327  23.400  1.00  0.00     0.012 C 
ENDBRANCH  12  13
ENDBRANCH   6  12
BRANCH   8  17
ATOM     17  C   UNL A   1      33.055  25.778  24.069  1.00  0.00     0.022 A 
ATOM     18  C   UNL A   1      33.683  26.942  24.547  1.00  0.00     0.010 A 
ATOM     19  C   UNL A   1      32.980  25.660  22.687  1.00  0.00     0.171 A 
ATOM     20  C   UNL A   1      34.150  27.944  23.676  1.00  0.00     0.004 A 
ATOM     21  C   UNL A   1      33.456  26.631  21.833  1.00  0.00     0.166 A 
ATOM     22  O   UNL A   1      32.434  24.613  22.005  1.00  0.00    -0.453 OA
ATOM     23  C   UNL A   1      34.028  27.794  22.297  1.00  0.00     0.050 A 
ATOM     24  O   UNL A   1      33.278  26.310  20.524  1.00  0.00    -0.454 OA
ATOM     25  C   UNL A   1      32.730  24.983  20.644  1.00  0.00     0.468 C 
ENDBRANCH   8  17
ENDBRANCH   3   5
ENDBRANCH   2   3
ENDBRANCH   1   2
BRANCH   1  26
ATOM     26  C   UNL A   1      31.640  29.969  25.661  1.00  0.00     0.275 C 
BRANCH  26  27
ATOM     27  O   UNL A   1      32.990  30.452  25.791  1.00  0.00    -0.458 OA
BRANCH  27  28
ATOM     28  C   UNL A   1      33.239  31.244  26.856  1.00  0.00     0.338 C 
ATOM     29  O   UNL A   1      32.495  32.075  27.353  1.00  0.00    -0.246 OA
BRANCH  28  30
ATOM     30  C   UNL A   1      34.577  30.952  27.401  1.00  0.00     0.060 A 
ATOM     31  C   UNL A   1      34.939  29.631  27.645  1.00  0.00     0.016 A 
ATOM     32  C   UNL A   1      35.410  31.985  27.826  1.00  0.00     0.016 A 
ATOM     33  C   UNL A   1      36.082  29.328  28.377  1.00  0.00     0.010 A 
ATOM     34  C   UNL A   1      36.602  31.682  28.498  1.00  0.00     0.010 A 
ATOM     35  C   UNL A   1      36.931  30.350  28.810  1.00  0.00    -0.014 A 
BRANCH  35  36
ATOM     36  C   UNL A   1      38.092  30.014  29.675  1.00  0.00     0.031 A 
ATOM     37  C   UNL A   1      39.232  29.218  29.106  1.00  0.00     0.074 A 
ATOM     38  C   UNL A   1      38.177  30.490  30.932  1.00  0.00     0.049 A 
ATOM     39  N   UNL A   1      40.256  28.680  29.719  1.00  0.00    -0.248 NA
ATOM     40  C   UNL A   1      39.219  28.993  27.652  1.00  0.00     0.031 C 
ATOM     41  C   UNL A   1      37.197  31.365  31.574  1.00  0.00     0.029 A 
ATOM     42  N   UNL A   1      39.155  30.332  31.885  1.00  0.00    -0.354 N 
ATOM     43  C   UNL A   1      40.962  27.993  28.742  1.00  0.00     0.074 A 
ATOM     44  C   UNL A   1      40.273  28.208  27.488  1.00  0.00     0.031 C 
ATOM     45  C   UNL A   1      37.653  31.719  32.786  1.00  0.00     0.029 A 
ATOM     46  C   UNL A   1      38.911  31.027  33.044  1.00  0.00     0.049 A 
ATOM     47  H   UNL A   1      39.954  29.774  31.748  1.00  0.00     0.167 HD
ATOM     48  C   UNL A   1      42.073  27.235  28.889  1.00  0.00     0.037 A 
ATOM     49  C   UNL A   1      39.609  31.075  34.195  1.00  0.00     0.037 A 
ATOM     50  C   UNL A   1      42.789  27.080  30.128  1.00  0.00     0.049 A 
ATOM     51  C   UNL A   1      40.840  30.219  34.337  1.00  0.00     0.074 A 
ATOM     52  C   UNL A   1      43.892  26.290  30.398  1.00  0.00     0.029 A 
ATOM     53  N   UNL A   1      42.486  27.759  31.297  1.00  0.00    -0.354 N 
ATOM     54  N   UNL A   1      41.424  29.454  33.447  1.00  0.00    -0.248 NA
ATOM     55  C   UNL A   1      41.483  30.199  35.659  1.00  0.00     0.031 C 
ATOM     56  C   UNL A   1      44.243  26.474  31.741  1.00  0.00     0.029 A 
ATOM     57  C   UNL A   1      43.379  27.404  32.295  1.00  0.00     0.049 A 
ATOM     58  H   UNL A   1      41.747  28.400  31.403  1.00  0.00     0.167 HD
ATOM     59  C   UNL A   1      42.489  28.854  34.101  1.00  0.00     0.074 A 
ATOM     60  C   UNL A   1      42.500  29.375  35.452  1.00  0.00     0.031 C 
ATOM     61  C   UNL A   1      43.367  27.933  33.633  1.00  0.00     0.037 A 
BRANCH  48  62
ATOM     62  C   UNL A   1      42.536  26.453  27.699  1.00  0.00     0.064 A 
ATOM     63  C   UNL A   1      43.527  26.927  26.830  1.00  0.00     0.173 A 
ATOM     64  C   UNL A   1      41.983  25.187  27.442  1.00  0.00     0.173 A 
ATOM     65  F   UNL A   1      44.069  28.138  27.022  1.00  0.00    -0.203 F 
ATOM     66  C   UNL A   1      43.937  26.169  25.736  1.00  0.00     0.198 A 
ATOM     67  C   UNL A   1      42.411  24.424  26.361  1.00  0.00     0.198 A 
ATOM     68  F   UNL A   1      41.030  24.690  28.245  1.00  0.00    -0.203 F 
ATOM     69  F   UNL A   1      44.861  26.655  24.894  1.00  0.00    -0.200 F 
ATOM     70  C   UNL A   1      43.385  24.917  25.506  1.00  0.00     0.200 A 
ATOM     71  F   UNL A   1      41.881  23.212  26.146  1.00  0.00    -0.200 F 
ATOM     72  F   UNL A   1      43.785  24.188  24.454  1.00  0.00    -0.200 F 
ENDBRANCH  48  62
BRANCH  49  73
ATOM     73  C   UNL A   1      39.137  31.919  35.324  1.00  0.00     0.064 A 
ATOM     74  C   UNL A   1      38.357  31.374  36.354  1.00  0.00     0.173 A 
ATOM     75  C   UNL A   1      39.438  33.288  35.391  1.00  0.00     0.173 A 
ATOM     76  F   UNL A   1      38.012  30.078  36.319  1.00  0.00    -0.203 F 
ATOM     77  C   UNL A   1      37.892  32.167  37.402  1.00  0.00     0.198 A 
ATOM     78  C   UNL A   1      38.999  34.072  36.456  1.00  0.00     0.198 A 
ATOM     79  F   UNL A   1      40.168  33.863  34.426  1.00  0.00    -0.203 F 
ATOM     80  F   UNL A   1      37.110  31.630  38.349  1.00  0.00    -0.200 F 
ATOM     81  C   UNL A   1      38.221  33.513  37.457  1.00  0.00     0.200 A 
ATOM     82  F   UNL A   1      39.328  35.370  36.509  1.00  0.00    -0.200 F 
ATOM     83  F   UNL A   1      37.778  34.273  38.467  1.00  0.00    -0.200 F 
ENDBRANCH  49  73
BRANCH  61  84
ATOM     84  C   UNL A   1      44.399  27.424  34.593  1.00  0.00     0.064 A 
ATOM     85  C   UNL A   1      44.175  26.267  35.351  1.00  0.00     0.173 A 
ATOM     86  C   UNL A   1      45.637  28.071  34.722  1.00  0.00     0.173 A 
ATOM     87  F   UNL A   1      43.000  25.623  35.271  1.00  0.00    -0.203 F 
ATOM     88  C   UNL A   1      45.147  25.783  36.221  1.00  0.00     0.198 A 
ATOM     89  C   UNL A   1      46.615  27.573  35.577  1.00  0.00     0.198 A 
ATOM     90  F   UNL A   1      45.899  29.178  34.013  1.00  0.00    -0.203 F 
ATOM     91  F   UNL A   1      44.900  24.696  36.964  1.00  0.00    -0.200 F 
ATOM     92  C   UNL A   1      46.368  26.433  36.329  1.00  0.00     0.200 A 
ATOM     93  F   UNL A   1      47.798  28.195  35.675  1.00  0.00    -0.200 F 
ATOM     94  F   UNL A   1      47.306  25.964  37.164  1.00  0.00    -0.200 F 
ENDBRANCH  61  84
ENDBRANCH  35  36
ENDBRANCH  28  30
ENDBRANCH  27  28
ENDBRANCH  26  27
ENDBRANCH   1  26
TORSDOF 14
ENDMDL
