MODEL 1
REMARK VINA RESULT:     -12.0      0.000      0.000
REMARK SMILES CC(C)(C)[C@@H]1CC(C(=O)OCCOC(=O)c2ccc(-c3c4nc(c(-c5c(F)c(F)c(F)c(F)c5F)c5ccc([nH]5)c(-c5c(F)c(F)c(F)c(F)c5F)c5nc(c(-c6c(F)c(F)c(F)c(F)c6F)c6ccc3[nH]6)C=C5)C=C4)cc2)C[C@@H](C(C)(C)C)C1
REMARK SMILES IDX 12 1 11 2 10 3 8 4 9 5 7 6 5 7 6 8 85 9 80 10 79 11 2 12
REMARK SMILES IDX 1 13 3 14 4 15 81 16 82 17 83 18 84 19 13 20 14 21 15 22
REMARK SMILES IDX 16 23 17 24 78 25 18 26 77 27 19 28 20 29 21 30 71 31 22 32
REMARK SMILES IDX 76 33 70 34 72 35 23 36 75 37 69 38 68 39 24 41 56 42 36 43
REMARK SMILES IDX 55 44 37 45 40 46 54 47 73 48 38 49 39 50 53 52 74 53 41 54
REMARK SMILES IDX 25 55 26 56 34 57 27 58 28 59 32 60 35 61 29 62 30 63 33 64
REMARK SMILES IDX 31 65 57 66 58 67 66 68 59 69 60 70 64 71 67 72 61 73 62 74
REMARK SMILES IDX 65 75 63 76 42 77 43 78 51 79 44 80 45 81 49 82 52 83 46 84
REMARK SMILES IDX 47 85 50 86 48 87
REMARK H PARENT 72 40 40 51
REMARK Flexibility Score: inf
ROOT
ATOM      1  C   UNL A   1      31.586  30.132  25.744  1.00  0.00     0.275 C 
ENDROOT
BRANCH   1   2
ATOM      2  C   UNL A   1      31.395  28.731  25.156  1.00  0.00     0.274 C 
BRANCH   2   3
ATOM      3  O   UNL A   1      32.375  27.815  25.682  1.00  0.00    -0.462 OA
BRANCH   3   4
ATOM      4  C   UNL A   1      33.178  27.210  24.773  1.00  0.00     0.309 C 
ATOM      5  O   UNL A   1      33.789  27.796  23.884  1.00  0.00    -0.252 OA
BRANCH   4   6
ATOM      6  C   UNL A   1      33.341  25.717  25.013  1.00  0.00     0.100 C 
ATOM      7  C   UNL A   1      34.776  23.630  25.111  1.00  0.00    -0.005 C 
ATOM      8  C   UNL A   1      34.774  25.175  25.012  1.00  0.00     0.019 C 
ATOM      9  C   UNL A   1      34.020  23.226  26.390  1.00  0.00     0.008 C 
ATOM     10  C   UNL A   1      32.568  23.749  26.481  1.00  0.00    -0.005 C 
ATOM     11  C   UNL A   1      32.558  25.278  26.255  1.00  0.00     0.019 C 
BRANCH   7  12
ATOM     12  C   UNL A   1      36.202  22.946  24.937  1.00  0.00    -0.035 C 
ATOM     13  C   UNL A   1      36.109  21.509  25.506  1.00  0.00     0.011 C 
ATOM     14  C   UNL A   1      37.337  23.658  25.704  1.00  0.00     0.011 C 
ATOM     15  C   UNL A   1      36.659  22.827  23.468  1.00  0.00     0.011 C 
ENDBRANCH   7  12
BRANCH  10  16
ATOM     16  C   UNL A   1      31.452  22.934  25.693  1.00  0.00    -0.035 C 
ATOM     17  C   UNL A   1      30.990  23.559  24.363  1.00  0.00     0.011 C 
ATOM     18  C   UNL A   1      31.889  21.488  25.384  1.00  0.00     0.011 C 
ATOM     19  C   UNL A   1      30.197  22.845  26.599  1.00  0.00     0.011 C 
ENDBRANCH  10  16
ENDBRANCH   4   6
ENDBRANCH   3   4
ENDBRANCH   2   3
ENDBRANCH   1   2
BRANCH   1  20
ATOM     20  O   UNL A   1      32.977  30.443  25.952  1.00  0.00    -0.458 OA
BRANCH  20  21
ATOM     21  C   UNL A   1      33.225  31.314  26.957  1.00  0.00     0.338 C 
ATOM     22  O   UNL A   1      32.490  32.185  27.387  1.00  0.00    -0.246 OA
BRANCH  21  23
ATOM     23  C   UNL A   1      34.532  31.023  27.563  1.00  0.00     0.060 A 
ATOM     24  C   UNL A   1      34.838  29.694  27.857  1.00  0.00     0.016 A 
ATOM     25  C   UNL A   1      35.388  32.047  27.965  1.00  0.00     0.016 A 
ATOM     26  C   UNL A   1      35.982  29.377  28.581  1.00  0.00     0.010 A 
ATOM     27  C   UNL A   1      36.552  31.729  28.677  1.00  0.00     0.010 A 
ATOM     28  C   UNL A   1      36.845  30.393  29.005  1.00  0.00    -0.014 A 
BRANCH  28  29
ATOM     29  C   UNL A   1      38.022  30.050  29.840  1.00  0.00     0.031 A 
ATOM     30  C   UNL A   1      39.106  29.172  29.284  1.00  0.00     0.074 A 
ATOM     31  C   UNL A   1      38.145  30.570  31.075  1.00  0.00     0.049 A 
ATOM     32  N   UNL A   1      40.159  28.676  29.883  1.00  0.00    -0.248 NA
ATOM     33  C   UNL A   1      38.994  28.809  27.863  1.00  0.00     0.031 C 
ATOM     34  C   UNL A   1      37.200  31.493  31.701  1.00  0.00     0.029 A 
ATOM     35  N   UNL A   1      39.125  30.400  32.021  1.00  0.00    -0.354 N 
ATOM     36  C   UNL A   1      40.822  27.925  28.922  1.00  0.00     0.074 A 
ATOM     37  C   UNL A   1      40.053  28.026  27.700  1.00  0.00     0.031 C 
ATOM     38  C   UNL A   1      37.652  31.819  32.923  1.00  0.00     0.029 A 
ATOM     39  C   UNL A   1      38.889  31.089  33.184  1.00  0.00     0.049 A 
ATOM     40  H   UNL A   1      39.922  29.838  31.878  1.00  0.00     0.167 HD
ATOM     41  C   UNL A   1      41.968  27.217  29.051  1.00  0.00     0.037 A 
ATOM     42  C   UNL A   1      39.578  31.104  34.340  1.00  0.00     0.037 A 
ATOM     43  C   UNL A   1      42.743  27.128  30.260  1.00  0.00     0.049 A 
ATOM     44  C   UNL A   1      40.817  30.264  34.474  1.00  0.00     0.074 A 
ATOM     45  C   UNL A   1      43.893  26.396  30.502  1.00  0.00     0.029 A 
ATOM     46  N   UNL A   1      42.452  27.813  31.431  1.00  0.00    -0.354 N 
ATOM     47  N   UNL A   1      41.396  29.496  33.583  1.00  0.00    -0.248 NA
ATOM     48  C   UNL A   1      41.491  30.279  35.780  1.00  0.00     0.031 C 
ATOM     49  C   UNL A   1      44.289  26.626  31.825  1.00  0.00     0.029 A 
ATOM     50  C   UNL A   1      43.400  27.521  32.397  1.00  0.00     0.049 A 
ATOM     51  H   UNL A   1      41.684  28.416  31.557  1.00  0.00     0.167 HD
ATOM     52  C   UNL A   1      42.501  28.946  34.215  1.00  0.00     0.074 A 
ATOM     53  C   UNL A   1      42.526  29.481  35.560  1.00  0.00     0.031 C 
ATOM     54  C   UNL A   1      43.411  28.070  33.727  1.00  0.00     0.037 A 
BRANCH  41  55
ATOM     55  C   UNL A   1      42.446  26.455  27.854  1.00  0.00     0.064 A 
ATOM     56  C   UNL A   1      43.357  27.014  26.947  1.00  0.00     0.173 A 
ATOM     57  C   UNL A   1      42.021  25.136  27.635  1.00  0.00     0.173 A 
ATOM     58  F   UNL A   1      43.780  28.277  27.108  1.00  0.00    -0.203 F 
ATOM     59  C   UNL A   1      43.820  26.282  25.857  1.00  0.00     0.198 A 
ATOM     60  C   UNL A   1      42.497  24.402  26.554  1.00  0.00     0.198 A 
ATOM     61  F   UNL A   1      41.150  24.560  28.476  1.00  0.00    -0.203 F 
ATOM     62  F   UNL A   1      44.670  26.843  24.986  1.00  0.00    -0.200 F 
ATOM     63  C   UNL A   1      43.394  24.976  25.664  1.00  0.00     0.200 A 
ATOM     64  F   UNL A   1      42.090  23.138  26.372  1.00  0.00    -0.200 F 
ATOM     65  F   UNL A   1      43.844  24.271  24.617  1.00  0.00    -0.200 F 
ENDBRANCH  41  55
BRANCH  42  66
ATOM     66  C   UNL A   1      39.094  31.923  35.479  1.00  0.00     0.064 A 
ATOM     67  C   UNL A   1      39.450  33.273  35.597  1.00  0.00     0.173 A 
ATOM     68  C   UNL A   1      38.278  31.369  36.476  1.00  0.00     0.173 A 
ATOM     69  F   UNL A   1      40.251  33.837  34.683  1.00  0.00    -0.203 F 
ATOM     70  C   UNL A   1      39.015  34.036  36.679  1.00  0.00     0.198 A 
ATOM     71  C   UNL A   1      37.826  32.138  37.544  1.00  0.00     0.198 A 
ATOM     72  F   UNL A   1      37.917  30.079  36.407  1.00  0.00    -0.203 F 
ATOM     73  F   UNL A   1      39.400  35.314  36.791  1.00  0.00    -0.200 F 
ATOM     74  C   UNL A   1      38.199  33.470  37.648  1.00  0.00     0.200 A 
ATOM     75  F   UNL A   1      37.034  31.590  38.474  1.00  0.00    -0.200 F 
ATOM     76  F   UNL A   1      37.782  34.205  38.688  1.00  0.00    -0.200 F 
ENDBRANCH  42  66
BRANCH  54  77
ATOM     77  C   UNL A   1      44.519  27.655  34.645  1.00  0.00     0.064 A 
ATOM     78  C   UNL A   1      45.713  28.385  34.719  1.00  0.00     0.173 A 
ATOM     79  C   UNL A   1      44.372  26.537  35.477  1.00  0.00     0.173 A 
ATOM     80  F   UNL A   1      45.902  29.453  33.928  1.00  0.00    -0.203 F 
ATOM     81  C   UNL A   1      46.731  27.999  35.587  1.00  0.00     0.198 A 
ATOM     82  C   UNL A   1      45.385  26.164  36.355  1.00  0.00     0.198 A 
ATOM     83  F   UNL A   1      43.246  25.810  35.441  1.00  0.00    -0.203 F 
ATOM     84  F   UNL A   1      47.880  28.691  35.619  1.00  0.00    -0.200 F 
ATOM     85  C   UNL A   1      46.566  26.892  36.406  1.00  0.00     0.200 A 
ATOM     86  F   UNL A   1      45.224  25.097  37.150  1.00  0.00    -0.200 F 
ATOM     87  F   UNL A   1      47.546  26.522  37.240  1.00  0.00    -0.200 F 
ENDBRANCH  54  77
ENDBRANCH  28  29
ENDBRANCH  21  23
ENDBRANCH  20  21
ENDBRANCH   1  20
TORSDOF 13
ENDMDL
MODEL 2
REMARK VINA RESULT:     -11.9      0.308      1.720
REMARK SMILES CC(C)(C)[C@@H]1CC(C(=O)OCCOC(=O)c2ccc(-c3c4nc(c(-c5c(F)c(F)c(F)c(F)c5F)c5ccc([nH]5)c(-c5c(F)c(F)c(F)c(F)c5F)c5nc(c(-c6c(F)c(F)c(F)c(F)c6F)c6ccc3[nH]6)C=C5)C=C4)cc2)C[C@@H](C(C)(C)C)C1
REMARK SMILES IDX 12 1 11 2 10 3 8 4 9 5 7 6 5 7 6 8 85 9 80 10 79 11 2 12
REMARK SMILES IDX 1 13 3 14 4 15 81 16 82 17 83 18 84 19 13 20 14 21 15 22
REMARK SMILES IDX 16 23 17 24 78 25 18 26 77 27 19 28 20 29 21 30 71 31 22 32
REMARK SMILES IDX 76 33 70 34 72 35 23 36 75 37 69 38 68 39 24 41 56 42 36 43
REMARK SMILES IDX 55 44 37 45 40 46 54 47 73 48 38 49 39 50 53 52 74 53 41 54
REMARK SMILES IDX 25 55 26 56 34 57 27 58 28 59 32 60 35 61 29 62 30 63 33 64
REMARK SMILES IDX 31 65 57 66 58 67 66 68 59 69 60 70 64 71 67 72 61 73 62 74
REMARK SMILES IDX 65 75 63 76 42 77 43 78 51 79 44 80 45 81 49 82 52 83 46 84
REMARK SMILES IDX 47 85 50 86 48 87
REMARK H PARENT 72 40 40 51
REMARK Flexibility Score: inf
ROOT
ATOM      1  C   UNL A   1      31.740  30.263  25.502  1.00  0.00     0.275 C 
ENDROOT
BRANCH   1   2
ATOM      2  C   UNL A   1      31.582  28.943  24.742  1.00  0.00     0.274 C 
BRANCH   2   3
ATOM      3  O   UNL A   1      32.315  27.886  25.391  1.00  0.00    -0.462 OA
BRANCH   3   4
ATOM      4  C   UNL A   1      33.254  27.260  24.640  1.00  0.00     0.309 C 
ATOM      5  O   UNL A   1      34.005  27.824  23.851  1.00  0.00    -0.252 OA
BRANCH   4   6
ATOM      6  C   UNL A   1      33.369  25.772  24.937  1.00  0.00     0.100 C 
ATOM      7  C   UNL A   1      34.731  23.641  25.100  1.00  0.00    -0.005 C 
ATOM      8  C   UNL A   1      34.782  25.181  24.939  1.00  0.00     0.019 C 
ATOM      9  C   UNL A   1      33.981  23.315  26.404  1.00  0.00     0.008 C 
ATOM     10  C   UNL A   1      32.548  23.892  26.492  1.00  0.00    -0.005 C 
ATOM     11  C   UNL A   1      32.589  25.410  26.207  1.00  0.00     0.019 C 
BRANCH   7  12
ATOM     12  C   UNL A   1      36.130  22.901  24.934  1.00  0.00    -0.035 C 
ATOM     13  C   UNL A   1      37.179  23.684  25.762  1.00  0.00     0.011 C 
ATOM     14  C   UNL A   1      36.649  22.858  23.481  1.00  0.00     0.011 C 
ATOM     15  C   UNL A   1      36.130  21.449  25.454  1.00  0.00     0.011 C 
ENDBRANCH   7  12
BRANCH  10  16
ATOM     16  C   UNL A   1      31.393  23.087  25.753  1.00  0.00    -0.035 C 
ATOM     17  C   UNL A   1      30.844  23.743  24.472  1.00  0.00     0.011 C 
ATOM     18  C   UNL A   1      31.825  21.655  25.376  1.00  0.00     0.011 C 
ATOM     19  C   UNL A   1      30.199  22.958  26.731  1.00  0.00     0.011 C 
ENDBRANCH  10  16
ENDBRANCH   4   6
ENDBRANCH   3   4
ENDBRANCH   2   3
ENDBRANCH   1   2
BRANCH   1  20
ATOM     20  O   UNL A   1      32.565  30.113  26.674  1.00  0.00    -0.458 OA
BRANCH  20  21
ATOM     21  C   UNL A   1      33.135  31.256  27.122  1.00  0.00     0.338 C 
ATOM     22  O   UNL A   1      32.646  32.371  27.152  1.00  0.00    -0.246 OA
BRANCH  21  23
ATOM     23  C   UNL A   1      34.466  30.968  27.678  1.00  0.00     0.060 A 
ATOM     24  C   UNL A   1      34.768  29.647  28.007  1.00  0.00     0.016 A 
ATOM     25  C   UNL A   1      35.352  31.995  28.001  1.00  0.00     0.016 A 
ATOM     26  C   UNL A   1      35.941  29.342  28.688  1.00  0.00     0.010 A 
ATOM     27  C   UNL A   1      36.544  31.687  28.669  1.00  0.00     0.010 A 
ATOM     28  C   UNL A   1      36.835  30.360  29.033  1.00  0.00    -0.014 A 
BRANCH  28  29
ATOM     29  C   UNL A   1      38.045  30.032  29.825  1.00  0.00     0.031 A 
ATOM     30  C   UNL A   1      39.096  29.126  29.249  1.00  0.00     0.074 A 
ATOM     31  C   UNL A   1      38.228  30.588  31.037  1.00  0.00     0.049 A 
ATOM     32  N   UNL A   1      40.171  28.639  29.816  1.00  0.00    -0.248 NA
ATOM     33  C   UNL A   1      38.918  28.721  27.846  1.00  0.00     0.031 C 
ATOM     34  C   UNL A   1      37.320  31.539  31.676  1.00  0.00     0.029 A 
ATOM     35  N   UNL A   1      39.249  30.438  31.943  1.00  0.00    -0.354 N 
ATOM     36  C   UNL A   1      40.784  27.852  28.850  1.00  0.00     0.074 A 
ATOM     37  C   UNL A   1      39.961  27.923  27.661  1.00  0.00     0.031 C 
ATOM     38  C   UNL A   1      37.829  31.898  32.865  1.00  0.00     0.029 A 
ATOM     39  C   UNL A   1      39.071  31.164  33.094  1.00  0.00     0.049 A 
ATOM     40  H   UNL A   1      40.033  29.864  31.782  1.00  0.00     0.167 HD
ATOM     41  C   UNL A   1      41.929  27.137  28.950  1.00  0.00     0.037 A 
ATOM     42  C   UNL A   1      39.811  31.209  34.217  1.00  0.00     0.037 A 
ATOM     43  C   UNL A   1      42.756  27.078  30.125  1.00  0.00     0.049 A 
ATOM     44  C   UNL A   1      41.048  30.360  34.320  1.00  0.00     0.074 A 
ATOM     45  C   UNL A   1      43.910  26.343  30.338  1.00  0.00     0.029 A 
ATOM     46  N   UNL A   1      42.524  27.802  31.286  1.00  0.00    -0.354 N 
ATOM     47  N   UNL A   1      41.580  29.560  33.430  1.00  0.00    -0.248 NA
ATOM     48  C   UNL A   1      41.780  30.410  35.595  1.00  0.00     0.031 C 
ATOM     49  C   UNL A   1      44.367  26.609  31.634  1.00  0.00     0.029 A 
ATOM     50  C   UNL A   1      43.512  27.530  32.217  1.00  0.00     0.049 A 
ATOM     51  H   UNL A   1      41.768  28.416  31.427  1.00  0.00     0.167 HD
ATOM     52  C   UNL A   1      42.708  29.020  34.028  1.00  0.00     0.074 A 
ATOM     53  C   UNL A   1      42.798  29.595  35.354  1.00  0.00     0.031 C 
ATOM     54  C   UNL A   1      43.588  28.120  33.527  1.00  0.00     0.037 A 
BRANCH  41  55
ATOM     55  C   UNL A   1      42.346  26.335  27.756  1.00  0.00     0.064 A 
ATOM     56  C   UNL A   1      43.309  26.810  26.855  1.00  0.00     0.173 A 
ATOM     57  C   UNL A   1      41.809  25.058  27.537  1.00  0.00     0.173 A 
ATOM     58  F   UNL A   1      43.840  28.032  27.018  1.00  0.00    -0.203 F 
ATOM     59  C   UNL A   1      43.712  26.039  25.769  1.00  0.00     0.198 A 
ATOM     60  C   UNL A   1      42.226  24.282  26.459  1.00  0.00     0.198 A 
ATOM     61  F   UNL A   1      40.885  24.561  28.372  1.00  0.00    -0.203 F 
ATOM     62  F   UNL A   1      44.614  26.522  24.903  1.00  0.00    -0.200 F 
ATOM     63  C   UNL A   1      43.175  24.774  25.575  1.00  0.00     0.200 A 
ATOM     64  F   UNL A   1      41.711  23.058  26.276  1.00  0.00    -0.200 F 
ATOM     65  F   UNL A   1      43.569  24.030  24.532  1.00  0.00    -0.200 F 
ENDBRANCH  41  55
BRANCH  42  66
ATOM     66  C   UNL A   1      39.386  32.066  35.350  1.00  0.00     0.064 A 
ATOM     67  C   UNL A   1      38.535  31.571  36.347  1.00  0.00     0.173 A 
ATOM     68  C   UNL A   1      39.810  33.399  35.451  1.00  0.00     0.173 A 
ATOM     69  F   UNL A   1      38.082  30.312  36.276  1.00  0.00    -0.203 F 
ATOM     70  C   UNL A   1      38.116  32.384  37.399  1.00  0.00     0.198 A 
ATOM     71  C   UNL A   1      39.410  34.202  36.514  1.00  0.00     0.198 A 
ATOM     72  F   UNL A   1      40.621  33.917  34.516  1.00  0.00    -0.203 F 
ATOM     73  F   UNL A   1      37.271  31.900  38.320  1.00  0.00    -0.200 F 
ATOM     74  C   UNL A   1      38.558  33.696  37.484  1.00  0.00     0.200 A 
ATOM     75  F   UNL A   1      39.842  35.467  36.596  1.00  0.00    -0.200 F 
ATOM     76  F   UNL A   1      38.154  34.476  38.496  1.00  0.00    -0.200 F 
ENDBRANCH  42  66
BRANCH  54  77
ATOM     77  C   UNL A   1      44.733  27.723  34.407  1.00  0.00     0.064 A 
ATOM     78  C   UNL A   1      44.645  26.612  35.258  1.00  0.00     0.173 A 
ATOM     79  C   UNL A   1      45.935  28.442  34.377  1.00  0.00     0.173 A 
ATOM     80  F   UNL A   1      43.506  25.906  35.330  1.00  0.00    -0.203 F 
ATOM     81  C   UNL A   1      45.720  26.244  36.062  1.00  0.00     0.198 A 
ATOM     82  C   UNL A   1      47.014  28.061  35.170  1.00  0.00     0.198 A 
ATOM     83  F   UNL A   1      46.065  29.511  33.577  1.00  0.00    -0.203 F 
ATOM     84  F   UNL A   1      45.605  25.199  36.894  1.00  0.00    -0.200 F 
ATOM     85  C   UNL A   1      46.904  26.966  36.015  1.00  0.00     0.200 A 
ATOM     86  F   UNL A   1      48.159  28.755  35.122  1.00  0.00    -0.200 F 
ATOM     87  F   UNL A   1      47.937  26.609  36.789  1.00  0.00    -0.200 F 
ENDBRANCH  54  77
ENDBRANCH  28  29
ENDBRANCH  21  23
ENDBRANCH  20  21
ENDBRANCH   1  20
TORSDOF 13
ENDMDL
MODEL 3
REMARK VINA RESULT:     -11.7      4.327      9.687
REMARK SMILES CC(C)(C)[C@@H]1CC(C(=O)OCCOC(=O)c2ccc(-c3c4nc(c(-c5c(F)c(F)c(F)c(F)c5F)c5ccc([nH]5)c(-c5c(F)c(F)c(F)c(F)c5F)c5nc(c(-c6c(F)c(F)c(F)c(F)c6F)c6ccc3[nH]6)C=C5)C=C4)cc2)C[C@@H](C(C)(C)C)C1
REMARK SMILES IDX 12 1 11 2 10 3 8 4 9 5 7 6 5 7 6 8 85 9 80 10 79 11 2 12
REMARK SMILES IDX 1 13 3 14 4 15 81 16 82 17 83 18 84 19 13 20 14 21 15 22
REMARK SMILES IDX 16 23 17 24 78 25 18 26 77 27 19 28 20 29 21 30 71 31 22 32
REMARK SMILES IDX 76 33 70 34 72 35 23 36 75 37 69 38 68 39 24 41 56 42 36 43
REMARK SMILES IDX 55 44 37 45 40 46 54 47 73 48 38 49 39 50 53 52 74 53 41 54
REMARK SMILES IDX 25 55 26 56 34 57 27 58 28 59 32 60 35 61 29 62 30 63 33 64
REMARK SMILES IDX 31 65 57 66 58 67 66 68 59 69 60 70 64 71 67 72 61 73 62 74
REMARK SMILES IDX 65 75 63 76 42 77 43 78 51 79 44 80 45 81 49 82 52 83 46 84
REMARK SMILES IDX 47 85 50 86 48 87
REMARK H PARENT 72 40 40 51
REMARK Flexibility Score: inf
ROOT
ATOM      1  C   UNL A   1      36.538  20.874  25.009  1.00  0.00     0.275 C 
ENDROOT
BRANCH   1   2
ATOM      2  C   UNL A   1      35.021  21.082  25.052  1.00  0.00     0.274 C 
BRANCH   2   3
ATOM      3  O   UNL A   1      34.674  22.418  24.640  1.00  0.00    -0.462 OA
BRANCH   3   4
ATOM      4  C   UNL A   1      34.206  23.241  25.611  1.00  0.00     0.309 C 
ATOM      5  O   UNL A   1      34.275  23.009  26.814  1.00  0.00    -0.252 OA
BRANCH   4   6
ATOM      6  C   UNL A   1      33.661  24.556  25.074  1.00  0.00     0.100 C 
ATOM      7  C   UNL A   1      33.056  26.998  25.384  1.00  0.00    -0.005 C 
ATOM      8  C   UNL A   1      33.787  25.775  25.992  1.00  0.00     0.019 C 
ATOM      9  C   UNL A   1      33.653  27.275  23.992  1.00  0.00     0.008 C 
ATOM     10  C   UNL A   1      33.583  26.086  23.005  1.00  0.00    -0.005 C 
ATOM     11  C   UNL A   1      34.202  24.834  23.667  1.00  0.00     0.019 C 
BRANCH   7  12
ATOM     12  C   UNL A   1      32.967  28.270  26.335  1.00  0.00    -0.035 C 
ATOM     13  C   UNL A   1      32.618  29.495  25.453  1.00  0.00     0.011 C 
ATOM     14  C   UNL A   1      34.288  28.605  27.061  1.00  0.00     0.011 C 
ATOM     15  C   UNL A   1      31.874  28.161  27.418  1.00  0.00     0.011 C 
ENDBRANCH   7  12
BRANCH  10  16
ATOM     16  C   UNL A   1      32.204  25.849  22.249  1.00  0.00    -0.035 C 
ATOM     17  C   UNL A   1      31.373  24.651  22.746  1.00  0.00     0.011 C 
ATOM     18  C   UNL A   1      31.286  27.087  22.301  1.00  0.00     0.011 C 
ATOM     19  C   UNL A   1      32.519  25.580  20.756  1.00  0.00     0.011 C 
ENDBRANCH  10  16
ENDBRANCH   4   6
ENDBRANCH   3   4
ENDBRANCH   2   3
ENDBRANCH   1   2
BRANCH   1  20
ATOM     20  O   UNL A   1      37.241  21.893  25.748  1.00  0.00    -0.458 OA
BRANCH  20  21
ATOM     21  C   UNL A   1      38.542  21.622  25.999  1.00  0.00     0.338 C 
ATOM     22  O   UNL A   1      39.151  20.596  25.754  1.00  0.00    -0.246 OA
BRANCH  21  23
ATOM     23  C   UNL A   1      39.202  22.808  26.566  1.00  0.00     0.060 A 
ATOM     24  C   UNL A   1      38.739  24.065  26.176  1.00  0.00     0.016 A 
ATOM     25  C   UNL A   1      40.345  22.692  27.356  1.00  0.00     0.016 A 
ATOM     26  C   UNL A   1      39.428  25.215  26.545  1.00  0.00     0.010 A 
ATOM     27  C   UNL A   1      41.029  23.850  27.745  1.00  0.00     0.010 A 
ATOM     28  C   UNL A   1      40.585  25.117  27.326  1.00  0.00    -0.014 A 
BRANCH  28  29
ATOM     29  C   UNL A   1      41.352  26.344  27.649  1.00  0.00     0.031 A 
ATOM     30  C   UNL A   1      40.728  27.419  28.493  1.00  0.00     0.074 A 
ATOM     31  C   UNL A   1      42.626  26.471  27.234  1.00  0.00     0.049 A 
ATOM     32  N   UNL A   1      41.192  28.604  28.802  1.00  0.00    -0.248 NA
ATOM     33  C   UNL A   1      39.410  27.118  29.073  1.00  0.00     0.031 C 
ATOM     34  C   UNL A   1      43.370  25.468  26.472  1.00  0.00     0.029 A 
ATOM     35  N   UNL A   1      43.522  27.496  27.404  1.00  0.00    -0.354 N 
ATOM     36  C   UNL A   1      40.216  29.198  29.591  1.00  0.00     0.074 A 
ATOM     37  C   UNL A   1      39.132  28.247  29.712  1.00  0.00     0.031 C 
ATOM     38  C   UNL A   1      44.613  25.922  26.251  1.00  0.00     0.029 A 
ATOM     39  C   UNL A   1      44.737  27.265  26.809  1.00  0.00     0.049 A 
ATOM     40  H   UNL A   1      43.314  28.318  27.905  1.00  0.00     0.167 HD
ATOM     41  C   UNL A   1      40.228  30.426  30.160  1.00  0.00     0.037 A 
ATOM     42  C   UNL A   1      45.818  28.061  26.702  1.00  0.00     0.037 A 
ATOM     43  C   UNL A   1      41.311  31.366  30.054  1.00  0.00     0.049 A 
ATOM     44  C   UNL A   1      45.781  29.442  27.296  1.00  0.00     0.074 A 
ATOM     45  C   UNL A   1      41.394  32.654  30.556  1.00  0.00     0.029 A 
ATOM     46  N   UNL A   1      42.514  31.110  29.413  1.00  0.00    -0.354 N 
ATOM     47  N   UNL A   1      44.824  30.025  27.975  1.00  0.00    -0.248 NA
ATOM     48  C   UNL A   1      46.970  30.281  27.094  1.00  0.00     0.031 C 
ATOM     49  C   UNL A   1      42.642  33.182  30.204  1.00  0.00     0.029 A 
ATOM     50  C   UNL A   1      43.344  32.213  29.506  1.00  0.00     0.049 A 
ATOM     51  H   UNL A   1      42.742  30.267  28.957  1.00  0.00     0.167 HD
ATOM     52  C   UNL A   1      45.296  31.290  28.288  1.00  0.00     0.074 A 
ATOM     53  C   UNL A   1      46.633  31.388  27.741  1.00  0.00     0.031 C 
ATOM     54  C   UNL A   1      44.674  32.287  28.962  1.00  0.00     0.037 A 
BRANCH  41  55
ATOM     55  C   UNL A   1      39.014  30.837  30.934  1.00  0.00     0.064 A 
ATOM     56  C   UNL A   1      38.924  30.633  32.318  1.00  0.00     0.173 A 
ATOM     57  C   UNL A   1      37.947  31.483  30.291  1.00  0.00     0.173 A 
ATOM     58  F   UNL A   1      39.915  30.008  32.973  1.00  0.00    -0.203 F 
ATOM     59  C   UNL A   1      37.804  31.052  33.030  1.00  0.00     0.198 A 
ATOM     60  C   UNL A   1      36.835  31.914  31.008  1.00  0.00     0.198 A 
ATOM     61  F   UNL A   1      37.988  31.699  28.968  1.00  0.00    -0.203 F 
ATOM     62  F   UNL A   1      37.726  30.824  34.348  1.00  0.00    -0.200 F 
ATOM     63  C   UNL A   1      36.764  31.697  32.376  1.00  0.00     0.200 A 
ATOM     64  F   UNL A   1      35.834  32.542  30.377  1.00  0.00    -0.200 F 
ATOM     65  F   UNL A   1      35.688  32.105  33.065  1.00  0.00    -0.200 F 
ENDBRANCH  41  55
BRANCH  42  66
ATOM     66  C   UNL A   1      47.019  27.583  25.975  1.00  0.00     0.064 A 
ATOM     67  C   UNL A   1      48.107  27.032  26.666  1.00  0.00     0.173 A 
ATOM     68  C   UNL A   1      47.109  27.680  24.579  1.00  0.00     0.173 A 
ATOM     69  F   UNL A   1      48.076  26.946  28.002  1.00  0.00    -0.203 F 
ATOM     70  C   UNL A   1      49.245  26.604  25.985  1.00  0.00     0.198 A 
ATOM     71  C   UNL A   1      48.237  27.231  23.899  1.00  0.00     0.198 A 
ATOM     72  F   UNL A   1      46.095  28.206  23.876  1.00  0.00    -0.203 F 
ATOM     73  F   UNL A   1      50.288  26.116  26.671  1.00  0.00    -0.200 F 
ATOM     74  C   UNL A   1      49.307  26.699  24.603  1.00  0.00     0.200 A 
ATOM     75  F   UNL A   1      48.291  27.319  22.563  1.00  0.00    -0.200 F 
ATOM     76  F   UNL A   1      50.403  26.288  23.950  1.00  0.00    -0.200 F 
ENDBRANCH  42  66
BRANCH  54  77
ATOM     77  C   UNL A   1      45.442  33.557  29.164  1.00  0.00     0.064 A 
ATOM     78  C   UNL A   1      45.364  34.609  28.240  1.00  0.00     0.173 A 
ATOM     79  C   UNL A   1      46.239  33.732  30.303  1.00  0.00     0.173 A 
ATOM     80  F   UNL A   1      44.626  34.476  27.127  1.00  0.00    -0.203 F 
ATOM     81  C   UNL A   1      46.072  35.789  28.444  1.00  0.00     0.198 A 
ATOM     82  C   UNL A   1      46.932  34.921  30.512  1.00  0.00     0.198 A 
ATOM     83  F   UNL A   1      46.342  32.754  31.214  1.00  0.00    -0.203 F 
ATOM     84  F   UNL A   1      46.011  36.771  27.533  1.00  0.00    -0.200 F 
ATOM     85  C   UNL A   1      46.851  35.947  29.581  1.00  0.00     0.200 A 
ATOM     86  F   UNL A   1      47.682  35.075  31.612  1.00  0.00    -0.200 F 
ATOM     87  F   UNL A   1      47.532  37.084  29.775  1.00  0.00    -0.200 F 
ENDBRANCH  54  77
ENDBRANCH  28  29
ENDBRANCH  21  23
ENDBRANCH  20  21
ENDBRANCH   1  20
TORSDOF 13
ENDMDL
