MODEL 1
REMARK VINA RESULT:     -12.8      0.000      0.000
REMARK SMILES O=C(OCCOC(=O)[C@@H]1CCCC[C@H]1C(=O)Nc1ccc(NC(=O)c2ccco2)cc1)c1ccc(-c2c3nc(c(-c4c(F)c(F)c(F)c(F)c4F)c4ccc([nH]4)c(-c4c(F)c(F)c(F)c(F)c4F)c4nc(c(-c5c(F)c(F)c(F)c(F)c5F)c5ccc2[nH]5)C=C4)C=C3)cc1
REMARK SMILES IDX 5 1 4 2 3 3 2 4 1 5 32 6 33 7 94 8 34 9 93 10 35 11 36 12
REMARK SMILES IDX 37 13 87 14 38 15 92 16 86 17 88 18 39 19 91 20 85 21 84 22
REMARK SMILES IDX 40 24 72 25 52 26 71 27 53 28 56 29 70 30 89 31 54 32 55 33
REMARK SMILES IDX 69 35 90 36 57 37 41 38 42 39 50 40 43 41 44 42 48 43 51 44
REMARK SMILES IDX 45 45 46 46 49 47 47 48 73 49 74 50 82 51 75 52 76 53 80 54
REMARK SMILES IDX 83 55 77 56 78 57 81 58 79 59 58 60 59 61 67 62 60 63 61 64
REMARK SMILES IDX 65 65 68 66 62 67 63 68 66 69 64 70 6 71 7 72 8 73 9 74
REMARK SMILES IDX 10 75 14 76 11 77 13 78 12 79 15 80 16 81 17 82 18 84 19 85
REMARK SMILES IDX 31 86 20 87 30 88 21 89 22 90 23 91 24 93 25 94 26 95 29 96
REMARK SMILES IDX 27 97 28 98
REMARK H PARENT 88 23 56 34 17 83 22 92
REMARK Flexibility Score: inf
ROOT
ATOM      1  C   UNL A   1      32.008  30.938  26.774  1.00  0.00     0.274 C 
ENDROOT
BRANCH   1   2
ATOM      2  C   UNL A   1      31.376  32.322  26.862  1.00  0.00     0.275 C 
BRANCH   2   3
ATOM      3  O   UNL A   1      32.316  33.402  26.923  1.00  0.00    -0.458 OA
BRANCH   3   4
ATOM      4  C   UNL A   1      32.959  33.901  28.001  1.00  0.00     0.338 C 
ATOM      5  O   UNL A   1      32.555  34.943  28.513  1.00  0.00    -0.246 OA
BRANCH   4   6
ATOM      6  C   UNL A   1      34.254  33.343  28.488  1.00  0.00     0.060 A 
ATOM      7  C   UNL A   1      35.540  33.822  28.227  1.00  0.00     0.016 A 
ATOM      8  C   UNL A   1      34.144  32.188  29.259  1.00  0.00     0.016 A 
ATOM      9  C   UNL A   1      36.672  33.222  28.814  1.00  0.00     0.010 A 
ATOM     10  C   UNL A   1      35.256  31.628  29.891  1.00  0.00     0.010 A 
ATOM     11  C   UNL A   1      36.543  32.132  29.682  1.00  0.00    -0.014 A 
BRANCH  11  12
ATOM     12  C   UNL A   1      37.709  31.462  30.330  1.00  0.00     0.031 A 
ATOM     13  C   UNL A   1      38.181  31.931  31.688  1.00  0.00     0.074 A 
ATOM     14  C   UNL A   1      38.437  30.529  29.680  1.00  0.00     0.049 A 
ATOM     15  N   UNL A   1      39.215  31.539  32.392  1.00  0.00    -0.248 NA
ATOM     16  C   UNL A   1      37.421  33.027  32.312  1.00  0.00     0.031 C 
ATOM     17  C   UNL A   1      38.188  30.041  28.324  1.00  0.00     0.029 A 
ATOM     18  N   UNL A   1      39.575  29.856  30.062  1.00  0.00    -0.354 N 
ATOM     19  C   UNL A   1      39.220  32.345  33.522  1.00  0.00     0.074 A 
ATOM     20  C   UNL A   1      38.198  33.347  33.332  1.00  0.00     0.031 C 
ATOM     21  C   UNL A   1      39.165  29.187  27.971  1.00  0.00     0.029 A 
ATOM     22  C   UNL A   1      40.095  29.041  29.086  1.00  0.00     0.049 A 
ATOM     23  H   UNL A   1      39.979  29.950  30.955  1.00  0.00     0.167 HD
ATOM     24  C   UNL A   1      39.924  32.208  34.671  1.00  0.00     0.037 A 
ATOM     25  C   UNL A   1      41.187  28.252  29.096  1.00  0.00     0.037 A 
ATOM     26  C   UNL A   1      40.879  31.163  34.901  1.00  0.00     0.049 A 
ATOM     27  C   UNL A   1      41.970  28.093  30.372  1.00  0.00     0.074 A 
ATOM     28  C   UNL A   1      41.524  30.815  36.073  1.00  0.00     0.029 A 
ATOM     29  N   UNL A   1      41.318  30.285  33.922  1.00  0.00    -0.354 N 
ATOM     30  N   UNL A   1      41.821  28.715  31.516  1.00  0.00    -0.248 NA
ATOM     31  C   UNL A   1      43.029  27.073  30.380  1.00  0.00     0.031 C 
ATOM     32  C   UNL A   1      42.364  29.728  35.801  1.00  0.00     0.029 A 
ATOM     33  C   UNL A   1      42.226  29.392  34.463  1.00  0.00     0.049 A 
ATOM     34  H   UNL A   1      41.028  30.297  32.983  1.00  0.00     0.167 HD
ATOM     35  C   UNL A   1      42.701  28.104  32.400  1.00  0.00     0.074 A 
ATOM     36  C   UNL A   1      43.410  27.088  31.650  1.00  0.00     0.031 C 
ATOM     37  C   UNL A   1      42.879  28.346  33.721  1.00  0.00     0.037 A 
BRANCH  24  38
ATOM     38  C   UNL A   1      39.584  33.157  35.782  1.00  0.00     0.064 A 
ATOM     39  C   UNL A   1      40.341  34.326  35.984  1.00  0.00     0.173 A 
ATOM     40  C   UNL A   1      38.547  32.885  36.683  1.00  0.00     0.173 A 
ATOM     41  F   UNL A   1      41.348  34.630  35.150  1.00  0.00    -0.203 F 
ATOM     42  C   UNL A   1      40.125  35.141  37.089  1.00  0.00     0.198 A 
ATOM     43  C   UNL A   1      38.308  33.726  37.769  1.00  0.00     0.198 A 
ATOM     44  F   UNL A   1      37.783  31.794  36.530  1.00  0.00    -0.203 F 
ATOM     45  F   UNL A   1      40.925  36.193  37.310  1.00  0.00    -0.200 F 
ATOM     46  C   UNL A   1      39.109  34.841  37.982  1.00  0.00     0.200 A 
ATOM     47  F   UNL A   1      37.318  33.446  38.627  1.00  0.00    -0.200 F 
ATOM     48  F   UNL A   1      38.912  35.615  39.058  1.00  0.00    -0.200 F 
ENDBRANCH  24  38
BRANCH  25  49
ATOM     49  C   UNL A   1      41.550  27.458  27.894  1.00  0.00     0.064 A 
ATOM     50  C   UNL A   1      40.992  26.190  27.677  1.00  0.00     0.173 A 
ATOM     51  C   UNL A   1      42.483  27.930  26.961  1.00  0.00     0.173 A 
ATOM     52  F   UNL A   1      40.108  25.692  28.554  1.00  0.00    -0.203 F 
ATOM     53  C   UNL A   1      41.375  25.410  26.589  1.00  0.00     0.198 A 
ATOM     54  C   UNL A   1      42.855  27.154  25.863  1.00  0.00     0.198 A 
ATOM     55  F   UNL A   1      43.041  29.139  27.120  1.00  0.00    -0.203 F 
ATOM     56  F   UNL A   1      40.857  24.185  26.431  1.00  0.00    -0.200 F 
ATOM     57  C   UNL A   1      42.307  25.893  25.683  1.00  0.00     0.200 A 
ATOM     58  F   UNL A   1      43.752  27.624  24.984  1.00  0.00    -0.200 F 
ATOM     59  F   UNL A   1      42.684  25.138  24.641  1.00  0.00    -0.200 F 
ENDBRANCH  25  49
BRANCH  37  60
ATOM     60  C   UNL A   1      43.788  27.427  34.478  1.00  0.00     0.064 A 
ATOM     61  C   UNL A   1      45.126  27.751  34.736  1.00  0.00     0.173 A 
ATOM     62  C   UNL A   1      43.285  26.227  35.004  1.00  0.00     0.173 A 
ATOM     63  F   UNL A   1      45.656  28.877  34.237  1.00  0.00    -0.203 F 
ATOM     64  C   UNL A   1      45.933  26.899  35.484  1.00  0.00     0.198 A 
ATOM     65  C   UNL A   1      44.087  25.389  35.773  1.00  0.00     0.198 A 
ATOM     66  F   UNL A   1      42.009  25.874  34.784  1.00  0.00    -0.203 F 
ATOM     67  F   UNL A   1      47.220  27.210  35.692  1.00  0.00    -0.200 F 
ATOM     68  C   UNL A   1      45.411  25.725  36.010  1.00  0.00     0.200 A 
ATOM     69  F   UNL A   1      43.579  24.261  36.286  1.00  0.00    -0.200 F 
ATOM     70  F   UNL A   1      46.187  24.912  36.740  1.00  0.00    -0.200 F 
ENDBRANCH  37  60
ENDBRANCH  11  12
ENDBRANCH   4   6
ENDBRANCH   3   4
ENDBRANCH   2   3
ENDBRANCH   1   2
BRANCH   1  71
ATOM     71  O   UNL A   1      31.411  30.057  25.807  1.00  0.00    -0.462 OA
BRANCH  71  72
ATOM     72  C   UNL A   1      31.675  28.736  26.012  1.00  0.00     0.309 C 
ATOM     73  O   UNL A   1      31.538  28.168  27.088  1.00  0.00    -0.252 OA
BRANCH  72  74
ATOM     74  C   UNL A   1      32.271  28.048  24.791  1.00  0.00     0.111 C 
ATOM     75  C   UNL A   1      33.390  28.882  24.147  1.00  0.00     0.016 C 
ATOM     76  C   UNL A   1      31.249  27.591  23.746  1.00  0.00     0.093 C 
ATOM     77  C   UNL A   1      34.074  28.105  23.024  1.00  0.00     0.001 C 
ATOM     78  C   UNL A   1      31.920  26.844  22.581  1.00  0.00     0.014 C 
ATOM     79  C   UNL A   1      33.077  27.633  21.972  1.00  0.00     0.001 C 
BRANCH  76  80
ATOM     80  C   UNL A   1      30.002  26.815  24.200  1.00  0.00     0.228 C 
ATOM     81  O   UNL A   1      28.971  26.833  23.518  1.00  0.00    -0.274 OA
ATOM     82  N   UNL A   1      30.007  25.983  25.289  1.00  0.00    -0.326 N 
ATOM     83  H   UNL A   1      29.452  26.173  26.079  1.00  0.00     0.169 HD
BRANCH  82  84
ATOM     84  C   UNL A   1      30.832  24.850  25.236  1.00  0.00     0.041 A 
ATOM     85  C   UNL A   1      31.498  24.465  26.394  1.00  0.00     0.028 A 
ATOM     86  C   UNL A   1      30.877  24.056  24.104  1.00  0.00     0.028 A 
ATOM     87  C   UNL A   1      32.040  23.186  26.475  1.00  0.00     0.028 A 
ATOM     88  C   UNL A   1      31.370  22.757  24.209  1.00  0.00     0.028 A 
ATOM     89  C   UNL A   1      31.877  22.284  25.426  1.00  0.00     0.041 A 
BRANCH  89  90
ATOM     90  N   UNL A   1      32.120  20.903  25.500  1.00  0.00    -0.319 N 
ATOM     91  C   UNL A   1      33.260  20.134  25.379  1.00  0.00     0.291 C 
ATOM     92  H   UNL A   1      31.310  20.374  25.676  1.00  0.00     0.170 HD
ATOM     93  O   UNL A   1      33.139  18.924  25.594  1.00  0.00    -0.265 OA
BRANCH  91  94
ATOM     94  C   UNL A   1      34.526  20.736  25.051  1.00  0.00     0.191 A 
ATOM     95  C   UNL A   1      34.862  21.944  24.467  1.00  0.00     0.056 A 
ATOM     96  O   UNL A   1      35.664  20.033  25.337  1.00  0.00    -0.459 OA
ATOM     97  C   UNL A   1      36.277  21.962  24.365  1.00  0.00     0.043 A 
ATOM     98  C   UNL A   1      36.716  20.782  24.919  1.00  0.00     0.196 A 
ENDBRANCH  91  94
ENDBRANCH  89  90
ENDBRANCH  82  84
ENDBRANCH  76  80
ENDBRANCH  72  74
ENDBRANCH  71  72
ENDBRANCH   1  71
TORSDOF 15
ENDMDL
MODEL 2
REMARK VINA RESULT:     -12.8      0.837      1.675
REMARK SMILES O=C(OCCOC(=O)[C@@H]1CCCC[C@H]1C(=O)Nc1ccc(NC(=O)c2ccco2)cc1)c1ccc(-c2c3nc(c(-c4c(F)c(F)c(F)c(F)c4F)c4ccc([nH]4)c(-c4c(F)c(F)c(F)c(F)c4F)c4nc(c(-c5c(F)c(F)c(F)c(F)c5F)c5ccc2[nH]5)C=C4)C=C3)cc1
REMARK SMILES IDX 5 1 4 2 3 3 2 4 1 5 32 6 33 7 94 8 34 9 93 10 35 11 36 12
REMARK SMILES IDX 37 13 87 14 38 15 92 16 86 17 88 18 39 19 91 20 85 21 84 22
REMARK SMILES IDX 40 24 72 25 52 26 71 27 53 28 56 29 70 30 89 31 54 32 55 33
REMARK SMILES IDX 69 35 90 36 57 37 41 38 42 39 50 40 43 41 44 42 48 43 51 44
REMARK SMILES IDX 45 45 46 46 49 47 47 48 73 49 74 50 82 51 75 52 76 53 80 54
REMARK SMILES IDX 83 55 77 56 78 57 81 58 79 59 58 60 59 61 67 62 60 63 61 64
REMARK SMILES IDX 65 65 68 66 62 67 63 68 66 69 64 70 6 71 7 72 8 73 9 74
REMARK SMILES IDX 10 75 14 76 11 77 13 78 12 79 15 80 16 81 17 82 18 84 19 85
REMARK SMILES IDX 31 86 20 87 30 88 21 89 22 90 23 91 24 93 25 94 26 95 29 96
REMARK SMILES IDX 27 97 28 98
REMARK H PARENT 88 23 56 34 17 83 22 92
REMARK Flexibility Score: inf
ROOT
ATOM      1  C   UNL A   1      32.285  30.685  26.138  1.00  0.00     0.274 C 
ENDROOT
BRANCH   1   2
ATOM      2  C   UNL A   1      31.567  31.858  26.794  1.00  0.00     0.275 C 
BRANCH   2   3
ATOM      3  O   UNL A   1      32.321  33.076  26.822  1.00  0.00    -0.458 OA
BRANCH   3   4
ATOM      4  C   UNL A   1      32.965  33.646  27.864  1.00  0.00     0.338 C 
ATOM      5  O   UNL A   1      32.550  34.710  28.319  1.00  0.00    -0.246 OA
BRANCH   4   6
ATOM      6  C   UNL A   1      34.272  33.136  28.371  1.00  0.00     0.060 A 
ATOM      7  C   UNL A   1      35.541  33.677  28.151  1.00  0.00     0.016 A 
ATOM      8  C   UNL A   1      34.195  31.959  29.115  1.00  0.00     0.016 A 
ATOM      9  C   UNL A   1      36.685  33.114  28.754  1.00  0.00     0.010 A 
ATOM     10  C   UNL A   1      35.317  31.436  29.762  1.00  0.00     0.010 A 
ATOM     11  C   UNL A   1      36.584  32.001  29.595  1.00  0.00    -0.014 A 
BRANCH  11  12
ATOM     12  C   UNL A   1      37.763  31.369  30.257  1.00  0.00     0.031 A 
ATOM     13  C   UNL A   1      38.223  31.875  31.606  1.00  0.00     0.074 A 
ATOM     14  C   UNL A   1      38.512  30.439  29.626  1.00  0.00     0.049 A 
ATOM     15  N   UNL A   1      39.265  31.520  32.319  1.00  0.00    -0.248 NA
ATOM     16  C   UNL A   1      37.439  32.967  32.207  1.00  0.00     0.031 C 
ATOM     17  C   UNL A   1      38.276  29.920  28.280  1.00  0.00     0.029 A 
ATOM     18  N   UNL A   1      39.664  29.799  30.023  1.00  0.00    -0.354 N 
ATOM     19  C   UNL A   1      39.250  32.348  33.433  1.00  0.00     0.074 A 
ATOM     20  C   UNL A   1      38.207  33.324  33.222  1.00  0.00     0.031 C 
ATOM     21  C   UNL A   1      39.271  29.080  27.945  1.00  0.00     0.029 A 
ATOM     22  C   UNL A   1      40.203  28.976  29.064  1.00  0.00     0.049 A 
ATOM     23  H   UNL A   1      40.065  29.919  30.915  1.00  0.00     0.167 HD
ATOM     24  C   UNL A   1      39.956  32.248  34.585  1.00  0.00     0.037 A 
ATOM     25  C   UNL A   1      41.312  28.212  29.091  1.00  0.00     0.037 A 
ATOM     26  C   UNL A   1      40.933  31.229  34.837  1.00  0.00     0.049 A 
ATOM     27  C   UNL A   1      42.096  28.094  30.371  1.00  0.00     0.074 A 
ATOM     28  C   UNL A   1      41.583  30.919  36.016  1.00  0.00     0.029 A 
ATOM     29  N   UNL A   1      41.392  30.342  33.876  1.00  0.00    -0.354 N 
ATOM     30  N   UNL A   1      41.932  28.736  31.502  1.00  0.00    -0.248 NA
ATOM     31  C   UNL A   1      43.177  27.098  30.400  1.00  0.00     0.031 C 
ATOM     32  C   UNL A   1      42.447  29.845  35.766  1.00  0.00     0.029 A 
ATOM     33  C   UNL A   1      42.318  29.480  34.435  1.00  0.00     0.049 A 
ATOM     34  H   UNL A   1      41.103  30.329  32.936  1.00  0.00     0.167 HD
ATOM     35  C   UNL A   1      42.824  28.161  32.399  1.00  0.00     0.074 A 
ATOM     36  C   UNL A   1      43.555  27.146  31.670  1.00  0.00     0.031 C 
ATOM     37  C   UNL A   1      42.995  28.433  33.714  1.00  0.00     0.037 A 
BRANCH  24  38
ATOM     38  C   UNL A   1      39.594  33.212  35.677  1.00  0.00     0.064 A 
ATOM     39  C   UNL A   1      40.258  34.447  35.793  1.00  0.00     0.173 A 
ATOM     40  C   UNL A   1      38.632  32.893  36.643  1.00  0.00     0.173 A 
ATOM     41  F   UNL A   1      41.191  34.798  34.894  1.00  0.00    -0.203 F 
ATOM     42  C   UNL A   1      40.030  35.287  36.877  1.00  0.00     0.198 A 
ATOM     43  C   UNL A   1      38.378  33.756  37.708  1.00  0.00     0.198 A 
ATOM     44  F   UNL A   1      37.956  31.737  36.572  1.00  0.00    -0.203 F 
ATOM     45  F   UNL A   1      40.748  36.410  37.014  1.00  0.00    -0.200 F 
ATOM     46  C   UNL A   1      39.091  34.941  37.835  1.00  0.00     0.200 A 
ATOM     47  F   UNL A   1      37.460  33.431  38.628  1.00  0.00    -0.200 F 
ATOM     48  F   UNL A   1      38.885  35.741  38.890  1.00  0.00    -0.200 F 
ENDBRANCH  24  38
BRANCH  25  49
ATOM     49  C   UNL A   1      41.693  27.401  27.905  1.00  0.00     0.064 A 
ATOM     50  C   UNL A   1      42.566  27.917  26.936  1.00  0.00     0.173 A 
ATOM     51  C   UNL A   1      41.171  26.118  27.698  1.00  0.00     0.173 A 
ATOM     52  F   UNL A   1      43.076  29.148  27.084  1.00  0.00    -0.203 F 
ATOM     53  C   UNL A   1      42.877  27.192  25.789  1.00  0.00     0.198 A 
ATOM     54  C   UNL A   1      41.496  25.386  26.556  1.00  0.00     0.198 A 
ATOM     55  F   UNL A   1      40.338  25.578  28.600  1.00  0.00    -0.203 F 
ATOM     56  F   UNL A   1      43.679  27.727  24.858  1.00  0.00    -0.200 F 
ATOM     57  C   UNL A   1      42.342  25.927  25.599  1.00  0.00     0.200 A 
ATOM     58  F   UNL A   1      40.982  24.161  26.377  1.00  0.00    -0.200 F 
ATOM     59  F   UNL A   1      42.633  25.233  24.490  1.00  0.00    -0.200 F 
ENDBRANCH  25  49
BRANCH  37  60
ATOM     60  C   UNL A   1      43.922  27.549  34.491  1.00  0.00     0.064 A 
ATOM     61  C   UNL A   1      45.267  27.881  34.696  1.00  0.00     0.173 A 
ATOM     62  C   UNL A   1      43.431  26.378  35.088  1.00  0.00     0.173 A 
ATOM     63  F   UNL A   1      45.785  28.980  34.129  1.00  0.00    -0.203 F 
ATOM     64  C   UNL A   1      46.093  27.064  35.463  1.00  0.00     0.198 A 
ATOM     65  C   UNL A   1      44.253  25.576  35.874  1.00  0.00     0.198 A 
ATOM     66  F   UNL A   1      42.149  26.019  34.920  1.00  0.00    -0.203 F 
ATOM     67  F   UNL A   1      47.385  27.380  35.621  1.00  0.00    -0.200 F 
ATOM     68  C   UNL A   1      45.583  25.918  36.059  1.00  0.00     0.200 A 
ATOM     69  F   UNL A   1      43.756  24.475  36.455  1.00  0.00    -0.200 F 
ATOM     70  F   UNL A   1      46.377  25.140  36.807  1.00  0.00    -0.200 F 
ENDBRANCH  37  60
ENDBRANCH  11  12
ENDBRANCH   4   6
ENDBRANCH   3   4
ENDBRANCH   2   3
ENDBRANCH   1   2
BRANCH   1  71
ATOM     71  O   UNL A   1      31.459  29.540  25.866  1.00  0.00    -0.462 OA
BRANCH  71  72
ATOM     72  C   UNL A   1      31.141  29.376  24.551  1.00  0.00     0.309 C 
ATOM     73  O   UNL A   1      30.279  30.022  23.968  1.00  0.00    -0.252 OA
BRANCH  72  74
ATOM     74  C   UNL A   1      31.887  28.223  23.894  1.00  0.00     0.111 C 
ATOM     75  C   UNL A   1      32.753  28.694  22.713  1.00  0.00     0.016 C 
ATOM     76  C   UNL A   1      31.011  27.031  23.498  1.00  0.00     0.093 C 
ATOM     77  C   UNL A   1      33.607  27.550  22.172  1.00  0.00     0.001 C 
ATOM     78  C   UNL A   1      31.846  25.882  22.908  1.00  0.00     0.014 C 
ATOM     79  C   UNL A   1      32.759  26.347  21.776  1.00  0.00     0.001 C 
BRANCH  76  80
ATOM     80  C   UNL A   1      30.007  26.463  24.514  1.00  0.00     0.228 C 
ATOM     81  O   UNL A   1      28.941  25.968  24.129  1.00  0.00    -0.274 OA
ATOM     82  N   UNL A   1      30.287  26.365  25.851  1.00  0.00    -0.326 N 
ATOM     83  H   UNL A   1      29.774  26.876  26.519  1.00  0.00     0.169 HD
BRANCH  82  84
ATOM     84  C   UNL A   1      31.330  25.510  26.234  1.00  0.00     0.041 A 
ATOM     85  C   UNL A   1      31.023  24.186  26.527  1.00  0.00     0.028 A 
ATOM     86  C   UNL A   1      32.647  25.932  26.190  1.00  0.00     0.028 A 
ATOM     87  C   UNL A   1      32.047  23.244  26.577  1.00  0.00     0.028 A 
ATOM     88  C   UNL A   1      33.662  24.978  26.183  1.00  0.00     0.028 A 
ATOM     89  C   UNL A   1      33.359  23.614  26.289  1.00  0.00     0.041 A 
BRANCH  89  90
ATOM     90  N   UNL A   1      34.412  22.723  26.028  1.00  0.00    -0.319 N 
ATOM     91  C   UNL A   1      34.647  21.802  25.028  1.00  0.00     0.291 C 
ATOM     92  H   UNL A   1      35.133  22.766  26.696  1.00  0.00     0.170 HD
ATOM     93  O   UNL A   1      35.742  21.231  25.045  1.00  0.00    -0.265 OA
BRANCH  91  94
ATOM     94  C   UNL A   1      33.666  21.556  24.004  1.00  0.00     0.191 A 
ATOM     95  C   UNL A   1      33.186  22.332  22.964  1.00  0.00     0.056 A 
ATOM     96  O   UNL A   1      33.038  20.341  23.996  1.00  0.00    -0.459 OA
ATOM     97  C   UNL A   1      32.192  21.559  22.311  1.00  0.00     0.043 A 
ATOM     98  C   UNL A   1      32.150  20.353  22.970  1.00  0.00     0.196 A 
ENDBRANCH  91  94
ENDBRANCH  89  90
ENDBRANCH  82  84
ENDBRANCH  76  80
ENDBRANCH  72  74
ENDBRANCH  71  72
ENDBRANCH   1  71
TORSDOF 15
ENDMDL
MODEL 3
REMARK VINA RESULT:     -12.8      1.740      2.811
REMARK SMILES O=C(OCCOC(=O)[C@@H]1CCCC[C@H]1C(=O)Nc1ccc(NC(=O)c2ccco2)cc1)c1ccc(-c2c3nc(c(-c4c(F)c(F)c(F)c(F)c4F)c4ccc([nH]4)c(-c4c(F)c(F)c(F)c(F)c4F)c4nc(c(-c5c(F)c(F)c(F)c(F)c5F)c5ccc2[nH]5)C=C4)C=C3)cc1
REMARK SMILES IDX 5 1 4 2 3 3 2 4 1 5 32 6 33 7 94 8 34 9 93 10 35 11 36 12
REMARK SMILES IDX 37 13 87 14 38 15 92 16 86 17 88 18 39 19 91 20 85 21 84 22
REMARK SMILES IDX 40 24 72 25 52 26 71 27 53 28 56 29 70 30 89 31 54 32 55 33
REMARK SMILES IDX 69 35 90 36 57 37 41 38 42 39 50 40 43 41 44 42 48 43 51 44
REMARK SMILES IDX 45 45 46 46 49 47 47 48 73 49 74 50 82 51 75 52 76 53 80 54
REMARK SMILES IDX 83 55 77 56 78 57 81 58 79 59 58 60 59 61 67 62 60 63 61 64
REMARK SMILES IDX 65 65 68 66 62 67 63 68 66 69 64 70 6 71 7 72 8 73 9 74
REMARK SMILES IDX 10 75 14 76 11 77 13 78 12 79 15 80 16 81 17 82 18 84 19 85
REMARK SMILES IDX 31 86 20 87 30 88 21 89 22 90 23 91 24 93 25 94 26 95 29 96
REMARK SMILES IDX 27 97 28 98
REMARK H PARENT 88 23 56 34 17 83 22 92
REMARK Flexibility Score: inf
ROOT
ATOM      1  C   UNL A   1      31.833  29.205  25.564  1.00  0.00     0.274 C 
ENDROOT
BRANCH   1   2
ATOM      2  C   UNL A   1      31.969  30.291  26.625  1.00  0.00     0.275 C 
BRANCH   2   3
ATOM      3  O   UNL A   1      33.120  31.131  26.471  1.00  0.00    -0.458 OA
BRANCH   3   4
ATOM      4  C   UNL A   1      33.758  31.867  27.407  1.00  0.00     0.338 C 
ATOM      5  O   UNL A   1      33.341  32.992  27.675  1.00  0.00    -0.246 OA
BRANCH   4   6
ATOM      6  C   UNL A   1      35.063  31.450  27.999  1.00  0.00     0.060 A 
ATOM      7  C   UNL A   1      36.233  32.205  28.101  1.00  0.00     0.016 A 
ATOM      8  C   UNL A   1      35.104  30.136  28.463  1.00  0.00     0.016 A 
ATOM      9  C   UNL A   1      37.375  31.692  28.749  1.00  0.00     0.010 A 
ATOM     10  C   UNL A   1      36.212  29.647  29.158  1.00  0.00     0.010 A 
ATOM     11  C   UNL A   1      37.370  30.413  29.315  1.00  0.00    -0.014 A 
BRANCH  11  12
ATOM     12  C   UNL A   1      38.552  29.824  30.012  1.00  0.00     0.031 A 
ATOM     13  C   UNL A   1      38.926  30.314  31.393  1.00  0.00     0.074 A 
ATOM     14  C   UNL A   1      39.376  28.954  29.390  1.00  0.00     0.049 A 
ATOM     15  N   UNL A   1      39.953  29.992  32.142  1.00  0.00    -0.248 NA
ATOM     16  C   UNL A   1      38.059  31.345  31.988  1.00  0.00     0.031 C 
ATOM     17  C   UNL A   1      39.226  28.462  28.022  1.00  0.00     0.029 A 
ATOM     18  N   UNL A   1      40.542  28.363  29.821  1.00  0.00    -0.354 N 
ATOM     19  C   UNL A   1      39.846  30.786  33.276  1.00  0.00     0.074 A 
ATOM     20  C   UNL A   1      38.763  31.712  33.045  1.00  0.00     0.031 C 
ATOM     21  C   UNL A   1      40.278  27.685  27.709  1.00  0.00     0.029 A 
ATOM     22  C   UNL A   1      41.165  27.598  28.864  1.00  0.00     0.049 A 
ATOM     23  H   UNL A   1      40.897  28.477  30.732  1.00  0.00     0.167 HD
ATOM     24  C   UNL A   1      40.507  30.690  34.455  1.00  0.00     0.037 A 
ATOM     25  C   UNL A   1      42.311  26.891  28.920  1.00  0.00     0.037 A 
ATOM     26  C   UNL A   1      41.524  29.715  34.723  1.00  0.00     0.049 A 
ATOM     27  C   UNL A   1      43.044  26.778  30.230  1.00  0.00     0.074 A 
ATOM     28  C   UNL A   1      42.139  29.405  35.921  1.00  0.00     0.029 A 
ATOM     29  N   UNL A   1      42.071  28.882  33.759  1.00  0.00    -0.354 N 
ATOM     30  N   UNL A   1      42.798  27.377  31.370  1.00  0.00    -0.248 NA
ATOM     31  C   UNL A   1      44.174  25.839  30.280  1.00  0.00     0.031 C 
ATOM     32  C   UNL A   1      43.069  28.386  35.681  1.00  0.00     0.029 A 
ATOM     33  C   UNL A   1      43.017  28.053  34.336  1.00  0.00     0.049 A 
ATOM     34  H   UNL A   1      41.824  28.881  32.808  1.00  0.00     0.167 HD
ATOM     35  C   UNL A   1      43.679  26.823  32.289  1.00  0.00     0.074 A 
ATOM     36  C   UNL A   1      44.495  25.869  31.567  1.00  0.00     0.031 C 
ATOM     37  C   UNL A   1      43.779  27.065  33.618  1.00  0.00     0.037 A 
BRANCH  24  38
ATOM     38  C   UNL A   1      40.047  31.601  35.555  1.00  0.00     0.064 A 
ATOM     39  C   UNL A   1      38.913  31.283  36.324  1.00  0.00     0.173 A 
ATOM     40  C   UNL A   1      40.693  32.816  35.814  1.00  0.00     0.173 A 
ATOM     41  F   UNL A   1      38.256  30.131  36.112  1.00  0.00    -0.203 F 
ATOM     42  C   UNL A   1      38.396  32.181  37.250  1.00  0.00     0.198 A 
ATOM     43  C   UNL A   1      40.194  33.698  36.772  1.00  0.00     0.198 A 
ATOM     44  F   UNL A   1      41.789  33.163  35.123  1.00  0.00    -0.203 F 
ATOM     45  F   UNL A   1      37.258  31.894  37.897  1.00  0.00    -0.200 F 
ATOM     46  C   UNL A   1      39.037  33.389  37.474  1.00  0.00     0.200 A 
ATOM     47  F   UNL A   1      40.820  34.861  37.000  1.00  0.00    -0.200 F 
ATOM     48  F   UNL A   1      38.529  34.263  38.353  1.00  0.00    -0.200 F 
ENDBRANCH  24  38
BRANCH  25  49
ATOM     49  C   UNL A   1      42.786  26.137  27.731  1.00  0.00     0.064 A 
ATOM     50  C   UNL A   1      43.724  26.699  26.854  1.00  0.00     0.173 A 
ATOM     51  C   UNL A   1      42.289  24.863  27.428  1.00  0.00     0.173 A 
ATOM     52  F   UNL A   1      44.213  27.924  27.096  1.00  0.00    -0.203 F 
ATOM     53  C   UNL A   1      44.126  26.028  25.702  1.00  0.00     0.198 A 
ATOM     54  C   UNL A   1      42.704  24.184  26.282  1.00  0.00     0.198 A 
ATOM     55  F   UNL A   1      41.394  24.279  28.239  1.00  0.00    -0.203 F 
ATOM     56  F   UNL A   1      44.992  26.608  24.859  1.00  0.00    -0.200 F 
ATOM     57  C   UNL A   1      43.615  24.771  25.416  1.00  0.00     0.200 A 
ATOM     58  F   UNL A   1      42.213  22.967  26.010  1.00  0.00    -0.200 F 
ATOM     59  F   UNL A   1      43.994  24.130  24.302  1.00  0.00    -0.200 F 
ENDBRANCH  25  49
BRANCH  37  60
ATOM     60  C   UNL A   1      44.717  26.208  34.411  1.00  0.00     0.064 A 
ATOM     61  C   UNL A   1      46.023  26.617  34.712  1.00  0.00     0.173 A 
ATOM     62  C   UNL A   1      44.274  24.980  34.926  1.00  0.00     0.173 A 
ATOM     63  F   UNL A   1      46.497  27.774  34.226  1.00  0.00    -0.203 F 
ATOM     64  C   UNL A   1      46.857  25.821  35.492  1.00  0.00     0.198 A 
ATOM     65  C   UNL A   1      45.101  24.198  35.726  1.00  0.00     0.198 A 
ATOM     66  F   UNL A   1      43.032  24.547  34.665  1.00  0.00    -0.203 F 
ATOM     67  F   UNL A   1      48.113  26.213  35.742  1.00  0.00    -0.200 F 
ATOM     68  C   UNL A   1      46.392  24.618  36.006  1.00  0.00     0.200 A 
ATOM     69  F   UNL A   1      44.648  23.041  36.228  1.00  0.00    -0.200 F 
ATOM     70  F   UNL A   1      47.193  23.859  36.767  1.00  0.00    -0.200 F 
ENDBRANCH  37  60
ENDBRANCH  11  12
ENDBRANCH   4   6
ENDBRANCH   3   4
ENDBRANCH   2   3
ENDBRANCH   1   2
BRANCH   1  71
ATOM     71  O   UNL A   1      33.042  28.898  24.849  1.00  0.00    -0.462 OA
BRANCH  71  72
ATOM     72  C   UNL A   1      33.601  27.699  25.177  1.00  0.00     0.309 C 
ATOM     73  O   UNL A   1      34.355  27.532  26.126  1.00  0.00    -0.252 OA
BRANCH  72  74
ATOM     74  C   UNL A   1      33.285  26.598  24.175  1.00  0.00     0.111 C 
ATOM     75  C   UNL A   1      33.063  27.151  22.758  1.00  0.00     0.016 C 
ATOM     76  C   UNL A   1      32.148  25.659  24.587  1.00  0.00     0.093 C 
ATOM     77  C   UNL A   1      32.903  26.018  21.747  1.00  0.00     0.001 C 
ATOM     78  C   UNL A   1      31.937  24.533  23.560  1.00  0.00     0.014 C 
ATOM     79  C   UNL A   1      31.780  25.065  22.137  1.00  0.00     0.001 C 
BRANCH  76  80
ATOM     80  C   UNL A   1      32.136  25.065  26.005  1.00  0.00     0.228 C 
ATOM     81  O   UNL A   1      31.214  25.327  26.785  1.00  0.00    -0.274 OA
ATOM     82  N   UNL A   1      33.056  24.140  26.424  1.00  0.00    -0.326 N 
ATOM     83  H   UNL A   1      33.689  24.342  27.151  1.00  0.00     0.169 HD
BRANCH  82  84
ATOM     84  C   UNL A   1      33.063  22.894  25.780  1.00  0.00     0.041 A 
ATOM     85  C   UNL A   1      31.957  22.065  25.935  1.00  0.00     0.028 A 
ATOM     86  C   UNL A   1      34.077  22.552  24.903  1.00  0.00     0.028 A 
ATOM     87  C   UNL A   1      31.777  20.997  25.062  1.00  0.00     0.028 A 
ATOM     88  C   UNL A   1      33.865  21.518  23.994  1.00  0.00     0.028 A 
ATOM     89  C   UNL A   1      32.669  20.788  24.012  1.00  0.00     0.041 A 
BRANCH  89  90
ATOM     90  N   UNL A   1      32.445  19.940  22.916  1.00  0.00    -0.319 N 
ATOM     91  C   UNL A   1      32.522  18.573  22.745  1.00  0.00     0.291 C 
ATOM     92  H   UNL A   1      32.175  20.420  22.101  1.00  0.00     0.170 HD
ATOM     93  O   UNL A   1      32.163  18.128  21.650  1.00  0.00    -0.265 OA
BRANCH  91  94
ATOM     94  C   UNL A   1      32.969  17.718  23.814  1.00  0.00     0.191 A 
ATOM     95  C   UNL A   1      34.116  16.964  23.989  1.00  0.00     0.056 A 
ATOM     96  O   UNL A   1      32.153  17.569  24.901  1.00  0.00    -0.459 OA
ATOM     97  C   UNL A   1      33.972  16.297  25.233  1.00  0.00     0.043 A 
ATOM     98  C   UNL A   1      32.767  16.709  25.752  1.00  0.00     0.196 A 
ENDBRANCH  91  94
ENDBRANCH  89  90
ENDBRANCH  82  84
ENDBRANCH  76  80
ENDBRANCH  72  74
ENDBRANCH  71  72
ENDBRANCH   1  71
TORSDOF 15
ENDMDL
