MODEL 1
REMARK VINA RESULT:     -11.2      0.000      0.000
REMARK SMILES CC1=C(C)C(=O)N(C[C@H](CC(C)C)C(=O)OCCOC(=O)c2ccc(-c3c4nc(c(-c5c(F)c(F)c(F)c(F)c5F)c5ccc([nH]5)c(-c5c(F)c(F)c(F)c(F)c5F)c5nc(c(-c6c(F)c(F)c(F)c(F)c6F)c6ccc3[nH]6)C=C5)C=C4)cc2)C1=O
REMARK SMILES IDX 17 1 16 2 14 3 15 4 9 5 8 6 7 7 1 8 2 9 3 10 85 11 4 12 5 13
REMARK SMILES IDX 86 14 6 15 10 16 11 17 12 18 13 19 18 20 19 21 20 22 21 23
REMARK SMILES IDX 22 24 23 25 84 26 24 27 83 28 25 29 26 30 27 31 77 32 28 33
REMARK SMILES IDX 82 34 76 35 78 36 29 37 81 38 75 39 74 40 30 42 62 43 42 44
REMARK SMILES IDX 61 45 43 46 46 47 60 48 79 49 44 50 45 51 59 53 80 54 47 55
REMARK SMILES IDX 31 56 32 57 40 58 33 59 34 60 38 61 41 62 35 63 36 64 39 65
REMARK SMILES IDX 37 66 63 67 64 68 72 69 65 70 66 71 70 72 73 73 67 74 68 75
REMARK SMILES IDX 71 76 69 77 48 78 49 79 57 80 50 81 51 82 55 83 58 84 52 85
REMARK SMILES IDX 53 86 56 87 54 88
REMARK H PARENT 78 41 46 52
REMARK Flexibility Score: inf
ROOT
ATOM      1  C   UNL A   1      35.840  20.215  24.941  1.00  0.00     0.274 C 
ENDROOT
BRANCH   1   2
ATOM      2  O   UNL A   1      34.913  20.990  25.727  1.00  0.00    -0.462 OA
BRANCH   2   3
ATOM      3  C   UNL A   1      33.637  21.032  25.269  1.00  0.00     0.310 C 
ATOM      4  O   UNL A   1      32.911  20.053  25.129  1.00  0.00    -0.252 OA
BRANCH   3   5
ATOM      5  C   UNL A   1      33.174  22.436  24.895  1.00  0.00     0.119 C 
BRANCH   5   6
ATOM      6  C   UNL A   1      31.626  22.422  25.042  1.00  0.00     0.144 C 
BRANCH   6   7
ATOM      7  N   UNL A   1      31.068  23.757  25.147  1.00  0.00    -0.274 N 
ATOM      8  C   UNL A   1      31.480  27.042  26.645  1.00  0.00     0.051 C 
ATOM      9  C   UNL A   1      30.987  25.908  25.832  1.00  0.00     0.023 C 
ATOM     10  C   UNL A   1      30.496  25.886  24.588  1.00  0.00     0.023 C 
ATOM     11  C   UNL A   1      31.177  24.519  26.263  1.00  0.00     0.256 C 
ATOM     12  C   UNL A   1      30.174  27.012  23.684  1.00  0.00     0.051 C 
ATOM     13  C   UNL A   1      30.529  24.482  24.135  1.00  0.00     0.256 C 
ATOM     14  O   UNL A   1      31.475  24.169  27.389  1.00  0.00    -0.269 OA
ATOM     15  O   UNL A   1      30.218  24.109  23.017  1.00  0.00    -0.269 OA
ENDBRANCH   6   7
ENDBRANCH   5   6
BRANCH   5  16
ATOM     16  C   UNL A   1      33.740  22.959  23.542  1.00  0.00     0.020 C 
BRANCH  16  17
ATOM     17  C   UNL A   1      34.461  24.329  23.563  1.00  0.00    -0.017 C 
ATOM     18  C   UNL A   1      33.684  25.415  22.823  1.00  0.00     0.007 C 
ATOM     19  C   UNL A   1      34.618  24.793  25.018  1.00  0.00     0.007 C 
ENDBRANCH  16  17
ENDBRANCH   5  16
ENDBRANCH   3   5
ENDBRANCH   2   3
ENDBRANCH   1   2
BRANCH   1  20
ATOM     20  C   UNL A   1      37.130  20.996  24.685  1.00  0.00     0.275 C 
BRANCH  20  21
ATOM     21  O   UNL A   1      37.585  21.647  25.890  1.00  0.00    -0.458 OA
BRANCH  21  22
ATOM     22  C   UNL A   1      38.903  21.492  26.142  1.00  0.00     0.338 C 
ATOM     23  O   UNL A   1      39.585  20.507  25.911  1.00  0.00    -0.246 OA
BRANCH  22  24
ATOM     24  C   UNL A   1      39.486  22.713  26.719  1.00  0.00     0.060 A 
ATOM     25  C   UNL A   1      39.093  23.961  26.235  1.00  0.00     0.016 A 
ATOM     26  C   UNL A   1      40.584  22.609  27.568  1.00  0.00     0.016 A 
ATOM     27  C   UNL A   1      39.842  25.095  26.525  1.00  0.00     0.010 A 
ATOM     28  C   UNL A   1      41.278  23.765  27.941  1.00  0.00     0.010 A 
ATOM     29  C   UNL A   1      40.927  25.017  27.405  1.00  0.00    -0.014 A 
BRANCH  29  30
ATOM     30  C   UNL A   1      41.665  26.247  27.789  1.00  0.00     0.031 A 
ATOM     31  C   UNL A   1      41.000  27.325  28.599  1.00  0.00     0.074 A 
ATOM     32  C   UNL A   1      42.942  26.397  27.388  1.00  0.00     0.049 A 
ATOM     33  N   UNL A   1      41.431  28.528  28.888  1.00  0.00    -0.248 NA
ATOM     34  C   UNL A   1      39.673  27.015  29.152  1.00  0.00     0.031 C 
ATOM     35  C   UNL A   1      43.714  25.405  26.636  1.00  0.00     0.029 A 
ATOM     36  N   UNL A   1      43.816  27.443  27.547  1.00  0.00    -0.354 N 
ATOM     37  C   UNL A   1      40.419  29.129  29.626  1.00  0.00     0.074 A 
ATOM     38  C   UNL A   1      39.343  28.164  29.726  1.00  0.00     0.031 C 
ATOM     39  C   UNL A   1      44.946  25.881  26.413  1.00  0.00     0.029 A 
ATOM     40  C   UNL A   1      45.025  27.242  26.927  1.00  0.00     0.049 A 
ATOM     41  H   UNL A   1      43.597  28.258  28.055  1.00  0.00     0.167 HD
ATOM     42  C   UNL A   1      40.397  30.371  30.169  1.00  0.00     0.037 A 
ATOM     43  C   UNL A   1      46.065  28.076  26.747  1.00  0.00     0.037 A 
ATOM     44  C   UNL A   1      41.482  31.317  30.075  1.00  0.00     0.049 A 
ATOM     45  C   UNL A   1      45.978  29.474  27.288  1.00  0.00     0.074 A 
ATOM     46  C   UNL A   1      41.561  32.596  30.600  1.00  0.00     0.029 A 
ATOM     47  N   UNL A   1      42.678  31.086  29.410  1.00  0.00    -0.354 N 
ATOM     48  N   UNL A   1      45.015  30.040  27.973  1.00  0.00    -0.248 NA
ATOM     49  C   UNL A   1      47.125  30.353  27.025  1.00  0.00     0.031 C 
ATOM     50  C   UNL A   1      42.780  33.158  30.206  1.00  0.00     0.029 A 
ATOM     51  C   UNL A   1      43.490  32.207  29.491  1.00  0.00     0.049 A 
ATOM     52  H   UNL A   1      42.916  30.249  28.949  1.00  0.00     0.167 HD
ATOM     53  C   UNL A   1      45.448  31.328  28.249  1.00  0.00     0.074 A 
ATOM     54  C   UNL A   1      46.771  31.455  27.670  1.00  0.00     0.031 C 
ATOM     55  C   UNL A   1      44.808  32.317  28.920  1.00  0.00     0.037 A 
BRANCH  42  56
ATOM     56  C   UNL A   1      39.148  30.799  30.888  1.00  0.00     0.064 A 
ATOM     57  C   UNL A   1      38.059  31.369  30.211  1.00  0.00     0.173 A 
ATOM     58  C   UNL A   1      39.019  30.588  32.271  1.00  0.00     0.173 A 
ATOM     59  F   UNL A   1      38.130  31.601  28.892  1.00  0.00    -0.203 F 
ATOM     60  C   UNL A   1      36.902  31.739  30.895  1.00  0.00     0.198 A 
ATOM     61  C   UNL A   1      37.849  30.928  32.945  1.00  0.00     0.198 A 
ATOM     62  F   UNL A   1      40.024  30.037  32.968  1.00  0.00    -0.203 F 
ATOM     63  F   UNL A   1      35.894  32.325  30.235  1.00  0.00    -0.200 F 
ATOM     64  C   UNL A   1      36.795  31.511  32.259  1.00  0.00     0.200 A 
ATOM     65  F   UNL A   1      37.741  30.690  34.260  1.00  0.00    -0.200 F 
ATOM     66  F   UNL A   1      35.677  31.856  32.912  1.00  0.00    -0.200 F 
ENDBRANCH  42  56
BRANCH  43  67
ATOM     67  C   UNL A   1      47.261  27.618  25.992  1.00  0.00     0.064 A 
ATOM     68  C   UNL A   1      48.335  27.004  26.650  1.00  0.00     0.173 A 
ATOM     69  C   UNL A   1      47.360  27.790  24.602  1.00  0.00     0.173 A 
ATOM     70  F   UNL A   1      48.296  26.837  27.980  1.00  0.00    -0.203 F 
ATOM     71  C   UNL A   1      49.470  26.602  25.952  1.00  0.00     0.198 A 
ATOM     72  C   UNL A   1      48.480  27.355  23.900  1.00  0.00     0.198 A 
ATOM     73  F   UNL A   1      46.358  28.370  23.923  1.00  0.00    -0.203 F 
ATOM     74  F   UNL A   1      50.505  26.067  26.614  1.00  0.00    -0.200 F 
ATOM     75  C   UNL A   1      49.540  26.770  24.577  1.00  0.00     0.200 A 
ATOM     76  F   UNL A   1      48.535  27.503  22.570  1.00  0.00    -0.200 F 
ATOM     77  F   UNL A   1      50.631  26.379  23.906  1.00  0.00    -0.200 F 
ENDBRANCH  43  67
BRANCH  55  78
ATOM     78  C   UNL A   1      45.554  33.608  29.108  1.00  0.00     0.064 A 
ATOM     79  C   UNL A   1      46.399  33.822  30.207  1.00  0.00     0.173 A 
ATOM     80  C   UNL A   1      45.435  34.637  28.162  1.00  0.00     0.173 A 
ATOM     81  F   UNL A   1      46.533  32.878  31.151  1.00  0.00    -0.203 F 
ATOM     82  C   UNL A   1      47.074  35.030  30.366  1.00  0.00     0.198 A 
ATOM     83  C   UNL A   1      46.138  35.830  28.306  1.00  0.00     0.198 A 
ATOM     84  F   UNL A   1      44.642  34.483  27.089  1.00  0.00    -0.203 F 
ATOM     85  F   UNL A   1      47.831  35.234  31.452  1.00  0.00    -0.200 F 
ATOM     86  C   UNL A   1      46.948  36.029  29.412  1.00  0.00     0.200 A 
ATOM     87  F   UNL A   1      46.026  36.787  27.375  1.00  0.00    -0.200 F 
ATOM     88  F   UNL A   1      47.603  37.188  29.563  1.00  0.00    -0.200 F 
ENDBRANCH  55  78
ENDBRANCH  29  30
ENDBRANCH  22  24
ENDBRANCH  21  22
ENDBRANCH  20  21
ENDBRANCH   1  20
TORSDOF 15
ENDMDL
MODEL 2
REMARK VINA RESULT:     -11.1      4.429      9.694
REMARK SMILES CC1=C(C)C(=O)N(C[C@H](CC(C)C)C(=O)OCCOC(=O)c2ccc(-c3c4nc(c(-c5c(F)c(F)c(F)c(F)c5F)c5ccc([nH]5)c(-c5c(F)c(F)c(F)c(F)c5F)c5nc(c(-c6c(F)c(F)c(F)c(F)c6F)c6ccc3[nH]6)C=C5)C=C4)cc2)C1=O
REMARK SMILES IDX 17 1 16 2 14 3 15 4 9 5 8 6 7 7 1 8 2 9 3 10 85 11 4 12 5 13
REMARK SMILES IDX 86 14 6 15 10 16 11 17 12 18 13 19 18 20 19 21 20 22 21 23
REMARK SMILES IDX 22 24 23 25 84 26 24 27 83 28 25 29 26 30 27 31 77 32 28 33
REMARK SMILES IDX 82 34 76 35 78 36 29 37 81 38 75 39 74 40 30 42 62 43 42 44
REMARK SMILES IDX 61 45 43 46 46 47 60 48 79 49 44 50 45 51 59 53 80 54 47 55
REMARK SMILES IDX 31 56 32 57 40 58 33 59 34 60 38 61 41 62 35 63 36 64 39 65
REMARK SMILES IDX 37 66 63 67 64 68 72 69 65 70 66 71 70 72 73 73 67 74 68 75
REMARK SMILES IDX 71 76 69 77 48 78 49 79 57 80 50 81 51 82 55 83 58 84 52 85
REMARK SMILES IDX 53 86 56 87 54 88
REMARK H PARENT 78 41 46 52
REMARK Flexibility Score: inf
ROOT
ATOM      1  C   UNL A   1      31.244  29.730  24.916  1.00  0.00     0.274 C 
ENDROOT
BRANCH   1   2
ATOM      2  O   UNL A   1      31.316  29.134  23.605  1.00  0.00    -0.462 OA
BRANCH   2   3
ATOM      3  C   UNL A   1      30.553  28.030  23.413  1.00  0.00     0.310 C 
ATOM      4  O   UNL A   1      29.406  28.039  22.977  1.00  0.00    -0.252 OA
BRANCH   3   5
ATOM      5  C   UNL A   1      31.244  26.736  23.829  1.00  0.00     0.119 C 
BRANCH   5   6
ATOM      6  C   UNL A   1      31.161  25.797  22.593  1.00  0.00     0.144 C 
BRANCH   6   7
ATOM      7  N   UNL A   1      32.069  24.669  22.693  1.00  0.00    -0.274 N 
ATOM      8  C   UNL A   1      35.426  23.627  23.613  1.00  0.00     0.051 C 
ATOM      9  C   UNL A   1      34.008  23.624  23.190  1.00  0.00     0.023 C 
ATOM     10  C   UNL A   1      33.027  22.757  23.465  1.00  0.00     0.023 C 
ATOM     11  C   UNL A   1      33.408  24.780  22.515  1.00  0.00     0.256 C 
ATOM     12  C   UNL A   1      33.089  21.462  24.177  1.00  0.00     0.051 C 
ATOM     13  C   UNL A   1      31.754  23.424  23.130  1.00  0.00     0.256 C 
ATOM     14  O   UNL A   1      34.029  25.690  22.001  1.00  0.00    -0.269 OA
ATOM     15  O   UNL A   1      30.650  22.945  23.323  1.00  0.00    -0.269 OA
ENDBRANCH   6   7
ENDBRANCH   5   6
BRANCH   5  16
ATOM     16  C   UNL A   1      30.745  26.150  25.183  1.00  0.00     0.020 C 
BRANCH  16  17
ATOM     17  C   UNL A   1      31.816  25.872  26.267  1.00  0.00    -0.017 C 
ATOM     18  C   UNL A   1      31.965  24.384  26.578  1.00  0.00     0.007 C 
ATOM     19  C   UNL A   1      33.179  26.372  25.768  1.00  0.00     0.007 C 
ENDBRANCH  16  17
ENDBRANCH   5  16
ENDBRANCH   3   5
ENDBRANCH   2   3
ENDBRANCH   1   2
BRANCH   1  20
ATOM     20  C   UNL A   1      32.642  29.985  25.481  1.00  0.00     0.275 C 
BRANCH  20  21
ATOM     21  O   UNL A   1      32.580  30.274  26.894  1.00  0.00    -0.458 OA
BRANCH  21  22
ATOM     22  C   UNL A   1      33.273  31.372  27.268  1.00  0.00     0.338 C 
ATOM     23  O   UNL A   1      32.887  32.529  27.240  1.00  0.00    -0.246 OA
BRANCH  22  24
ATOM     24  C   UNL A   1      34.603  31.017  27.783  1.00  0.00     0.060 A 
ATOM     25  C   UNL A   1      34.834  29.730  28.269  1.00  0.00     0.016 A 
ATOM     26  C   UNL A   1      35.542  32.023  28.000  1.00  0.00     0.016 A 
ATOM     27  C   UNL A   1      35.957  29.462  29.044  1.00  0.00     0.010 A 
ATOM     28  C   UNL A   1      36.720  31.727  28.693  1.00  0.00     0.010 A 
ATOM     29  C   UNL A   1      36.929  30.449  29.241  1.00  0.00    -0.014 A 
BRANCH  29  30
ATOM     30  C   UNL A   1      38.174  30.130  29.986  1.00  0.00     0.031 A 
ATOM     31  C   UNL A   1      39.208  29.209  29.402  1.00  0.00     0.074 A 
ATOM     32  C   UNL A   1      38.361  30.667  31.207  1.00  0.00     0.049 A 
ATOM     33  N   UNL A   1      40.271  28.693  29.970  1.00  0.00    -0.248 NA
ATOM     34  C   UNL A   1      39.023  28.808  28.000  1.00  0.00     0.031 C 
ATOM     35  C   UNL A   1      37.453  31.609  31.865  1.00  0.00     0.029 A 
ATOM     36  N   UNL A   1      39.371  30.491  32.120  1.00  0.00    -0.354 N 
ATOM     37  C   UNL A   1      40.862  27.883  29.008  1.00  0.00     0.074 A 
ATOM     38  C   UNL A   1      40.030  27.962  27.824  1.00  0.00     0.031 C 
ATOM     39  C   UNL A   1      37.952  31.940  33.064  1.00  0.00     0.029 A 
ATOM     40  C   UNL A   1      39.166  31.169  33.296  1.00  0.00     0.049 A 
ATOM     41  H   UNL A   1      40.164  29.933  31.947  1.00  0.00     0.167 HD
ATOM     42  C   UNL A   1      41.995  27.147  29.108  1.00  0.00     0.037 A 
ATOM     43  C   UNL A   1      39.851  31.137  34.455  1.00  0.00     0.037 A 
ATOM     44  C   UNL A   1      42.824  27.090  30.287  1.00  0.00     0.049 A 
ATOM     45  C   UNL A   1      41.056  30.248  34.563  1.00  0.00     0.074 A 
ATOM     46  C   UNL A   1      43.997  26.382  30.485  1.00  0.00     0.029 A 
ATOM     47  N   UNL A   1      42.564  27.767  31.471  1.00  0.00    -0.354 N 
ATOM     48  N   UNL A   1      41.601  29.476  33.655  1.00  0.00    -0.248 NA
ATOM     49  C   UNL A   1      41.738  30.221  35.863  1.00  0.00     0.031 C 
ATOM     50  C   UNL A   1      44.417  26.587  31.804  1.00  0.00     0.029 A 
ATOM     51  C   UNL A   1      43.542  27.473  32.410  1.00  0.00     0.049 A 
ATOM     52  H   UNL A   1      41.799  28.368  31.622  1.00  0.00     0.167 HD
ATOM     53  C   UNL A   1      42.705  28.896  34.262  1.00  0.00     0.074 A 
ATOM     54  C   UNL A   1      42.762  29.418  35.612  1.00  0.00     0.031 C 
ATOM     55  C   UNL A   1      43.592  28.009  33.747  1.00  0.00     0.037 A 
BRANCH  42  56
ATOM     56  C   UNL A   1      42.396  26.313  27.923  1.00  0.00     0.064 A 
ATOM     57  C   UNL A   1      43.332  26.764  26.980  1.00  0.00     0.173 A 
ATOM     58  C   UNL A   1      41.873  25.020  27.757  1.00  0.00     0.173 A 
ATOM     59  F   UNL A   1      43.858  27.994  27.085  1.00  0.00    -0.203 F 
ATOM     60  C   UNL A   1      43.706  25.965  25.901  1.00  0.00     0.198 A 
ATOM     61  C   UNL A   1      42.274  24.212  26.696  1.00  0.00     0.198 A 
ATOM     62  F   UNL A   1      40.983  24.532  28.634  1.00  0.00    -0.203 F 
ATOM     63  F   UNL A   1      44.566  26.436  24.987  1.00  0.00    -0.200 F 
ATOM     64  C   UNL A   1      43.183  24.688  25.764  1.00  0.00     0.200 A 
ATOM     65  F   UNL A   1      41.781  22.971  26.576  1.00  0.00    -0.200 F 
ATOM     66  F   UNL A   1      43.553  23.917  24.732  1.00  0.00    -0.200 F 
ENDBRANCH  42  56
BRANCH  43  67
ATOM     67  C   UNL A   1      39.390  31.949  35.611  1.00  0.00     0.064 A 
ATOM     68  C   UNL A   1      39.876  33.247  35.818  1.00  0.00     0.173 A 
ATOM     69  C   UNL A   1      38.462  31.446  36.536  1.00  0.00     0.173 A 
ATOM     70  F   UNL A   1      40.780  33.764  34.973  1.00  0.00    -0.203 F 
ATOM     71  C   UNL A   1      39.470  34.000  36.916  1.00  0.00     0.198 A 
ATOM     72  C   UNL A   1      38.029  32.213  37.614  1.00  0.00     0.198 A 
ATOM     73  F   UNL A   1      37.962  30.210  36.383  1.00  0.00    -0.203 F 
ATOM     74  F   UNL A   1      39.993  35.217  37.119  1.00  0.00    -0.200 F 
ATOM     75  C   UNL A   1      38.543  33.486  37.810  1.00  0.00     0.200 A 
ATOM     76  F   UNL A   1      37.120  31.719  38.464  1.00  0.00    -0.200 F 
ATOM     77  F   UNL A   1      38.150  34.213  38.864  1.00  0.00    -0.200 F 
ENDBRANCH  43  67
BRANCH  55  78
ATOM     78  C   UNL A   1      44.730  27.587  34.633  1.00  0.00     0.064 A 
ATOM     79  C   UNL A   1      44.651  26.448  35.448  1.00  0.00     0.173 A 
ATOM     80  C   UNL A   1      45.924  28.324  34.649  1.00  0.00     0.173 A 
ATOM     81  F   UNL A   1      43.525  25.719  35.484  1.00  0.00    -0.203 F 
ATOM     82  C   UNL A   1      45.715  26.080  36.268  1.00  0.00     0.198 A 
ATOM     83  C   UNL A   1      46.998  27.933  35.444  1.00  0.00     0.198 A 
ATOM     84  F   UNL A   1      46.054  29.420  33.885  1.00  0.00    -0.203 F 
ATOM     85  F   UNL A   1      45.596  25.022  37.081  1.00  0.00    -0.200 F 
ATOM     86  C   UNL A   1      46.889  26.818  36.259  1.00  0.00     0.200 A 
ATOM     87  F   UNL A   1      48.136  28.640  35.423  1.00  0.00    -0.200 F 
ATOM     88  F   UNL A   1      47.913  26.459  37.045  1.00  0.00    -0.200 F 
ENDBRANCH  55  78
ENDBRANCH  29  30
ENDBRANCH  22  24
ENDBRANCH  21  22
ENDBRANCH  20  21
ENDBRANCH   1  20
TORSDOF 15
ENDMDL
MODEL 3
REMARK VINA RESULT:     -11.1      4.506      9.774
REMARK SMILES CC1=C(C)C(=O)N(C[C@H](CC(C)C)C(=O)OCCOC(=O)c2ccc(-c3c4nc(c(-c5c(F)c(F)c(F)c(F)c5F)c5ccc([nH]5)c(-c5c(F)c(F)c(F)c(F)c5F)c5nc(c(-c6c(F)c(F)c(F)c(F)c6F)c6ccc3[nH]6)C=C5)C=C4)cc2)C1=O
REMARK SMILES IDX 17 1 16 2 14 3 15 4 9 5 8 6 7 7 1 8 2 9 3 10 85 11 4 12 5 13
REMARK SMILES IDX 86 14 6 15 10 16 11 17 12 18 13 19 18 20 19 21 20 22 21 23
REMARK SMILES IDX 22 24 23 25 84 26 24 27 83 28 25 29 26 30 27 31 77 32 28 33
REMARK SMILES IDX 82 34 76 35 78 36 29 37 81 38 75 39 74 40 30 42 62 43 42 44
REMARK SMILES IDX 61 45 43 46 46 47 60 48 79 49 44 50 45 51 59 53 80 54 47 55
REMARK SMILES IDX 31 56 32 57 40 58 33 59 34 60 38 61 41 62 35 63 36 64 39 65
REMARK SMILES IDX 37 66 63 67 64 68 72 69 65 70 66 71 70 72 73 73 67 74 68 75
REMARK SMILES IDX 71 76 69 77 48 78 49 79 57 80 50 81 51 82 55 83 58 84 52 85
REMARK SMILES IDX 53 86 56 87 54 88
REMARK H PARENT 78 41 46 52
REMARK Flexibility Score: inf
ROOT
ATOM      1  C   UNL A   1      31.745  29.820  24.790  1.00  0.00     0.274 C 
ENDROOT
BRANCH   1   2
ATOM      2  O   UNL A   1      30.488  29.489  24.168  1.00  0.00    -0.462 OA
BRANCH   2   3
ATOM      3  C   UNL A   1      30.553  28.637  23.114  1.00  0.00     0.310 C 
ATOM      4  O   UNL A   1      30.190  28.905  21.973  1.00  0.00    -0.252 OA
BRANCH   3   5
ATOM      5  C   UNL A   1      31.100  27.261  23.481  1.00  0.00     0.119 C 
BRANCH   5   6
ATOM      6  C   UNL A   1      32.130  26.908  22.372  1.00  0.00     0.144 C 
BRANCH   6   7
ATOM      7  N   UNL A   1      33.171  26.016  22.848  1.00  0.00    -0.274 N 
ATOM      8  C   UNL A   1      34.809  24.663  25.795  1.00  0.00     0.051 C 
ATOM      9  C   UNL A   1      34.403  24.929  24.398  1.00  0.00     0.023 C 
ATOM     10  C   UNL A   1      34.267  24.091  23.364  1.00  0.00     0.023 C 
ATOM     11  C   UNL A   1      33.865  26.231  23.992  1.00  0.00     0.256 C 
ATOM     12  C   UNL A   1      34.605  22.654  23.267  1.00  0.00     0.051 C 
ATOM     13  C   UNL A   1      33.476  24.796  22.337  1.00  0.00     0.256 C 
ATOM     14  O   UNL A   1      33.956  27.259  24.636  1.00  0.00    -0.269 OA
ATOM     15  O   UNL A   1      33.104  24.298  21.288  1.00  0.00    -0.269 OA
ENDBRANCH   6   7
ENDBRANCH   5   6
BRANCH   5  16
ATOM     16  C   UNL A   1      30.004  26.195  23.777  1.00  0.00     0.020 C 
BRANCH  16  17
ATOM     17  C   UNL A   1      30.134  25.403  25.102  1.00  0.00    -0.017 C 
ATOM     18  C   UNL A   1      30.906  24.097  24.933  1.00  0.00     0.007 C 
ATOM     19  C   UNL A   1      30.898  26.254  26.126  1.00  0.00     0.007 C 
ENDBRANCH  16  17
ENDBRANCH   5  16
ENDBRANCH   3   5
ENDBRANCH   2   3
ENDBRANCH   1   2
BRANCH   1  20
ATOM     20  C   UNL A   1      31.548  30.820  25.930  1.00  0.00     0.275 C 
BRANCH  20  21
ATOM     21  O   UNL A   1      32.506  30.593  26.985  1.00  0.00    -0.458 OA
BRANCH  21  22
ATOM     22  C   UNL A   1      33.244  31.678  27.309  1.00  0.00     0.338 C 
ATOM     23  O   UNL A   1      32.898  32.847  27.247  1.00  0.00    -0.246 OA
BRANCH  22  24
ATOM     24  C   UNL A   1      34.570  31.293  27.814  1.00  0.00     0.060 A 
ATOM     25  C   UNL A   1      34.784  29.992  28.269  1.00  0.00     0.016 A 
ATOM     26  C   UNL A   1      35.522  32.280  28.053  1.00  0.00     0.016 A 
ATOM     27  C   UNL A   1      35.905  29.690  29.035  1.00  0.00     0.010 A 
ATOM     28  C   UNL A   1      36.697  31.953  28.738  1.00  0.00     0.010 A 
ATOM     29  C   UNL A   1      36.889  30.660  29.255  1.00  0.00    -0.014 A 
BRANCH  29  30
ATOM     30  C   UNL A   1      38.130  30.307  29.991  1.00  0.00     0.031 A 
ATOM     31  C   UNL A   1      39.141  29.368  29.394  1.00  0.00     0.074 A 
ATOM     32  C   UNL A   1      38.336  30.829  31.216  1.00  0.00     0.049 A 
ATOM     33  N   UNL A   1      40.195  28.824  29.951  1.00  0.00    -0.248 NA
ATOM     34  C   UNL A   1      38.940  28.984  27.989  1.00  0.00     0.031 C 
ATOM     35  C   UNL A   1      37.452  31.785  31.886  1.00  0.00     0.029 A 
ATOM     36  N   UNL A   1      39.346  30.622  32.121  1.00  0.00    -0.354 N 
ATOM     37  C   UNL A   1      40.762  28.009  28.980  1.00  0.00     0.074 A 
ATOM     38  C   UNL A   1      39.926  28.117  27.801  1.00  0.00     0.031 C 
ATOM     39  C   UNL A   1      37.965  32.095  33.085  1.00  0.00     0.029 A 
ATOM     40  C   UNL A   1      39.162  31.295  33.304  1.00  0.00     0.049 A 
ATOM     41  H   UNL A   1      40.126  30.048  31.940  1.00  0.00     0.167 HD
ATOM     42  C   UNL A   1      41.879  27.247  29.067  1.00  0.00     0.037 A 
ATOM     43  C   UNL A   1      39.852  31.238  34.459  1.00  0.00     0.037 A 
ATOM     44  C   UNL A   1      42.713  27.161  30.242  1.00  0.00     0.049 A 
ATOM     45  C   UNL A   1      41.037  30.321  34.553  1.00  0.00     0.074 A 
ATOM     46  C   UNL A   1      43.871  26.426  30.428  1.00  0.00     0.029 A 
ATOM     47  N   UNL A   1      42.474  27.834  31.433  1.00  0.00    -0.354 N 
ATOM     48  N   UNL A   1      41.561  29.545  33.636  1.00  0.00    -0.248 NA
ATOM     49  C   UNL A   1      41.726  30.268  35.850  1.00  0.00     0.031 C 
ATOM     50  C   UNL A   1      44.302  26.610  31.746  1.00  0.00     0.029 A 
ATOM     51  C   UNL A   1      43.450  27.510  32.364  1.00  0.00     0.049 A 
ATOM     52  H   UNL A   1      41.723  28.450  31.593  1.00  0.00     0.167 HD
ATOM     53  C   UNL A   1      42.654  28.935  34.232  1.00  0.00     0.074 A 
ATOM     54  C   UNL A   1      42.730  29.444  35.586  1.00  0.00     0.031 C 
ATOM     55  C   UNL A   1      43.519  28.033  33.705  1.00  0.00     0.037 A 
BRANCH  42  56
ATOM     56  C   UNL A   1      42.256  26.414  27.873  1.00  0.00     0.064 A 
ATOM     57  C   UNL A   1      43.203  26.849  26.934  1.00  0.00     0.173 A 
ATOM     58  C   UNL A   1      41.696  25.138  27.694  1.00  0.00     0.173 A 
ATOM     59  F   UNL A   1      43.764  28.062  27.051  1.00  0.00    -0.203 F 
ATOM     60  C   UNL A   1      43.554  26.051  25.846  1.00  0.00     0.198 A 
ATOM     61  C   UNL A   1      42.074  24.331  26.624  1.00  0.00     0.198 A 
ATOM     62  F   UNL A   1      40.793  24.667  28.567  1.00  0.00    -0.203 F 
ATOM     63  F   UNL A   1      44.426  26.507  24.936  1.00  0.00    -0.200 F 
ATOM     64  C   UNL A   1      42.995  24.791  25.696  1.00  0.00     0.200 A 
ATOM     65  F   UNL A   1      41.546  23.106  26.492  1.00  0.00    -0.200 F 
ATOM     66  F   UNL A   1      43.342  24.021  24.656  1.00  0.00    -0.200 F 
ENDBRANCH  42  56
BRANCH  43  67
ATOM     67  C   UNL A   1      39.415  32.050  35.625  1.00  0.00     0.064 A 
ATOM     68  C   UNL A   1      38.455  31.562  36.521  1.00  0.00     0.173 A 
ATOM     69  C   UNL A   1      39.941  33.329  35.864  1.00  0.00     0.173 A 
ATOM     70  F   UNL A   1      37.907  30.354  36.322  1.00  0.00    -0.203 F 
ATOM     71  C   UNL A   1      38.020  32.331  37.597  1.00  0.00     0.198 A 
ATOM     72  C   UNL A   1      39.532  34.082  36.961  1.00  0.00     0.198 A 
ATOM     73  F   UNL A   1      40.865  33.842  35.039  1.00  0.00    -0.203 F 
ATOM     74  F   UNL A   1      37.061  31.863  38.406  1.00  0.00    -0.200 F 
ATOM     75  C   UNL A   1      38.563  33.587  37.821  1.00  0.00     0.200 A 
ATOM     76  F   UNL A   1      40.073  35.288  37.183  1.00  0.00    -0.200 F 
ATOM     77  F   UNL A   1      38.147  34.325  38.858  1.00  0.00    -0.200 F 
ENDBRANCH  43  67
BRANCH  55  78
ATOM     78  C   UNL A   1      44.651  27.578  34.582  1.00  0.00     0.064 A 
ATOM     79  C   UNL A   1      45.868  28.275  34.642  1.00  0.00     0.173 A 
ATOM     80  C   UNL A   1      44.506  26.440  35.390  1.00  0.00     0.173 A 
ATOM     81  F   UNL A   1      46.065  29.358  33.875  1.00  0.00    -0.203 F 
ATOM     82  C   UNL A   1      46.907  27.830  35.455  1.00  0.00     0.198 A 
ATOM     83  C   UNL A   1      45.534  26.019  36.228  1.00  0.00     0.198 A 
ATOM     84  F   UNL A   1      43.361  25.740  35.374  1.00  0.00    -0.203 F 
ATOM     85  F   UNL A   1      48.080  28.477  35.453  1.00  0.00    -0.200 F 
ATOM     86  C   UNL A   1      46.736  26.708  36.253  1.00  0.00     0.200 A 
ATOM     87  F   UNL A   1      45.362  24.944  37.008  1.00  0.00    -0.200 F 
ATOM     88  F   UNL A   1      47.735  26.286  37.040  1.00  0.00    -0.200 F 
ENDBRANCH  55  78
ENDBRANCH  29  30
ENDBRANCH  22  24
ENDBRANCH  21  22
ENDBRANCH  20  21
ENDBRANCH   1  20
TORSDOF 15
ENDMDL
