MODEL 1
REMARK VINA RESULT:     -12.2      0.000      0.000
REMARK SMILES COc1cc(OC)cc(-n2nnc(C(=O)OCCOC(=O)c3ccc(-c4c5nc(c(-c6c(F)c(F)c(F)c(F)c6F)c6ccc([nH]6)c(-c6c(F)c(F)c(F)c(F)c6F)c6nc(c(-c7c(F)c(F)c(F)c(F)c7F)c7ccc4[nH]7)C=C6)C=C5)cc3)c2C(C)(C)C)c1
REMARK SMILES IDX 17 1 16 2 14 3 15 4 13 5 10 6 11 7 85 8 12 9 9 10 3 11 4 12
REMARK SMILES IDX 90 13 5 14 8 15 2 16 1 17 6 18 7 19 86 20 87 21 88 22 89 23
REMARK SMILES IDX 18 24 19 25 20 26 21 27 22 28 23 29 84 30 24 31 83 32 25 33
REMARK SMILES IDX 26 34 27 35 77 36 28 37 82 38 76 39 78 40 29 41 81 42 75 43
REMARK SMILES IDX 74 44 30 46 62 47 42 48 61 49 43 50 46 51 60 52 79 53 44 54
REMARK SMILES IDX 45 55 59 57 80 58 47 59 31 60 32 61 40 62 33 63 34 64 38 65
REMARK SMILES IDX 41 66 35 67 36 68 39 69 37 70 63 71 64 72 72 73 65 74 66 75
REMARK SMILES IDX 70 76 73 77 67 78 68 79 71 80 69 81 48 82 49 83 57 84 50 85
REMARK SMILES IDX 51 86 55 87 58 88 52 89 53 90 56 91 54 92
REMARK H PARENT 78 45 46 56
REMARK Flexibility Score: inf
ROOT
ATOM      1  C   UNL A   1      32.979  29.706  25.648  1.00  0.00     0.275 C 
ENDROOT
BRANCH   1   2
ATOM      2  O   UNL A   1      31.557  29.560  25.533  1.00  0.00    -0.457 OA
BRANCH   2   3
ATOM      3  C   UNL A   1      31.019  28.591  24.750  1.00  0.00     0.361 C 
ATOM      4  O   UNL A   1      30.381  28.827  23.726  1.00  0.00    -0.244 OA
BRANCH   3   5
ATOM      5  C   UNL A   1      31.340  27.241  25.227  1.00  0.00     0.194 A 
ATOM      6  N   UNL A   1      32.012  25.204  25.598  1.00  0.00    -0.216 N 
ATOM      7  N   UNL A   1      31.152  25.529  26.581  1.00  0.00    -0.061 NA
ATOM      8  C   UNL A   1      32.067  26.198  24.621  1.00  0.00     0.085 A 
ATOM      9  N   UNL A   1      30.814  26.796  26.419  1.00  0.00    -0.122 NA
BRANCH   6  10
ATOM     10  C   UNL A   1      32.789  24.042  25.727  1.00  0.00     0.074 A 
ATOM     11  C   UNL A   1      34.992  23.109  25.964  1.00  0.00     0.124 A 
ATOM     12  C   UNL A   1      34.494  21.904  25.456  1.00  0.00     0.093 A 
ATOM     13  C   UNL A   1      34.121  24.177  26.134  1.00  0.00     0.075 A 
ATOM     14  C   UNL A   1      33.138  21.747  25.132  1.00  0.00     0.124 A 
ATOM     15  C   UNL A   1      32.264  22.819  25.297  1.00  0.00     0.075 A 
BRANCH  11  16
ATOM     16  O   UNL A   1      36.343  23.148  26.167  1.00  0.00    -0.497 OA
ATOM     17  C   UNL A   1      37.145  23.696  25.125  1.00  0.00     0.278 C 
ENDBRANCH  11  16
BRANCH  14  18
ATOM     18  O   UNL A   1      32.817  20.523  24.614  1.00  0.00    -0.497 OA
ATOM     19  C   UNL A   1      33.740  19.463  24.841  1.00  0.00     0.278 C 
ENDBRANCH  14  18
ENDBRANCH   6  10
BRANCH   8  20
ATOM     20  C   UNL A   1      32.658  26.071  23.198  1.00  0.00     0.007 C 
ATOM     21  C   UNL A   1      31.501  25.895  22.185  1.00  0.00     0.017 C 
ATOM     22  C   UNL A   1      33.566  27.285  22.891  1.00  0.00     0.017 C 
ATOM     23  C   UNL A   1      33.548  24.849  22.889  1.00  0.00     0.017 C 
ENDBRANCH   8  20
ENDBRANCH   3   5
ENDBRANCH   2   3
ENDBRANCH   1   2
BRANCH   1  24
ATOM     24  C   UNL A   1      33.312  30.370  26.970  1.00  0.00     0.275 C 
BRANCH  24  25
ATOM     25  O   UNL A   1      34.716  30.281  27.177  1.00  0.00    -0.458 OA
BRANCH  25  26
ATOM     26  C   UNL A   1      35.315  31.326  27.786  1.00  0.00     0.338 C 
ATOM     27  O   UNL A   1      35.157  32.513  27.568  1.00  0.00    -0.246 OA
BRANCH  26  28
ATOM     28  C   UNL A   1      36.398  30.792  28.606  1.00  0.00     0.060 A 
ATOM     29  C   UNL A   1      37.418  31.676  28.969  1.00  0.00     0.016 A 
ATOM     30  C   UNL A   1      36.543  29.399  28.681  1.00  0.00     0.016 A 
ATOM     31  C   UNL A   1      38.667  31.154  29.206  1.00  0.00     0.010 A 
ATOM     32  C   UNL A   1      37.792  28.886  28.866  1.00  0.00     0.010 A 
ATOM     33  C   UNL A   1      38.845  29.776  29.057  1.00  0.00    -0.014 A 
BRANCH  33  34
ATOM     34  C   UNL A   1      40.162  29.222  29.239  1.00  0.00     0.031 A 
ATOM     35  C   UNL A   1      40.510  29.058  30.668  1.00  0.00     0.074 A 
ATOM     36  C   UNL A   1      40.858  28.745  28.192  1.00  0.00     0.049 A 
ATOM     37  N   UNL A   1      41.507  29.573  31.304  1.00  0.00    -0.248 NA
ATOM     38  C   UNL A   1      39.537  28.367  31.536  1.00  0.00     0.031 C 
ATOM     39  C   UNL A   1      40.418  28.605  26.800  1.00  0.00     0.029 A 
ATOM     40  N   UNL A   1      42.082  28.163  28.183  1.00  0.00    -0.354 N 
ATOM     41  C   UNL A   1      41.388  29.114  32.612  1.00  0.00     0.074 A 
ATOM     42  C   UNL A   1      40.074  28.548  32.739  1.00  0.00     0.031 C 
ATOM     43  C   UNL A   1      41.266  27.775  26.149  1.00  0.00     0.029 A 
ATOM     44  C   UNL A   1      42.354  27.421  27.044  1.00  0.00     0.049 A 
ATOM     45  H   UNL A   1      42.723  28.257  28.924  1.00  0.00     0.167 HD
ATOM     46  C   UNL A   1      42.484  28.984  33.402  1.00  0.00     0.037 A 
ATOM     47  C   UNL A   1      43.353  26.512  26.913  1.00  0.00     0.037 A 
ATOM     48  C   UNL A   1      43.566  29.806  32.927  1.00  0.00     0.049 A 
ATOM     49  C   UNL A   1      44.324  26.761  28.013  1.00  0.00     0.074 A 
ATOM     50  C   UNL A   1      43.719  31.164  32.721  1.00  0.00     0.029 A 
ATOM     51  N   UNL A   1      44.570  29.203  32.209  1.00  0.00    -0.354 N 
ATOM     52  N   UNL A   1      45.079  27.823  28.090  1.00  0.00    -0.248 NA
ATOM     53  C   UNL A   1      44.112  26.058  29.272  1.00  0.00     0.031 C 
ATOM     54  C   UNL A   1      44.493  31.274  31.529  1.00  0.00     0.029 A 
ATOM     55  C   UNL A   1      44.819  29.984  31.110  1.00  0.00     0.049 A 
ATOM     56  H   UNL A   1      45.027  28.363  32.442  1.00  0.00     0.167 HD
ATOM     57  C   UNL A   1      45.081  28.162  29.437  1.00  0.00     0.074 A 
ATOM     58  C   UNL A   1      44.539  26.993  30.126  1.00  0.00     0.031 C 
ATOM     59  C   UNL A   1      45.241  29.458  29.834  1.00  0.00     0.037 A 
BRANCH  46  60
ATOM     60  C   UNL A   1      42.687  27.822  34.340  1.00  0.00     0.064 A 
ATOM     61  C   UNL A   1      43.190  26.615  33.822  1.00  0.00     0.173 A 
ATOM     62  C   UNL A   1      42.130  27.743  35.637  1.00  0.00     0.173 A 
ATOM     63  F   UNL A   1      43.724  26.571  32.591  1.00  0.00    -0.203 F 
ATOM     64  C   UNL A   1      43.063  25.408  34.513  1.00  0.00     0.198 A 
ATOM     65  C   UNL A   1      42.058  26.548  36.347  1.00  0.00     0.198 A 
ATOM     66  F   UNL A   1      41.528  28.781  36.228  1.00  0.00    -0.203 F 
ATOM     67  F   UNL A   1      43.432  24.265  33.922  1.00  0.00    -0.200 F 
ATOM     68  C   UNL A   1      42.491  25.375  35.771  1.00  0.00     0.200 A 
ATOM     69  F   UNL A   1      41.483  26.536  37.559  1.00  0.00    -0.200 F 
ATOM     70  F   UNL A   1      42.308  24.210  36.406  1.00  0.00    -0.200 F 
ENDBRANCH  46  60
BRANCH  47  71
ATOM     71  C   UNL A   1      43.348  25.255  26.126  1.00  0.00     0.064 A 
ATOM     72  C   UNL A   1      44.372  24.976  25.206  1.00  0.00     0.173 A 
ATOM     73  C   UNL A   1      42.489  24.186  26.446  1.00  0.00     0.173 A 
ATOM     74  F   UNL A   1      45.263  25.924  24.882  1.00  0.00    -0.203 F 
ATOM     75  C   UNL A   1      44.537  23.700  24.655  1.00  0.00     0.198 A 
ATOM     76  C   UNL A   1      42.648  22.916  25.888  1.00  0.00     0.198 A 
ATOM     77  F   UNL A   1      41.534  24.320  27.377  1.00  0.00    -0.203 F 
ATOM     78  F   UNL A   1      45.563  23.456  23.827  1.00  0.00    -0.200 F 
ATOM     79  C   UNL A   1      43.680  22.669  25.003  1.00  0.00     0.200 A 
ATOM     80  F   UNL A   1      41.831  21.920  26.262  1.00  0.00    -0.200 F 
ATOM     81  F   UNL A   1      43.872  21.434  24.521  1.00  0.00    -0.200 F 
ENDBRANCH  47  71
BRANCH  59  82
ATOM     82  C   UNL A   1      45.664  30.459  28.796  1.00  0.00     0.064 A 
ATOM     83  C   UNL A   1      44.769  31.150  27.959  1.00  0.00     0.173 A 
ATOM     84  C   UNL A   1      47.011  30.840  28.749  1.00  0.00     0.173 A 
ATOM     85  F   UNL A   1      43.452  30.922  28.019  1.00  0.00    -0.203 F 
ATOM     86  C   UNL A   1      45.213  32.140  27.084  1.00  0.00     0.198 A 
ATOM     87  C   UNL A   1      47.446  31.854  27.902  1.00  0.00     0.198 A 
ATOM     88  F   UNL A   1      47.902  30.256  29.566  1.00  0.00    -0.203 F 
ATOM     89  F   UNL A   1      44.341  32.773  26.286  1.00  0.00    -0.200 F 
ATOM     90  C   UNL A   1      46.550  32.496  27.062  1.00  0.00     0.200 A 
ATOM     91  F   UNL A   1      48.732  32.232  27.923  1.00  0.00    -0.200 F 
ATOM     92  F   UNL A   1      46.973  33.477  26.251  1.00  0.00    -0.200 F 
ENDBRANCH  59  82
ENDBRANCH  33  34
ENDBRANCH  26  28
ENDBRANCH  25  26
ENDBRANCH  24  25
ENDBRANCH   1  24
TORSDOF 15
ENDMDL
MODEL 2
REMARK VINA RESULT:     -12.1      2.666      8.314
REMARK SMILES COc1cc(OC)cc(-n2nnc(C(=O)OCCOC(=O)c3ccc(-c4c5nc(c(-c6c(F)c(F)c(F)c(F)c6F)c6ccc([nH]6)c(-c6c(F)c(F)c(F)c(F)c6F)c6nc(c(-c7c(F)c(F)c(F)c(F)c7F)c7ccc4[nH]7)C=C6)C=C5)cc3)c2C(C)(C)C)c1
REMARK SMILES IDX 17 1 16 2 14 3 15 4 13 5 10 6 11 7 85 8 12 9 9 10 3 11 4 12
REMARK SMILES IDX 90 13 5 14 8 15 2 16 1 17 6 18 7 19 86 20 87 21 88 22 89 23
REMARK SMILES IDX 18 24 19 25 20 26 21 27 22 28 23 29 84 30 24 31 83 32 25 33
REMARK SMILES IDX 26 34 27 35 77 36 28 37 82 38 76 39 78 40 29 41 81 42 75 43
REMARK SMILES IDX 74 44 30 46 62 47 42 48 61 49 43 50 46 51 60 52 79 53 44 54
REMARK SMILES IDX 45 55 59 57 80 58 47 59 31 60 32 61 40 62 33 63 34 64 38 65
REMARK SMILES IDX 41 66 35 67 36 68 39 69 37 70 63 71 64 72 72 73 65 74 66 75
REMARK SMILES IDX 70 76 73 77 67 78 68 79 71 80 69 81 48 82 49 83 57 84 50 85
REMARK SMILES IDX 51 86 55 87 58 88 52 89 53 90 56 91 54 92
REMARK H PARENT 78 45 46 56
REMARK Flexibility Score: inf
ROOT
ATOM      1  C   UNL A   1      36.210  22.408  25.123  1.00  0.00     0.275 C 
ENDROOT
BRANCH   1   2
ATOM      2  O   UNL A   1      35.431  21.397  24.470  1.00  0.00    -0.457 OA
BRANCH   2   3
ATOM      3  C   UNL A   1      34.097  21.559  24.281  1.00  0.00     0.361 C 
ATOM      4  O   UNL A   1      33.259  20.732  24.633  1.00  0.00    -0.244 OA
BRANCH   3   5
ATOM      5  C   UNL A   1      33.770  22.854  23.672  1.00  0.00     0.194 A 
ATOM      6  N   UNL A   1      33.079  24.837  23.097  1.00  0.00    -0.216 N 
ATOM      7  N   UNL A   1      33.718  24.309  22.036  1.00  0.00    -0.061 NA
ATOM      8  C   UNL A   1      32.950  23.905  24.126  1.00  0.00     0.085 A 
ATOM      9  N   UNL A   1      34.224  23.147  22.406  1.00  0.00    -0.122 NA
BRANCH   6  10
ATOM     10  C   UNL A   1      32.752  26.201  23.088  1.00  0.00     0.074 A 
ATOM     11  C   UNL A   1      32.905  28.316  24.222  1.00  0.00     0.124 A 
ATOM     12  C   UNL A   1      31.776  28.736  23.510  1.00  0.00     0.093 A 
ATOM     13  C   UNL A   1      33.418  27.049  23.980  1.00  0.00     0.075 A 
ATOM     14  C   UNL A   1      31.164  27.914  22.552  1.00  0.00     0.124 A 
ATOM     15  C   UNL A   1      31.675  26.641  22.312  1.00  0.00     0.075 A 
BRANCH  11  16
ATOM     16  O   UNL A   1      33.355  29.185  25.177  1.00  0.00    -0.497 OA
ATOM     17  C   UNL A   1      34.083  28.633  26.269  1.00  0.00     0.278 C 
ENDBRANCH  11  16
BRANCH  14  18
ATOM     18  O   UNL A   1      30.050  28.454  21.970  1.00  0.00    -0.497 OA
ATOM     19  C   UNL A   1      29.843  29.851  22.145  1.00  0.00     0.278 C 
ENDBRANCH  14  18
ENDBRANCH   6  10
BRANCH   8  20
ATOM     20  C   UNL A   1      32.012  23.999  25.351  1.00  0.00     0.007 C 
ATOM     21  C   UNL A   1      30.998  22.830  25.301  1.00  0.00     0.017 C 
ATOM     22  C   UNL A   1      32.844  24.036  26.655  1.00  0.00     0.017 C 
ATOM     23  C   UNL A   1      31.085  25.227  25.463  1.00  0.00     0.017 C 
ENDBRANCH   8  20
ENDBRANCH   3   5
ENDBRANCH   2   3
ENDBRANCH   1   2
BRANCH   1  24
ATOM     24  C   UNL A   1      37.598  21.870  25.410  1.00  0.00     0.275 C 
BRANCH  24  25
ATOM     25  O   UNL A   1      38.280  22.803  26.238  1.00  0.00    -0.458 OA
BRANCH  25  26
ATOM     26  C   UNL A   1      39.497  22.443  26.698  1.00  0.00     0.338 C 
ATOM     27  O   UNL A   1      39.853  21.351  27.100  1.00  0.00    -0.246 OA
BRANCH  26  28
ATOM     28  C   UNL A   1      40.278  23.664  26.872  1.00  0.00     0.060 A 
ATOM     29  C   UNL A   1      41.310  23.630  27.814  1.00  0.00     0.016 A 
ATOM     30  C   UNL A   1      39.747  24.862  26.374  1.00  0.00     0.016 A 
ATOM     31  C   UNL A   1      41.666  24.812  28.419  1.00  0.00     0.010 A 
ATOM     32  C   UNL A   1      40.063  26.026  27.010  1.00  0.00     0.010 A 
ATOM     33  C   UNL A   1      40.966  25.970  28.067  1.00  0.00    -0.014 A 
BRANCH  33  34
ATOM     34  C   UNL A   1      41.284  27.203  28.739  1.00  0.00     0.031 A 
ATOM     35  C   UNL A   1      42.523  27.825  28.218  1.00  0.00     0.074 A 
ATOM     36  C   UNL A   1      40.409  27.769  29.589  1.00  0.00     0.049 A 
ATOM     37  N   UNL A   1      43.595  28.120  28.871  1.00  0.00    -0.248 NA
ATOM     38  C   UNL A   1      42.645  27.988  26.757  1.00  0.00     0.031 C 
ATOM     39  C   UNL A   1      39.039  27.343  29.894  1.00  0.00     0.029 A 
ATOM     40  N   UNL A   1      40.523  28.933  30.274  1.00  0.00    -0.354 N 
ATOM     41  C   UNL A   1      44.455  28.681  27.934  1.00  0.00     0.074 A 
ATOM     42  C   UNL A   1      43.904  28.399  26.637  1.00  0.00     0.031 C 
ATOM     43  C   UNL A   1      38.387  28.356  30.511  1.00  0.00     0.029 A 
ATOM     44  C   UNL A   1      39.322  29.445  30.738  1.00  0.00     0.049 A 
ATOM     45  H   UNL A   1      41.388  29.378  30.428  1.00  0.00     0.167 HD
ATOM     46  C   UNL A   1      45.403  29.575  28.313  1.00  0.00     0.037 A 
ATOM     47  C   UNL A   1      39.120  30.713  31.176  1.00  0.00     0.037 A 
ATOM     48  C   UNL A   1      45.702  29.451  29.715  1.00  0.00     0.049 A 
ATOM     49  C   UNL A   1      40.458  31.299  31.465  1.00  0.00     0.074 A 
ATOM     50  C   UNL A   1      46.177  28.422  30.506  1.00  0.00     0.029 A 
ATOM     51  N   UNL A   1      45.143  30.360  30.580  1.00  0.00    -0.354 N 
ATOM     52  N   UNL A   1      41.225  30.909  32.445  1.00  0.00    -0.248 NA
ATOM     53  C   UNL A   1      41.140  31.990  30.378  1.00  0.00     0.031 C 
ATOM     54  C   UNL A   1      45.463  28.538  31.734  1.00  0.00     0.029 A 
ATOM     55  C   UNL A   1      44.642  29.662  31.647  1.00  0.00     0.049 A 
ATOM     56  H   UNL A   1      45.111  31.336  30.455  1.00  0.00     0.167 HD
ATOM     57  C   UNL A   1      42.509  30.915  31.915  1.00  0.00     0.074 A 
ATOM     58  C   UNL A   1      42.405  31.669  30.668  1.00  0.00     0.031 C 
ATOM     59  C   UNL A   1      43.466  30.062  32.383  1.00  0.00     0.037 A 
BRANCH  46  60
ATOM     60  C   UNL A   1      45.742  30.804  27.507  1.00  0.00     0.064 A 
ATOM     61  C   UNL A   1      47.089  31.060  27.199  1.00  0.00     0.173 A 
ATOM     62  C   UNL A   1      44.852  31.883  27.295  1.00  0.00     0.173 A 
ATOM     63  F   UNL A   1      48.022  30.113  27.380  1.00  0.00    -0.203 F 
ATOM     64  C   UNL A   1      47.525  32.324  26.795  1.00  0.00     0.198 A 
ATOM     65  C   UNL A   1      45.281  33.125  26.837  1.00  0.00     0.198 A 
ATOM     66  F   UNL A   1      43.558  31.827  27.628  1.00  0.00    -0.203 F 
ATOM     67  F   UNL A   1      48.834  32.557  26.646  1.00  0.00    -0.200 F 
ATOM     68  C   UNL A   1      46.621  33.357  26.621  1.00  0.00     0.200 A 
ATOM     69  F   UNL A   1      44.390  34.117  26.693  1.00  0.00    -0.200 F 
ATOM     70  F   UNL A   1      47.045  34.585  26.300  1.00  0.00    -0.200 F 
ENDBRANCH  46  60
BRANCH  47  71
ATOM     71  C   UNL A   1      37.900  31.546  31.037  1.00  0.00     0.064 A 
ATOM     72  C   UNL A   1      37.448  31.957  29.772  1.00  0.00     0.173 A 
ATOM     73  C   UNL A   1      37.008  31.735  32.110  1.00  0.00     0.173 A 
ATOM     74  F   UNL A   1      38.214  31.771  28.689  1.00  0.00    -0.203 F 
ATOM     75  C   UNL A   1      36.173  32.507  29.592  1.00  0.00     0.198 A 
ATOM     76  C   UNL A   1      35.741  32.292  31.931  1.00  0.00     0.198 A 
ATOM     77  F   UNL A   1      37.305  31.298  33.342  1.00  0.00    -0.203 F 
ATOM     78  F   UNL A   1      35.753  32.832  28.361  1.00  0.00    -0.200 F 
ATOM     79  C   UNL A   1      35.318  32.666  30.669  1.00  0.00     0.200 A 
ATOM     80  F   UNL A   1      34.911  32.408  32.978  1.00  0.00    -0.200 F 
ATOM     81  F   UNL A   1      34.077  33.137  30.488  1.00  0.00    -0.200 F 
ENDBRANCH  47  71
BRANCH  59  82
ATOM     82  C   UNL A   1      43.166  29.301  33.644  1.00  0.00     0.064 A 
ATOM     83  C   UNL A   1      42.472  28.078  33.679  1.00  0.00     0.173 A 
ATOM     84  C   UNL A   1      43.730  29.753  34.843  1.00  0.00     0.173 A 
ATOM     85  F   UNL A   1      41.995  27.523  32.559  1.00  0.00    -0.203 F 
ATOM     86  C   UNL A   1      42.311  27.370  34.869  1.00  0.00     0.198 A 
ATOM     87  C   UNL A   1      43.602  29.026  36.022  1.00  0.00     0.198 A 
ATOM     88  F   UNL A   1      44.454  30.884  34.861  1.00  0.00    -0.203 F 
ATOM     89  F   UNL A   1      41.632  26.214  34.876  1.00  0.00    -0.200 F 
ATOM     90  C   UNL A   1      42.882  27.841  36.038  1.00  0.00     0.200 A 
ATOM     91  F   UNL A   1      44.201  29.458  37.140  1.00  0.00    -0.200 F 
ATOM     92  F   UNL A   1      42.765  27.140  37.175  1.00  0.00    -0.200 F 
ENDBRANCH  59  82
ENDBRANCH  33  34
ENDBRANCH  26  28
ENDBRANCH  25  26
ENDBRANCH  24  25
ENDBRANCH   1  24
TORSDOF 15
ENDMDL
MODEL 3
REMARK VINA RESULT:     -12.0      2.765      8.623
REMARK SMILES COc1cc(OC)cc(-n2nnc(C(=O)OCCOC(=O)c3ccc(-c4c5nc(c(-c6c(F)c(F)c(F)c(F)c6F)c6ccc([nH]6)c(-c6c(F)c(F)c(F)c(F)c6F)c6nc(c(-c7c(F)c(F)c(F)c(F)c7F)c7ccc4[nH]7)C=C6)C=C5)cc3)c2C(C)(C)C)c1
REMARK SMILES IDX 17 1 16 2 14 3 15 4 13 5 10 6 11 7 85 8 12 9 9 10 3 11 4 12
REMARK SMILES IDX 90 13 5 14 8 15 2 16 1 17 6 18 7 19 86 20 87 21 88 22 89 23
REMARK SMILES IDX 18 24 19 25 20 26 21 27 22 28 23 29 84 30 24 31 83 32 25 33
REMARK SMILES IDX 26 34 27 35 77 36 28 37 82 38 76 39 78 40 29 41 81 42 75 43
REMARK SMILES IDX 74 44 30 46 62 47 42 48 61 49 43 50 46 51 60 52 79 53 44 54
REMARK SMILES IDX 45 55 59 57 80 58 47 59 31 60 32 61 40 62 33 63 34 64 38 65
REMARK SMILES IDX 41 66 35 67 36 68 39 69 37 70 63 71 64 72 72 73 65 74 66 75
REMARK SMILES IDX 70 76 73 77 67 78 68 79 71 80 69 81 48 82 49 83 57 84 50 85
REMARK SMILES IDX 51 86 55 87 58 88 52 89 53 90 56 91 54 92
REMARK H PARENT 78 45 46 56
REMARK Flexibility Score: inf
ROOT
ATOM      1  C   UNL A   1      36.398  21.762  25.785  1.00  0.00     0.275 C 
ENDROOT
BRANCH   1   2
ATOM      2  O   UNL A   1      35.714  20.838  24.930  1.00  0.00    -0.457 OA
BRANCH   2   3
ATOM      3  C   UNL A   1      34.403  21.012  24.624  1.00  0.00     0.361 C 
ATOM      4  O   UNL A   1      33.569  20.111  24.688  1.00  0.00    -0.244 OA
BRANCH   3   5
ATOM      5  C   UNL A   1      34.087  22.402  24.275  1.00  0.00     0.194 A 
ATOM      6  N   UNL A   1      33.404  24.460  24.085  1.00  0.00    -0.216 N 
ATOM      7  N   UNL A   1      34.076  24.154  22.960  1.00  0.00    -0.061 NA
ATOM      8  C   UNL A   1      33.249  23.343  24.905  1.00  0.00     0.085 A 
ATOM      9  N   UNL A   1      34.577  22.940  23.107  1.00  0.00    -0.122 NA
BRANCH   6  10
ATOM     10  C   UNL A   1      33.070  25.800  24.338  1.00  0.00     0.074 A 
ATOM     11  C   UNL A   1      32.027  27.805  23.519  1.00  0.00     0.124 A 
ATOM     12  C   UNL A   1      32.802  28.533  24.427  1.00  0.00     0.093 A 
ATOM     13  C   UNL A   1      32.137  26.421  23.501  1.00  0.00     0.075 A 
ATOM     14  C   UNL A   1      33.673  27.898  25.326  1.00  0.00     0.124 A 
ATOM     15  C   UNL A   1      33.788  26.510  25.306  1.00  0.00     0.075 A 
BRANCH  11  16
ATOM     16  O   UNL A   1      31.279  28.551  22.652  1.00  0.00    -0.497 OA
ATOM     17  C   UNL A   1      29.867  28.547  22.837  1.00  0.00     0.278 C 
ENDBRANCH  11  16
BRANCH  14  18
ATOM     18  O   UNL A   1      34.386  28.751  26.123  1.00  0.00    -0.497 OA
ATOM     19  C   UNL A   1      33.655  29.487  27.098  1.00  0.00     0.278 C 
ENDBRANCH  14  18
ENDBRANCH   6  10
BRANCH   8  20
ATOM     20  C   UNL A   1      32.274  23.191  26.095  1.00  0.00     0.007 C 
ATOM     21  C   UNL A   1      31.168  22.178  25.716  1.00  0.00     0.017 C 
ATOM     22  C   UNL A   1      33.055  22.802  27.373  1.00  0.00     0.017 C 
ATOM     23  C   UNL A   1      31.452  24.426  26.521  1.00  0.00     0.017 C 
ENDBRANCH   8  20
ENDBRANCH   3   5
ENDBRANCH   2   3
ENDBRANCH   1   2
BRANCH   1  24
ATOM     24  C   UNL A   1      37.812  21.968  25.279  1.00  0.00     0.275 C 
BRANCH  24  25
ATOM     25  O   UNL A   1      38.426  22.988  26.056  1.00  0.00    -0.458 OA
BRANCH  25  26
ATOM     26  C   UNL A   1      39.613  22.695  26.628  1.00  0.00     0.338 C 
ATOM     27  O   UNL A   1      39.997  21.622  27.053  1.00  0.00    -0.246 OA
BRANCH  26  28
ATOM     28  C   UNL A   1      40.297  23.959  26.886  1.00  0.00     0.060 A 
ATOM     29  C   UNL A   1      41.381  23.927  27.768  1.00  0.00     0.016 A 
ATOM     30  C   UNL A   1      39.638  25.147  26.540  1.00  0.00     0.016 A 
ATOM     31  C   UNL A   1      41.670  25.071  28.472  1.00  0.00     0.010 A 
ATOM     32  C   UNL A   1      39.892  26.267  27.274  1.00  0.00     0.010 A 
ATOM     33  C   UNL A   1      40.856  26.190  28.275  1.00  0.00    -0.014 A 
BRANCH  33  34
ATOM     34  C   UNL A   1      41.107  27.376  29.053  1.00  0.00     0.031 A 
ATOM     35  C   UNL A   1      42.325  28.091  28.611  1.00  0.00     0.074 A 
ATOM     36  C   UNL A   1      40.192  27.832  29.927  1.00  0.00     0.049 A 
ATOM     37  N   UNL A   1      43.371  28.377  29.309  1.00  0.00    -0.248 NA
ATOM     38  C   UNL A   1      42.466  28.381  27.171  1.00  0.00     0.031 C 
ATOM     39  C   UNL A   1      38.837  27.324  30.167  1.00  0.00     0.029 A 
ATOM     40  N   UNL A   1      40.242  28.938  30.708  1.00  0.00    -0.354 N 
ATOM     41  C   UNL A   1      44.222  29.050  28.439  1.00  0.00     0.074 A 
ATOM     42  C   UNL A   1      43.708  28.854  27.113  1.00  0.00     0.031 C 
ATOM     43  C   UNL A   1      38.130  28.253  30.851  1.00  0.00     0.029 A 
ATOM     44  C   UNL A   1      39.011  29.359  31.186  1.00  0.00     0.049 A 
ATOM     45  H   UNL A   1      41.083  29.406  30.916  1.00  0.00     0.167 HD
ATOM     46  C   UNL A   1      45.123  29.950  28.911  1.00  0.00     0.037 A 
ATOM     47  C   UNL A   1      38.745  30.576  31.722  1.00  0.00     0.037 A 
ATOM     48  C   UNL A   1      45.402  29.723  30.304  1.00  0.00     0.049 A 
ATOM     49  C   UNL A   1      40.050  31.193  32.087  1.00  0.00     0.074 A 
ATOM     50  C   UNL A   1      45.908  28.653  31.018  1.00  0.00     0.029 A 
ATOM     51  N   UNL A   1      44.788  30.532  31.228  1.00  0.00    -0.354 N 
ATOM     52  N   UNL A   1      40.817  30.756  33.048  1.00  0.00    -0.248 NA
ATOM     53  C   UNL A   1      40.721  32.000  31.075  1.00  0.00     0.031 C 
ATOM     54  C   UNL A   1      45.168  28.636  32.236  1.00  0.00     0.029 A 
ATOM     55  C   UNL A   1      44.299  29.727  32.224  1.00  0.00     0.049 A 
ATOM     56  H   UNL A   1      44.714  31.513  31.184  1.00  0.00     0.167 HD
ATOM     57  C   UNL A   1      42.108  30.861  32.548  1.00  0.00     0.074 A 
ATOM     58  C   UNL A   1      41.993  31.711  31.365  1.00  0.00     0.031 C 
ATOM     59  C   UNL A   1      43.094  30.014  32.964  1.00  0.00     0.037 A 
BRANCH  46  60
ATOM     60  C   UNL A   1      45.421  31.255  28.216  1.00  0.00     0.064 A 
ATOM     61  C   UNL A   1      44.350  32.104  27.886  1.00  0.00     0.173 A 
ATOM     62  C   UNL A   1      46.655  31.559  27.596  1.00  0.00     0.173 A 
ATOM     63  F   UNL A   1      43.130  31.896  28.404  1.00  0.00    -0.203 F 
ATOM     64  C   UNL A   1      44.484  33.124  26.940  1.00  0.00     0.198 A 
ATOM     65  C   UNL A   1      46.798  32.612  26.698  1.00  0.00     0.198 A 
ATOM     66  F   UNL A   1      47.741  30.791  27.735  1.00  0.00    -0.203 F 
ATOM     67  F   UNL A   1      43.405  33.817  26.557  1.00  0.00    -0.200 F 
ATOM     68  C   UNL A   1      45.706  33.371  26.342  1.00  0.00     0.200 A 
ATOM     69  F   UNL A   1      47.988  32.823  26.115  1.00  0.00    -0.200 F 
ATOM     70  F   UNL A   1      45.820  34.302  25.387  1.00  0.00    -0.200 F 
ENDBRANCH  46  60
BRANCH  47  71
ATOM     71  C   UNL A   1      37.492  31.364  31.626  1.00  0.00     0.064 A 
ATOM     72  C   UNL A   1      36.784  31.736  32.780  1.00  0.00     0.173 A 
ATOM     73  C   UNL A   1      37.105  31.993  30.426  1.00  0.00     0.173 A 
ATOM     74  F   UNL A   1      37.119  31.223  33.971  1.00  0.00    -0.203 F 
ATOM     75  C   UNL A   1      35.763  32.693  32.738  1.00  0.00     0.198 A 
ATOM     76  C   UNL A   1      36.079  32.939  30.383  1.00  0.00     0.198 A 
ATOM     77  F   UNL A   1      37.772  31.775  29.284  1.00  0.00    -0.203 F 
ATOM     78  F   UNL A   1      35.150  33.068  33.870  1.00  0.00    -0.200 F 
ATOM     79  C   UNL A   1      35.417  33.299  31.541  1.00  0.00     0.200 A 
ATOM     80  F   UNL A   1      35.780  33.542  29.224  1.00  0.00    -0.200 F 
ATOM     81  F   UNL A   1      34.480  34.257  31.510  1.00  0.00    -0.200 F 
ENDBRANCH  47  71
BRANCH  59  82
ATOM     82  C   UNL A   1      42.806  29.139  34.153  1.00  0.00     0.064 A 
ATOM     83  C   UNL A   1      42.053  27.952  34.091  1.00  0.00     0.173 A 
ATOM     84  C   UNL A   1      43.438  29.436  35.366  1.00  0.00     0.173 A 
ATOM     85  F   UNL A   1      41.506  27.540  32.942  1.00  0.00    -0.203 F 
ATOM     86  C   UNL A   1      41.903  27.130  35.207  1.00  0.00     0.198 A 
ATOM     87  C   UNL A   1      43.319  28.595  36.468  1.00  0.00     0.198 A 
ATOM     88  F   UNL A   1      44.217  30.524  35.468  1.00  0.00    -0.203 F 
ATOM     89  F   UNL A   1      41.168  26.012  35.125  1.00  0.00    -0.200 F 
ATOM     90  C   UNL A   1      42.543  27.449  36.393  1.00  0.00     0.200 A 
ATOM     91  F   UNL A   1      43.983  28.880  37.597  1.00  0.00    -0.200 F 
ATOM     92  F   UNL A   1      42.435  26.638  37.455  1.00  0.00    -0.200 F 
ENDBRANCH  59  82
ENDBRANCH  33  34
ENDBRANCH  26  28
ENDBRANCH  25  26
ENDBRANCH  24  25
ENDBRANCH   1  24
TORSDOF 15
ENDMDL
