MODEL 1
REMARK VINA RESULT:     -13.3      0.000      0.000
REMARK SMILES COc1ccc2c(c1)c(CC(=O)OCCOC(=O)c1ccc(-c3c4nc(c(-c5c(F)c(F)c(F)c(F)c5F)c5ccc([nH]5)c(-c5c(F)c(F)c(F)c(F)c5F)c5nc(c(-c6c(F)c(F)c(F)c(F)c6F)c6ccc3[nH]6)C=C5)C=C4)cc1)c(C)n2Cc1ccn(C(F)F)c(=O)c1
REMARK SMILES IDX 14 1 13 2 11 3 12 4 10 5 9 6 3 7 4 8 8 9 5 10 7 11 6 12
REMARK SMILES IDX 84 13 82 14 83 15 2 16 1 17 85 18 86 19 87 20 95 21 88 22
REMARK SMILES IDX 93 23 89 24 94 25 90 26 91 27 92 28 15 29 16 30 17 31 18 32
REMARK SMILES IDX 19 33 20 34 81 35 21 36 80 37 22 38 23 39 24 40 74 41 25 42
REMARK SMILES IDX 79 43 73 44 75 45 26 46 78 47 72 48 71 49 27 51 59 52 39 53
REMARK SMILES IDX 58 54 40 55 43 56 57 57 76 58 41 59 42 60 56 62 77 63 44 64
REMARK SMILES IDX 28 65 29 66 37 67 30 68 31 69 35 70 38 71 32 72 33 73 36 74
REMARK SMILES IDX 34 75 60 76 61 77 69 78 62 79 63 80 67 81 70 82 64 83 65 84
REMARK SMILES IDX 68 85 66 86 45 87 46 88 54 89 47 90 48 91 52 92 55 93 49 94
REMARK SMILES IDX 50 95 53 96 51 97
REMARK H PARENT 75 50 43 61
REMARK Flexibility Score: inf
ROOT
ATOM      1  C   UNL A   1      39.315  20.746  26.098  1.00  0.00     0.274 C 
ENDROOT
BRANCH   1   2
ATOM      2  O   UNL A   1      38.605  21.998  25.958  1.00  0.00    -0.462 OA
BRANCH   2   3
ATOM      3  C   UNL A   1      37.403  21.913  25.348  1.00  0.00     0.310 C 
ATOM      4  O   UNL A   1      37.087  21.015  24.568  1.00  0.00    -0.252 OA
BRANCH   3   5
ATOM      5  C   UNL A   1      36.488  23.080  25.562  1.00  0.00     0.160 C 
BRANCH   5   6
ATOM      6  C   UNL A   1      35.051  23.096  25.128  1.00  0.00    -0.008 A 
ATOM      7  C   UNL A   1      33.505  25.394  22.414  1.00  0.00     0.119 A 
ATOM      8  C   UNL A   1      32.250  24.814  22.424  1.00  0.00     0.048 A 
ATOM      9  C   UNL A   1      34.534  24.838  23.189  1.00  0.00     0.057 A 
ATOM     10  C   UNL A   1      31.979  23.741  23.282  1.00  0.00     0.031 A 
ATOM     11  C   UNL A   1      34.290  23.811  24.132  1.00  0.00     0.007 A 
ATOM     12  C   UNL A   1      32.981  23.302  24.171  1.00  0.00     0.049 A 
ATOM     13  N   UNL A   1      32.959  22.347  25.172  1.00  0.00    -0.340 N 
ATOM     14  C   UNL A   1      34.100  22.469  25.927  1.00  0.00     0.020 A 
ATOM     15  C   UNL A   1      34.286  21.953  27.316  1.00  0.00     0.065 C 
BRANCH   7  16
ATOM     16  O   UNL A   1      33.839  26.444  21.598  1.00  0.00    -0.497 OA
ATOM     17  C   UNL A   1      33.593  27.732  22.164  1.00  0.00     0.278 C 
ENDBRANCH   7  16
BRANCH  13  18
ATOM     18  C   UNL A   1      31.897  21.366  25.395  1.00  0.00     0.158 C 
BRANCH  18  19
ATOM     19  C   UNL A   1      32.288  19.996  24.879  1.00  0.00    -0.021 A 
ATOM     20  C   UNL A   1      32.779  19.003  25.815  1.00  0.00     0.024 A 
ATOM     21  C   UNL A   1      32.208  19.664  23.579  1.00  0.00     0.077 A 
ATOM     22  C   UNL A   1      33.298  17.849  25.385  1.00  0.00     0.095 A 
ATOM     23  C   UNL A   1      32.688  18.336  23.093  1.00  0.00     0.255 A 
ATOM     24  N   UNL A   1      33.287  17.526  24.044  1.00  0.00    -0.258 N 
ATOM     25  O   UNL A   1      32.536  18.057  21.908  1.00  0.00    -0.269 OA
BRANCH  24  26
ATOM     26  C   UNL A   1      33.826  16.267  23.602  1.00  0.00     0.451 C 
ATOM     27  F   UNL A   1      34.329  16.372  22.349  1.00  0.00    -0.185 F 
ATOM     28  F   UNL A   1      34.817  15.838  24.421  1.00  0.00    -0.185 F 
ENDBRANCH  24  26
ENDBRANCH  18  19
ENDBRANCH  13  18
ENDBRANCH   5   6
ENDBRANCH   3   5
ENDBRANCH   2   3
ENDBRANCH   1   2
BRANCH   1  29
ATOM     29  C   UNL A   1      40.770  21.006  26.495  1.00  0.00     0.275 C 
BRANCH  29  30
ATOM     30  O   UNL A   1      41.126  22.335  26.078  1.00  0.00    -0.458 OA
BRANCH  30  31
ATOM     31  C   UNL A   1      42.152  22.940  26.724  1.00  0.00     0.338 C 
ATOM     32  O   UNL A   1      43.344  22.753  26.565  1.00  0.00    -0.246 OA
BRANCH  31  33
ATOM     33  C   UNL A   1      41.553  24.108  27.400  1.00  0.00     0.060 A 
ATOM     34  C   UNL A   1      40.547  24.838  26.770  1.00  0.00     0.016 A 
ATOM     35  C   UNL A   1      42.204  24.622  28.523  1.00  0.00     0.016 A 
ATOM     36  C   UNL A   1      40.335  26.157  27.152  1.00  0.00     0.010 A 
ATOM     37  C   UNL A   1      42.031  25.950  28.864  1.00  0.00     0.010 A 
ATOM     38  C   UNL A   1      41.156  26.737  28.127  1.00  0.00    -0.014 A 
BRANCH  38  39
ATOM     39  C   UNL A   1      40.888  28.089  28.585  1.00  0.00     0.031 A 
ATOM     40  C   UNL A   1      41.926  29.025  28.103  1.00  0.00     0.074 A 
ATOM     41  C   UNL A   1      39.822  28.550  29.267  1.00  0.00     0.049 A 
ATOM     42  N   UNL A   1      42.914  29.482  28.792  1.00  0.00    -0.248 NA
ATOM     43  C   UNL A   1      41.993  29.325  26.667  1.00  0.00     0.031 C 
ATOM     44  C   UNL A   1      38.548  27.908  29.580  1.00  0.00     0.029 A 
ATOM     45  N   UNL A   1      39.676  29.796  29.807  1.00  0.00    -0.354 N 
ATOM     46  C   UNL A   1      43.653  30.262  27.916  1.00  0.00     0.074 A 
ATOM     47  C   UNL A   1      43.158  29.970  26.599  1.00  0.00     0.031 C 
ATOM     48  C   UNL A   1      37.696  28.829  30.100  1.00  0.00     0.029 A 
ATOM     49  C   UNL A   1      38.408  30.083  30.294  1.00  0.00     0.049 A 
ATOM     50  H   UNL A   1      40.417  30.444  29.848  1.00  0.00     0.167 HD
ATOM     51  C   UNL A   1      44.453  31.254  28.387  1.00  0.00     0.037 A 
ATOM     52  C   UNL A   1      38.001  31.277  30.801  1.00  0.00     0.037 A 
ATOM     53  C   UNL A   1      44.728  31.065  29.792  1.00  0.00     0.049 A 
ATOM     54  C   UNL A   1      39.221  32.001  31.249  1.00  0.00     0.074 A 
ATOM     55  C   UNL A   1      45.305  30.047  30.531  1.00  0.00     0.029 A 
ATOM     56  N   UNL A   1      44.028  31.823  30.701  1.00  0.00    -0.354 N 
ATOM     57  N   UNL A   1      39.953  31.634  32.263  1.00  0.00    -0.248 NA
ATOM     58  C   UNL A   1      39.872  32.888  30.295  1.00  0.00     0.031 C 
ATOM     59  C   UNL A   1      44.526  29.964  31.722  1.00  0.00     0.029 A 
ATOM     60  C   UNL A   1      43.563  30.972  31.671  1.00  0.00     0.049 A 
ATOM     61  H   UNL A   1      43.887  32.797  30.664  1.00  0.00     0.167 HD
ATOM     62  C   UNL A   1      41.257  31.873  31.859  1.00  0.00     0.074 A 
ATOM     63  C   UNL A   1      41.141  32.723  30.675  1.00  0.00     0.031 C 
ATOM     64  C   UNL A   1      42.295  31.136  32.346  1.00  0.00     0.037 A 
BRANCH  51  65
ATOM     65  C   UNL A   1      44.668  32.567  27.677  1.00  0.00     0.064 A 
ATOM     66  C   UNL A   1      45.836  32.730  26.907  1.00  0.00     0.173 A 
ATOM     67  C   UNL A   1      43.949  33.754  27.942  1.00  0.00     0.173 A 
ATOM     68  F   UNL A   1      46.604  31.676  26.594  1.00  0.00    -0.203 F 
ATOM     69  C   UNL A   1      46.299  33.991  26.526  1.00  0.00     0.198 A 
ATOM     70  C   UNL A   1      44.385  35.004  27.511  1.00  0.00     0.198 A 
ATOM     71  F   UNL A   1      42.860  33.784  28.717  1.00  0.00    -0.203 F 
ATOM     72  F   UNL A   1      47.488  34.104  25.919  1.00  0.00    -0.200 F 
ATOM     73  C   UNL A   1      45.578  35.128  26.837  1.00  0.00     0.200 A 
ATOM     74  F   UNL A   1      43.676  36.095  27.837  1.00  0.00    -0.200 F 
ATOM     75  F   UNL A   1      46.054  36.342  26.533  1.00  0.00    -0.200 F 
ENDBRANCH  51  65
BRANCH  52  76
ATOM     76  C   UNL A   1      36.690  31.968  30.684  1.00  0.00     0.064 A 
ATOM     77  C   UNL A   1      35.834  32.093  31.797  1.00  0.00     0.173 A 
ATOM     78  C   UNL A   1      36.390  32.787  29.579  1.00  0.00     0.173 A 
ATOM     79  F   UNL A   1      36.060  31.379  32.909  1.00  0.00    -0.203 F 
ATOM     80  C   UNL A   1      34.780  33.015  31.820  1.00  0.00     0.198 A 
ATOM     81  C   UNL A   1      35.334  33.702  29.602  1.00  0.00     0.198 A 
ATOM     82  F   UNL A   1      37.175  32.789  28.493  1.00  0.00    -0.203 F 
ATOM     83  F   UNL A   1      34.037  33.156  32.927  1.00  0.00    -0.200 F 
ATOM     84  C   UNL A   1      34.541  33.830  30.728  1.00  0.00     0.200 A 
ATOM     85  F   UNL A   1      35.133  34.509  28.549  1.00  0.00    -0.200 F 
ATOM     86  F   UNL A   1      33.579  34.762  30.773  1.00  0.00    -0.200 F 
ENDBRANCH  52  76
BRANCH  64  87
ATOM     87  C   UNL A   1      42.039  30.225  33.516  1.00  0.00     0.064 A 
ATOM     88  C   UNL A   1      41.640  28.883  33.394  1.00  0.00     0.173 A 
ATOM     89  C   UNL A   1      42.399  30.676  34.794  1.00  0.00     0.173 A 
ATOM     90  F   UNL A   1      41.358  28.351  32.199  1.00  0.00    -0.203 F 
ATOM     91  C   UNL A   1      41.593  28.038  34.504  1.00  0.00     0.198 A 
ATOM     92  C   UNL A   1      42.387  29.821  35.893  1.00  0.00     0.198 A 
ATOM     93  F   UNL A   1      42.828  31.937  34.966  1.00  0.00    -0.203 F 
ATOM     94  F   UNL A   1      41.214  26.760  34.361  1.00  0.00    -0.200 F 
ATOM     95  C   UNL A   1      41.981  28.505  35.749  1.00  0.00     0.200 A 
ATOM     96  F   UNL A   1      42.806  30.265  37.086  1.00  0.00    -0.200 F 
ATOM     97  F   UNL A   1      41.995  27.678  36.804  1.00  0.00    -0.200 F 
ENDBRANCH  64  87
ENDBRANCH  38  39
ENDBRANCH  31  33
ENDBRANCH  30  31
ENDBRANCH  29  30
ENDBRANCH   1  29
TORSDOF 16
ENDMDL
MODEL 2
REMARK VINA RESULT:     -13.0      2.838      6.657
REMARK SMILES COc1ccc2c(c1)c(CC(=O)OCCOC(=O)c1ccc(-c3c4nc(c(-c5c(F)c(F)c(F)c(F)c5F)c5ccc([nH]5)c(-c5c(F)c(F)c(F)c(F)c5F)c5nc(c(-c6c(F)c(F)c(F)c(F)c6F)c6ccc3[nH]6)C=C5)C=C4)cc1)c(C)n2Cc1ccn(C(F)F)c(=O)c1
REMARK SMILES IDX 14 1 13 2 11 3 12 4 10 5 9 6 3 7 4 8 8 9 5 10 7 11 6 12
REMARK SMILES IDX 84 13 82 14 83 15 2 16 1 17 85 18 86 19 87 20 95 21 88 22
REMARK SMILES IDX 93 23 89 24 94 25 90 26 91 27 92 28 15 29 16 30 17 31 18 32
REMARK SMILES IDX 19 33 20 34 81 35 21 36 80 37 22 38 23 39 24 40 74 41 25 42
REMARK SMILES IDX 79 43 73 44 75 45 26 46 78 47 72 48 71 49 27 51 59 52 39 53
REMARK SMILES IDX 58 54 40 55 43 56 57 57 76 58 41 59 42 60 56 62 77 63 44 64
REMARK SMILES IDX 28 65 29 66 37 67 30 68 31 69 35 70 38 71 32 72 33 73 36 74
REMARK SMILES IDX 34 75 60 76 61 77 69 78 62 79 63 80 67 81 70 82 64 83 65 84
REMARK SMILES IDX 68 85 66 86 45 87 46 88 54 89 47 90 48 91 52 92 55 93 49 94
REMARK SMILES IDX 50 95 53 96 51 97
REMARK H PARENT 75 50 43 61
REMARK Flexibility Score: inf
ROOT
ATOM      1  C   UNL A   1      31.813  27.732  24.451  1.00  0.00     0.274 C 
ENDROOT
BRANCH   1   2
ATOM      2  O   UNL A   1      32.451  27.035  25.545  1.00  0.00    -0.462 OA
BRANCH   2   3
ATOM      3  C   UNL A   1      31.621  26.311  26.328  1.00  0.00     0.310 C 
ATOM      4  O   UNL A   1      30.643  26.776  26.912  1.00  0.00    -0.252 OA
BRANCH   3   5
ATOM      5  C   UNL A   1      32.043  24.895  26.576  1.00  0.00     0.160 C 
BRANCH   5   6
ATOM      6  C   UNL A   1      32.778  24.062  25.566  1.00  0.00    -0.008 A 
ATOM      7  C   UNL A   1      36.624  23.628  25.324  1.00  0.00     0.119 A 
ATOM      8  C   UNL A   1      36.605  22.675  24.322  1.00  0.00     0.048 A 
ATOM      9  C   UNL A   1      35.417  24.075  25.882  1.00  0.00     0.057 A 
ATOM     10  C   UNL A   1      35.385  22.237  23.794  1.00  0.00     0.031 A 
ATOM     11  C   UNL A   1      34.162  23.726  25.328  1.00  0.00     0.007 A 
ATOM     12  C   UNL A   1      34.186  22.819  24.256  1.00  0.00     0.049 A 
ATOM     13  N   UNL A   1      32.874  22.649  23.854  1.00  0.00    -0.340 N 
ATOM     14  C   UNL A   1      32.102  23.628  24.430  1.00  0.00     0.020 A 
ATOM     15  C   UNL A   1      30.759  24.073  23.953  1.00  0.00     0.065 C 
BRANCH   7  16
ATOM     16  O   UNL A   1      37.781  24.099  25.888  1.00  0.00    -0.497 OA
ATOM     17  C   UNL A   1      38.720  23.084  26.246  1.00  0.00     0.278 C 
ENDBRANCH   7  16
BRANCH  13  18
ATOM     18  C   UNL A   1      32.383  21.601  22.959  1.00  0.00     0.158 C 
BRANCH  18  19
ATOM     19  C   UNL A   1      32.516  20.228  23.586  1.00  0.00    -0.021 A 
ATOM     20  C   UNL A   1      32.406  20.096  25.027  1.00  0.00     0.024 A 
ATOM     21  C   UNL A   1      32.744  19.120  22.860  1.00  0.00     0.077 A 
ATOM     22  C   UNL A   1      32.689  18.941  25.636  1.00  0.00     0.095 A 
ATOM     23  C   UNL A   1      32.960  17.797  23.518  1.00  0.00     0.255 A 
ATOM     24  N   UNL A   1      32.995  17.813  24.904  1.00  0.00    -0.258 N 
ATOM     25  O   UNL A   1      33.102  16.807  22.810  1.00  0.00    -0.269 OA
BRANCH  24  26
ATOM     26  C   UNL A   1      33.272  16.571  25.576  1.00  0.00     0.451 C 
ATOM     27  F   UNL A   1      32.400  15.608  25.189  1.00  0.00    -0.185 F 
ATOM     28  F   UNL A   1      34.527  16.135  25.312  1.00  0.00    -0.185 F 
ENDBRANCH  24  26
ENDBRANCH  18  19
ENDBRANCH  13  18
ENDBRANCH   5   6
ENDBRANCH   3   5
ENDBRANCH   2   3
ENDBRANCH   1   2
BRANCH   1  29
ATOM     29  C   UNL A   1      31.709  29.226  24.765  1.00  0.00     0.275 C 
BRANCH  29  30
ATOM     30  O   UNL A   1      32.608  29.528  25.846  1.00  0.00    -0.458 OA
BRANCH  30  31
ATOM     31  C   UNL A   1      32.427  30.700  26.502  1.00  0.00     0.338 C 
ATOM     32  O   UNL A   1      31.411  31.367  26.567  1.00  0.00    -0.246 OA
BRANCH  31  33
ATOM     33  C   UNL A   1      33.591  30.825  27.403  1.00  0.00     0.060 A 
ATOM     34  C   UNL A   1      33.992  32.082  27.853  1.00  0.00     0.016 A 
ATOM     35  C   UNL A   1      34.432  29.720  27.547  1.00  0.00     0.016 A 
ATOM     36  C   UNL A   1      35.305  32.259  28.269  1.00  0.00     0.010 A 
ATOM     37  C   UNL A   1      35.752  29.909  27.907  1.00  0.00     0.010 A 
ATOM     38  C   UNL A   1      36.207  31.190  28.190  1.00  0.00    -0.014 A 
BRANCH  38  39
ATOM     39  C   UNL A   1      37.559  31.348  28.697  1.00  0.00     0.031 A 
ATOM     40  C   UNL A   1      38.337  30.103  28.520  1.00  0.00     0.074 A 
ATOM     41  C   UNL A   1      38.152  32.456  29.180  1.00  0.00     0.049 A 
ATOM     42  N   UNL A   1      38.592  29.231  29.434  1.00  0.00    -0.248 NA
ATOM     43  C   UNL A   1      38.696  29.682  27.159  1.00  0.00     0.031 C 
ATOM     44  C   UNL A   1      37.711  33.848  29.168  1.00  0.00     0.029 A 
ATOM     45  N   UNL A   1      39.376  32.530  29.782  1.00  0.00    -0.354 N 
ATOM     46  C   UNL A   1      39.285  28.213  28.799  1.00  0.00     0.074 A 
ATOM     47  C   UNL A   1      39.145  28.448  27.387  1.00  0.00     0.031 C 
ATOM     48  C   UNL A   1      38.731  34.647  29.577  1.00  0.00     0.029 A 
ATOM     49  C   UNL A   1      39.841  33.816  30.020  1.00  0.00     0.049 A 
ATOM     50  H   UNL A   1      39.892  31.727  30.029  1.00  0.00     0.167 HD
ATOM     51  C   UNL A   1      40.108  27.396  29.506  1.00  0.00     0.037 A 
ATOM     52  C   UNL A   1      41.058  34.142  30.532  1.00  0.00     0.037 A 
ATOM     53  C   UNL A   1      39.805  27.463  30.917  1.00  0.00     0.049 A 
ATOM     54  C   UNL A   1      41.549  32.954  31.281  1.00  0.00     0.074 A 
ATOM     55  C   UNL A   1      38.670  27.218  31.669  1.00  0.00     0.029 A 
ATOM     56  N   UNL A   1      40.619  28.224  31.723  1.00  0.00    -0.354 N 
ATOM     57  N   UNL A   1      41.017  32.522  32.390  1.00  0.00    -0.248 NA
ATOM     58  C   UNL A   1      42.366  31.988  30.560  1.00  0.00     0.031 C 
ATOM     59  C   UNL A   1      38.654  28.241  32.663  1.00  0.00     0.029 A 
ATOM     60  C   UNL A   1      39.807  29.009  32.500  1.00  0.00     0.049 A 
ATOM     61  H   UNL A   1      41.604  28.208  31.740  1.00  0.00     0.167 HD
ATOM     62  C   UNL A   1      41.061  31.142  32.284  1.00  0.00     0.074 A 
ATOM     63  C   UNL A   1      41.977  30.871  31.179  1.00  0.00     0.031 C 
ATOM     64  C   UNL A   1      40.140  30.355  32.911  1.00  0.00     0.037 A 
BRANCH  51  65
ATOM     65  C   UNL A   1      41.403  26.841  28.970  1.00  0.00     0.064 A 
ATOM     66  C   UNL A   1      42.441  27.741  28.659  1.00  0.00     0.173 A 
ATOM     67  C   UNL A   1      41.575  25.528  28.478  1.00  0.00     0.173 A 
ATOM     68  F   UNL A   1      42.387  29.017  29.069  1.00  0.00    -0.203 F 
ATOM     69  C   UNL A   1      43.509  27.381  27.834  1.00  0.00     0.198 A 
ATOM     70  C   UNL A   1      42.671  25.157  27.702  1.00  0.00     0.198 A 
ATOM     71  F   UNL A   1      40.652  24.572  28.622  1.00  0.00    -0.203 F 
ATOM     72  F   UNL A   1      44.393  28.312  27.451  1.00  0.00    -0.200 F 
ATOM     73  C   UNL A   1      43.617  26.092  27.348  1.00  0.00     0.200 A 
ATOM     74  F   UNL A   1      42.748  23.904  27.230  1.00  0.00    -0.200 F 
ATOM     75  F   UNL A   1      44.602  25.763  26.503  1.00  0.00    -0.200 F 
ENDBRANCH  51  65
BRANCH  52  76
ATOM     76  C   UNL A   1      41.958  35.279  30.205  1.00  0.00     0.064 A 
ATOM     77  C   UNL A   1      42.871  35.777  31.157  1.00  0.00     0.173 A 
ATOM     78  C   UNL A   1      42.167  35.690  28.876  1.00  0.00     0.173 A 
ATOM     79  F   UNL A   1      42.774  35.413  32.444  1.00  0.00    -0.203 F 
ATOM     80  C   UNL A   1      43.951  36.590  30.791  1.00  0.00     0.198 A 
ATOM     81  C   UNL A   1      43.242  36.506  28.513  1.00  0.00     0.198 A 
ATOM     82  F   UNL A   1      41.392  35.228  27.884  1.00  0.00    -0.203 F 
ATOM     83  F   UNL A   1      44.840  36.979  31.717  1.00  0.00    -0.200 F 
ATOM     84  C   UNL A   1      44.144  36.941  29.467  1.00  0.00     0.200 A 
ATOM     85  F   UNL A   1      43.436  36.813  27.223  1.00  0.00    -0.200 F 
ATOM     86  F   UNL A   1      45.216  37.659  29.104  1.00  0.00    -0.200 F 
ENDBRANCH  52  76
BRANCH  64  87
ATOM     87  C   UNL A   1      39.225  30.990  33.921  1.00  0.00     0.064 A 
ATOM     88  C   UNL A   1      39.566  31.200  35.269  1.00  0.00     0.173 A 
ATOM     89  C   UNL A   1      38.039  31.580  33.459  1.00  0.00     0.173 A 
ATOM     90  F   UNL A   1      40.720  30.740  35.769  1.00  0.00    -0.203 F 
ATOM     91  C   UNL A   1      38.751  31.954  36.113  1.00  0.00     0.198 A 
ATOM     92  C   UNL A   1      37.246  32.363  34.295  1.00  0.00     0.198 A 
ATOM     93  F   UNL A   1      37.681  31.449  32.171  1.00  0.00    -0.203 F 
ATOM     94  F   UNL A   1      39.102  32.144  37.394  1.00  0.00    -0.200 F 
ATOM     95  C   UNL A   1      37.600  32.547  35.620  1.00  0.00     0.200 A 
ATOM     96  F   UNL A   1      36.159  32.971  33.802  1.00  0.00    -0.200 F 
ATOM     97  F   UNL A   1      36.849  33.322  36.415  1.00  0.00    -0.200 F 
ENDBRANCH  64  87
ENDBRANCH  38  39
ENDBRANCH  31  33
ENDBRANCH  30  31
ENDBRANCH  29  30
ENDBRANCH   1  29
TORSDOF 16
ENDMDL
MODEL 3
REMARK VINA RESULT:     -13.0      3.084      4.583
REMARK SMILES COc1ccc2c(c1)c(CC(=O)OCCOC(=O)c1ccc(-c3c4nc(c(-c5c(F)c(F)c(F)c(F)c5F)c5ccc([nH]5)c(-c5c(F)c(F)c(F)c(F)c5F)c5nc(c(-c6c(F)c(F)c(F)c(F)c6F)c6ccc3[nH]6)C=C5)C=C4)cc1)c(C)n2Cc1ccn(C(F)F)c(=O)c1
REMARK SMILES IDX 14 1 13 2 11 3 12 4 10 5 9 6 3 7 4 8 8 9 5 10 7 11 6 12
REMARK SMILES IDX 84 13 82 14 83 15 2 16 1 17 85 18 86 19 87 20 95 21 88 22
REMARK SMILES IDX 93 23 89 24 94 25 90 26 91 27 92 28 15 29 16 30 17 31 18 32
REMARK SMILES IDX 19 33 20 34 81 35 21 36 80 37 22 38 23 39 24 40 74 41 25 42
REMARK SMILES IDX 79 43 73 44 75 45 26 46 78 47 72 48 71 49 27 51 59 52 39 53
REMARK SMILES IDX 58 54 40 55 43 56 57 57 76 58 41 59 42 60 56 62 77 63 44 64
REMARK SMILES IDX 28 65 29 66 37 67 30 68 31 69 35 70 38 71 32 72 33 73 36 74
REMARK SMILES IDX 34 75 60 76 61 77 69 78 62 79 63 80 67 81 70 82 64 83 65 84
REMARK SMILES IDX 68 85 66 86 45 87 46 88 54 89 47 90 48 91 52 92 55 93 49 94
REMARK SMILES IDX 50 95 53 96 51 97
REMARK H PARENT 75 50 43 61
REMARK Flexibility Score: inf
ROOT
ATOM      1  C   UNL A   1      36.934  21.682  25.330  1.00  0.00     0.274 C 
ENDROOT
BRANCH   1   2
ATOM      2  O   UNL A   1      36.699  23.068  24.994  1.00  0.00    -0.462 OA
BRANCH   2   3
ATOM      3  C   UNL A   1      35.591  23.613  25.543  1.00  0.00     0.310 C 
ATOM      4  O   UNL A   1      35.175  23.345  26.669  1.00  0.00    -0.252 OA
BRANCH   3   5
ATOM      5  C   UNL A   1      34.784  24.485  24.631  1.00  0.00     0.160 C 
BRANCH   5   6
ATOM      6  C   UNL A   1      33.555  25.229  25.070  1.00  0.00    -0.008 A 
ATOM      7  C   UNL A   1      33.484  28.554  27.064  1.00  0.00     0.119 A 
ATOM      8  C   UNL A   1      32.114  28.735  27.005  1.00  0.00     0.048 A 
ATOM      9  C   UNL A   1      34.075  27.488  26.369  1.00  0.00     0.057 A 
ATOM     10  C   UNL A   1      31.311  27.799  26.343  1.00  0.00     0.031 A 
ATOM     11  C   UNL A   1      33.302  26.472  25.757  1.00  0.00     0.007 A 
ATOM     12  C   UNL A   1      31.909  26.648  25.789  1.00  0.00     0.049 A 
ATOM     13  N   UNL A   1      31.357  25.538  25.175  1.00  0.00    -0.340 N 
ATOM     14  C   UNL A   1      32.327  24.574  25.045  1.00  0.00     0.020 A 
ATOM     15  C   UNL A   1      32.085  23.116  24.840  1.00  0.00     0.065 C 
BRANCH   7  16
ATOM     16  O   UNL A   1      34.329  29.431  27.693  1.00  0.00    -0.497 OA
ATOM     17  C   UNL A   1      33.956  30.804  27.568  1.00  0.00     0.278 C 
ENDBRANCH   7  16
BRANCH  13  18
ATOM     18  C   UNL A   1      29.968  25.406  24.736  1.00  0.00     0.158 C 
BRANCH  18  19
ATOM     19  C   UNL A   1      29.531  26.597  23.907  1.00  0.00    -0.021 A 
ATOM     20  C   UNL A   1      30.494  27.238  23.032  1.00  0.00     0.024 A 
ATOM     21  C   UNL A   1      28.284  27.094  23.957  1.00  0.00     0.077 A 
ATOM     22  C   UNL A   1      30.206  28.391  22.419  1.00  0.00     0.095 A 
ATOM     23  C   UNL A   1      27.914  28.324  23.196  1.00  0.00     0.255 A 
ATOM     24  N   UNL A   1      28.949  28.949  22.520  1.00  0.00    -0.258 N 
ATOM     25  O   UNL A   1      26.747  28.702  23.225  1.00  0.00    -0.269 OA
BRANCH  24  26
ATOM     26  C   UNL A   1      28.649  30.178  21.832  1.00  0.00     0.451 C 
ATOM     27  F   UNL A   1      29.786  30.792  21.426  1.00  0.00    -0.185 F 
ATOM     28  F   UNL A   1      27.874  29.958  20.743  1.00  0.00    -0.185 F 
ENDBRANCH  24  26
ENDBRANCH  18  19
ENDBRANCH  13  18
ENDBRANCH   5   6
ENDBRANCH   3   5
ENDBRANCH   2   3
ENDBRANCH   1   2
BRANCH   1  29
ATOM     29  C   UNL A   1      38.428  21.440  25.558  1.00  0.00     0.275 C 
BRANCH  29  30
ATOM     30  O   UNL A   1      39.054  22.701  25.849  1.00  0.00    -0.458 OA
BRANCH  30  31
ATOM     31  C   UNL A   1      40.190  22.681  26.589  1.00  0.00     0.338 C 
ATOM     32  O   UNL A   1      41.193  22.020  26.394  1.00  0.00    -0.246 OA
BRANCH  31  33
ATOM     33  C   UNL A   1      40.103  23.865  27.467  1.00  0.00     0.060 A 
ATOM     34  C   UNL A   1      38.969  24.674  27.437  1.00  0.00     0.016 A 
ATOM     35  C   UNL A   1      41.273  24.308  28.088  1.00  0.00     0.016 A 
ATOM     36  C   UNL A   1      39.072  25.992  27.861  1.00  0.00     0.010 A 
ATOM     37  C   UNL A   1      41.390  25.635  28.457  1.00  0.00     0.010 A 
ATOM     38  C   UNL A   1      40.315  26.494  28.269  1.00  0.00    -0.014 A 
BRANCH  38  39
ATOM     39  C   UNL A   1      40.413  27.848  28.787  1.00  0.00     0.031 A 
ATOM     40  C   UNL A   1      41.587  28.545  28.222  1.00  0.00     0.074 A 
ATOM     41  C   UNL A   1      39.553  28.505  29.588  1.00  0.00     0.049 A 
ATOM     42  N   UNL A   1      42.716  28.731  28.814  1.00  0.00    -0.248 NA
ATOM     43  C   UNL A   1      41.583  28.892  26.795  1.00  0.00     0.031 C 
ATOM     44  C   UNL A   1      38.202  28.155  30.017  1.00  0.00     0.029 A 
ATOM     45  N   UNL A   1      39.752  29.724  30.172  1.00  0.00    -0.354 N 
ATOM     46  C   UNL A   1      43.528  29.364  27.886  1.00  0.00     0.074 A 
ATOM     47  C   UNL A   1      42.853  29.257  26.620  1.00  0.00     0.031 C 
ATOM     48  C   UNL A   1      37.640  29.220  30.647  1.00  0.00     0.029 A 
ATOM     49  C   UNL A   1      38.638  30.268  30.797  1.00  0.00     0.049 A 
ATOM     50  H   UNL A   1      40.623  30.183  30.151  1.00  0.00     0.167 HD
ATOM     51  C   UNL A   1      44.577  30.124  28.294  1.00  0.00     0.037 A 
ATOM     52  C   UNL A   1      38.569  31.497  31.374  1.00  0.00     0.037 A 
ATOM     53  C   UNL A   1      44.935  29.810  29.658  1.00  0.00     0.049 A 
ATOM     54  C   UNL A   1      39.961  31.901  31.709  1.00  0.00     0.074 A 
ATOM     55  C   UNL A   1      45.329  28.652  30.305  1.00  0.00     0.029 A 
ATOM     56  N   UNL A   1      44.520  30.662  30.654  1.00  0.00    -0.354 N 
ATOM     57  N   UNL A   1      40.683  31.329  32.631  1.00  0.00    -0.248 NA
ATOM     58  C   UNL A   1      40.704  32.663  30.714  1.00  0.00     0.031 C 
ATOM     59  C   UNL A   1      44.671  28.691  31.569  1.00  0.00     0.029 A 
ATOM     60  C   UNL A   1      43.967  29.893  31.646  1.00  0.00     0.049 A 
ATOM     61  H   UNL A   1      44.605  31.643  30.657  1.00  0.00     0.167 HD
ATOM     62  C   UNL A   1      41.961  31.285  32.098  1.00  0.00     0.074 A 
ATOM     63  C   UNL A   1      41.931  32.195  30.955  1.00  0.00     0.031 C 
ATOM     64  C   UNL A   1      42.843  30.307  32.454  1.00  0.00     0.037 A 
BRANCH  51  65
ATOM     65  C   UNL A   1      45.020  31.387  27.599  1.00  0.00     0.064 A 
ATOM     66  C   UNL A   1      46.312  31.426  27.038  1.00  0.00     0.173 A 
ATOM     67  C   UNL A   1      44.370  32.637  27.706  1.00  0.00     0.173 A 
ATOM     68  F   UNL A   1      47.028  30.303  26.889  1.00  0.00    -0.203 F 
ATOM     69  C   UNL A   1      46.938  32.630  26.711  1.00  0.00     0.198 A 
ATOM     70  C   UNL A   1      44.977  33.830  27.326  1.00  0.00     0.198 A 
ATOM     71  F   UNL A   1      43.171  32.784  28.280  1.00  0.00    -0.203 F 
ATOM     72  F   UNL A   1      48.218  32.625  26.316  1.00  0.00    -0.200 F 
ATOM     73  C   UNL A   1      46.274  33.832  26.865  1.00  0.00     0.200 A 
ATOM     74  F   UNL A   1      44.319  34.986  27.496  1.00  0.00    -0.200 F 
ATOM     75  F   UNL A   1      46.896  34.992  26.616  1.00  0.00    -0.200 F 
ENDBRANCH  51  65
BRANCH  52  76
ATOM     76  C   UNL A   1      37.448  32.474  31.412  1.00  0.00     0.064 A 
ATOM     77  C   UNL A   1      37.060  33.177  30.255  1.00  0.00     0.173 A 
ATOM     78  C   UNL A   1      36.541  32.504  32.487  1.00  0.00     0.173 A 
ATOM     79  F   UNL A   1      37.844  33.177  29.166  1.00  0.00    -0.203 F 
ATOM     80  C   UNL A   1      35.822  33.825  30.163  1.00  0.00     0.198 A 
ATOM     81  C   UNL A   1      35.308  33.156  32.396  1.00  0.00     0.198 A 
ATOM     82  F   UNL A   1      36.786  31.820  33.613  1.00  0.00    -0.203 F 
ATOM     83  F   UNL A   1      35.460  34.418  29.016  1.00  0.00    -0.200 F 
ATOM     84  C   UNL A   1      34.941  33.800  31.229  1.00  0.00     0.200 A 
ATOM     85  F   UNL A   1      34.449  33.098  33.424  1.00  0.00    -0.200 F 
ATOM     86  F   UNL A   1      33.726  34.357  31.119  1.00  0.00    -0.200 F 
ENDBRANCH  52  76
BRANCH  64  87
ATOM     87  C   UNL A   1      42.497  29.423  33.621  1.00  0.00     0.064 A 
ATOM     88  C   UNL A   1      41.770  28.225  33.511  1.00  0.00     0.173 A 
ATOM     89  C   UNL A   1      43.091  29.703  34.860  1.00  0.00     0.173 A 
ATOM     90  F   UNL A   1      41.239  27.843  32.343  1.00  0.00    -0.203 F 
ATOM     91  C   UNL A   1      41.636  27.358  34.596  1.00  0.00     0.198 A 
ATOM     92  C   UNL A   1      42.987  28.818  35.930  1.00  0.00     0.198 A 
ATOM     93  F   UNL A   1      43.834  30.812  35.014  1.00  0.00    -0.203 F 
ATOM     94  F   UNL A   1      40.940  26.219  34.464  1.00  0.00    -0.200 F 
ATOM     95  C   UNL A   1      42.257  27.649  35.798  1.00  0.00     0.200 A 
ATOM     96  F   UNL A   1      43.628  29.081  37.077  1.00  0.00    -0.200 F 
ATOM     97  F   UNL A   1      42.180  26.786  36.822  1.00  0.00    -0.200 F 
ENDBRANCH  64  87
ENDBRANCH  38  39
ENDBRANCH  31  33
ENDBRANCH  30  31
ENDBRANCH  29  30
ENDBRANCH   1  29
TORSDOF 16
ENDMDL
