MODEL 1
REMARK VINA RESULT:     -11.1      0.000      0.000
REMARK SMILES Cc1c(Br)c(C(=O)OCCOC(=O)c2ccc(-c3c4nc(c(-c5c(F)c(F)c(F)c(F)c5F)c5ccc([nH]5)c(-c5c(F)c(F)c(F)c(F)c5F)c5nc(c(-c6c(F)c(F)c(F)c(F)c6F)c6ccc3[nH]6)C=C5)C=C4)cc2)nn1-c1ccccc1
REMARK SMILES IDX 10 1 9 2 8 3 6 4 7 5 5 6 1 7 2 8 3 9 78 10 4 11 77 12 79 13
REMARK SMILES IDX 80 14 84 15 81 16 83 17 82 18 11 19 12 20 13 21 14 22 15 23
REMARK SMILES IDX 76 24 16 25 75 26 17 27 18 28 19 29 69 30 20 31 74 32 68 33
REMARK SMILES IDX 70 34 21 35 73 36 67 37 66 38 22 40 54 41 34 42 53 43 35 44
REMARK SMILES IDX 38 45 52 46 71 47 36 48 37 49 51 51 72 52 39 53 23 54 24 55
REMARK SMILES IDX 32 56 25 57 26 58 30 59 33 60 27 61 28 62 31 63 29 64 55 65
REMARK SMILES IDX 56 66 64 67 57 68 58 69 62 70 65 71 59 72 60 73 63 74 61 75
REMARK SMILES IDX 40 76 41 77 49 78 42 79 43 80 47 81 50 82 44 83 45 84 48 85
REMARK SMILES IDX 46 86
REMARK H PARENT 70 39 38 50
REMARK Flexibility Score: inf
ROOT
ATOM      1  C   UNL A   1      33.417  32.475  28.007  1.00  0.00     0.275 C 
ENDROOT
BRANCH   1   2
ATOM      2  C   UNL A   1      33.311  33.990  27.901  1.00  0.00     0.275 C 
BRANCH   2   3
ATOM      3  O   UNL A   1      32.542  34.540  28.981  1.00  0.00    -0.457 OA
BRANCH   3   4
ATOM      4  C   UNL A   1      33.073  35.615  29.646  1.00  0.00     0.360 C 
ATOM      5  O   UNL A   1      32.855  36.785  29.333  1.00  0.00    -0.244 OA
BRANCH   4   6
ATOM      6  C   UNL A   1      33.856  35.213  30.821  1.00  0.00     0.185 A 
ATOM      7  C   UNL A   1      34.879  34.777  34.357  1.00  0.00     0.068 C 
ATOM      8  C   UNL A   1      34.587  34.785  32.899  1.00  0.00     0.056 A 
ATOM      9  C   UNL A   1      33.574  35.398  32.192  1.00  0.00     0.074 A 
ATOM     10  N   UNL A   1      35.402  34.216  31.934  1.00  0.00    -0.236 N 
ATOM     11  Br  UNL A   1      32.109  36.326  32.911  1.00  0.00    -0.046 Br
ATOM     12  N   UNL A   1      35.032  34.577  30.683  1.00  0.00    -0.159 NA
BRANCH  10  13
ATOM     13  C   UNL A   1      36.557  33.406  32.089  1.00  0.00     0.065 A 
ATOM     14  C   UNL A   1      37.806  33.974  31.798  1.00  0.00     0.028 A 
ATOM     15  C   UNL A   1      36.473  32.072  32.498  1.00  0.00     0.028 A 
ATOM     16  C   UNL A   1      38.970  33.230  31.974  1.00  0.00     0.002 A 
ATOM     17  C   UNL A   1      37.644  31.322  32.640  1.00  0.00     0.002 A 
ATOM     18  C   UNL A   1      38.888  31.905  32.395  1.00  0.00     0.000 A 
ENDBRANCH  10  13
ENDBRANCH   4   6
ENDBRANCH   3   4
ENDBRANCH   2   3
ENDBRANCH   1   2
BRANCH   1  19
ATOM     19  O   UNL A   1      34.667  32.089  28.576  1.00  0.00    -0.458 OA
BRANCH  19  20
ATOM     20  C   UNL A   1      35.129  30.878  28.200  1.00  0.00     0.338 C 
ATOM     21  O   UNL A   1      34.573  30.061  27.486  1.00  0.00    -0.246 OA
BRANCH  20  22
ATOM     22  C   UNL A   1      36.346  30.576  28.958  1.00  0.00     0.060 A 
ATOM     23  C   UNL A   1      37.441  31.423  28.760  1.00  0.00     0.016 A 
ATOM     24  C   UNL A   1      36.472  29.333  29.594  1.00  0.00     0.016 A 
ATOM     25  C   UNL A   1      38.701  30.936  29.022  1.00  0.00     0.010 A 
ATOM     26  C   UNL A   1      37.729  28.842  29.839  1.00  0.00     0.010 A 
ATOM     27  C   UNL A   1      38.825  29.618  29.471  1.00  0.00    -0.014 A 
BRANCH  27  28
ATOM     28  C   UNL A   1      40.153  29.062  29.585  1.00  0.00     0.031 A 
ATOM     29  C   UNL A   1      40.652  28.990  30.977  1.00  0.00     0.074 A 
ATOM     30  C   UNL A   1      40.778  28.539  28.514  1.00  0.00     0.049 A 
ATOM     31  N   UNL A   1      41.709  29.534  31.482  1.00  0.00    -0.248 NA
ATOM     32  C   UNL A   1      39.781  28.331  31.968  1.00  0.00     0.031 C 
ATOM     33  C   UNL A   1      40.234  28.291  27.175  1.00  0.00     0.029 A 
ATOM     34  N   UNL A   1      42.025  28.009  28.437  1.00  0.00    -0.354 N 
ATOM     35  C   UNL A   1      41.728  29.145  32.819  1.00  0.00     0.074 A 
ATOM     36  C   UNL A   1      40.447  28.554  33.098  1.00  0.00     0.031 C 
ATOM     37  C   UNL A   1      41.060  27.454  26.507  1.00  0.00     0.029 A 
ATOM     38  C   UNL A   1      42.239  27.217  27.320  1.00  0.00     0.049 A 
ATOM     39  H   UNL A   1      42.717  28.172  29.116  1.00  0.00     0.167 HD
ATOM     40  C   UNL A   1      42.883  29.120  33.533  1.00  0.00     0.037 A 
ATOM     41  C   UNL A   1      43.273  26.356  27.151  1.00  0.00     0.037 A 
ATOM     42  C   UNL A   1      43.887  29.962  32.941  1.00  0.00     0.049 A 
ATOM     43  C   UNL A   1      44.325  26.718  28.139  1.00  0.00     0.074 A 
ATOM     44  C   UNL A   1      43.976  31.317  32.683  1.00  0.00     0.029 A 
ATOM     45  N   UNL A   1      44.864  29.375  32.175  1.00  0.00    -0.354 N 
ATOM     46  N   UNL A   1      45.019  27.823  28.090  1.00  0.00    -0.248 NA
ATOM     47  C   UNL A   1      44.267  26.078  29.446  1.00  0.00     0.031 C 
ATOM     48  C   UNL A   1      44.650  31.411  31.430  1.00  0.00     0.029 A 
ATOM     49  C   UNL A   1      44.979  30.117  31.027  1.00  0.00     0.049 A 
ATOM     50  H   UNL A   1      45.385  28.573  32.407  1.00  0.00     0.167 HD
ATOM     51  C   UNL A   1      45.136  28.231  29.412  1.00  0.00     0.074 A 
ATOM     52  C   UNL A   1      44.717  27.080  30.207  1.00  0.00     0.031 C 
ATOM     53  C   UNL A   1      45.284  29.549  29.735  1.00  0.00     0.037 A 
BRANCH  40  54
ATOM     54  C   UNL A   1      43.202  28.057  34.551  1.00  0.00     0.064 A 
ATOM     55  C   UNL A   1      43.518  28.439  35.868  1.00  0.00     0.173 A 
ATOM     56  C   UNL A   1      43.499  26.715  34.219  1.00  0.00     0.173 A 
ATOM     57  F   UNL A   1      43.299  29.697  36.285  1.00  0.00    -0.203 F 
ATOM     58  C   UNL A   1      44.149  27.566  36.757  1.00  0.00     0.198 A 
ATOM     59  C   UNL A   1      44.075  25.830  35.126  1.00  0.00     0.198 A 
ATOM     60  F   UNL A   1      43.354  26.236  32.978  1.00  0.00    -0.203 F 
ATOM     61  F   UNL A   1      44.545  28.011  37.958  1.00  0.00    -0.200 F 
ATOM     62  C   UNL A   1      44.431  26.264  36.384  1.00  0.00     0.200 A 
ATOM     63  F   UNL A   1      44.358  24.579  34.737  1.00  0.00    -0.200 F 
ATOM     64  F   UNL A   1      45.092  25.445  37.212  1.00  0.00    -0.200 F 
ENDBRANCH  40  54
BRANCH  41  65
ATOM     65  C   UNL A   1      43.233  25.042  26.468  1.00  0.00     0.064 A 
ATOM     66  C   UNL A   1      44.042  24.774  25.354  1.00  0.00     0.173 A 
ATOM     67  C   UNL A   1      42.582  23.936  27.052  1.00  0.00     0.173 A 
ATOM     68  F   UNL A   1      44.739  25.762  24.774  1.00  0.00    -0.203 F 
ATOM     69  C   UNL A   1      44.191  23.474  24.855  1.00  0.00     0.198 A 
ATOM     70  C   UNL A   1      42.726  22.643  26.550  1.00  0.00     0.198 A 
ATOM     71  F   UNL A   1      41.867  24.076  28.177  1.00  0.00    -0.203 F 
ATOM     72  F   UNL A   1      45.010  23.245  23.818  1.00  0.00    -0.200 F 
ATOM     73  C   UNL A   1      43.538  22.410  25.457  1.00  0.00     0.200 A 
ATOM     74  F   UNL A   1      42.118  21.619  27.167  1.00  0.00    -0.200 F 
ATOM     75  F   UNL A   1      43.721  21.160  25.011  1.00  0.00    -0.200 F 
ENDBRANCH  41  65
BRANCH  53  76
ATOM     76  C   UNL A   1      45.539  30.518  28.614  1.00  0.00     0.064 A 
ATOM     77  C   UNL A   1      44.519  31.125  27.861  1.00  0.00     0.173 A 
ATOM     78  C   UNL A   1      46.848  30.967  28.401  1.00  0.00     0.173 A 
ATOM     79  F   UNL A   1      43.232  30.830  28.081  1.00  0.00    -0.203 F 
ATOM     80  C   UNL A   1      44.804  32.099  26.904  1.00  0.00     0.198 A 
ATOM     81  C   UNL A   1      47.127  31.967  27.472  1.00  0.00     0.198 A 
ATOM     82  F   UNL A   1      47.857  30.470  29.135  1.00  0.00    -0.203 F 
ATOM     83  F   UNL A   1      43.812  32.653  26.192  1.00  0.00    -0.200 F 
ATOM     84  C   UNL A   1      46.107  32.524  26.718  1.00  0.00     0.200 A 
ATOM     85  F   UNL A   1      48.383  32.414  27.333  1.00  0.00    -0.200 F 
ATOM     86  F   UNL A   1      46.379  33.492  25.831  1.00  0.00    -0.200 F 
ENDBRANCH  53  76
ENDBRANCH  27  28
ENDBRANCH  20  22
ENDBRANCH  19  20
ENDBRANCH   1  19
TORSDOF 12
ENDMDL
MODEL 2
REMARK VINA RESULT:     -11.1      0.837      1.460
REMARK SMILES Cc1c(Br)c(C(=O)OCCOC(=O)c2ccc(-c3c4nc(c(-c5c(F)c(F)c(F)c(F)c5F)c5ccc([nH]5)c(-c5c(F)c(F)c(F)c(F)c5F)c5nc(c(-c6c(F)c(F)c(F)c(F)c6F)c6ccc3[nH]6)C=C5)C=C4)cc2)nn1-c1ccccc1
REMARK SMILES IDX 10 1 9 2 8 3 6 4 7 5 5 6 1 7 2 8 3 9 78 10 4 11 77 12 79 13
REMARK SMILES IDX 80 14 84 15 81 16 83 17 82 18 11 19 12 20 13 21 14 22 15 23
REMARK SMILES IDX 76 24 16 25 75 26 17 27 18 28 19 29 69 30 20 31 74 32 68 33
REMARK SMILES IDX 70 34 21 35 73 36 67 37 66 38 22 40 54 41 34 42 53 43 35 44
REMARK SMILES IDX 38 45 52 46 71 47 36 48 37 49 51 51 72 52 39 53 23 54 24 55
REMARK SMILES IDX 32 56 25 57 26 58 30 59 33 60 27 61 28 62 31 63 29 64 55 65
REMARK SMILES IDX 56 66 64 67 57 68 58 69 62 70 65 71 59 72 60 73 63 74 61 75
REMARK SMILES IDX 40 76 41 77 49 78 42 79 43 80 47 81 50 82 44 83 45 84 48 85
REMARK SMILES IDX 46 86
REMARK H PARENT 70 39 38 50
REMARK Flexibility Score: inf
ROOT
ATOM      1  C   UNL A   1      33.508  32.585  28.090  1.00  0.00     0.275 C 
ENDROOT
BRANCH   1   2
ATOM      2  C   UNL A   1      33.195  34.039  27.762  1.00  0.00     0.275 C 
BRANCH   2   3
ATOM      3  O   UNL A   1      32.484  34.679  28.831  1.00  0.00    -0.457 OA
BRANCH   3   4
ATOM      4  C   UNL A   1      33.114  35.716  29.471  1.00  0.00     0.360 C 
ATOM      5  O   UNL A   1      33.005  36.893  29.131  1.00  0.00    -0.244 OA
BRANCH   4   6
ATOM      6  C   UNL A   1      33.858  35.270  30.656  1.00  0.00     0.185 A 
ATOM      7  C   UNL A   1      34.785  34.742  34.206  1.00  0.00     0.068 C 
ATOM      8  C   UNL A   1      34.527  34.784  32.743  1.00  0.00     0.056 A 
ATOM      9  C   UNL A   1      33.549  35.439  32.024  1.00  0.00     0.074 A 
ATOM     10  N   UNL A   1      35.348  34.208  31.785  1.00  0.00    -0.236 N 
ATOM     11  Br  UNL A   1      32.096  36.397  32.726  1.00  0.00    -0.046 Br
ATOM     12  N   UNL A   1      35.018  34.602  30.533  1.00  0.00    -0.159 NA
BRANCH  10  13
ATOM     13  C   UNL A   1      36.474  33.362  31.953  1.00  0.00     0.065 A 
ATOM     14  C   UNL A   1      36.247  31.997  32.180  1.00  0.00     0.028 A 
ATOM     15  C   UNL A   1      37.782  33.857  31.918  1.00  0.00     0.028 A 
ATOM     16  C   UNL A   1      37.322  31.121  32.310  1.00  0.00     0.002 A 
ATOM     17  C   UNL A   1      38.854  32.976  32.084  1.00  0.00     0.002 A 
ATOM     18  C   UNL A   1      38.624  31.611  32.262  1.00  0.00     0.000 A 
ENDBRANCH  10  13
ENDBRANCH   4   6
ENDBRANCH   3   4
ENDBRANCH   2   3
ENDBRANCH   1   2
BRANCH   1  19
ATOM     19  O   UNL A   1      34.871  32.280  27.803  1.00  0.00    -0.458 OA
BRANCH  19  20
ATOM     20  C   UNL A   1      35.145  30.973  27.606  1.00  0.00     0.338 C 
ATOM     21  O   UNL A   1      34.486  30.164  26.976  1.00  0.00    -0.246 OA
BRANCH  20  22
ATOM     22  C   UNL A   1      36.279  30.591  28.452  1.00  0.00     0.060 A 
ATOM     23  C   UNL A   1      37.373  31.461  28.474  1.00  0.00     0.016 A 
ATOM     24  C   UNL A   1      36.358  29.282  28.949  1.00  0.00     0.016 A 
ATOM     25  C   UNL A   1      38.606  30.953  28.814  1.00  0.00     0.010 A 
ATOM     26  C   UNL A   1      37.590  28.773  29.271  1.00  0.00     0.010 A 
ATOM     27  C   UNL A   1      38.705  29.593  29.118  1.00  0.00    -0.014 A 
BRANCH  27  28
ATOM     28  C   UNL A   1      40.024  29.035  29.311  1.00  0.00     0.031 A 
ATOM     29  C   UNL A   1      40.392  28.854  30.733  1.00  0.00     0.074 A 
ATOM     30  C   UNL A   1      40.751  28.602  28.265  1.00  0.00     0.049 A 
ATOM     31  N   UNL A   1      41.391  29.361  31.375  1.00  0.00    -0.248 NA
ATOM     32  C   UNL A   1      39.441  28.115  31.583  1.00  0.00     0.031 C 
ATOM     33  C   UNL A   1      40.335  28.459  26.865  1.00  0.00     0.029 A 
ATOM     34  N   UNL A   1      42.005  28.084  28.262  1.00  0.00    -0.354 N 
ATOM     35  C   UNL A   1      41.291  28.866  32.673  1.00  0.00     0.074 A 
ATOM     36  C   UNL A   1      39.996  28.249  32.785  1.00  0.00     0.031 C 
ATOM     37  C   UNL A   1      41.229  27.681  26.212  1.00  0.00     0.029 A 
ATOM     38  C   UNL A   1      42.331  27.385  27.111  1.00  0.00     0.049 A 
ATOM     39  H   UNL A   1      42.630  28.195  29.014  1.00  0.00     0.167 HD
ATOM     40  C   UNL A   1      42.376  28.788  33.488  1.00  0.00     0.037 A 
ATOM     41  C   UNL A   1      43.386  26.544  26.971  1.00  0.00     0.037 A 
ATOM     42  C   UNL A   1      43.420  29.679  33.060  1.00  0.00     0.049 A 
ATOM     43  C   UNL A   1      44.337  26.831  28.079  1.00  0.00     0.074 A 
ATOM     44  C   UNL A   1      43.517  31.051  32.919  1.00  0.00     0.029 A 
ATOM     45  N   UNL A   1      44.470  29.159  32.345  1.00  0.00    -0.354 N 
ATOM     46  N   UNL A   1      45.021  27.939  28.182  1.00  0.00    -0.248 NA
ATOM     47  C   UNL A   1      44.166  26.088  29.320  1.00  0.00     0.031 C 
ATOM     48  C   UNL A   1      44.304  31.248  31.747  1.00  0.00     0.029 A 
ATOM     49  C   UNL A   1      44.682  29.991  31.275  1.00  0.00     0.049 A 
ATOM     50  H   UNL A   1      44.977  28.343  32.561  1.00  0.00     0.167 HD
ATOM     51  C   UNL A   1      45.010  28.240  29.537  1.00  0.00     0.074 A 
ATOM     52  C   UNL A   1      44.532  27.028  30.197  1.00  0.00     0.031 C 
ATOM     53  C   UNL A   1      45.113  29.529  29.976  1.00  0.00     0.037 A 
BRANCH  40  54
ATOM     54  C   UNL A   1      42.611  27.649  34.444  1.00  0.00     0.064 A 
ATOM     55  C   UNL A   1      43.158  26.446  33.960  1.00  0.00     0.173 A 
ATOM     56  C   UNL A   1      42.053  27.585  35.741  1.00  0.00     0.173 A 
ATOM     57  F   UNL A   1      43.694  26.386  32.730  1.00  0.00    -0.203 F 
ATOM     58  C   UNL A   1      43.083  25.257  34.689  1.00  0.00     0.198 A 
ATOM     59  C   UNL A   1      42.032  26.411  36.489  1.00  0.00     0.198 A 
ATOM     60  F   UNL A   1      41.404  28.617  36.293  1.00  0.00    -0.203 F 
ATOM     61  F   UNL A   1      43.502  24.111  34.136  1.00  0.00    -0.200 F 
ATOM     62  C   UNL A   1      42.516  25.240  35.951  1.00  0.00     0.200 A 
ATOM     63  F   UNL A   1      41.461  26.413  37.702  1.00  0.00    -0.200 F 
ATOM     64  F   UNL A   1      42.388  24.090  36.625  1.00  0.00    -0.200 F 
ENDBRANCH  40  54
BRANCH  41  65
ATOM     65  C   UNL A   1      43.424  25.289  26.186  1.00  0.00     0.064 A 
ATOM     66  C   UNL A   1      44.444  25.040  25.256  1.00  0.00     0.173 A 
ATOM     67  C   UNL A   1      42.597  24.196  26.517  1.00  0.00     0.173 A 
ATOM     68  F   UNL A   1      45.309  26.012  24.930  1.00  0.00    -0.203 F 
ATOM     69  C   UNL A   1      44.627  23.772  24.692  1.00  0.00     0.198 A 
ATOM     70  C   UNL A   1      42.775  22.935  25.949  1.00  0.00     0.198 A 
ATOM     71  F   UNL A   1      41.657  24.308  27.467  1.00  0.00    -0.203 F 
ATOM     72  F   UNL A   1      45.642  23.557  23.844  1.00  0.00    -0.200 F 
ATOM     73  C   UNL A   1      43.796  22.720  25.043  1.00  0.00     0.200 A 
ATOM     74  F   UNL A   1      41.987  21.918  26.328  1.00  0.00    -0.200 F 
ATOM     75  F   UNL A   1      44.002  21.494  24.543  1.00  0.00    -0.200 F 
ENDBRANCH  41  65
BRANCH  53  76
ATOM     76  C   UNL A   1      45.459  30.585  28.964  1.00  0.00     0.064 A 
ATOM     77  C   UNL A   1      44.504  31.266  28.189  1.00  0.00     0.173 A 
ATOM     78  C   UNL A   1      46.784  31.033  28.889  1.00  0.00     0.173 A 
ATOM     79  F   UNL A   1      43.202  30.972  28.286  1.00  0.00    -0.203 F 
ATOM     80  C   UNL A   1      44.868  32.313  27.344  1.00  0.00     0.198 A 
ATOM     81  C   UNL A   1      47.140  32.103  28.072  1.00  0.00     0.198 A 
ATOM     82  F   UNL A   1      47.730  30.463  29.653  1.00  0.00    -0.203 F 
ATOM     83  F   UNL A   1      43.937  32.939  26.608  1.00  0.00    -0.200 F 
ATOM     84  C   UNL A   1      46.185  32.736  27.293  1.00  0.00     0.200 A 
ATOM     85  F   UNL A   1      48.406  32.544  28.067  1.00  0.00    -0.200 F 
ATOM     86  F   UNL A   1      46.530  33.771  26.515  1.00  0.00    -0.200 F 
ENDBRANCH  53  76
ENDBRANCH  27  28
ENDBRANCH  20  22
ENDBRANCH  19  20
ENDBRANCH   1  19
TORSDOF 12
ENDMDL
MODEL 3
REMARK VINA RESULT:     -10.8      4.644     11.216
REMARK SMILES Cc1c(Br)c(C(=O)OCCOC(=O)c2ccc(-c3c4nc(c(-c5c(F)c(F)c(F)c(F)c5F)c5ccc([nH]5)c(-c5c(F)c(F)c(F)c(F)c5F)c5nc(c(-c6c(F)c(F)c(F)c(F)c6F)c6ccc3[nH]6)C=C5)C=C4)cc2)nn1-c1ccccc1
REMARK SMILES IDX 10 1 9 2 8 3 6 4 7 5 5 6 1 7 2 8 3 9 78 10 4 11 77 12 79 13
REMARK SMILES IDX 80 14 84 15 81 16 83 17 82 18 11 19 12 20 13 21 14 22 15 23
REMARK SMILES IDX 76 24 16 25 75 26 17 27 18 28 19 29 69 30 20 31 74 32 68 33
REMARK SMILES IDX 70 34 21 35 73 36 67 37 66 38 22 40 54 41 34 42 53 43 35 44
REMARK SMILES IDX 38 45 52 46 71 47 36 48 37 49 51 51 72 52 39 53 23 54 24 55
REMARK SMILES IDX 32 56 25 57 26 58 30 59 33 60 27 61 28 62 31 63 29 64 55 65
REMARK SMILES IDX 56 66 64 67 57 68 58 69 62 70 65 71 59 72 60 73 63 74 61 75
REMARK SMILES IDX 40 76 41 77 49 78 42 79 43 80 47 81 50 82 44 83 45 84 48 85
REMARK SMILES IDX 46 86
REMARK H PARENT 70 39 38 50
REMARK Flexibility Score: inf
ROOT
ATOM      1  C   UNL A   1      40.157  21.038  25.749  1.00  0.00     0.275 C 
ENDROOT
BRANCH   1   2
ATOM      2  C   UNL A   1      40.411  19.687  26.405  1.00  0.00     0.275 C 
BRANCH   2   3
ATOM      3  O   UNL A   1      41.758  19.584  26.890  1.00  0.00    -0.457 OA
BRANCH   3   4
ATOM      4  C   UNL A   1      42.730  19.262  25.978  1.00  0.00     0.360 C 
ATOM      5  O   UNL A   1      42.775  18.188  25.381  1.00  0.00    -0.244 OA
BRANCH   4   6
ATOM      6  C   UNL A   1      43.655  20.377  25.733  1.00  0.00     0.185 A 
ATOM      7  C   UNL A   1      46.401  22.378  24.251  1.00  0.00     0.068 C 
ATOM      8  C   UNL A   1      45.217  21.758  24.903  1.00  0.00     0.056 A 
ATOM      9  C   UNL A   1      44.679  20.495  24.768  1.00  0.00     0.074 A 
ATOM     10  N   UNL A   1      44.467  22.360  25.901  1.00  0.00    -0.236 N 
ATOM     11  Br  UNL A   1      45.218  19.173  23.549  1.00  0.00    -0.046 Br
ATOM     12  N   UNL A   1      43.610  21.490  26.484  1.00  0.00    -0.159 NA
BRANCH  10  13
ATOM     13  C   UNL A   1      44.535  23.684  26.407  1.00  0.00     0.065 A 
ATOM     14  C   UNL A   1      45.177  23.889  27.637  1.00  0.00     0.028 A 
ATOM     15  C   UNL A   1      43.964  24.765  25.727  1.00  0.00     0.028 A 
ATOM     16  C   UNL A   1      45.303  25.176  28.154  1.00  0.00     0.002 A 
ATOM     17  C   UNL A   1      44.065  26.049  26.271  1.00  0.00     0.002 A 
ATOM     18  C   UNL A   1      44.747  26.254  27.471  1.00  0.00     0.000 A 
ENDBRANCH  10  13
ENDBRANCH   4   6
ENDBRANCH   3   4
ENDBRANCH   2   3
ENDBRANCH   1   2
BRANCH   1  19
ATOM     19  O   UNL A   1      40.416  22.104  26.661  1.00  0.00    -0.458 OA
BRANCH  19  20
ATOM     20  C   UNL A   1      39.582  23.162  26.571  1.00  0.00     0.338 C 
ATOM     21  O   UNL A   1      38.450  23.178  26.119  1.00  0.00    -0.246 OA
BRANCH  20  22
ATOM     22  C   UNL A   1      40.320  24.380  26.915  1.00  0.00     0.060 A 
ATOM     23  C   UNL A   1      41.059  24.358  28.102  1.00  0.00     0.016 A 
ATOM     24  C   UNL A   1      40.031  25.575  26.240  1.00  0.00     0.016 A 
ATOM     25  C   UNL A   1      41.342  25.555  28.719  1.00  0.00     0.010 A 
ATOM     26  C   UNL A   1      40.299  26.766  26.865  1.00  0.00     0.010 A 
ATOM     27  C   UNL A   1      40.874  26.734  28.132  1.00  0.00    -0.014 A 
BRANCH  27  28
ATOM     28  C   UNL A   1      41.030  27.967  28.869  1.00  0.00     0.031 A 
ATOM     29  C   UNL A   1      42.213  28.758  28.461  1.00  0.00     0.074 A 
ATOM     30  C   UNL A   1      40.084  28.382  29.731  1.00  0.00     0.049 A 
ATOM     31  N   UNL A   1      43.213  29.140  29.185  1.00  0.00    -0.248 NA
ATOM     32  C   UNL A   1      42.363  29.049  27.024  1.00  0.00     0.031 C 
ATOM     33  C   UNL A   1      38.749  27.817  29.957  1.00  0.00     0.029 A 
ATOM     34  N   UNL A   1      40.082  29.487  30.519  1.00  0.00    -0.354 N 
ATOM     35  C   UNL A   1      44.037  29.865  28.329  1.00  0.00     0.074 A 
ATOM     36  C   UNL A   1      43.556  29.637  26.993  1.00  0.00     0.031 C 
ATOM     37  C   UNL A   1      37.996  28.713  30.636  1.00  0.00     0.029 A 
ATOM     38  C   UNL A   1      38.832  29.844  30.997  1.00  0.00     0.049 A 
ATOM     39  H   UNL A   1      40.900  29.991  30.732  1.00  0.00     0.167 HD
ATOM     40  C   UNL A   1      44.908  30.795  28.804  1.00  0.00     0.037 A 
ATOM     41  C   UNL A   1      38.513  31.039  31.553  1.00  0.00     0.037 A 
ATOM     42  C   UNL A   1      45.209  30.574  30.192  1.00  0.00     0.049 A 
ATOM     43  C   UNL A   1      39.784  31.707  31.942  1.00  0.00     0.074 A 
ATOM     44  C   UNL A   1      45.795  29.539  30.897  1.00  0.00     0.029 A 
ATOM     45  N   UNL A   1      44.564  31.342  31.130  1.00  0.00    -0.354 N 
ATOM     46  N   UNL A   1      40.565  31.282  32.898  1.00  0.00    -0.248 NA
ATOM     47  C   UNL A   1      40.423  32.564  30.952  1.00  0.00     0.031 C 
ATOM     48  C   UNL A   1      45.068  29.469  32.122  1.00  0.00     0.029 A 
ATOM     49  C   UNL A   1      44.122  30.494  32.113  1.00  0.00     0.049 A 
ATOM     50  H   UNL A   1      44.443  32.319  31.103  1.00  0.00     0.167 HD
ATOM     51  C   UNL A   1      41.854  31.470  32.418  1.00  0.00     0.074 A 
ATOM     52  C   UNL A   1      41.705  32.329  31.246  1.00  0.00     0.031 C 
ATOM     53  C   UNL A   1      42.888  30.683  32.838  1.00  0.00     0.037 A 
BRANCH  40  54
ATOM     54  C   UNL A   1      45.193  32.096  28.100  1.00  0.00     0.064 A 
ATOM     55  C   UNL A   1      44.139  33.000  27.873  1.00  0.00     0.173 A 
ATOM     56  C   UNL A   1      46.384  32.356  27.384  1.00  0.00     0.173 A 
ATOM     57  F   UNL A   1      42.954  32.834  28.482  1.00  0.00    -0.203 F 
ATOM     58  C   UNL A   1      44.247  34.039  26.945  1.00  0.00     0.198 A 
ATOM     59  C   UNL A   1      46.507  33.428  26.504  1.00  0.00     0.198 A 
ATOM     60  F   UNL A   1      47.434  31.528  27.416  1.00  0.00    -0.203 F 
ATOM     61  F   UNL A   1      43.177  34.796  26.668  1.00  0.00    -0.200 F 
ATOM     62  C   UNL A   1      45.429  34.249  26.258  1.00  0.00     0.200 A 
ATOM     63  F   UNL A   1      47.656  33.601  25.835  1.00  0.00    -0.200 F 
ATOM     64  F   UNL A   1      45.515  35.204  25.325  1.00  0.00    -0.200 F 
ENDBRANCH  40  54
BRANCH  41  65
ATOM     65  C   UNL A   1      37.233  31.772  31.412  1.00  0.00     0.064 A 
ATOM     66  C   UNL A   1      36.428  32.056  32.524  1.00  0.00     0.173 A 
ATOM     67  C   UNL A   1      36.898  32.429  30.210  1.00  0.00     0.173 A 
ATOM     68  F   UNL A   1      36.713  31.515  33.717  1.00  0.00    -0.203 F 
ATOM     69  C   UNL A   1      35.352  32.948  32.439  1.00  0.00     0.198 A 
ATOM     70  C   UNL A   1      35.822  33.312  30.125  1.00  0.00     0.198 A 
ATOM     71  F   UNL A   1      37.665  32.298  29.118  1.00  0.00    -0.203 F 
ATOM     72  F   UNL A   1      34.633  33.235  33.534  1.00  0.00    -0.200 F 
ATOM     73  C   UNL A   1      35.054  33.579  31.242  1.00  0.00     0.200 A 
ATOM     74  F   UNL A   1      35.570  33.943  28.969  1.00  0.00    -0.200 F 
ATOM     75  F   UNL A   1      34.056  34.471  31.173  1.00  0.00    -0.200 F 
ENDBRANCH  41  65
BRANCH  53  76
ATOM     76  C   UNL A   1      42.635  29.758  33.996  1.00  0.00     0.064 A 
ATOM     77  C   UNL A   1      42.039  28.491  33.866  1.00  0.00     0.173 A 
ATOM     78  C   UNL A   1      43.154  30.097  35.251  1.00  0.00     0.173 A 
ATOM     79  F   UNL A   1      41.616  28.048  32.676  1.00  0.00    -0.203 F 
ATOM     80  C   UNL A   1      41.926  27.627  34.954  1.00  0.00     0.198 A 
ATOM     81  C   UNL A   1      43.074  29.218  36.328  1.00  0.00     0.198 A 
ATOM     82  F   UNL A   1      43.790  31.268  35.421  1.00  0.00    -0.203 F 
ATOM     83  F   UNL A   1      41.343  26.428  34.804  1.00  0.00    -0.200 F 
ATOM     84  C   UNL A   1      42.451  27.989  36.182  1.00  0.00     0.200 A 
ATOM     85  F   UNL A   1      43.632  29.550  37.501  1.00  0.00    -0.200 F 
ATOM     86  F   UNL A   1      42.384  27.142  37.219  1.00  0.00    -0.200 F 
ENDBRANCH  53  76
ENDBRANCH  27  28
ENDBRANCH  20  22
ENDBRANCH  19  20
ENDBRANCH   1  19
TORSDOF 12
ENDMDL
