MODEL 1
REMARK VINA RESULT:     -12.0      0.000      0.000
REMARK SMILES C[C@](NC(=O)[C@](C)([NH3+])C(F)(F)F)(C(=O)OCCOC(=O)c1ccc(-c2c3nc(c(-c4c(F)c(F)c(F)c(F)c4F)c4ccc([nH]4)c(-c4c(F)c(F)c(F)c(F)c4F)c4nc(c(-c5c(F)c(F)c(F)c(F)c5F)c5ccc2[nH]5)C=C4)C=C3)cc1)c1ccccc1
REMARK SMILES IDX 16 1 15 2 13 3 14 4 2 5 1 6 84 7 85 8 89 9 86 10 88 11 87 12
REMARK SMILES IDX 3 13 4 14 5 16 6 17 7 18 8 19 9 23 10 24 11 25 12 26 17 27
REMARK SMILES IDX 18 28 19 29 20 30 21 31 22 32 83 33 23 34 82 35 24 36 25 37
REMARK SMILES IDX 26 38 76 39 27 40 81 41 75 42 77 43 28 44 80 45 74 46 73 47
REMARK SMILES IDX 29 49 61 50 41 51 60 52 42 53 45 54 59 55 78 56 43 57 44 58
REMARK SMILES IDX 58 60 79 61 46 62 30 63 31 64 39 65 32 66 33 67 37 68 40 69
REMARK SMILES IDX 34 70 35 71 38 72 36 73 62 74 63 75 71 76 64 77 65 78 69 79
REMARK SMILES IDX 72 80 66 81 67 82 70 83 68 84 47 85 48 86 56 87 49 88 50 89
REMARK SMILES IDX 54 90 57 91 51 92 52 93 55 94 53 95
REMARK H PARENT 3 15 8 20 8 21 8 22 77 48 45 59
REMARK Flexibility Score: inf
ROOT
ATOM      1  C   UNL A   1      31.668  28.459  26.967  1.00  0.00     0.274 C 
ENDROOT
BRANCH   1   2
ATOM      2  O   UNL A   1      32.029  27.517  25.922  1.00  0.00    -0.460 OA
BRANCH   2   3
ATOM      3  C   UNL A   1      31.059  26.640  25.546  1.00  0.00     0.336 C 
ATOM      4  O   UNL A   1      30.318  26.078  26.349  1.00  0.00    -0.249 OA
BRANCH   3   5
ATOM      5  C   UNL A   1      30.967  26.428  23.990  1.00  0.00     0.161 C 
ATOM      6  C   UNL A   1      30.095  25.176  23.741  1.00  0.00     0.053 C 
BRANCH   5   7
ATOM      7  C   UNL A   1      30.179  27.663  23.386  1.00  0.00    -0.012 A 
ATOM      8  C   UNL A   1      30.818  28.769  22.777  1.00  0.00     0.007 A 
ATOM      9  C   UNL A   1      28.767  27.712  23.437  1.00  0.00     0.007 A 
ATOM     10  C   UNL A   1      30.088  29.802  22.174  1.00  0.00     0.000 A 
ATOM     11  C   UNL A   1      28.040  28.759  22.858  1.00  0.00     0.000 A 
ATOM     12  C   UNL A   1      28.700  29.793  22.206  1.00  0.00     0.000 A 
ENDBRANCH   5   7
BRANCH   5  13
ATOM     13  N   UNL A   1      32.241  26.263  23.209  1.00  0.00    -0.331 N 
ATOM     14  C   UNL A   1      33.262  25.403  22.986  1.00  0.00     0.291 C 
ATOM     15  H   UNL A   1      32.386  27.071  22.666  1.00  0.00     0.165 HD
ATOM     16  O   UNL A   1      33.871  25.674  21.942  1.00  0.00    -0.267 OA
BRANCH  14  17
ATOM     17  C   UNL A   1      33.765  24.283  23.920  1.00  0.00     0.267 C 
ATOM     18  C   UNL A   1      34.887  23.453  23.308  1.00  0.00     0.100 C 
BRANCH  17  19
ATOM     19  N   UNL A   1      32.611  23.385  24.258  1.00  0.00    -0.337 N 
ATOM     20  H   UNL A   1      32.605  22.587  23.625  1.00  0.00     0.345 HD
ATOM     21  H   UNL A   1      31.738  23.903  24.161  1.00  0.00     0.345 HD
ATOM     22  H   UNL A   1      32.707  23.056  25.220  1.00  0.00     0.345 HD
ENDBRANCH  17  19
BRANCH  17  23
ATOM     23  C   UNL A   1      34.344  25.002  25.182  1.00  0.00     0.453 C 
ATOM     24  F   UNL A   1      35.576  24.513  25.491  1.00  0.00    -0.164 F 
ATOM     25  F   UNL A   1      34.501  26.332  24.994  1.00  0.00    -0.164 F 
ATOM     26  F   UNL A   1      33.579  24.808  26.282  1.00  0.00    -0.164 F 
ENDBRANCH  17  23
ENDBRANCH  14  17
ENDBRANCH   5  13
ENDBRANCH   3   5
ENDBRANCH   2   3
ENDBRANCH   1   2
BRANCH   1  27
ATOM     27  C   UNL A   1      31.677  29.889  26.419  1.00  0.00     0.275 C 
BRANCH  27  28
ATOM     28  O   UNL A   1      33.040  30.321  26.260  1.00  0.00    -0.458 OA
BRANCH  28  29
ATOM     29  C   UNL A   1      33.397  31.357  27.052  1.00  0.00     0.338 C 
ATOM     30  O   UNL A   1      32.703  32.278  27.443  1.00  0.00    -0.246 OA
BRANCH  29  31
ATOM     31  C   UNL A   1      34.732  31.071  27.590  1.00  0.00     0.060 A 
ATOM     32  C   UNL A   1      35.015  29.742  27.881  1.00  0.00     0.016 A 
ATOM     33  C   UNL A   1      35.646  32.075  27.900  1.00  0.00     0.016 A 
ATOM     34  C   UNL A   1      36.172  29.418  28.575  1.00  0.00     0.010 A 
ATOM     35  C   UNL A   1      36.844  31.732  28.547  1.00  0.00     0.010 A 
ATOM     36  C   UNL A   1      37.099  30.403  28.936  1.00  0.00    -0.014 A 
BRANCH  36  37
ATOM     37  C   UNL A   1      38.251  30.032  29.811  1.00  0.00     0.031 A 
ATOM     38  C   UNL A   1      39.388  29.219  29.249  1.00  0.00     0.074 A 
ATOM     39  C   UNL A   1      38.349  30.506  31.070  1.00  0.00     0.049 A 
ATOM     40  N   UNL A   1      40.424  28.701  29.864  1.00  0.00    -0.248 NA
ATOM     41  C   UNL A   1      39.360  28.950  27.803  1.00  0.00     0.031 C 
ATOM     42  C   UNL A   1      37.378  31.384  31.724  1.00  0.00     0.029 A 
ATOM     43  N   UNL A   1      39.337  30.349  32.013  1.00  0.00    -0.354 N 
ATOM     44  C   UNL A   1      41.121  27.985  28.898  1.00  0.00     0.074 A 
ATOM     45  C   UNL A   1      40.404  28.149  27.652  1.00  0.00     0.031 C 
ATOM     46  C   UNL A   1      37.851  31.746  32.927  1.00  0.00     0.029 A 
ATOM     47  C   UNL A   1      39.112  31.053  33.173  1.00  0.00     0.049 A 
ATOM     48  H   UNL A   1      40.131  29.785  31.872  1.00  0.00     0.167 HD
ATOM     49  C   UNL A   1      42.251  27.250  29.040  1.00  0.00     0.037 A 
ATOM     50  C   UNL A   1      39.824  31.114  34.314  1.00  0.00     0.037 A 
ATOM     51  C   UNL A   1      43.012  27.150  30.258  1.00  0.00     0.049 A 
ATOM     52  C   UNL A   1      41.067  30.277  34.453  1.00  0.00     0.074 A 
ATOM     53  C   UNL A   1      44.160  26.414  30.503  1.00  0.00     0.029 A 
ATOM     54  N   UNL A   1      42.717  27.829  31.428  1.00  0.00    -0.354 N 
ATOM     55  N   UNL A   1      41.658  29.516  33.564  1.00  0.00    -0.248 NA
ATOM     56  C   UNL A   1      41.725  30.285  35.768  1.00  0.00     0.031 C 
ATOM     57  C   UNL A   1      44.545  26.630  31.830  1.00  0.00     0.029 A 
ATOM     58  C   UNL A   1      43.658  27.529  32.400  1.00  0.00     0.049 A 
ATOM     59  H   UNL A   1      41.952  28.436  31.552  1.00  0.00     0.167 HD
ATOM     60  C   UNL A   1      42.756  28.963  34.208  1.00  0.00     0.074 A 
ATOM     61  C   UNL A   1      42.769  29.497  35.554  1.00  0.00     0.031 C 
ATOM     62  C   UNL A   1      43.665  28.078  33.731  1.00  0.00     0.037 A 
BRANCH  49  63
ATOM     63  C   UNL A   1      42.704  26.448  27.856  1.00  0.00     0.064 A 
ATOM     64  C   UNL A   1      42.235  25.150  27.608  1.00  0.00     0.173 A 
ATOM     65  C   UNL A   1      43.613  27.005  26.944  1.00  0.00     0.173 A 
ATOM     66  F   UNL A   1      41.378  24.567  28.460  1.00  0.00    -0.203 F 
ATOM     67  C   UNL A   1      42.682  24.430  26.502  1.00  0.00     0.198 A 
ATOM     68  C   UNL A   1      44.038  26.292  25.827  1.00  0.00     0.198 A 
ATOM     69  F   UNL A   1      44.088  28.245  27.136  1.00  0.00    -0.203 F 
ATOM     70  F   UNL A   1      42.258  23.173  26.307  1.00  0.00    -0.200 F 
ATOM     71  C   UNL A   1      43.578  25.003  25.610  1.00  0.00     0.200 A 
ATOM     72  F   UNL A   1      44.895  26.852  24.962  1.00  0.00    -0.200 F 
ATOM     73  F   UNL A   1      44.004  24.308  24.546  1.00  0.00    -0.200 F 
ENDBRANCH  49  63
BRANCH  50  74
ATOM     74  C   UNL A   1      39.366  31.973  35.438  1.00  0.00     0.064 A 
ATOM     75  C   UNL A   1      39.844  33.283  35.581  1.00  0.00     0.173 A 
ATOM     76  C   UNL A   1      38.465  31.500  36.403  1.00  0.00     0.173 A 
ATOM     77  F   UNL A   1      40.731  33.773  34.702  1.00  0.00    -0.203 F 
ATOM     78  C   UNL A   1      39.446  34.082  36.652  1.00  0.00     0.198 A 
ATOM     79  C   UNL A   1      38.042  32.310  37.454  1.00  0.00     0.198 A 
ATOM     80  F   UNL A   1      37.984  30.251  36.318  1.00  0.00    -0.203 F 
ATOM     81  F   UNL A   1      39.953  35.315  36.790  1.00  0.00    -0.200 F 
ATOM     82  C   UNL A   1      38.539  33.598  37.583  1.00  0.00     0.200 A 
ATOM     83  F   UNL A   1      37.157  31.841  38.344  1.00  0.00    -0.200 F 
ATOM     84  F   UNL A   1      38.153  34.368  38.608  1.00  0.00    -0.200 F 
ENDBRANCH  50  74
BRANCH  62  85
ATOM     85  C   UNL A   1      44.762  27.655  34.661  1.00  0.00     0.064 A 
ATOM     86  C   UNL A   1      45.968  28.367  34.744  1.00  0.00     0.173 A 
ATOM     87  C   UNL A   1      44.597  26.541  35.497  1.00  0.00     0.173 A 
ATOM     88  F   UNL A   1      46.179  29.429  33.953  1.00  0.00    -0.203 F 
ATOM     89  C   UNL A   1      46.979  27.962  35.611  1.00  0.00     0.198 A 
ATOM     90  C   UNL A   1      45.601  26.154  36.380  1.00  0.00     0.198 A 
ATOM     91  F   UNL A   1      43.460  25.829  35.459  1.00  0.00    -0.203 F 
ATOM     92  F   UNL A   1      48.142  28.629  35.640  1.00  0.00    -0.200 F 
ATOM     93  C   UNL A   1      46.794  26.859  36.432  1.00  0.00     0.200 A 
ATOM     94  F   UNL A   1      45.416  25.093  37.179  1.00  0.00    -0.200 F 
ATOM     95  F   UNL A   1      47.768  26.471  37.265  1.00  0.00    -0.200 F 
ENDBRANCH  62  85
ENDBRANCH  36  37
ENDBRANCH  29  31
ENDBRANCH  28  29
ENDBRANCH  27  28
ENDBRANCH   1  27
TORSDOF 16
ENDMDL
MODEL 2
REMARK VINA RESULT:     -11.9      0.144      2.059
REMARK SMILES C[C@](NC(=O)[C@](C)([NH3+])C(F)(F)F)(C(=O)OCCOC(=O)c1ccc(-c2c3nc(c(-c4c(F)c(F)c(F)c(F)c4F)c4ccc([nH]4)c(-c4c(F)c(F)c(F)c(F)c4F)c4nc(c(-c5c(F)c(F)c(F)c(F)c5F)c5ccc2[nH]5)C=C4)C=C3)cc1)c1ccccc1
REMARK SMILES IDX 16 1 15 2 13 3 14 4 2 5 1 6 84 7 85 8 89 9 86 10 88 11 87 12
REMARK SMILES IDX 3 13 4 14 5 16 6 17 7 18 8 19 9 23 10 24 11 25 12 26 17 27
REMARK SMILES IDX 18 28 19 29 20 30 21 31 22 32 83 33 23 34 82 35 24 36 25 37
REMARK SMILES IDX 26 38 76 39 27 40 81 41 75 42 77 43 28 44 80 45 74 46 73 47
REMARK SMILES IDX 29 49 61 50 41 51 60 52 42 53 45 54 59 55 78 56 43 57 44 58
REMARK SMILES IDX 58 60 79 61 46 62 30 63 31 64 39 65 32 66 33 67 37 68 40 69
REMARK SMILES IDX 34 70 35 71 38 72 36 73 62 74 63 75 71 76 64 77 65 78 69 79
REMARK SMILES IDX 72 80 66 81 67 82 70 83 68 84 47 85 48 86 56 87 49 88 50 89
REMARK SMILES IDX 54 90 57 91 51 92 52 93 55 94 53 95
REMARK H PARENT 3 15 8 20 8 21 8 22 77 48 45 59
REMARK Flexibility Score: inf
ROOT
ATOM      1  C   UNL A   1      31.658  28.485  26.899  1.00  0.00     0.274 C 
ENDROOT
BRANCH   1   2
ATOM      2  O   UNL A   1      32.069  27.483  25.931  1.00  0.00    -0.460 OA
BRANCH   2   3
ATOM      3  C   UNL A   1      31.125  26.570  25.576  1.00  0.00     0.336 C 
ATOM      4  O   UNL A   1      30.395  26.012  26.392  1.00  0.00    -0.249 OA
BRANCH   3   5
ATOM      5  C   UNL A   1      31.046  26.311  24.026  1.00  0.00     0.161 C 
ATOM      6  C   UNL A   1      30.242  25.008  23.812  1.00  0.00     0.053 C 
BRANCH   5   7
ATOM      7  C   UNL A   1      30.192  27.486  23.390  1.00  0.00    -0.012 A 
ATOM      8  C   UNL A   1      28.779  27.528  23.432  1.00  0.00     0.007 A 
ATOM      9  C   UNL A   1      30.827  28.564  22.733  1.00  0.00     0.007 A 
ATOM     10  C   UNL A   1      28.059  28.624  22.937  1.00  0.00     0.000 A 
ATOM     11  C   UNL A   1      30.105  29.645  22.214  1.00  0.00     0.000 A 
ATOM     12  C   UNL A   1      28.721  29.687  22.336  1.00  0.00     0.000 A 
ENDBRANCH   5   7
BRANCH   5  13
ATOM     13  N   UNL A   1      32.327  26.195  23.250  1.00  0.00    -0.331 N 
ATOM     14  C   UNL A   1      33.372  25.368  23.018  1.00  0.00     0.291 C 
ATOM     15  H   UNL A   1      32.451  27.015  22.720  1.00  0.00     0.165 HD
ATOM     16  O   UNL A   1      33.979  25.672  21.981  1.00  0.00    -0.267 OA
BRANCH  14  17
ATOM     17  C   UNL A   1      33.903  24.248  23.938  1.00  0.00     0.267 C 
ATOM     18  C   UNL A   1      35.031  23.441  23.307  1.00  0.00     0.100 C 
BRANCH  17  19
ATOM     19  N   UNL A   1      32.767  23.330  24.281  1.00  0.00    -0.337 N 
ATOM     20  H   UNL A   1      32.156  23.228  23.471  1.00  0.00     0.345 HD
ATOM     21  H   UNL A   1      32.237  23.722  25.059  1.00  0.00     0.345 HD
ATOM     22  H   UNL A   1      33.137  22.416  24.546  1.00  0.00     0.345 HD
ENDBRANCH  17  19
BRANCH  17  23
ATOM     23  C   UNL A   1      34.485  24.966  25.199  1.00  0.00     0.453 C 
ATOM     24  F   UNL A   1      33.685  24.762  26.280  1.00  0.00    -0.164 F 
ATOM     25  F   UNL A   1      35.709  24.501  25.539  1.00  0.00    -0.164 F 
ATOM     26  F   UNL A   1      34.562  26.308  25.038  1.00  0.00    -0.164 F 
ENDBRANCH  17  23
ENDBRANCH  14  17
ENDBRANCH   5  13
ENDBRANCH   3   5
ENDBRANCH   2   3
ENDBRANCH   1   2
BRANCH   1  27
ATOM     27  C   UNL A   1      31.695  29.880  26.268  1.00  0.00     0.275 C 
BRANCH  27  28
ATOM     28  O   UNL A   1      33.063  30.316  26.177  1.00  0.00    -0.458 OA
BRANCH  28  29
ATOM     29  C   UNL A   1      33.388  31.326  27.016  1.00  0.00     0.338 C 
ATOM     30  O   UNL A   1      32.665  32.208  27.444  1.00  0.00    -0.246 OA
BRANCH  29  31
ATOM     31  C   UNL A   1      34.729  31.054  27.547  1.00  0.00     0.060 A 
ATOM     32  C   UNL A   1      35.045  29.724  27.790  1.00  0.00     0.016 A 
ATOM     33  C   UNL A   1      35.616  32.069  27.894  1.00  0.00     0.016 A 
ATOM     34  C   UNL A   1      36.209  29.404  28.476  1.00  0.00     0.010 A 
ATOM     35  C   UNL A   1      36.822  31.735  28.531  1.00  0.00     0.010 A 
ATOM     36  C   UNL A   1      37.110  30.400  28.873  1.00  0.00    -0.014 A 
BRANCH  36  37
ATOM     37  C   UNL A   1      38.270  30.027  29.737  1.00  0.00     0.031 A 
ATOM     38  C   UNL A   1      39.400  29.211  29.165  1.00  0.00     0.074 A 
ATOM     39  C   UNL A   1      38.380  30.501  30.995  1.00  0.00     0.049 A 
ATOM     40  N   UNL A   1      40.441  28.692  29.770  1.00  0.00    -0.248 NA
ATOM     41  C   UNL A   1      39.357  28.942  27.719  1.00  0.00     0.031 C 
ATOM     42  C   UNL A   1      37.418  31.381  31.658  1.00  0.00     0.029 A 
ATOM     43  N   UNL A   1      39.378  30.343  31.928  1.00  0.00    -0.354 N 
ATOM     44  C   UNL A   1      41.127  27.974  28.797  1.00  0.00     0.074 A 
ATOM     45  C   UNL A   1      40.399  28.139  27.558  1.00  0.00     0.031 C 
ATOM     46  C   UNL A   1      37.903  31.743  32.856  1.00  0.00     0.029 A 
ATOM     47  C   UNL A   1      39.165  31.048  33.090  1.00  0.00     0.049 A 
ATOM     48  H   UNL A   1      40.170  29.777  31.779  1.00  0.00     0.167 HD
ATOM     49  C   UNL A   1      42.257  27.238  28.928  1.00  0.00     0.037 A 
ATOM     50  C   UNL A   1      39.888  31.108  34.224  1.00  0.00     0.037 A 
ATOM     51  C   UNL A   1      43.030  27.137  30.138  1.00  0.00     0.049 A 
ATOM     52  C   UNL A   1      41.131  30.269  34.351  1.00  0.00     0.074 A 
ATOM     53  C   UNL A   1      44.179  26.400  30.372  1.00  0.00     0.029 A 
ATOM     54  N   UNL A   1      42.747  27.817  31.311  1.00  0.00    -0.354 N 
ATOM     55  N   UNL A   1      41.713  29.507  33.457  1.00  0.00    -0.248 NA
ATOM     56  C   UNL A   1      41.802  30.277  35.660  1.00  0.00     0.031 C 
ATOM     57  C   UNL A   1      44.577  26.615  31.696  1.00  0.00     0.029 A 
ATOM     58  C   UNL A   1      43.698  27.516  32.274  1.00  0.00     0.049 A 
ATOM     59  H   UNL A   1      41.985  28.426  31.443  1.00  0.00     0.167 HD
ATOM     60  C   UNL A   1      42.816  28.952  34.090  1.00  0.00     0.074 A 
ATOM     61  C   UNL A   1      42.842  29.487  35.436  1.00  0.00     0.031 C 
ATOM     62  C   UNL A   1      43.718  28.065  33.605  1.00  0.00     0.037 A 
BRANCH  49  63
ATOM     63  C   UNL A   1      42.697  26.434  27.740  1.00  0.00     0.064 A 
ATOM     64  C   UNL A   1      43.640  26.913  26.821  1.00  0.00     0.173 A 
ATOM     65  C   UNL A   1      42.171  25.149  27.536  1.00  0.00     0.173 A 
ATOM     66  F   UNL A   1      44.159  28.142  26.962  1.00  0.00    -0.203 F 
ATOM     67  C   UNL A   1      44.022  26.143  25.723  1.00  0.00     0.198 A 
ATOM     68  C   UNL A   1      42.574  24.373  26.453  1.00  0.00     0.198 A 
ATOM     69  F   UNL A   1      41.268  24.645  28.390  1.00  0.00    -0.203 F 
ATOM     70  F   UNL A   1      44.890  26.637  24.830  1.00  0.00    -0.200 F 
ATOM     71  C   UNL A   1      43.493  24.872  25.544  1.00  0.00     0.200 A 
ATOM     72  F   UNL A   1      42.069  23.142  26.288  1.00  0.00    -0.200 F 
ATOM     73  F   UNL A   1      43.863  24.133  24.489  1.00  0.00    -0.200 F 
ENDBRANCH  49  63
BRANCH  50  74
ATOM     74  C   UNL A   1      39.443  31.968  35.352  1.00  0.00     0.064 A 
ATOM     75  C   UNL A   1      38.552  31.481  36.319  1.00  0.00     0.173 A 
ATOM     76  C   UNL A   1      39.877  33.296  35.478  1.00  0.00     0.173 A 
ATOM     77  F   UNL A   1      38.084  30.228  36.227  1.00  0.00    -0.203 F 
ATOM     78  C   UNL A   1      38.104  32.292  37.360  1.00  0.00     0.198 A 
ATOM     79  C   UNL A   1      39.455  34.096  36.537  1.00  0.00     0.198 A 
ATOM     80  F   UNL A   1      40.724  33.814  34.576  1.00  0.00    -0.203 F 
ATOM     81  F   UNL A   1      37.217  31.816  38.245  1.00  0.00    -0.200 F 
ATOM     82  C   UNL A   1      38.563  33.597  37.473  1.00  0.00     0.200 A 
ATOM     83  F   UNL A   1      39.911  35.351  36.648  1.00  0.00    -0.200 F 
ATOM     84  F   UNL A   1      38.137  34.374  38.477  1.00  0.00    -0.200 F 
ENDBRANCH  50  74
BRANCH  62  85
ATOM     85  C   UNL A   1      44.824  27.641  34.524  1.00  0.00     0.064 A 
ATOM     86  C   UNL A   1      44.705  26.507  35.342  1.00  0.00     0.173 A 
ATOM     87  C   UNL A   1      46.027  28.362  34.571  1.00  0.00     0.173 A 
ATOM     88  F   UNL A   1      43.568  25.796  35.344  1.00  0.00    -0.203 F 
ATOM     89  C   UNL A   1      45.740  26.127  36.192  1.00  0.00     0.198 A 
ATOM     90  C   UNL A   1      47.069  27.964  35.403  1.00  0.00     0.198 A 
ATOM     91  F   UNL A   1      46.193  29.451  33.804  1.00  0.00    -0.203 F 
ATOM     92  F   UNL A   1      45.586  25.067  36.998  1.00  0.00    -0.200 F 
ATOM     93  C   UNL A   1      46.922  26.851  36.218  1.00  0.00     0.200 A 
ATOM     94  F   UNL A   1      48.214  28.660  35.422  1.00  0.00    -0.200 F 
ATOM     95  F   UNL A   1      47.917  26.483  37.037  1.00  0.00    -0.200 F 
ENDBRANCH  62  85
ENDBRANCH  36  37
ENDBRANCH  29  31
ENDBRANCH  28  29
ENDBRANCH  27  28
ENDBRANCH   1  27
TORSDOF 16
ENDMDL
MODEL 3
REMARK VINA RESULT:     -11.9      4.386      9.696
REMARK SMILES C[C@](NC(=O)[C@](C)([NH3+])C(F)(F)F)(C(=O)OCCOC(=O)c1ccc(-c2c3nc(c(-c4c(F)c(F)c(F)c(F)c4F)c4ccc([nH]4)c(-c4c(F)c(F)c(F)c(F)c4F)c4nc(c(-c5c(F)c(F)c(F)c(F)c5F)c5ccc2[nH]5)C=C4)C=C3)cc1)c1ccccc1
REMARK SMILES IDX 16 1 15 2 13 3 14 4 2 5 1 6 84 7 85 8 89 9 86 10 88 11 87 12
REMARK SMILES IDX 3 13 4 14 5 16 6 17 7 18 8 19 9 23 10 24 11 25 12 26 17 27
REMARK SMILES IDX 18 28 19 29 20 30 21 31 22 32 83 33 23 34 82 35 24 36 25 37
REMARK SMILES IDX 26 38 76 39 27 40 81 41 75 42 77 43 28 44 80 45 74 46 73 47
REMARK SMILES IDX 29 49 61 50 41 51 60 52 42 53 45 54 59 55 78 56 43 57 44 58
REMARK SMILES IDX 58 60 79 61 46 62 30 63 31 64 39 65 32 66 33 67 37 68 40 69
REMARK SMILES IDX 34 70 35 71 38 72 36 73 62 74 63 75 71 76 64 77 65 78 69 79
REMARK SMILES IDX 72 80 66 81 67 82 70 83 68 84 47 85 48 86 56 87 49 88 50 89
REMARK SMILES IDX 54 90 57 91 51 92 52 93 55 94 53 95
REMARK H PARENT 3 15 8 20 8 21 8 22 77 48 45 59
REMARK Flexibility Score: inf
ROOT
ATOM      1  C   UNL A   1      36.500  22.290  23.835  1.00  0.00     0.274 C 
ENDROOT
BRANCH   1   2
ATOM      2  O   UNL A   1      35.231  22.682  24.421  1.00  0.00    -0.460 OA
BRANCH   2   3
ATOM      3  C   UNL A   1      34.217  22.922  23.547  1.00  0.00     0.336 C 
ATOM      4  O   UNL A   1      34.400  23.349  22.410  1.00  0.00    -0.249 OA
BRANCH   3   5
ATOM      5  C   UNL A   1      32.792  22.586  24.125  1.00  0.00     0.161 C 
ATOM      6  C   UNL A   1      31.745  23.077  23.098  1.00  0.00     0.053 C 
BRANCH   5   7
ATOM      7  C   UNL A   1      32.664  21.007  24.191  1.00  0.00    -0.012 A 
ATOM      8  C   UNL A   1      32.349  20.207  23.067  1.00  0.00     0.007 A 
ATOM      9  C   UNL A   1      32.859  20.319  25.409  1.00  0.00     0.007 A 
ATOM     10  C   UNL A   1      32.331  18.808  23.140  1.00  0.00     0.000 A 
ATOM     11  C   UNL A   1      32.814  18.921  25.487  1.00  0.00     0.000 A 
ATOM     12  C   UNL A   1      32.572  18.164  24.348  1.00  0.00     0.000 A 
ENDBRANCH   5   7
BRANCH   5  13
ATOM     13  N   UNL A   1      32.412  23.139  25.470  1.00  0.00    -0.331 N 
ATOM     14  C   UNL A   1      32.017  24.273  26.093  1.00  0.00     0.291 C 
ATOM     15  H   UNL A   1      32.471  22.418  26.137  1.00  0.00     0.165 HD
ATOM     16  O   UNL A   1      31.501  24.037  27.195  1.00  0.00    -0.267 OA
BRANCH  14  17
ATOM     17  C   UNL A   1      32.258  25.726  25.635  1.00  0.00     0.267 C 
ATOM     18  C   UNL A   1      31.697  26.760  26.605  1.00  0.00     0.100 C 
BRANCH  17  19
ATOM     19  N   UNL A   1      31.627  25.916  24.287  1.00  0.00    -0.337 N 
ATOM     20  H   UNL A   1      32.355  25.978  23.576  1.00  0.00     0.345 HD
ATOM     21  H   UNL A   1      31.079  26.777  24.287  1.00  0.00     0.345 HD
ATOM     22  H   UNL A   1      31.017  25.124  24.082  1.00  0.00     0.345 HD
ENDBRANCH  17  19
BRANCH  17  23
ATOM     23  C   UNL A   1      33.810  25.914  25.593  1.00  0.00     0.453 C 
ATOM     24  F   UNL A   1      34.171  27.072  26.209  1.00  0.00    -0.164 F 
ATOM     25  F   UNL A   1      34.468  24.922  26.234  1.00  0.00    -0.164 F 
ATOM     26  F   UNL A   1      34.285  26.000  24.328  1.00  0.00    -0.164 F 
ENDBRANCH  17  23
ENDBRANCH  14  17
ENDBRANCH   5  13
ENDBRANCH   3   5
ENDBRANCH   2   3
ENDBRANCH   1   2
BRANCH   1  27
ATOM     27  C   UNL A   1      37.114  21.129  24.623  1.00  0.00     0.275 C 
BRANCH  27  28
ATOM     28  O   UNL A   1      37.599  21.624  25.883  1.00  0.00    -0.458 OA
BRANCH  28  29
ATOM     29  C   UNL A   1      38.911  21.390  26.112  1.00  0.00     0.338 C 
ATOM     30  O   UNL A   1      39.583  20.447  25.734  1.00  0.00    -0.246 OA
BRANCH  29  31
ATOM     31  C   UNL A   1      39.488  22.606  26.699  1.00  0.00     0.060 A 
ATOM     32  C   UNL A   1      38.995  23.818  26.232  1.00  0.00     0.016 A 
ATOM     33  C   UNL A   1      40.548  22.571  27.601  1.00  0.00     0.016 A 
ATOM     34  C   UNL A   1      39.624  25.003  26.588  1.00  0.00     0.010 A 
ATOM     35  C   UNL A   1      41.140  23.779  28.006  1.00  0.00     0.010 A 
ATOM     36  C   UNL A   1      40.715  25.007  27.464  1.00  0.00    -0.014 A 
BRANCH  36  37
ATOM     37  C   UNL A   1      41.454  26.283  27.699  1.00  0.00     0.031 A 
ATOM     38  C   UNL A   1      40.867  27.335  28.605  1.00  0.00     0.074 A 
ATOM     39  C   UNL A   1      42.695  26.470  27.203  1.00  0.00     0.049 A 
ATOM     40  N   UNL A   1      41.291  28.550  28.855  1.00  0.00    -0.248 NA
ATOM     41  C   UNL A   1      39.637  26.974  29.328  1.00  0.00     0.031 C 
ATOM     42  C   UNL A   1      43.437  25.507  26.390  1.00  0.00     0.029 A 
ATOM     43  N   UNL A   1      43.569  27.522  27.347  1.00  0.00    -0.354 N 
ATOM     44  C   UNL A   1      40.343  29.119  29.697  1.00  0.00     0.074 A 
ATOM     45  C   UNL A   1      39.330  28.113  29.932  1.00  0.00     0.031 C 
ATOM     46  C   UNL A   1      44.675  25.977  26.170  1.00  0.00     0.029 A 
ATOM     47  C   UNL A   1      44.787  27.315  26.743  1.00  0.00     0.049 A 
ATOM     48  H   UNL A   1      43.344  28.346  27.836  1.00  0.00     0.167 HD
ATOM     49  C   UNL A   1      40.315  30.369  30.217  1.00  0.00     0.037 A 
ATOM     50  C   UNL A   1      45.861  28.120  26.637  1.00  0.00     0.037 A 
ATOM     51  C   UNL A   1      41.359  31.346  30.051  1.00  0.00     0.049 A 
ATOM     52  C   UNL A   1      45.800  29.510  27.211  1.00  0.00     0.074 A 
ATOM     53  C   UNL A   1      41.411  32.646  30.526  1.00  0.00     0.029 A 
ATOM     54  N   UNL A   1      42.550  31.119  29.381  1.00  0.00    -0.354 N 
ATOM     55  N   UNL A   1      44.850  30.076  27.914  1.00  0.00    -0.248 NA
ATOM     56  C   UNL A   1      46.953  30.384  26.948  1.00  0.00     0.031 C 
ATOM     57  C   UNL A   1      42.624  33.214  30.120  1.00  0.00     0.029 A 
ATOM     58  C   UNL A   1      43.343  32.255  29.426  1.00  0.00     0.049 A 
ATOM     59  H   UNL A   1      42.797  30.276  28.937  1.00  0.00     0.167 HD
ATOM     60  C   UNL A   1      45.291  31.364  28.182  1.00  0.00     0.074 A 
ATOM     61  C   UNL A   1      46.608  31.489  27.592  1.00  0.00     0.031 C 
ATOM     62  C   UNL A   1      44.655  32.361  28.844  1.00  0.00     0.037 A 
BRANCH  49  63
ATOM     63  C   UNL A   1      39.084  30.773  30.973  1.00  0.00     0.064 A 
ATOM     64  C   UNL A   1      38.979  30.630  32.364  1.00  0.00     0.173 A 
ATOM     65  C   UNL A   1      37.996  31.332  30.285  1.00  0.00     0.173 A 
ATOM     66  F   UNL A   1      39.984  30.084  33.064  1.00  0.00    -0.203 F 
ATOM     67  C   UNL A   1      37.817  31.009  33.034  1.00  0.00     0.198 A 
ATOM     68  C   UNL A   1      36.848  31.733  30.962  1.00  0.00     0.198 A 
ATOM     69  F   UNL A   1      38.049  31.494  28.954  1.00  0.00    -0.203 F 
ATOM     70  F   UNL A   1      37.718  30.820  34.358  1.00  0.00    -0.200 F 
ATOM     71  C   UNL A   1      36.756  31.565  32.334  1.00  0.00     0.200 A 
ATOM     72  F   UNL A   1      35.828  32.280  30.284  1.00  0.00    -0.200 F 
ATOM     73  F   UNL A   1      35.641  31.930  32.982  1.00  0.00    -0.200 F 
ENDBRANCH  49  63
BRANCH  50  74
ATOM     74  C   UNL A   1      47.082  27.651  25.931  1.00  0.00     0.064 A 
ATOM     75  C   UNL A   1      48.165  27.117  26.645  1.00  0.00     0.173 A 
ATOM     76  C   UNL A   1      47.206  27.746  24.537  1.00  0.00     0.173 A 
ATOM     77  F   UNL A   1      48.109  27.033  27.982  1.00  0.00    -0.203 F 
ATOM     78  C   UNL A   1      49.327  26.708  25.992  1.00  0.00     0.198 A 
ATOM     79  C   UNL A   1      48.354  27.306  23.883  1.00  0.00     0.198 A 
ATOM     80  F   UNL A   1      46.203  28.257  23.807  1.00  0.00    -0.203 F 
ATOM     81  F   UNL A   1      50.364  26.243  26.703  1.00  0.00    -0.200 F 
ATOM     82  C   UNL A   1      49.417  26.795  24.611  1.00  0.00     0.200 A 
ATOM     83  F   UNL A   1      48.431  27.382  22.547  1.00  0.00    -0.200 F 
ATOM     84  F   UNL A   1      50.531  26.396  23.984  1.00  0.00    -0.200 F 
ENDBRANCH  50  74
BRANCH  62  85
ATOM     85  C   UNL A   1      45.387  33.662  28.990  1.00  0.00     0.064 A 
ATOM     86  C   UNL A   1      45.242  34.694  28.051  1.00  0.00     0.173 A 
ATOM     87  C   UNL A   1      46.222  33.889  30.094  1.00  0.00     0.173 A 
ATOM     88  F   UNL A   1      44.468  34.517  26.970  1.00  0.00    -0.203 F 
ATOM     89  C   UNL A   1      45.929  35.895  28.198  1.00  0.00     0.198 A 
ATOM     90  C   UNL A   1      46.887  35.102  30.251  1.00  0.00     0.198 A 
ATOM     91  F   UNL A   1      46.389  32.935  31.024  1.00  0.00    -0.203 F 
ATOM     92  F   UNL A   1      45.813  36.850  27.264  1.00  0.00    -0.200 F 
ATOM     93  C   UNL A   1      46.746  36.101  29.300  1.00  0.00     0.200 A 
ATOM     94  F   UNL A   1      47.669  35.301  31.321  1.00  0.00    -0.200 F 
ATOM     95  F   UNL A   1      47.406  37.259  29.440  1.00  0.00    -0.200 F 
ENDBRANCH  62  85
ENDBRANCH  36  37
ENDBRANCH  29  31
ENDBRANCH  28  29
ENDBRANCH  27  28
ENDBRANCH   1  27
TORSDOF 16
ENDMDL
