MODEL 1
REMARK VINA RESULT:     -11.7      0.000      0.000
REMARK SMILES COc1cc(NS(=O)(=O)c2cc(C)c(C(=O)OCCOC(=O)c3ccc(-c4c5nc(c(-c6c(F)c(F)c(F)c(F)c6F)c6ccc([nH]6)c(-c6c(F)c(F)c(F)c(F)c6F)c6nc(c(-c7c(F)c(F)c(F)c(F)c7F)c7ccc4[nH]7)C=C6)C=C5)cc3)s2)cc(OC)c1
REMARK SMILES IDX 18 1 17 2 15 3 16 4 14 5 10 6 11 7 86 8 12 9 13 10 7 11 8 12
REMARK SMILES IDX 9 13 6 14 5 16 3 17 4 18 91 19 88 20 87 21 2 22 1 23 89 24
REMARK SMILES IDX 90 25 19 26 20 27 21 28 22 29 23 30 24 31 85 32 25 33 84 34
REMARK SMILES IDX 26 35 27 36 28 37 78 38 29 39 83 40 77 41 79 42 30 43 82 44
REMARK SMILES IDX 76 45 75 46 31 48 63 49 43 50 62 51 44 52 47 53 61 54 80 55
REMARK SMILES IDX 45 56 46 57 60 59 81 60 48 61 32 62 33 63 41 64 34 65 35 66
REMARK SMILES IDX 39 67 42 68 36 69 37 70 40 71 38 72 64 73 65 74 73 75 66 76
REMARK SMILES IDX 67 77 71 78 74 79 68 80 69 81 72 82 70 83 49 84 50 85 58 86
REMARK SMILES IDX 51 87 52 88 56 89 59 90 53 91 54 92 57 93 55 94
REMARK H PARENT 6 15 79 47 47 58
REMARK Flexibility Score: inf
ROOT
ATOM      1  C   UNL A   1      31.092  31.408  26.208  1.00  0.00     0.275 C 
ENDROOT
BRANCH   1   2
ATOM      2  O   UNL A   1      32.051  30.476  25.667  1.00  0.00    -0.458 OA
BRANCH   2   3
ATOM      3  C   UNL A   1      31.764  29.144  25.794  1.00  0.00     0.348 C 
ATOM      4  O   UNL A   1      31.483  28.611  26.853  1.00  0.00    -0.245 OA
BRANCH   3   5
ATOM      5  C   UNL A   1      31.765  28.494  24.483  1.00  0.00     0.116 A 
ATOM      6  C   UNL A   1      32.335  26.809  22.753  1.00  0.00     0.141 A 
ATOM      7  C   UNL A   1      31.254  27.587  22.395  1.00  0.00     0.038 A 
ATOM      8  S   UNL A   1      33.107  27.458  24.124  1.00  0.00    -0.115 S 
ATOM      9  C   UNL A   1      30.867  28.522  23.419  1.00  0.00    -0.024 A 
ATOM     10  C   UNL A   1      29.616  29.333  23.286  1.00  0.00     0.046 C 
BRANCH   6  11
ATOM     11  S   UNL A   1      32.940  25.269  22.084  1.00  0.00     0.271 S 
ATOM     12  O   UNL A   1      34.102  24.894  22.862  1.00  0.00    -0.200 OA
ATOM     13  O   UNL A   1      33.042  25.501  20.660  1.00  0.00    -0.200 OA
BRANCH  11  14
ATOM     14  N   UNL A   1      31.776  24.030  22.313  1.00  0.00    -0.279 N 
ATOM     15  H   UNL A   1      30.980  23.971  21.736  1.00  0.00     0.180 HD
BRANCH  14  16
ATOM     16  C   UNL A   1      31.997  23.080  23.368  1.00  0.00     0.056 A 
ATOM     17  C   UNL A   1      31.815  22.517  25.718  1.00  0.00     0.124 A 
ATOM     18  C   UNL A   1      31.701  23.433  24.678  1.00  0.00     0.073 A 
ATOM     19  C   UNL A   1      32.347  21.257  25.472  1.00  0.00     0.093 A 
ATOM     20  C   UNL A   1      32.755  20.922  24.177  1.00  0.00     0.124 A 
ATOM     21  C   UNL A   1      32.543  21.820  23.117  1.00  0.00     0.073 A 
BRANCH  17  22
ATOM     22  O   UNL A   1      31.271  22.923  26.902  1.00  0.00    -0.497 OA
ATOM     23  C   UNL A   1      29.869  23.150  26.879  1.00  0.00     0.278 C 
ENDBRANCH  17  22
BRANCH  20  24
ATOM     24  O   UNL A   1      33.342  19.734  23.824  1.00  0.00    -0.497 OA
ATOM     25  C   UNL A   1      32.500  18.583  23.830  1.00  0.00     0.278 C 
ENDBRANCH  20  24
ENDBRANCH  14  16
ENDBRANCH  11  14
ENDBRANCH   6  11
ENDBRANCH   3   5
ENDBRANCH   2   3
ENDBRANCH   1   2
BRANCH   1  26
ATOM     26  C   UNL A   1      31.777  32.666  26.745  1.00  0.00     0.275 C 
BRANCH  26  27
ATOM     27  O   UNL A   1      32.909  32.314  27.561  1.00  0.00    -0.458 OA
BRANCH  27  28
ATOM     28  C   UNL A   1      33.813  33.299  27.756  1.00  0.00     0.338 C 
ATOM     29  O   UNL A   1      33.650  34.499  27.627  1.00  0.00    -0.246 OA
BRANCH  28  30
ATOM     30  C   UNL A   1      35.043  32.717  28.311  1.00  0.00     0.060 A 
ATOM     31  C   UNL A   1      34.949  31.444  28.870  1.00  0.00     0.016 A 
ATOM     32  C   UNL A   1      36.246  33.423  28.351  1.00  0.00     0.016 A 
ATOM     33  C   UNL A   1      36.057  30.857  29.471  1.00  0.00     0.010 A 
ATOM     34  C   UNL A   1      37.363  32.834  28.958  1.00  0.00     0.010 A 
ATOM     35  C   UNL A   1      37.274  31.551  29.529  1.00  0.00    -0.014 A 
BRANCH  35  36
ATOM     36  C   UNL A   1      38.421  30.928  30.234  1.00  0.00     0.031 A 
ATOM     37  C   UNL A   1      38.669  31.228  31.684  1.00  0.00     0.074 A 
ATOM     38  C   UNL A   1      39.195  30.036  29.589  1.00  0.00     0.049 A 
ATOM     39  N   UNL A   1      39.591  30.753  32.484  1.00  0.00    -0.248 NA
ATOM     40  C   UNL A   1      37.760  32.193  32.320  1.00  0.00     0.031 C 
ATOM     41  C   UNL A   1      39.033  29.638  28.192  1.00  0.00     0.029 A 
ATOM     42  N   UNL A   1      40.259  29.289  30.031  1.00  0.00    -0.354 N 
ATOM     43  C   UNL A   1      39.378  31.363  33.713  1.00  0.00     0.074 A 
ATOM     44  C   UNL A   1      38.258  32.266  33.547  1.00  0.00     0.031 C 
ATOM     45  C   UNL A   1      39.949  28.702  27.896  1.00  0.00     0.029 A 
ATOM     46  C   UNL A   1      40.783  28.459  29.071  1.00  0.00     0.049 A 
ATOM     47  H   UNL A   1      40.612  29.345  30.948  1.00  0.00     0.167 HD
ATOM     48  C   UNL A   1      40.050  31.178  34.875  1.00  0.00     0.037 A 
ATOM     49  C   UNL A   1      41.820  27.603  29.131  1.00  0.00     0.037 A 
ATOM     50  C   UNL A   1      41.155  30.269  35.043  1.00  0.00     0.049 A 
ATOM     51  C   UNL A   1      42.572  27.445  30.426  1.00  0.00     0.074 A 
ATOM     52  C   UNL A   1      41.888  30.002  36.187  1.00  0.00     0.029 A 
ATOM     53  N   UNL A   1      41.687  29.477  34.035  1.00  0.00    -0.354 N 
ATOM     54  N   UNL A   1      42.356  28.018  31.585  1.00  0.00    -0.248 NA
ATOM     55  C   UNL A   1      43.712  26.519  30.419  1.00  0.00     0.031 C 
ATOM     56  C   UNL A   1      42.892  29.082  35.861  1.00  0.00     0.029 A 
ATOM     57  C   UNL A   1      42.754  28.739  34.526  1.00  0.00     0.049 A 
ATOM     58  H   UNL A   1      41.356  29.444  33.109  1.00  0.00     0.167 HD
ATOM     59  C   UNL A   1      43.319  27.512  32.447  1.00  0.00     0.074 A 
ATOM     60  C   UNL A   1      44.107  26.567  31.684  1.00  0.00     0.031 C 
ATOM     61  C   UNL A   1      43.535  27.808  33.752  1.00  0.00     0.037 A 
BRANCH  48  62
ATOM     62  C   UNL A   1      39.623  31.998  36.058  1.00  0.00     0.064 A 
ATOM     63  C   UNL A   1      40.274  33.191  36.404  1.00  0.00     0.173 A 
ATOM     64  C   UNL A   1      38.525  31.599  36.836  1.00  0.00     0.173 A 
ATOM     65  F   UNL A   1      41.337  33.609  35.700  1.00  0.00    -0.203 F 
ATOM     66  C   UNL A   1      39.856  33.943  37.499  1.00  0.00     0.198 A 
ATOM     67  C   UNL A   1      38.094  32.367  37.914  1.00  0.00     0.198 A 
ATOM     68  F   UNL A   1      37.865  30.468  36.546  1.00  0.00    -0.203 F 
ATOM     69  F   UNL A   1      40.519  35.057  37.838  1.00  0.00    -0.200 F 
ATOM     70  C   UNL A   1      38.763  33.534  38.249  1.00  0.00     0.200 A 
ATOM     71  F   UNL A   1      37.031  31.975  38.631  1.00  0.00    -0.200 F 
ATOM     72  F   UNL A   1      38.360  34.261  39.301  1.00  0.00    -0.200 F 
ENDBRANCH  48  62
BRANCH  49  73
ATOM     73  C   UNL A   1      42.211  26.829  27.925  1.00  0.00     0.064 A 
ATOM     74  C   UNL A   1      41.703  25.545  27.689  1.00  0.00     0.173 A 
ATOM     75  C   UNL A   1      43.112  27.357  26.987  1.00  0.00     0.173 A 
ATOM     76  F   UNL A   1      40.863  24.986  28.573  1.00  0.00    -0.203 F 
ATOM     77  C   UNL A   1      42.090  24.812  26.568  1.00  0.00     0.198 A 
ATOM     78  C   UNL A   1      43.476  26.636  25.853  1.00  0.00     0.198 A 
ATOM     79  F   UNL A   1      43.634  28.578  27.171  1.00  0.00    -0.203 F 
ATOM     80  F   UNL A   1      41.626  23.568  26.391  1.00  0.00    -0.200 F 
ATOM     81  C   UNL A   1      42.970  25.361  25.648  1.00  0.00     0.200 A 
ATOM     82  F   UNL A   1      44.321  27.172  24.963  1.00  0.00    -0.200 F 
ATOM     83  F   UNL A   1      43.340  24.657  24.570  1.00  0.00    -0.200 F 
ENDBRANCH  49  73
BRANCH  61  84
ATOM     84  C   UNL A   1      44.662  27.091  34.437  1.00  0.00     0.064 A 
ATOM     85  C   UNL A   1      45.953  27.640  34.495  1.00  0.00     0.173 A 
ATOM     86  C   UNL A   1      44.448  25.851  35.056  1.00  0.00     0.173 A 
ATOM     87  F   UNL A   1      46.214  28.816  33.906  1.00  0.00    -0.203 F 
ATOM     88  C   UNL A   1      46.994  26.957  35.121  1.00  0.00     0.198 A 
ATOM     89  C   UNL A   1      45.484  25.184  35.706  1.00  0.00     0.198 A 
ATOM     90  F   UNL A   1      43.231  25.286  35.037  1.00  0.00    -0.203 F 
ATOM     91  F   UNL A   1      48.229  27.475  35.118  1.00  0.00    -0.200 F 
ATOM     92  C   UNL A   1      46.757  25.733  35.729  1.00  0.00     0.200 A 
ATOM     93  F   UNL A   1      45.251  24.008  36.303  1.00  0.00    -0.200 F 
ATOM     94  F   UNL A   1      47.759  25.078  36.330  1.00  0.00    -0.200 F 
ENDBRANCH  61  84
ENDBRANCH  35  36
ENDBRANCH  28  30
ENDBRANCH  27  28
ENDBRANCH  26  27
ENDBRANCH   1  26
TORSDOF 16
ENDMDL
MODEL 2
REMARK VINA RESULT:     -11.6      4.505     10.397
REMARK SMILES COc1cc(NS(=O)(=O)c2cc(C)c(C(=O)OCCOC(=O)c3ccc(-c4c5nc(c(-c6c(F)c(F)c(F)c(F)c6F)c6ccc([nH]6)c(-c6c(F)c(F)c(F)c(F)c6F)c6nc(c(-c7c(F)c(F)c(F)c(F)c7F)c7ccc4[nH]7)C=C6)C=C5)cc3)s2)cc(OC)c1
REMARK SMILES IDX 18 1 17 2 15 3 16 4 14 5 10 6 11 7 86 8 12 9 13 10 7 11 8 12
REMARK SMILES IDX 9 13 6 14 5 16 3 17 4 18 91 19 88 20 87 21 2 22 1 23 89 24
REMARK SMILES IDX 90 25 19 26 20 27 21 28 22 29 23 30 24 31 85 32 25 33 84 34
REMARK SMILES IDX 26 35 27 36 28 37 78 38 29 39 83 40 77 41 79 42 30 43 82 44
REMARK SMILES IDX 76 45 75 46 31 48 63 49 43 50 62 51 44 52 47 53 61 54 80 55
REMARK SMILES IDX 45 56 46 57 60 59 81 60 48 61 32 62 33 63 41 64 34 65 35 66
REMARK SMILES IDX 39 67 42 68 36 69 37 70 40 71 38 72 64 73 65 74 73 75 66 76
REMARK SMILES IDX 67 77 71 78 74 79 68 80 69 81 72 82 70 83 49 84 50 85 58 86
REMARK SMILES IDX 51 87 52 88 56 89 59 90 53 91 54 92 57 93 55 94
REMARK H PARENT 6 15 79 47 47 58
REMARK Flexibility Score: inf
ROOT
ATOM      1  C   UNL A   1      37.957  19.897  24.823  1.00  0.00     0.275 C 
ENDROOT
BRANCH   1   2
ATOM      2  O   UNL A   1      37.358  21.074  25.403  1.00  0.00    -0.458 OA
BRANCH   2   3
ATOM      3  C   UNL A   1      36.522  21.805  24.603  1.00  0.00     0.348 C 
ATOM      4  O   UNL A   1      36.875  22.347  23.571  1.00  0.00    -0.245 OA
BRANCH   3   5
ATOM      5  C   UNL A   1      35.154  21.765  25.123  1.00  0.00     0.116 A 
ATOM      6  C   UNL A   1      32.955  22.633  25.880  1.00  0.00     0.141 A 
ATOM      7  C   UNL A   1      32.933  21.274  25.643  1.00  0.00     0.038 A 
ATOM      8  S   UNL A   1      34.556  23.212  25.865  1.00  0.00    -0.115 S 
ATOM      9  C   UNL A   1      34.182  20.768  25.136  1.00  0.00    -0.024 A 
ATOM     10  C   UNL A   1      34.300  19.355  24.659  1.00  0.00     0.046 C 
BRANCH   6  11
ATOM     11  S   UNL A   1      31.627  23.806  26.090  1.00  0.00     0.271 S 
ATOM     12  O   UNL A   1      31.290  23.820  27.497  1.00  0.00    -0.200 OA
ATOM     13  O   UNL A   1      30.647  23.434  25.093  1.00  0.00    -0.200 OA
BRANCH  11  14
ATOM     14  N   UNL A   1      32.171  25.386  25.700  1.00  0.00    -0.279 N 
ATOM     15  H   UNL A   1      32.658  25.930  26.360  1.00  0.00     0.180 HD
BRANCH  14  16
ATOM     16  C   UNL A   1      31.895  25.891  24.383  1.00  0.00     0.056 A 
ATOM     17  C   UNL A   1      30.531  27.285  22.945  1.00  0.00     0.124 A 
ATOM     18  C   UNL A   1      30.786  26.703  24.182  1.00  0.00     0.073 A 
ATOM     19  C   UNL A   1      31.327  26.962  21.853  1.00  0.00     0.093 A 
ATOM     20  C   UNL A   1      32.383  26.059  22.013  1.00  0.00     0.124 A 
ATOM     21  C   UNL A   1      32.691  25.554  23.288  1.00  0.00     0.073 A 
BRANCH  17  22
ATOM     22  O   UNL A   1      29.553  28.237  22.950  1.00  0.00    -0.497 OA
ATOM     23  C   UNL A   1      29.939  29.500  23.474  1.00  0.00     0.278 C 
ENDBRANCH  17  22
BRANCH  20  24
ATOM     24  O   UNL A   1      33.200  25.622  21.002  1.00  0.00    -0.497 OA
ATOM     25  C   UNL A   1      32.605  25.508  19.711  1.00  0.00     0.278 C 
ENDBRANCH  20  24
ENDBRANCH  14  16
ENDBRANCH  11  14
ENDBRANCH   6  11
ENDBRANCH   3   5
ENDBRANCH   2   3
ENDBRANCH   1   2
BRANCH   1  26
ATOM     26  C   UNL A   1      39.199  19.460  25.601  1.00  0.00     0.275 C 
BRANCH  26  27
ATOM     27  O   UNL A   1      40.028  20.597  25.905  1.00  0.00    -0.458 OA
BRANCH  27  28
ATOM     28  C   UNL A   1      40.594  20.591  27.132  1.00  0.00     0.338 C 
ATOM     29  O   UNL A   1      40.851  19.628  27.832  1.00  0.00    -0.246 OA
BRANCH  28  30
ATOM     30  C   UNL A   1      41.012  21.958  27.474  1.00  0.00     0.060 A 
ATOM     31  C   UNL A   1      40.573  22.985  26.639  1.00  0.00     0.016 A 
ATOM     32  C   UNL A   1      41.871  22.228  28.540  1.00  0.00     0.016 A 
ATOM     33  C   UNL A   1      40.982  24.295  26.864  1.00  0.00     0.010 A 
ATOM     34  C   UNL A   1      42.285  23.547  28.767  1.00  0.00     0.010 A 
ATOM     35  C   UNL A   1      41.850  24.587  27.926  1.00  0.00    -0.014 A 
BRANCH  35  36
ATOM     36  C   UNL A   1      42.322  25.983  28.101  1.00  0.00     0.031 A 
ATOM     37  C   UNL A   1      43.616  26.426  27.481  1.00  0.00     0.074 A 
ATOM     38  C   UNL A   1      41.551  26.870  28.756  1.00  0.00     0.049 A 
ATOM     39  N   UNL A   1      44.176  27.611  27.487  1.00  0.00    -0.248 NA
ATOM     40  C   UNL A   1      44.383  25.401  26.760  1.00  0.00     0.031 C 
ATOM     41  C   UNL A   1      40.260  26.567  29.373  1.00  0.00     0.029 A 
ATOM     42  N   UNL A   1      41.731  28.210  28.995  1.00  0.00    -0.354 N 
ATOM     43  C   UNL A   1      45.361  27.472  26.778  1.00  0.00     0.074 A 
ATOM     44  C   UNL A   1      45.456  26.084  26.381  1.00  0.00     0.031 C 
ATOM     45  C   UNL A   1      39.752  27.693  29.899  1.00  0.00     0.029 A 
ATOM     46  C   UNL A   1      40.697  28.789  29.687  1.00  0.00     0.049 A 
ATOM     47  H   UNL A   1      42.528  28.707  28.698  1.00  0.00     0.167 HD
ATOM     48  C   UNL A   1      46.281  28.421  26.477  1.00  0.00     0.037 A 
ATOM     49  C   UNL A   1      40.530  30.057  30.106  1.00  0.00     0.037 A 
ATOM     50  C   UNL A   1      46.178  29.806  26.860  1.00  0.00     0.049 A 
ATOM     51  C   UNL A   1      41.586  31.083  29.790  1.00  0.00     0.074 A 
ATOM     52  C   UNL A   1      47.053  30.845  26.588  1.00  0.00     0.029 A 
ATOM     53  N   UNL A   1      45.137  30.348  27.601  1.00  0.00    -0.354 N 
ATOM     54  N   UNL A   1      42.698  30.945  29.109  1.00  0.00    -0.248 NA
ATOM     55  C   UNL A   1      41.361  32.442  30.301  1.00  0.00     0.031 C 
ATOM     56  C   UNL A   1      46.563  32.005  27.200  1.00  0.00     0.029 A 
ATOM     57  C   UNL A   1      45.359  31.700  27.814  1.00  0.00     0.049 A 
ATOM     58  H   UNL A   1      44.355  29.845  27.926  1.00  0.00     0.167 HD
ATOM     59  C   UNL A   1      43.296  32.198  29.095  1.00  0.00     0.074 A 
ATOM     60  C   UNL A   1      42.412  33.090  29.816  1.00  0.00     0.031 C 
ATOM     61  C   UNL A   1      44.474  32.574  28.540  1.00  0.00     0.037 A 
BRANCH  48  62
ATOM     62  C   UNL A   1      47.497  27.987  25.713  1.00  0.00     0.064 A 
ATOM     63  C   UNL A   1      47.469  27.801  24.323  1.00  0.00     0.173 A 
ATOM     64  C   UNL A   1      48.717  27.788  26.378  1.00  0.00     0.173 A 
ATOM     65  F   UNL A   1      46.324  27.967  23.642  1.00  0.00    -0.203 F 
ATOM     66  C   UNL A   1      48.611  27.409  23.630  1.00  0.00     0.198 A 
ATOM     67  C   UNL A   1      49.863  27.421  25.678  1.00  0.00     0.198 A 
ATOM     68  F   UNL A   1      48.799  27.956  27.706  1.00  0.00    -0.203 F 
ATOM     69  F   UNL A   1      48.552  27.193  22.308  1.00  0.00    -0.200 F 
ATOM     70  C   UNL A   1      49.809  27.225  24.307  1.00  0.00     0.200 A 
ATOM     71  F   UNL A   1      51.021  27.254  26.332  1.00  0.00    -0.200 F 
ATOM     72  F   UNL A   1      50.908  26.851  23.637  1.00  0.00    -0.200 F 
ENDBRANCH  48  62
BRANCH  49  73
ATOM     73  C   UNL A   1      39.315  30.429  30.874  1.00  0.00     0.064 A 
ATOM     74  C   UNL A   1      38.195  30.983  30.239  1.00  0.00     0.173 A 
ATOM     75  C   UNL A   1      39.253  30.247  32.264  1.00  0.00     0.173 A 
ATOM     76  F   UNL A   1      38.218  31.204  28.917  1.00  0.00    -0.203 F 
ATOM     77  C   UNL A   1      37.064  31.352  30.966  1.00  0.00     0.198 A 
ATOM     78  C   UNL A   1      38.112  30.590  32.986  1.00  0.00     0.198 A 
ATOM     79  F   UNL A   1      40.301  29.729  32.921  1.00  0.00    -0.203 F 
ATOM     80  F   UNL A   1      36.026  31.922  30.341  1.00  0.00    -0.200 F 
ATOM     81  C   UNL A   1      37.022  31.148  32.337  1.00  0.00     0.200 A 
ATOM     82  F   UNL A   1      38.072  30.385  34.309  1.00  0.00    -0.200 F 
ATOM     83  F   UNL A   1      35.934  31.502  33.035  1.00  0.00    -0.200 F 
ENDBRANCH  49  73
BRANCH  61  84
ATOM     84  C   UNL A   1      44.866  34.016  28.683  1.00  0.00     0.064 A 
ATOM     85  C   UNL A   1      45.647  34.460  29.762  1.00  0.00     0.173 A 
ATOM     86  C   UNL A   1      44.471  34.962  27.725  1.00  0.00     0.173 A 
ATOM     87  F   UNL A   1      46.038  33.599  30.713  1.00  0.00    -0.203 F 
ATOM     88  C   UNL A   1      45.991  35.804  29.891  1.00  0.00     0.198 A 
ATOM     89  C   UNL A   1      44.841  36.299  27.842  1.00  0.00     0.198 A 
ATOM     90  F   UNL A   1      43.730  34.588  26.671  1.00  0.00    -0.203 F 
ATOM     91  F   UNL A   1      46.693  36.215  30.956  1.00  0.00    -0.200 F 
ATOM     92  C   UNL A   1      45.592  36.721  28.929  1.00  0.00     0.200 A 
ATOM     93  F   UNL A   1      44.465  37.181  26.906  1.00  0.00    -0.200 F 
ATOM     94  F   UNL A   1      45.924  38.012  29.055  1.00  0.00    -0.200 F 
ENDBRANCH  61  84
ENDBRANCH  35  36
ENDBRANCH  28  30
ENDBRANCH  27  28
ENDBRANCH  26  27
ENDBRANCH   1  26
TORSDOF 16
ENDMDL
MODEL 3
REMARK VINA RESULT:     -11.5      0.268      1.947
REMARK SMILES COc1cc(NS(=O)(=O)c2cc(C)c(C(=O)OCCOC(=O)c3ccc(-c4c5nc(c(-c6c(F)c(F)c(F)c(F)c6F)c6ccc([nH]6)c(-c6c(F)c(F)c(F)c(F)c6F)c6nc(c(-c7c(F)c(F)c(F)c(F)c7F)c7ccc4[nH]7)C=C6)C=C5)cc3)s2)cc(OC)c1
REMARK SMILES IDX 18 1 17 2 15 3 16 4 14 5 10 6 11 7 86 8 12 9 13 10 7 11 8 12
REMARK SMILES IDX 9 13 6 14 5 16 3 17 4 18 91 19 88 20 87 21 2 22 1 23 89 24
REMARK SMILES IDX 90 25 19 26 20 27 21 28 22 29 23 30 24 31 85 32 25 33 84 34
REMARK SMILES IDX 26 35 27 36 28 37 78 38 29 39 83 40 77 41 79 42 30 43 82 44
REMARK SMILES IDX 76 45 75 46 31 48 63 49 43 50 62 51 44 52 47 53 61 54 80 55
REMARK SMILES IDX 45 56 46 57 60 59 81 60 48 61 32 62 33 63 41 64 34 65 35 66
REMARK SMILES IDX 39 67 42 68 36 69 37 70 40 71 38 72 64 73 65 74 73 75 66 76
REMARK SMILES IDX 67 77 71 78 74 79 68 80 69 81 72 82 70 83 49 84 50 85 58 86
REMARK SMILES IDX 51 87 52 88 56 89 59 90 53 91 54 92 57 93 55 94
REMARK H PARENT 6 15 79 47 47 58
REMARK Flexibility Score: inf
ROOT
ATOM      1  C   UNL A   1      31.017  31.242  26.180  1.00  0.00     0.275 C 
ENDROOT
BRANCH   1   2
ATOM      2  O   UNL A   1      31.869  30.393  25.383  1.00  0.00    -0.458 OA
BRANCH   2   3
ATOM      3  C   UNL A   1      31.794  29.046  25.613  1.00  0.00     0.348 C 
ATOM      4  O   UNL A   1      31.696  28.553  26.722  1.00  0.00    -0.245 OA
BRANCH   3   5
ATOM      5  C   UNL A   1      31.765  28.314  24.346  1.00  0.00     0.116 A 
ATOM      6  C   UNL A   1      32.373  26.578  22.679  1.00  0.00     0.141 A 
ATOM      7  C   UNL A   1      31.198  27.227  22.360  1.00  0.00     0.038 A 
ATOM      8  S   UNL A   1      33.173  27.385  23.946  1.00  0.00    -0.115 S 
ATOM      9  C   UNL A   1      30.796  28.188  23.354  1.00  0.00    -0.024 A 
ATOM     10  C   UNL A   1      29.465  28.867  23.270  1.00  0.00     0.046 C 
BRANCH   6  11
ATOM     11  S   UNL A   1      33.077  25.061  22.057  1.00  0.00     0.271 S 
ATOM     12  O   UNL A   1      34.299  24.824  22.797  1.00  0.00    -0.200 OA
ATOM     13  O   UNL A   1      33.098  25.226  20.620  1.00  0.00    -0.200 OA
BRANCH  11  14
ATOM     14  N   UNL A   1      32.033  23.743  22.401  1.00  0.00    -0.279 N 
ATOM     15  H   UNL A   1      31.279  23.528  21.806  1.00  0.00     0.180 HD
BRANCH  14  16
ATOM     16  C   UNL A   1      32.292  22.963  23.579  1.00  0.00     0.056 A 
ATOM     17  C   UNL A   1      32.016  22.669  25.968  1.00  0.00     0.124 A 
ATOM     18  C   UNL A   1      31.865  23.431  24.815  1.00  0.00     0.073 A 
ATOM     19  C   UNL A   1      32.711  21.467  25.916  1.00  0.00     0.093 A 
ATOM     20  C   UNL A   1      33.245  21.032  24.697  1.00  0.00     0.124 A 
ATOM     21  C   UNL A   1      33.001  21.763  23.521  1.00  0.00     0.073 A 
BRANCH  17  22
ATOM     22  O   UNL A   1      31.346  23.142  27.060  1.00  0.00    -0.497 OA
ATOM     23  C   UNL A   1      30.076  23.718  26.790  1.00  0.00     0.278 C 
ENDBRANCH  17  22
BRANCH  20  24
ATOM     24  O   UNL A   1      33.994  19.896  24.532  1.00  0.00    -0.497 OA
ATOM     25  C   UNL A   1      33.333  18.658  24.789  1.00  0.00     0.278 C 
ENDBRANCH  20  24
ENDBRANCH  14  16
ENDBRANCH  11  14
ENDBRANCH   6  11
ENDBRANCH   3   5
ENDBRANCH   2   3
ENDBRANCH   1   2
BRANCH   1  26
ATOM     26  C   UNL A   1      31.760  32.491  26.656  1.00  0.00     0.275 C 
BRANCH  26  27
ATOM     27  O   UNL A   1      32.920  32.124  27.426  1.00  0.00    -0.458 OA
BRANCH  27  28
ATOM     28  C   UNL A   1      33.759  33.138  27.731  1.00  0.00     0.338 C 
ATOM     29  O   UNL A   1      33.533  34.334  27.686  1.00  0.00    -0.246 OA
BRANCH  28  30
ATOM     30  C   UNL A   1      34.999  32.582  28.292  1.00  0.00     0.060 A 
ATOM     31  C   UNL A   1      34.934  31.297  28.827  1.00  0.00     0.016 A 
ATOM     32  C   UNL A   1      36.180  33.321  28.359  1.00  0.00     0.016 A 
ATOM     33  C   UNL A   1      36.052  30.732  29.432  1.00  0.00     0.010 A 
ATOM     34  C   UNL A   1      37.306  32.754  28.970  1.00  0.00     0.010 A 
ATOM     35  C   UNL A   1      37.247  31.459  29.517  1.00  0.00    -0.014 A 
BRANCH  35  36
ATOM     36  C   UNL A   1      38.403  30.856  30.226  1.00  0.00     0.031 A 
ATOM     37  C   UNL A   1      38.651  31.176  31.673  1.00  0.00     0.074 A 
ATOM     38  C   UNL A   1      39.185  29.966  29.589  1.00  0.00     0.049 A 
ATOM     39  N   UNL A   1      39.581  30.719  32.475  1.00  0.00    -0.248 NA
ATOM     40  C   UNL A   1      37.733  32.137  32.300  1.00  0.00     0.031 C 
ATOM     41  C   UNL A   1      39.024  29.551  28.196  1.00  0.00     0.029 A 
ATOM     42  N   UNL A   1      40.259  29.237  30.036  1.00  0.00    -0.354 N 
ATOM     43  C   UNL A   1      39.364  31.341  33.697  1.00  0.00     0.074 A 
ATOM     44  C   UNL A   1      38.234  32.229  33.525  1.00  0.00     0.031 C 
ATOM     45  C   UNL A   1      39.950  28.622  27.908  1.00  0.00     0.029 A 
ATOM     46  C   UNL A   1      40.790  28.402  29.084  1.00  0.00     0.049 A 
ATOM     47  H   UNL A   1      40.614  29.306  30.952  1.00  0.00     0.167 HD
ATOM     48  C   UNL A   1      40.041  31.176  34.860  1.00  0.00     0.037 A 
ATOM     49  C   UNL A   1      41.837  27.558  29.150  1.00  0.00     0.037 A 
ATOM     50  C   UNL A   1      41.156  30.281  35.035  1.00  0.00     0.049 A 
ATOM     51  C   UNL A   1      42.594  27.423  30.445  1.00  0.00     0.074 A 
ATOM     52  C   UNL A   1      41.896  30.035  36.179  1.00  0.00     0.029 A 
ATOM     53  N   UNL A   1      41.695  29.484  34.034  1.00  0.00    -0.354 N 
ATOM     54  N   UNL A   1      42.374  28.006  31.598  1.00  0.00    -0.248 NA
ATOM     55  C   UNL A   1      43.745  26.510  30.445  1.00  0.00     0.031 C 
ATOM     56  C   UNL A   1      42.909  29.123  35.861  1.00  0.00     0.029 A 
ATOM     57  C   UNL A   1      42.772  28.764  34.530  1.00  0.00     0.049 A 
ATOM     58  H   UNL A   1      41.362  29.437  33.109  1.00  0.00     0.167 HD
ATOM     59  C   UNL A   1      43.346  27.521  32.463  1.00  0.00     0.074 A 
ATOM     60  C   UNL A   1      44.142  26.576  31.708  1.00  0.00     0.031 C 
ATOM     61  C   UNL A   1      43.561  27.833  33.764  1.00  0.00     0.037 A 
BRANCH  48  62
ATOM     62  C   UNL A   1      39.608  32.003  36.035  1.00  0.00     0.064 A 
ATOM     63  C   UNL A   1      38.548  31.610  36.865  1.00  0.00     0.173 A 
ATOM     64  C   UNL A   1      40.286  33.190  36.353  1.00  0.00     0.173 A 
ATOM     65  F   UNL A   1      37.860  30.489  36.596  1.00  0.00    -0.203 F 
ATOM     66  C   UNL A   1      38.168  32.385  37.957  1.00  0.00     0.198 A 
ATOM     67  C   UNL A   1      39.919  33.950  37.461  1.00  0.00     0.198 A 
ATOM     68  F   UNL A   1      41.309  33.610  35.594  1.00  0.00    -0.203 F 
ATOM     69  F   UNL A   1      37.125  32.014  38.712  1.00  0.00    -0.200 F 
ATOM     70  C   UNL A   1      38.858  33.551  38.258  1.00  0.00     0.200 A 
ATOM     71  F   UNL A   1      40.594  35.070  37.756  1.00  0.00    -0.200 F 
ATOM     72  F   UNL A   1      38.493  34.295  39.312  1.00  0.00    -0.200 F 
ENDBRANCH  48  62
BRANCH  49  73
ATOM     73  C   UNL A   1      42.234  26.776  27.952  1.00  0.00     0.064 A 
ATOM     74  C   UNL A   1      43.150  27.286  27.022  1.00  0.00     0.173 A 
ATOM     75  C   UNL A   1      41.695  25.503  27.707  1.00  0.00     0.173 A 
ATOM     76  F   UNL A   1      43.668  28.510  27.197  1.00  0.00    -0.203 F 
ATOM     77  C   UNL A   1      43.503  26.558  25.887  1.00  0.00     0.198 A 
ATOM     78  C   UNL A   1      42.070  24.765  26.587  1.00  0.00     0.198 A 
ATOM     79  F   UNL A   1      40.808  24.973  28.562  1.00  0.00    -0.203 F 
ATOM     80  F   UNL A   1      44.345  27.088  24.990  1.00  0.00    -0.200 F 
ATOM     81  C   UNL A   1      42.969  25.296  25.675  1.00  0.00     0.200 A 
ATOM     82  F   UNL A   1      41.557  23.544  26.390  1.00  0.00    -0.200 F 
ATOM     83  F   UNL A   1      43.310  24.598  24.583  1.00  0.00    -0.200 F 
ENDBRANCH  49  73
BRANCH  61  84
ATOM     84  C   UNL A   1      44.698  27.137  34.454  1.00  0.00     0.064 A 
ATOM     85  C   UNL A   1      44.523  25.896  35.087  1.00  0.00     0.173 A 
ATOM     86  C   UNL A   1      45.980  27.707  34.470  1.00  0.00     0.173 A 
ATOM     87  F   UNL A   1      43.314  25.316  35.112  1.00  0.00    -0.203 F 
ATOM     88  C   UNL A   1      45.583  25.268  35.736  1.00  0.00     0.198 A 
ATOM     89  C   UNL A   1      47.044  27.062  35.096  1.00  0.00     0.198 A 
ATOM     90  F   UNL A   1      46.203  28.888  33.874  1.00  0.00    -0.203 F 
ATOM     91  F   UNL A   1      45.380  24.109  36.378  1.00  0.00    -0.200 F 
ATOM     92  C   UNL A   1      46.842  25.849  35.736  1.00  0.00     0.200 A 
ATOM     93  F   UNL A   1      48.262  27.619  35.085  1.00  0.00    -0.200 F 
ATOM     94  F   UNL A   1      47.861  25.243  36.362  1.00  0.00    -0.200 F 
ENDBRANCH  61  84
ENDBRANCH  35  36
ENDBRANCH  28  30
ENDBRANCH  27  28
ENDBRANCH  26  27
ENDBRANCH   1  26
TORSDOF 16
ENDMDL
