MODEL 1
REMARK VINA RESULT:     -12.1      0.000      0.000
REMARK SMILES Cc1c(C(=O)OCCOC(=O)c2ccc(-c3c4nc(c(-c5c(F)c(F)c(F)c(F)c5F)c5ccc([nH]5)c(-c5c(F)c(F)c(F)c(F)c5F)c5nc(c(-c6c(F)c(F)c(F)c(F)c6F)c6ccc3[nH]6)C=C5)C=C4)cc2)cnn1[C@H]1CCS(=O)(=O)C1
REMARK SMILES IDX 8 1 7 2 6 3 4 4 5 5 3 6 1 7 2 8 77 9 75 10 76 11 78 12 79 13
REMARK SMILES IDX 84 14 80 15 81 16 82 17 83 18 9 19 10 20 11 21 12 22 13 23
REMARK SMILES IDX 74 24 14 25 73 26 15 27 16 28 17 29 67 30 18 31 72 32 66 33
REMARK SMILES IDX 68 34 19 35 71 36 65 37 64 38 20 40 52 41 32 42 51 43 33 44
REMARK SMILES IDX 36 45 50 46 69 47 34 48 35 49 49 51 70 52 37 53 21 54 22 55
REMARK SMILES IDX 30 56 23 57 24 58 28 59 31 60 25 61 26 62 29 63 27 64 53 65
REMARK SMILES IDX 54 66 62 67 55 68 56 69 60 70 63 71 57 72 58 73 61 74 59 75
REMARK SMILES IDX 38 76 39 77 47 78 40 79 41 80 45 81 48 82 42 83 43 84 46 85
REMARK SMILES IDX 44 86
REMARK H PARENT 68 39 36 50
REMARK Flexibility Score: inf
ROOT
ATOM      1  C   UNL A   1      35.761  31.383  28.102  1.00  0.00     0.275 C 
ENDROOT
BRANCH   1   2
ATOM      2  C   UNL A   1      34.304  31.140  27.708  1.00  0.00     0.275 C 
BRANCH   2   3
ATOM      3  O   UNL A   1      34.144  29.970  26.881  1.00  0.00    -0.458 OA
BRANCH   3   4
ATOM      4  C   UNL A   1      32.992  29.927  26.144  1.00  0.00     0.341 C 
ATOM      5  O   UNL A   1      32.069  30.725  26.273  1.00  0.00    -0.246 OA
BRANCH   4   6
ATOM      6  C   UNL A   1      32.999  28.892  25.122  1.00  0.00     0.100 A 
ATOM      7  C   UNL A   1      32.318  26.848  26.561  1.00  0.00     0.067 C 
ATOM      8  C   UNL A   1      32.749  27.533  25.315  1.00  0.00     0.050 A 
ATOM      9  N   UNL A   1      32.938  26.936  24.088  1.00  0.00    -0.265 N 
ATOM     10  C   UNL A   1      33.173  29.016  23.734  1.00  0.00     0.151 A 
ATOM     11  N   UNL A   1      33.156  27.840  23.107  1.00  0.00    -0.180 NA
BRANCH   9  12
ATOM     12  C   UNL A   1      33.020  25.535  23.691  1.00  0.00     0.123 C 
ATOM     13  C   UNL A   1      32.984  25.396  22.158  1.00  0.00     0.044 C 
ATOM     14  C   UNL A   1      34.237  24.738  24.136  1.00  0.00     0.164 C 
ATOM     15  C   UNL A   1      33.201  23.924  21.828  1.00  0.00     0.139 C 
ATOM     16  S   UNL A   1      34.212  23.272  23.141  1.00  0.00     0.152 S 
ATOM     17  O   UNL A   1      33.459  22.256  23.850  1.00  0.00    -0.229 OA
ATOM     18  O   UNL A   1      35.549  23.038  22.643  1.00  0.00    -0.229 OA
ENDBRANCH   9  12
ENDBRANCH   4   6
ENDBRANCH   3   4
ENDBRANCH   2   3
ENDBRANCH   1   2
BRANCH   1  19
ATOM     19  O   UNL A   1      36.631  30.356  27.623  1.00  0.00    -0.458 OA
BRANCH  19  20
ATOM     20  C   UNL A   1      37.780  30.264  28.325  1.00  0.00     0.338 C 
ATOM     21  O   UNL A   1      38.181  31.026  29.191  1.00  0.00    -0.246 OA
BRANCH  20  22
ATOM     22  C   UNL A   1      38.657  29.251  27.748  1.00  0.00     0.060 A 
ATOM     23  C   UNL A   1      38.644  28.000  28.376  1.00  0.00     0.016 A 
ATOM     24  C   UNL A   1      39.711  29.672  26.928  1.00  0.00     0.016 A 
ATOM     25  C   UNL A   1      39.785  27.241  28.349  1.00  0.00     0.010 A 
ATOM     26  C   UNL A   1      40.857  28.916  26.911  1.00  0.00     0.010 A 
ATOM     27  C   UNL A   1      40.903  27.762  27.697  1.00  0.00    -0.014 A 
BRANCH  27  28
ATOM     28  C   UNL A   1      42.148  27.036  27.831  1.00  0.00     0.031 A 
ATOM     29  C   UNL A   1      42.875  27.324  29.094  1.00  0.00     0.074 A 
ATOM     30  C   UNL A   1      42.466  26.099  26.918  1.00  0.00     0.049 A 
ATOM     31  N   UNL A   1      44.124  27.614  29.263  1.00  0.00    -0.248 NA
ATOM     32  C   UNL A   1      42.066  27.436  30.324  1.00  0.00     0.031 C 
ATOM     33  C   UNL A   1      41.655  25.622  25.790  1.00  0.00     0.029 A 
ATOM     34  N   UNL A   1      43.525  25.254  26.905  1.00  0.00    -0.354 N 
ATOM     35  C   UNL A   1      44.292  27.789  30.636  1.00  0.00     0.074 A 
ATOM     36  C   UNL A   1      42.978  27.816  31.215  1.00  0.00     0.031 C 
ATOM     37  C   UNL A   1      42.123  24.421  25.386  1.00  0.00     0.029 A 
ATOM     38  C   UNL A   1      43.314  24.107  26.153  1.00  0.00     0.049 A 
ATOM     39  H   UNL A   1      44.367  25.436  27.383  1.00  0.00     0.167 HD
ATOM     40  C   UNL A   1      45.513  27.688  31.224  1.00  0.00     0.037 A 
ATOM     41  C   UNL A   1      43.992  22.945  26.307  1.00  0.00     0.037 A 
ATOM     42  C   UNL A   1      46.566  27.915  30.273  1.00  0.00     0.049 A 
ATOM     43  C   UNL A   1      45.243  23.263  27.055  1.00  0.00     0.074 A 
ATOM     44  C   UNL A   1      46.933  28.997  29.496  1.00  0.00     0.029 A 
ATOM     45  N   UNL A   1      47.215  26.830  29.737  1.00  0.00    -0.354 N 
ATOM     46  N   UNL A   1      46.216  23.982  26.562  1.00  0.00    -0.248 NA
ATOM     47  C   UNL A   1      45.193  23.201  28.512  1.00  0.00     0.031 C 
ATOM     48  C   UNL A   1      47.375  28.433  28.266  1.00  0.00     0.029 A 
ATOM     49  C   UNL A   1      47.299  27.045  28.386  1.00  0.00     0.049 A 
ATOM     50  H   UNL A   1      47.554  26.048  30.229  1.00  0.00     0.167 HD
ATOM     51  C   UNL A   1      46.650  24.773  27.618  1.00  0.00     0.074 A 
ATOM     52  C   UNL A   1      46.028  24.202  28.809  1.00  0.00     0.031 C 
ATOM     53  C   UNL A   1      47.229  25.991  27.404  1.00  0.00     0.037 A 
BRANCH  40  54
ATOM     54  C   UNL A   1      45.748  27.033  32.563  1.00  0.00     0.064 A 
ATOM     55  C   UNL A   1      46.460  27.746  33.548  1.00  0.00     0.173 A 
ATOM     56  C   UNL A   1      45.597  25.650  32.804  1.00  0.00     0.173 A 
ATOM     57  F   UNL A   1      46.655  29.067  33.432  1.00  0.00    -0.203 F 
ATOM     58  C   UNL A   1      47.074  27.101  34.625  1.00  0.00     0.198 A 
ATOM     59  C   UNL A   1      46.169  25.018  33.906  1.00  0.00     0.198 A 
ATOM     60  F   UNL A   1      44.989  24.829  31.941  1.00  0.00    -0.203 F 
ATOM     61  F   UNL A   1      47.859  27.798  35.456  1.00  0.00    -0.200 F 
ATOM     62  C   UNL A   1      46.942  25.735  34.792  1.00  0.00     0.200 A 
ATOM     63  F   UNL A   1      46.033  23.692  34.047  1.00  0.00    -0.200 F 
ATOM     64  F   UNL A   1      47.594  25.103  35.776  1.00  0.00    -0.200 F 
ENDBRANCH  40  54
BRANCH  41  65
ATOM     65  C   UNL A   1      43.428  21.578  26.182  1.00  0.00     0.064 A 
ATOM     66  C   UNL A   1      43.981  20.638  25.301  1.00  0.00     0.173 A 
ATOM     67  C   UNL A   1      42.455  21.091  27.082  1.00  0.00     0.173 A 
ATOM     68  F   UNL A   1      44.954  21.002  24.455  1.00  0.00    -0.203 F 
ATOM     69  C   UNL A   1      43.577  19.297  25.312  1.00  0.00     0.198 A 
ATOM     70  C   UNL A   1      42.041  19.760  27.082  1.00  0.00     0.198 A 
ATOM     71  F   UNL A   1      41.943  21.876  28.041  1.00  0.00    -0.203 F 
ATOM     72  F   UNL A   1      44.158  18.417  24.485  1.00  0.00    -0.200 F 
ATOM     73  C   UNL A   1      42.608  18.860  26.202  1.00  0.00     0.200 A 
ATOM     74  F   UNL A   1      41.128  19.347  27.973  1.00  0.00    -0.200 F 
ATOM     75  F   UNL A   1      42.247  17.569  26.237  1.00  0.00    -0.200 F 
ENDBRANCH  41  65
BRANCH  53  76
ATOM     76  C   UNL A   1      47.564  26.382  25.994  1.00  0.00     0.064 A 
ATOM     77  C   UNL A   1      46.711  27.153  25.187  1.00  0.00     0.173 A 
ATOM     78  C   UNL A   1      48.867  26.160  25.529  1.00  0.00     0.173 A 
ATOM     79  F   UNL A   1      45.493  27.503  25.616  1.00  0.00    -0.203 F 
ATOM     80  C   UNL A   1      47.131  27.650  23.957  1.00  0.00     0.198 A 
ATOM     81  C   UNL A   1      49.296  26.688  24.314  1.00  0.00     0.198 A 
ATOM     82  F   UNL A   1      49.745  25.487  26.288  1.00  0.00    -0.203 F 
ATOM     83  F   UNL A   1      46.296  28.388  23.210  1.00  0.00    -0.200 F 
ATOM     84  C   UNL A   1      48.428  27.427  23.526  1.00  0.00     0.200 A 
ATOM     85  F   UNL A   1      50.568  26.518  23.928  1.00  0.00    -0.200 F 
ATOM     86  F   UNL A   1      48.852  27.953  22.369  1.00  0.00    -0.200 F 
ENDBRANCH  53  76
ENDBRANCH  27  28
ENDBRANCH  20  22
ENDBRANCH  19  20
ENDBRANCH   1  19
TORSDOF 12
ENDMDL
MODEL 2
REMARK VINA RESULT:     -12.1      5.521     10.091
REMARK SMILES Cc1c(C(=O)OCCOC(=O)c2ccc(-c3c4nc(c(-c5c(F)c(F)c(F)c(F)c5F)c5ccc([nH]5)c(-c5c(F)c(F)c(F)c(F)c5F)c5nc(c(-c6c(F)c(F)c(F)c(F)c6F)c6ccc3[nH]6)C=C5)C=C4)cc2)cnn1[C@H]1CCS(=O)(=O)C1
REMARK SMILES IDX 8 1 7 2 6 3 4 4 5 5 3 6 1 7 2 8 77 9 75 10 76 11 78 12 79 13
REMARK SMILES IDX 84 14 80 15 81 16 82 17 83 18 9 19 10 20 11 21 12 22 13 23
REMARK SMILES IDX 74 24 14 25 73 26 15 27 16 28 17 29 67 30 18 31 72 32 66 33
REMARK SMILES IDX 68 34 19 35 71 36 65 37 64 38 20 40 52 41 32 42 51 43 33 44
REMARK SMILES IDX 36 45 50 46 69 47 34 48 35 49 49 51 70 52 37 53 21 54 22 55
REMARK SMILES IDX 30 56 23 57 24 58 28 59 31 60 25 61 26 62 29 63 27 64 53 65
REMARK SMILES IDX 54 66 62 67 55 68 56 69 60 70 63 71 57 72 58 73 61 74 59 75
REMARK SMILES IDX 38 76 39 77 47 78 40 79 41 80 45 81 48 82 42 83 43 84 46 85
REMARK SMILES IDX 44 86
REMARK H PARENT 68 39 36 50
REMARK Flexibility Score: inf
ROOT
ATOM      1  C   UNL A   1      42.819  23.567  25.690  1.00  0.00     0.275 C 
ENDROOT
BRANCH   1   2
ATOM      2  C   UNL A   1      42.491  22.120  26.059  1.00  0.00     0.275 C 
BRANCH   2   3
ATOM      3  O   UNL A   1      41.270  21.658  25.448  1.00  0.00    -0.458 OA
BRANCH   3   4
ATOM      4  C   UNL A   1      40.284  21.284  26.319  1.00  0.00     0.341 C 
ATOM      5  O   UNL A   1      40.445  20.472  27.224  1.00  0.00    -0.246 OA
BRANCH   4   6
ATOM      6  C   UNL A   1      39.038  22.011  26.128  1.00  0.00     0.100 A 
ATOM      7  C   UNL A   1      37.611  20.154  25.020  1.00  0.00     0.067 C 
ATOM      8  C   UNL A   1      37.881  21.529  25.516  1.00  0.00     0.050 A 
ATOM      9  N   UNL A   1      36.995  22.583  25.497  1.00  0.00    -0.265 N 
ATOM     10  C   UNL A   1      38.684  23.297  26.568  1.00  0.00     0.151 A 
ATOM     11  N   UNL A   1      37.462  23.655  26.176  1.00  0.00    -0.180 NA
BRANCH   9  12
ATOM     12  C   UNL A   1      35.715  22.765  24.824  1.00  0.00     0.123 C 
ATOM     13  C   UNL A   1      34.850  23.805  25.561  1.00  0.00     0.044 C 
ATOM     14  C   UNL A   1      35.730  23.217  23.371  1.00  0.00     0.164 C 
ATOM     15  C   UNL A   1      33.592  24.026  24.728  1.00  0.00     0.139 C 
ATOM     16  S   UNL A   1      34.070  23.738  23.037  1.00  0.00     0.152 S 
ATOM     17  O   UNL A   1      33.331  22.598  22.531  1.00  0.00    -0.229 OA
ATOM     18  O   UNL A   1      34.122  25.000  22.334  1.00  0.00    -0.229 OA
ENDBRANCH   9  12
ENDBRANCH   4   6
ENDBRANCH   3   4
ENDBRANCH   2   3
ENDBRANCH   1   2
BRANCH   1  19
ATOM     19  O   UNL A   1      41.838  24.487  26.174  1.00  0.00    -0.458 OA
BRANCH  19  20
ATOM     20  C   UNL A   1      41.899  25.694  25.574  1.00  0.00     0.338 C 
ATOM     21  O   UNL A   1      42.657  26.037  24.680  1.00  0.00    -0.246 OA
BRANCH  20  22
ATOM     22  C   UNL A   1      41.101  26.673  26.303  1.00  0.00     0.060 A 
ATOM     23  C   UNL A   1      41.399  28.017  26.049  1.00  0.00     0.016 A 
ATOM     24  C   UNL A   1      40.427  26.256  27.457  1.00  0.00     0.016 A 
ATOM     25  C   UNL A   1      41.201  28.933  27.049  1.00  0.00     0.010 A 
ATOM     26  C   UNL A   1      40.238  27.172  28.462  1.00  0.00     0.010 A 
ATOM     27  C   UNL A   1      40.714  28.472  28.273  1.00  0.00    -0.014 A 
BRANCH  27  28
ATOM     28  C   UNL A   1      40.681  29.414  29.371  1.00  0.00     0.031 A 
ATOM     29  C   UNL A   1      39.488  30.300  29.364  1.00  0.00     0.074 A 
ATOM     30  C   UNL A   1      41.610  29.327  30.341  1.00  0.00     0.049 A 
ATOM     31  N   UNL A   1      39.431  31.584  29.506  1.00  0.00    -0.248 NA
ATOM     32  C   UNL A   1      38.194  29.680  29.017  1.00  0.00     0.031 C 
ATOM     33  C   UNL A   1      42.659  28.312  30.501  1.00  0.00     0.029 A 
ATOM     34  N   UNL A   1      41.708  30.042  31.488  1.00  0.00    -0.354 N 
ATOM     35  C   UNL A   1      38.079  31.915  29.424  1.00  0.00     0.074 A 
ATOM     36  C   UNL A   1      37.389  30.738  28.977  1.00  0.00     0.031 C 
ATOM     37  C   UNL A   1      43.091  28.320  31.781  1.00  0.00     0.029 A 
ATOM     38  C   UNL A   1      42.427  29.401  32.485  1.00  0.00     0.049 A 
ATOM     39  H   UNL A   1      41.306  30.934  31.603  1.00  0.00     0.167 HD
ATOM     40  C   UNL A   1      37.598  33.080  29.934  1.00  0.00     0.037 A 
ATOM     41  C   UNL A   1      42.323  29.668  33.809  1.00  0.00     0.037 A 
ATOM     42  C   UNL A   1      38.639  34.065  30.047  1.00  0.00     0.049 A 
ATOM     43  C   UNL A   1      41.689  31.012  33.937  1.00  0.00     0.074 A 
ATOM     44  C   UNL A   1      39.453  34.701  29.131  1.00  0.00     0.029 A 
ATOM     45  N   UNL A   1      39.219  34.271  31.275  1.00  0.00    -0.354 N 
ATOM     46  N   UNL A   1      42.271  32.123  33.569  1.00  0.00    -0.248 NA
ATOM     47  C   UNL A   1      40.233  31.068  34.008  1.00  0.00     0.031 C 
ATOM     48  C   UNL A   1      40.712  34.826  29.784  1.00  0.00     0.029 A 
ATOM     49  C   UNL A   1      40.574  34.307  31.072  1.00  0.00     0.049 A 
ATOM     50  H   UNL A   1      38.751  34.373  32.135  1.00  0.00     0.167 HD
ATOM     51  C   UNL A   1      41.263  32.881  32.987  1.00  0.00     0.074 A 
ATOM     52  C   UNL A   1      40.017  32.209  33.345  1.00  0.00     0.031 C 
ATOM     53  C   UNL A   1      41.537  33.810  32.023  1.00  0.00     0.037 A 
BRANCH  40  54
ATOM     54  C   UNL A   1      36.279  33.199  30.656  1.00  0.00     0.064 A 
ATOM     55  C   UNL A   1      35.271  34.008  30.097  1.00  0.00     0.173 A 
ATOM     56  C   UNL A   1      36.080  32.826  32.004  1.00  0.00     0.173 A 
ATOM     57  F   UNL A   1      35.347  34.413  28.821  1.00  0.00    -0.203 F 
ATOM     58  C   UNL A   1      34.213  34.504  30.863  1.00  0.00     0.198 A 
ATOM     59  C   UNL A   1      34.996  33.282  32.751  1.00  0.00     0.198 A 
ATOM     60  F   UNL A   1      36.968  32.100  32.692  1.00  0.00    -0.203 F 
ATOM     61  F   UNL A   1      33.360  35.384  30.325  1.00  0.00    -0.200 F 
ATOM     62  C   UNL A   1      34.087  34.154  32.194  1.00  0.00     0.200 A 
ATOM     63  F   UNL A   1      34.895  32.934  34.042  1.00  0.00    -0.200 F 
ATOM     64  F   UNL A   1      33.121  34.689  32.951  1.00  0.00    -0.200 F 
ENDBRANCH  40  54
BRANCH  41  65
ATOM     65  C   UNL A   1      42.387  28.676  34.911  1.00  0.00     0.064 A 
ATOM     66  C   UNL A   1      41.608  27.511  34.890  1.00  0.00     0.173 A 
ATOM     67  C   UNL A   1      43.375  28.746  35.917  1.00  0.00     0.173 A 
ATOM     68  F   UNL A   1      40.689  27.335  33.930  1.00  0.00    -0.203 F 
ATOM     69  C   UNL A   1      41.799  26.485  35.824  1.00  0.00     0.198 A 
ATOM     70  C   UNL A   1      43.553  27.733  36.858  1.00  0.00     0.198 A 
ATOM     71  F   UNL A   1      44.248  29.763  35.962  1.00  0.00    -0.203 F 
ATOM     72  F   UNL A   1      41.065  25.366  35.747  1.00  0.00    -0.200 F 
ATOM     73  C   UNL A   1      42.769  26.597  36.807  1.00  0.00     0.200 A 
ATOM     74  F   UNL A   1      44.520  27.844  37.780  1.00  0.00    -0.200 F 
ATOM     75  F   UNL A   1      42.976  25.600  37.679  1.00  0.00    -0.200 F 
ENDBRANCH  41  65
BRANCH  53  76
ATOM     76  C   UNL A   1      42.974  34.135  31.736  1.00  0.00     0.064 A 
ATOM     77  C   UNL A   1      43.746  33.436  30.794  1.00  0.00     0.173 A 
ATOM     78  C   UNL A   1      43.512  35.316  32.263  1.00  0.00     0.173 A 
ATOM     79  F   UNL A   1      43.253  32.364  30.163  1.00  0.00    -0.203 F 
ATOM     80  C   UNL A   1      45.012  33.879  30.422  1.00  0.00     0.198 A 
ATOM     81  C   UNL A   1      44.763  35.777  31.863  1.00  0.00     0.198 A 
ATOM     82  F   UNL A   1      42.792  36.060  33.116  1.00  0.00    -0.203 F 
ATOM     83  F   UNL A   1      45.725  33.193  29.515  1.00  0.00    -0.200 F 
ATOM     84  C   UNL A   1      45.515  35.057  30.948  1.00  0.00     0.200 A 
ATOM     85  F   UNL A   1      45.222  36.946  32.332  1.00  0.00    -0.200 F 
ATOM     86  F   UNL A   1      46.709  35.516  30.548  1.00  0.00    -0.200 F 
ENDBRANCH  53  76
ENDBRANCH  27  28
ENDBRANCH  20  22
ENDBRANCH  19  20
ENDBRANCH   1  19
TORSDOF 12
ENDMDL
MODEL 3
REMARK VINA RESULT:     -12.1      1.862      2.612
REMARK SMILES Cc1c(C(=O)OCCOC(=O)c2ccc(-c3c4nc(c(-c5c(F)c(F)c(F)c(F)c5F)c5ccc([nH]5)c(-c5c(F)c(F)c(F)c(F)c5F)c5nc(c(-c6c(F)c(F)c(F)c(F)c6F)c6ccc3[nH]6)C=C5)C=C4)cc2)cnn1[C@H]1CCS(=O)(=O)C1
REMARK SMILES IDX 8 1 7 2 6 3 4 4 5 5 3 6 1 7 2 8 77 9 75 10 76 11 78 12 79 13
REMARK SMILES IDX 84 14 80 15 81 16 82 17 83 18 9 19 10 20 11 21 12 22 13 23
REMARK SMILES IDX 74 24 14 25 73 26 15 27 16 28 17 29 67 30 18 31 72 32 66 33
REMARK SMILES IDX 68 34 19 35 71 36 65 37 64 38 20 40 52 41 32 42 51 43 33 44
REMARK SMILES IDX 36 45 50 46 69 47 34 48 35 49 49 51 70 52 37 53 21 54 22 55
REMARK SMILES IDX 30 56 23 57 24 58 28 59 31 60 25 61 26 62 29 63 27 64 53 65
REMARK SMILES IDX 54 66 62 67 55 68 56 69 60 70 63 71 57 72 58 73 61 74 59 75
REMARK SMILES IDX 38 76 39 77 47 78 40 79 41 80 45 81 48 82 42 83 43 84 46 85
REMARK SMILES IDX 44 86
REMARK H PARENT 68 39 36 50
REMARK Flexibility Score: inf
ROOT
ATOM      1  C   UNL A   1      35.499  30.137  27.895  1.00  0.00     0.275 C 
ENDROOT
BRANCH   1   2
ATOM      2  C   UNL A   1      34.370  29.216  27.433  1.00  0.00     0.275 C 
BRANCH   2   3
ATOM      3  O   UNL A   1      34.457  28.898  26.029  1.00  0.00    -0.458 OA
BRANCH   3   4
ATOM      4  C   UNL A   1      33.819  27.750  25.648  1.00  0.00     0.341 C 
ATOM      5  O   UNL A   1      33.929  26.680  26.238  1.00  0.00    -0.246 OA
BRANCH   4   6
ATOM      6  C   UNL A   1      32.919  27.936  24.520  1.00  0.00     0.100 A 
ATOM      7  C   UNL A   1      31.379  29.782  25.485  1.00  0.00     0.067 C 
ATOM      8  C   UNL A   1      31.820  28.794  24.467  1.00  0.00     0.050 A 
ATOM      9  N   UNL A   1      31.231  28.579  23.240  1.00  0.00    -0.265 N 
ATOM     10  C   UNL A   1      32.982  27.377  23.233  1.00  0.00     0.151 A 
ATOM     11  N   UNL A   1      31.959  27.746  22.463  1.00  0.00    -0.180 NA
BRANCH   9  12
ATOM     12  C   UNL A   1      29.957  29.018  22.683  1.00  0.00     0.123 C 
ATOM     13  C   UNL A   1      28.789  28.211  23.281  1.00  0.00     0.044 C 
ATOM     14  C   UNL A   1      29.566  30.478  22.861  1.00  0.00     0.164 C 
ATOM     15  C   UNL A   1      27.497  28.813  22.744  1.00  0.00     0.139 C 
ATOM     16  S   UNL A   1      27.840  30.539  22.466  1.00  0.00     0.152 S 
ATOM     17  O   UNL A   1      27.708  30.818  21.050  1.00  0.00    -0.229 OA
ATOM     18  O   UNL A   1      27.171  31.327  23.477  1.00  0.00    -0.229 OA
ENDBRANCH   9  12
ENDBRANCH   4   6
ENDBRANCH   3   4
ENDBRANCH   2   3
ENDBRANCH   1   2
BRANCH   1  19
ATOM     19  O   UNL A   1      36.532  29.428  28.583  1.00  0.00    -0.458 OA
BRANCH  19  20
ATOM     20  C   UNL A   1      37.738  30.026  28.494  1.00  0.00     0.338 C 
ATOM     21  O   UNL A   1      38.001  31.196  28.727  1.00  0.00    -0.246 OA
BRANCH  20  22
ATOM     22  C   UNL A   1      38.697  29.157  27.824  1.00  0.00     0.060 A 
ATOM     23  C   UNL A   1      38.662  27.807  28.192  1.00  0.00     0.016 A 
ATOM     24  C   UNL A   1      39.814  29.742  27.214  1.00  0.00     0.016 A 
ATOM     25  C   UNL A   1      39.823  27.081  28.134  1.00  0.00     0.010 A 
ATOM     26  C   UNL A   1      40.978  29.018  27.167  1.00  0.00     0.010 A 
ATOM     27  C   UNL A   1      40.983  27.731  27.713  1.00  0.00    -0.014 A 
BRANCH  27  28
ATOM     28  C   UNL A   1      42.230  27.007  27.830  1.00  0.00     0.031 A 
ATOM     29  C   UNL A   1      42.968  27.287  29.089  1.00  0.00     0.074 A 
ATOM     30  C   UNL A   1      42.542  26.078  26.907  1.00  0.00     0.049 A 
ATOM     31  N   UNL A   1      44.218  27.577  29.248  1.00  0.00    -0.248 NA
ATOM     32  C   UNL A   1      42.171  27.386  30.327  1.00  0.00     0.031 C 
ATOM     33  C   UNL A   1      41.721  25.610  25.782  1.00  0.00     0.029 A 
ATOM     34  N   UNL A   1      43.602  25.235  26.876  1.00  0.00    -0.354 N 
ATOM     35  C   UNL A   1      44.398  27.741  30.621  1.00  0.00     0.074 A 
ATOM     36  C   UNL A   1      43.090  27.761  31.213  1.00  0.00     0.031 C 
ATOM     37  C   UNL A   1      42.187  24.413  25.364  1.00  0.00     0.029 A 
ATOM     38  C   UNL A   1      43.386  24.095  26.118  1.00  0.00     0.049 A 
ATOM     39  H   UNL A   1      44.448  25.415  27.348  1.00  0.00     0.167 HD
ATOM     40  C   UNL A   1      45.625  27.637  31.197  1.00  0.00     0.037 A 
ATOM     41  C   UNL A   1      44.068  22.932  26.255  1.00  0.00     0.037 A 
ATOM     42  C   UNL A   1      46.669  27.875  30.238  1.00  0.00     0.049 A 
ATOM     43  C   UNL A   1      45.325  23.247  26.994  1.00  0.00     0.074 A 
ATOM     44  C   UNL A   1      47.027  28.964  29.467  1.00  0.00     0.029 A 
ATOM     45  N   UNL A   1      47.314  26.795  29.688  1.00  0.00    -0.354 N 
ATOM     46  N   UNL A   1      46.292  23.972  26.498  1.00  0.00    -0.248 NA
ATOM     47  C   UNL A   1      45.289  23.173  28.451  1.00  0.00     0.031 C 
ATOM     48  C   UNL A   1      47.458  28.411  28.229  1.00  0.00     0.029 A 
ATOM     49  C   UNL A   1      47.387  27.022  28.337  1.00  0.00     0.049 A 
ATOM     50  H   UNL A   1      47.660  26.010  30.170  1.00  0.00     0.167 HD
ATOM     51  C   UNL A   1      46.734  24.755  27.557  1.00  0.00     0.074 A 
ATOM     52  C   UNL A   1      46.124  24.172  28.749  1.00  0.00     0.031 C 
ATOM     53  C   UNL A   1      47.309  25.976  27.348  1.00  0.00     0.037 A 
BRANCH  40  54
ATOM     54  C   UNL A   1      45.874  26.972  32.529  1.00  0.00     0.064 A 
ATOM     55  C   UNL A   1      46.625  27.663  33.500  1.00  0.00     0.173 A 
ATOM     56  C   UNL A   1      45.694  25.592  32.768  1.00  0.00     0.173 A 
ATOM     57  F   UNL A   1      46.850  28.980  33.383  1.00  0.00    -0.203 F 
ATOM     58  C   UNL A   1      47.247  26.999  34.560  1.00  0.00     0.198 A 
ATOM     59  C   UNL A   1      46.275  24.943  33.855  1.00  0.00     0.198 A 
ATOM     60  F   UNL A   1      45.047  24.789  31.916  1.00  0.00    -0.203 F 
ATOM     61  F   UNL A   1      48.067  27.674  35.376  1.00  0.00    -0.200 F 
ATOM     62  C   UNL A   1      47.085  25.636  34.726  1.00  0.00     0.200 A 
ATOM     63  F   UNL A   1      46.109  23.620  33.995  1.00  0.00    -0.200 F 
ATOM     64  F   UNL A   1      47.743  24.985  35.694  1.00  0.00    -0.200 F 
ENDBRANCH  40  54
BRANCH  41  65
ATOM     65  C   UNL A   1      43.506  21.566  26.124  1.00  0.00     0.064 A 
ATOM     66  C   UNL A   1      44.070  20.624  25.252  1.00  0.00     0.173 A 
ATOM     67  C   UNL A   1      42.520  21.080  27.011  1.00  0.00     0.173 A 
ATOM     68  F   UNL A   1      45.056  20.987  24.420  1.00  0.00    -0.203 F 
ATOM     69  C   UNL A   1      43.666  19.283  25.260  1.00  0.00     0.198 A 
ATOM     70  C   UNL A   1      42.105  19.749  27.007  1.00  0.00     0.198 A 
ATOM     71  F   UNL A   1      41.994  21.866  27.961  1.00  0.00    -0.203 F 
ATOM     72  F   UNL A   1      44.258  18.402  24.442  1.00  0.00    -0.200 F 
ATOM     73  C   UNL A   1      42.684  18.848  26.136  1.00  0.00     0.200 A 
ATOM     74  F   UNL A   1      41.179  19.338  27.885  1.00  0.00    -0.200 F 
ATOM     75  F   UNL A   1      42.323  17.557  26.168  1.00  0.00    -0.200 F 
ENDBRANCH  41  65
BRANCH  53  76
ATOM     76  C   UNL A   1      47.631  26.379  25.938  1.00  0.00     0.064 A 
ATOM     77  C   UNL A   1      46.770  27.158  25.147  1.00  0.00     0.173 A 
ATOM     78  C   UNL A   1      48.928  26.161  25.458  1.00  0.00     0.173 A 
ATOM     79  F   UNL A   1      45.556  27.505  25.591  1.00  0.00    -0.203 F 
ATOM     80  C   UNL A   1      47.178  27.665  23.917  1.00  0.00     0.198 A 
ATOM     81  C   UNL A   1      49.346  26.699  24.244  1.00  0.00     0.198 A 
ATOM     82  F   UNL A   1      49.814  25.481  26.202  1.00  0.00    -0.203 F 
ATOM     83  F   UNL A   1      46.336  28.411  23.184  1.00  0.00    -0.200 F 
ATOM     84  C   UNL A   1      48.470  27.445  23.471  1.00  0.00     0.200 A 
ATOM     85  F   UNL A   1      50.614  26.532  23.844  1.00  0.00    -0.200 F 
ATOM     86  F   UNL A   1      48.883  27.982  22.314  1.00  0.00    -0.200 F 
ENDBRANCH  53  76
ENDBRANCH  27  28
ENDBRANCH  20  22
ENDBRANCH  19  20
ENDBRANCH   1  19
TORSDOF 12
ENDMDL
