MODEL 1
REMARK VINA RESULT:     -12.7      0.000      0.000
REMARK SMILES Cc1ccc(C(=O)N2CCC3(CCC(=O)N(CC(=O)OCCOC(=O)c4ccc(-c5c6nc(c(-c7c(F)c(F)c(F)c(F)c7F)c7ccc([nH]7)c(-c7c(F)c(F)c(F)c(F)c7F)c7nc(c(-c8c(F)c(F)c(F)c(F)c8F)c8ccc5[nH]8)C=C7)C=C6)cc4)C3)CC2)cc1O
REMARK SMILES IDX 21 1 20 2 18 3 19 4 17 5 16 6 6 7 7 8 8 9 9 10 91 11 10 12
REMARK SMILES IDX 90 13 11 14 12 15 89 16 13 17 14 18 15 19 5 20 1 21 2 22
REMARK SMILES IDX 3 23 93 24 4 25 92 26 94 27 22 29 23 30 24 31 25 32 26 33
REMARK SMILES IDX 27 34 88 35 28 36 87 37 29 38 30 39 31 40 81 41 32 42 86 43
REMARK SMILES IDX 80 44 82 45 33 46 85 47 79 48 78 49 34 51 66 52 46 53 65 54
REMARK SMILES IDX 47 55 50 56 64 57 83 58 48 59 49 60 63 62 84 63 51 64 35 65
REMARK SMILES IDX 36 66 44 67 37 68 38 69 42 70 45 71 39 72 40 73 43 74 41 75
REMARK SMILES IDX 67 76 68 77 76 78 69 79 70 80 74 81 77 82 71 83 72 84 75 85
REMARK SMILES IDX 73 86 52 87 53 88 61 89 54 90 55 91 59 92 62 93 56 94 57 95
REMARK SMILES IDX 60 96 58 97
REMARK H PARENT 94 28 82 50 50 61
REMARK Flexibility Score: inf
ROOT
ATOM      1  C   UNL A   1      31.644  31.563  26.737  1.00  0.00     0.274 C 
ENDROOT
BRANCH   1   2
ATOM      2  O   UNL A   1      32.828  30.909  27.228  1.00  0.00    -0.461 OA
BRANCH   2   3
ATOM      3  C   UNL A   1      33.015  29.640  26.796  1.00  0.00     0.325 C 
ATOM      4  O   UNL A   1      34.043  28.985  26.953  1.00  0.00    -0.250 OA
BRANCH   3   5
ATOM      5  C   UNL A   1      31.812  29.049  26.071  1.00  0.00     0.242 C 
BRANCH   5   6
ATOM      6  N   UNL A   1      31.866  28.736  24.645  1.00  0.00    -0.331 N 
ATOM      7  C   UNL A   1      33.209  22.442  25.189  1.00  0.00     0.253 C 
ATOM      8  O   UNL A   1      32.535  21.693  25.893  1.00  0.00    -0.269 OA
ATOM      9  N   UNL A   1      32.667  23.556  24.556  1.00  0.00    -0.339 N 
ATOM     10  C   UNL A   1      31.517  24.209  25.153  1.00  0.00     0.120 C 
ATOM     11  C   UNL A   1      33.024  24.010  23.220  1.00  0.00     0.120 C 
ATOM     12  C   UNL A   1      31.819  25.703  25.280  1.00  0.00     0.030 C 
ATOM     13  C   UNL A   1      33.289  25.511  23.203  1.00  0.00     0.030 C 
ATOM     14  C   UNL A   1      32.209  26.365  23.928  1.00  0.00    -0.008 C 
ATOM     15  C   UNL A   1      30.979  26.556  23.007  1.00  0.00     0.019 C 
ATOM     16  C   UNL A   1      32.825  27.761  24.171  1.00  0.00     0.127 C 
ATOM     17  C   UNL A   1      30.022  27.638  23.497  1.00  0.00     0.101 C 
ATOM     18  C   UNL A   1      30.700  28.925  23.918  1.00  0.00     0.223 C 
ATOM     19  O   UNL A   1      30.125  30.006  23.849  1.00  0.00    -0.275 OA
BRANCH   7  20
ATOM     20  C   UNL A   1      34.685  22.242  25.153  1.00  0.00     0.043 A 
ATOM     21  C   UNL A   1      38.903  21.508  25.751  1.00  0.00     0.048 C 
ATOM     22  C   UNL A   1      37.443  21.745  25.495  1.00  0.00    -0.009 A 
ATOM     23  C   UNL A   1      36.922  23.033  25.672  1.00  0.00     0.008 A 
ATOM     24  C   UNL A   1      36.560  20.715  25.146  1.00  0.00     0.119 A 
ATOM     25  C   UNL A   1      35.555  23.274  25.521  1.00  0.00     0.014 A 
ATOM     26  C   UNL A   1      35.196  20.956  24.965  1.00  0.00     0.060 A 
BRANCH  24  27
ATOM     27  O   UNL A   1      36.965  19.418  25.001  1.00  0.00    -0.508 OA
ATOM     28  H   UNL A   1      36.591  18.883  24.329  1.00  0.00     0.293 HD
ENDBRANCH  24  27
ENDBRANCH   7  20
ENDBRANCH   5   6
ENDBRANCH   3   5
ENDBRANCH   2   3
ENDBRANCH   1   2
BRANCH   1  29
ATOM     29  C   UNL A   1      31.778  33.079  26.876  1.00  0.00     0.275 C 
BRANCH  29  30
ATOM     30  O   UNL A   1      33.121  33.406  27.280  1.00  0.00    -0.458 OA
BRANCH  30  31
ATOM     31  C   UNL A   1      33.220  34.191  28.375  1.00  0.00     0.338 C 
ATOM     32  O   UNL A   1      32.533  35.151  28.675  1.00  0.00    -0.246 OA
BRANCH  31  33
ATOM     33  C   UNL A   1      34.404  33.804  29.162  1.00  0.00     0.060 A 
ATOM     34  C   UNL A   1      35.652  34.401  28.966  1.00  0.00     0.016 A 
ATOM     35  C   UNL A   1      34.262  32.736  30.050  1.00  0.00     0.016 A 
ATOM     36  C   UNL A   1      36.775  33.881  29.613  1.00  0.00     0.010 A 
ATOM     37  C   UNL A   1      35.374  32.257  30.740  1.00  0.00     0.010 A 
ATOM     38  C   UNL A   1      36.645  32.801  30.501  1.00  0.00    -0.014 A 
BRANCH  38  39
ATOM     39  C   UNL A   1      37.830  32.215  31.174  1.00  0.00     0.031 A 
ATOM     40  C   UNL A   1      38.613  31.121  30.502  1.00  0.00     0.074 A 
ATOM     41  C   UNL A   1      38.176  32.639  32.403  1.00  0.00     0.049 A 
ATOM     42  N   UNL A   1      39.587  30.388  30.979  1.00  0.00    -0.248 NA
ATOM     43  C   UNL A   1      38.245  30.799  29.114  1.00  0.00     0.031 C 
ATOM     44  C   UNL A   1      37.497  33.694  33.153  1.00  0.00     0.029 A 
ATOM     45  N   UNL A   1      39.177  32.221  33.245  1.00  0.00    -0.354 N 
ATOM     46  C   UNL A   1      39.924  29.499  29.966  1.00  0.00     0.074 A 
ATOM     47  C   UNL A   1      39.050  29.780  28.847  1.00  0.00     0.031 C 
ATOM     48  C   UNL A   1      38.100  33.845  34.343  1.00  0.00     0.029 A 
ATOM     49  C   UNL A   1      39.174  32.863  34.458  1.00  0.00     0.049 A 
ATOM     50  H   UNL A   1      39.832  31.528  33.001  1.00  0.00     0.167 HD
ATOM     51  C   UNL A   1      40.878  28.538  29.973  1.00  0.00     0.037 A 
ATOM     52  C   UNL A   1      39.931  32.661  35.552  1.00  0.00     0.037 A 
ATOM     53  C   UNL A   1      41.771  28.286  31.073  1.00  0.00     0.049 A 
ATOM     54  C   UNL A   1      40.982  31.588  35.531  1.00  0.00     0.074 A 
ATOM     55  C   UNL A   1      42.797  27.361  31.159  1.00  0.00     0.029 A 
ATOM     56  N   UNL A   1      41.746  28.970  32.279  1.00  0.00    -0.354 N 
ATOM     57  N   UNL A   1      41.294  30.757  34.566  1.00  0.00    -0.248 NA
ATOM     58  C   UNL A   1      41.781  31.419  36.752  1.00  0.00     0.031 C 
ATOM     59  C   UNL A   1      43.375  27.465  32.429  1.00  0.00     0.029 A 
ATOM     60  C   UNL A   1      42.730  28.477  33.121  1.00  0.00     0.049 A 
ATOM     61  H   UNL A   1      41.122  29.697  32.504  1.00  0.00     0.167 HD
ATOM     62  C   UNL A   1      42.329  29.976  35.056  1.00  0.00     0.074 A 
ATOM     63  C   UNL A   1      42.607  30.442  36.400  1.00  0.00     0.031 C 
ATOM     64  C   UNL A   1      42.988  28.958  34.453  1.00  0.00     0.037 A 
BRANCH  51  65
ATOM     65  C   UNL A   1      41.003  27.665  28.760  1.00  0.00     0.064 A 
ATOM     66  C   UNL A   1      40.167  26.558  28.560  1.00  0.00     0.173 A 
ATOM     67  C   UNL A   1      41.922  27.986  27.751  1.00  0.00     0.173 A 
ATOM     68  F   UNL A   1      39.278  26.204  29.501  1.00  0.00    -0.203 F 
ATOM     69  C   UNL A   1      40.254  25.797  27.397  1.00  0.00     0.198 A 
ATOM     70  C   UNL A   1      41.994  27.237  26.581  1.00  0.00     0.198 A 
ATOM     71  F   UNL A   1      42.742  29.040  27.894  1.00  0.00    -0.203 F 
ATOM     72  F   UNL A   1      39.461  24.730  27.235  1.00  0.00    -0.200 F 
ATOM     73  C   UNL A   1      41.161  26.142  26.405  1.00  0.00     0.200 A 
ATOM     74  F   UNL A   1      42.865  27.576  25.619  1.00  0.00    -0.200 F 
ATOM     75  F   UNL A   1      41.233  25.417  25.280  1.00  0.00    -0.200 F 
ENDBRANCH  51  65
BRANCH  52  76
ATOM     76  C   UNL A   1      39.701  33.482  36.766  1.00  0.00     0.064 A 
ATOM     77  C   UNL A   1      40.379  34.691  36.960  1.00  0.00     0.173 A 
ATOM     78  C   UNL A   1      38.789  33.077  37.752  1.00  0.00     0.173 A 
ATOM     79  F   UNL A   1      41.279  35.106  36.054  1.00  0.00    -0.203 F 
ATOM     80  C   UNL A   1      40.163  35.462  38.100  1.00  0.00     0.198 A 
ATOM     81  C   UNL A   1      38.554  33.861  38.880  1.00  0.00     0.198 A 
ATOM     82  F   UNL A   1      38.114  31.927  37.612  1.00  0.00    -0.203 F 
ATOM     83  F   UNL A   1      40.852  36.598  38.279  1.00  0.00    -0.200 F 
ATOM     84  C   UNL A   1      39.246  35.050  39.055  1.00  0.00     0.200 A 
ATOM     85  F   UNL A   1      37.659  33.465  39.794  1.00  0.00    -0.200 F 
ATOM     86  F   UNL A   1      39.033  35.795  40.148  1.00  0.00    -0.200 F 
ENDBRANCH  52  76
BRANCH  64  87
ATOM     87  C   UNL A   1      44.081  28.297  35.234  1.00  0.00     0.064 A 
ATOM     88  C   UNL A   1      43.828  27.174  36.034  1.00  0.00     0.173 A 
ATOM     89  C   UNL A   1      45.399  28.772  35.157  1.00  0.00     0.173 A 
ATOM     90  F   UNL A   1      42.580  26.695  36.149  1.00  0.00    -0.203 F 
ATOM     91  C   UNL A   1      44.854  26.560  36.748  1.00  0.00     0.198 A 
ATOM     92  C   UNL A   1      46.425  28.144  35.856  1.00  0.00     0.198 A 
ATOM     93  F   UNL A   1      45.689  29.841  34.401  1.00  0.00    -0.203 F 
ATOM     94  F   UNL A   1      44.584  25.512  37.537  1.00  0.00    -0.200 F 
ATOM     95  C   UNL A   1      46.151  27.043  36.654  1.00  0.00     0.200 A 
ATOM     96  F   UNL A   1      47.679  28.605  35.760  1.00  0.00    -0.200 F 
ATOM     97  F   UNL A   1      47.137  26.451  37.342  1.00  0.00    -0.200 F 
ENDBRANCH  64  87
ENDBRANCH  38  39
ENDBRANCH  31  33
ENDBRANCH  30  31
ENDBRANCH  29  30
ENDBRANCH   1  29
TORSDOF 14
ENDMDL
MODEL 2
REMARK VINA RESULT:     -12.7      4.426      9.009
REMARK SMILES Cc1ccc(C(=O)N2CCC3(CCC(=O)N(CC(=O)OCCOC(=O)c4ccc(-c5c6nc(c(-c7c(F)c(F)c(F)c(F)c7F)c7ccc([nH]7)c(-c7c(F)c(F)c(F)c(F)c7F)c7nc(c(-c8c(F)c(F)c(F)c(F)c8F)c8ccc5[nH]8)C=C7)C=C6)cc4)C3)CC2)cc1O
REMARK SMILES IDX 21 1 20 2 18 3 19 4 17 5 16 6 6 7 7 8 8 9 9 10 91 11 10 12
REMARK SMILES IDX 90 13 11 14 12 15 89 16 13 17 14 18 15 19 5 20 1 21 2 22
REMARK SMILES IDX 3 23 93 24 4 25 92 26 94 27 22 29 23 30 24 31 25 32 26 33
REMARK SMILES IDX 27 34 88 35 28 36 87 37 29 38 30 39 31 40 81 41 32 42 86 43
REMARK SMILES IDX 80 44 82 45 33 46 85 47 79 48 78 49 34 51 66 52 46 53 65 54
REMARK SMILES IDX 47 55 50 56 64 57 83 58 48 59 49 60 63 62 84 63 51 64 35 65
REMARK SMILES IDX 36 66 44 67 37 68 38 69 42 70 45 71 39 72 40 73 43 74 41 75
REMARK SMILES IDX 67 76 68 77 76 78 69 79 70 80 74 81 77 82 71 83 72 84 75 85
REMARK SMILES IDX 73 86 52 87 53 88 61 89 54 90 55 91 59 92 62 93 56 94 57 95
REMARK SMILES IDX 60 96 58 97
REMARK H PARENT 94 28 82 50 50 61
REMARK Flexibility Score: inf
ROOT
ATOM      1  C   UNL A   1      38.120  19.997  24.963  1.00  0.00     0.274 C 
ENDROOT
BRANCH   1   2
ATOM      2  O   UNL A   1      37.578  21.072  25.750  1.00  0.00    -0.461 OA
BRANCH   2   3
ATOM      3  C   UNL A   1      36.879  22.004  25.060  1.00  0.00     0.325 C 
ATOM      4  O   UNL A   1      37.255  23.155  24.850  1.00  0.00    -0.250 OA
BRANCH   3   5
ATOM      5  C   UNL A   1      35.537  21.509  24.535  1.00  0.00     0.242 C 
BRANCH   5   6
ATOM      6  N   UNL A   1      34.379  21.382  25.416  1.00  0.00    -0.331 N 
ATOM      7  C   UNL A   1      31.838  27.225  24.361  1.00  0.00     0.253 C 
ATOM      8  O   UNL A   1      31.623  27.645  23.226  1.00  0.00    -0.269 OA
ATOM      9  N   UNL A   1      31.776  25.872  24.679  1.00  0.00    -0.339 N 
ATOM     10  C   UNL A   1      32.060  24.897  23.644  1.00  0.00     0.120 C 
ATOM     11  C   UNL A   1      31.242  25.333  25.921  1.00  0.00     0.120 C 
ATOM     12  C   UNL A   1      33.115  23.922  24.170  1.00  0.00     0.030 C 
ATOM     13  C   UNL A   1      32.183  24.292  26.517  1.00  0.00     0.030 C 
ATOM     14  C   UNL A   1      32.700  23.233  25.501  1.00  0.00    -0.008 C 
ATOM     15  C   UNL A   1      31.620  22.147  25.271  1.00  0.00     0.019 C 
ATOM     16  C   UNL A   1      33.919  22.542  26.151  1.00  0.00     0.127 C 
ATOM     17  C   UNL A   1      32.151  20.910  24.556  1.00  0.00     0.101 C 
ATOM     18  C   UNL A   1      33.463  20.388  25.106  1.00  0.00     0.223 C 
ATOM     19  O   UNL A   1      33.766  19.203  25.026  1.00  0.00    -0.275 OA
BRANCH   7  20
ATOM     20  C   UNL A   1      32.345  28.182  25.384  1.00  0.00     0.043 A 
ATOM     21  C   UNL A   1      34.151  31.278  27.801  1.00  0.00     0.048 C 
ATOM     22  C   UNL A   1      33.483  30.202  26.994  1.00  0.00    -0.009 A 
ATOM     23  C   UNL A   1      34.160  28.995  26.778  1.00  0.00     0.008 A 
ATOM     24  C   UNL A   1      32.232  30.377  26.390  1.00  0.00     0.119 A 
ATOM     25  C   UNL A   1      33.605  28.004  25.966  1.00  0.00     0.014 A 
ATOM     26  C   UNL A   1      31.658  29.378  25.601  1.00  0.00     0.060 A 
BRANCH  24  27
ATOM     27  O   UNL A   1      31.519  31.538  26.501  1.00  0.00    -0.508 OA
ATOM     28  H   UNL A   1      30.588  31.508  26.609  1.00  0.00     0.293 HD
ENDBRANCH  24  27
ENDBRANCH   7  20
ENDBRANCH   5   6
ENDBRANCH   3   5
ENDBRANCH   2   3
ENDBRANCH   1   2
BRANCH   1  29
ATOM     29  C   UNL A   1      39.196  19.251  25.752  1.00  0.00     0.275 C 
BRANCH  29  30
ATOM     30  O   UNL A   1      40.354  20.095  25.897  1.00  0.00    -0.458 OA
BRANCH  30  31
ATOM     31  C   UNL A   1      40.723  20.356  27.171  1.00  0.00     0.338 C 
ATOM     32  O   UNL A   1      40.778  19.582  28.109  1.00  0.00    -0.246 OA
BRANCH  31  33
ATOM     33  C   UNL A   1      40.954  21.802  27.338  1.00  0.00     0.060 A 
ATOM     34  C   UNL A   1      40.355  22.749  26.504  1.00  0.00     0.016 A 
ATOM     35  C   UNL A   1      41.882  22.195  28.303  1.00  0.00     0.016 A 
ATOM     36  C   UNL A   1      40.739  24.089  26.593  1.00  0.00     0.010 A 
ATOM     37  C   UNL A   1      42.221  23.541  28.431  1.00  0.00     0.010 A 
ATOM     38  C   UNL A   1      41.680  24.494  27.555  1.00  0.00    -0.014 A 
BRANCH  38  39
ATOM     39  C   UNL A   1      42.124  25.906  27.645  1.00  0.00     0.031 A 
ATOM     40  C   UNL A   1      43.432  26.325  27.033  1.00  0.00     0.074 A 
ATOM     41  C   UNL A   1      41.371  26.801  28.312  1.00  0.00     0.049 A 
ATOM     42  N   UNL A   1      44.059  27.471  27.123  1.00  0.00    -0.248 NA
ATOM     43  C   UNL A   1      44.135  25.319  26.221  1.00  0.00     0.031 C 
ATOM     44  C   UNL A   1      40.084  26.514  28.944  1.00  0.00     0.029 A 
ATOM     45  N   UNL A   1      41.588  28.128  28.582  1.00  0.00    -0.354 N 
ATOM     46  C   UNL A   1      45.241  27.313  26.411  1.00  0.00     0.074 A 
ATOM     47  C   UNL A   1      45.249  25.961  25.896  1.00  0.00     0.031 C 
ATOM     48  C   UNL A   1      39.623  27.632  29.526  1.00  0.00     0.029 A 
ATOM     49  C   UNL A   1      40.606  28.697  29.353  1.00  0.00     0.049 A 
ATOM     50  H   UNL A   1      42.374  28.623  28.255  1.00  0.00     0.167 HD
ATOM     51  C   UNL A   1      46.227  28.218  26.209  1.00  0.00     0.037 A 
ATOM     52  C   UNL A   1      40.521  29.930  29.886  1.00  0.00     0.037 A 
ATOM     53  C   UNL A   1      46.199  29.574  26.690  1.00  0.00     0.049 A 
ATOM     54  C   UNL A   1      41.630  30.913  29.644  1.00  0.00     0.074 A 
ATOM     55  C   UNL A   1      47.133  30.579  26.501  1.00  0.00     0.029 A 
ATOM     56  N   UNL A   1      45.177  30.117  27.454  1.00  0.00    -0.354 N 
ATOM     57  N   UNL A   1      42.740  30.755  28.966  1.00  0.00    -0.248 NA
ATOM     58  C   UNL A   1      41.478  32.245  30.247  1.00  0.00     0.031 C 
ATOM     59  C   UNL A   1      46.689  31.721  27.175  1.00  0.00     0.029 A 
ATOM     60  C   UNL A   1      45.464  31.438  27.756  1.00  0.00     0.049 A 
ATOM     61  H   UNL A   1      44.367  29.635  27.740  1.00  0.00     0.167 HD
ATOM     62  C   UNL A   1      43.414  31.964  29.049  1.00  0.00     0.074 A 
ATOM     63  C   UNL A   1      42.580  32.855  29.830  1.00  0.00     0.031 C 
ATOM     64  C   UNL A   1      44.618  32.306  28.533  1.00  0.00     0.037 A 
BRANCH  51  65
ATOM     65  C   UNL A   1      47.439  27.775  25.444  1.00  0.00     0.064 A 
ATOM     66  C   UNL A   1      47.485  27.827  24.044  1.00  0.00     0.173 A 
ATOM     67  C   UNL A   1      48.593  27.363  26.126  1.00  0.00     0.173 A 
ATOM     68  F   UNL A   1      46.404  28.204  23.345  1.00  0.00    -0.203 F 
ATOM     69  C   UNL A   1      48.642  27.473  23.354  1.00  0.00     0.198 A 
ATOM     70  C   UNL A   1      49.754  27.029  25.435  1.00  0.00     0.198 A 
ATOM     71  F   UNL A   1      48.599  27.301  27.467  1.00  0.00    -0.203 F 
ATOM     72  F   UNL A   1      48.659  27.509  22.014  1.00  0.00    -0.200 F 
ATOM     73  C   UNL A   1      49.777  27.083  24.050  1.00  0.00     0.200 A 
ATOM     74  F   UNL A   1      50.852  26.660  26.110  1.00  0.00    -0.200 F 
ATOM     75  F   UNL A   1      50.894  26.756  23.384  1.00  0.00    -0.200 F 
ENDBRANCH  51  65
BRANCH  52  76
ATOM     76  C   UNL A   1      39.349  30.289  30.723  1.00  0.00     0.064 A 
ATOM     77  C   UNL A   1      38.222  30.901  30.161  1.00  0.00     0.173 A 
ATOM     78  C   UNL A   1      39.331  30.018  32.099  1.00  0.00     0.173 A 
ATOM     79  F   UNL A   1      38.205  31.201  28.854  1.00  0.00    -0.203 F 
ATOM     80  C   UNL A   1      37.122  31.238  30.947  1.00  0.00     0.198 A 
ATOM     81  C   UNL A   1      38.220  30.332  32.879  1.00  0.00     0.198 A 
ATOM     82  F   UNL A   1      40.386  29.432  32.683  1.00  0.00    -0.203 F 
ATOM     83  F   UNL A   1      36.070  31.856  30.393  1.00  0.00    -0.200 F 
ATOM     84  C   UNL A   1      37.119  30.947  32.303  1.00  0.00     0.200 A 
ATOM     85  F   UNL A   1      38.217  30.038  34.186  1.00  0.00    -0.200 F 
ATOM     86  F   UNL A   1      36.058  31.266  33.057  1.00  0.00    -0.200 F 
ENDBRANCH  52  76
BRANCH  64  87
ATOM     87  C   UNL A   1      45.093  33.704  28.781  1.00  0.00     0.064 A 
ATOM     88  C   UNL A   1      45.922  34.010  29.869  1.00  0.00     0.173 A 
ATOM     89  C   UNL A   1      44.740  34.741  27.905  1.00  0.00     0.173 A 
ATOM     90  F   UNL A   1      46.273  33.052  30.741  1.00  0.00    -0.203 F 
ATOM     91  C   UNL A   1      46.366  35.312  30.084  1.00  0.00     0.198 A 
ATOM     92  C   UNL A   1      45.202  36.037  28.112  1.00  0.00     0.198 A 
ATOM     93  F   UNL A   1      43.951  34.495  26.849  1.00  0.00    -0.203 F 
ATOM     94  F   UNL A   1      47.127  35.591  31.151  1.00  0.00    -0.200 F 
ATOM     95  C   UNL A   1      46.009  36.323  29.203  1.00  0.00     0.200 A 
ATOM     96  F   UNL A   1      44.863  37.013  27.258  1.00  0.00    -0.200 F 
ATOM     97  F   UNL A   1      46.438  37.575  29.412  1.00  0.00    -0.200 F 
ENDBRANCH  64  87
ENDBRANCH  38  39
ENDBRANCH  31  33
ENDBRANCH  30  31
ENDBRANCH  29  30
ENDBRANCH   1  29
TORSDOF 14
ENDMDL
MODEL 3
REMARK VINA RESULT:     -12.7      0.667      2.004
REMARK SMILES Cc1ccc(C(=O)N2CCC3(CCC(=O)N(CC(=O)OCCOC(=O)c4ccc(-c5c6nc(c(-c7c(F)c(F)c(F)c(F)c7F)c7ccc([nH]7)c(-c7c(F)c(F)c(F)c(F)c7F)c7nc(c(-c8c(F)c(F)c(F)c(F)c8F)c8ccc5[nH]8)C=C7)C=C6)cc4)C3)CC2)cc1O
REMARK SMILES IDX 21 1 20 2 18 3 19 4 17 5 16 6 6 7 7 8 8 9 9 10 91 11 10 12
REMARK SMILES IDX 90 13 11 14 12 15 89 16 13 17 14 18 15 19 5 20 1 21 2 22
REMARK SMILES IDX 3 23 93 24 4 25 92 26 94 27 22 29 23 30 24 31 25 32 26 33
REMARK SMILES IDX 27 34 88 35 28 36 87 37 29 38 30 39 31 40 81 41 32 42 86 43
REMARK SMILES IDX 80 44 82 45 33 46 85 47 79 48 78 49 34 51 66 52 46 53 65 54
REMARK SMILES IDX 47 55 50 56 64 57 83 58 48 59 49 60 63 62 84 63 51 64 35 65
REMARK SMILES IDX 36 66 44 67 37 68 38 69 42 70 45 71 39 72 40 73 43 74 41 75
REMARK SMILES IDX 67 76 68 77 76 78 69 79 70 80 74 81 77 82 71 83 72 84 75 85
REMARK SMILES IDX 73 86 52 87 53 88 61 89 54 90 55 91 59 92 62 93 56 94 57 95
REMARK SMILES IDX 60 96 58 97
REMARK H PARENT 94 28 82 50 50 61
REMARK Flexibility Score: inf
ROOT
ATOM      1  C   UNL A   1      32.558  31.704  27.152  1.00  0.00     0.274 C 
ENDROOT
BRANCH   1   2
ATOM      2  O   UNL A   1      33.435  30.563  27.170  1.00  0.00    -0.461 OA
BRANCH   2   3
ATOM      3  C   UNL A   1      32.837  29.366  26.966  1.00  0.00     0.325 C 
ATOM      4  O   UNL A   1      33.218  28.297  27.439  1.00  0.00    -0.250 OA
BRANCH   3   5
ATOM      5  C   UNL A   1      31.603  29.433  26.074  1.00  0.00     0.242 C 
BRANCH   5   6
ATOM      6  N   UNL A   1      31.681  29.123  24.649  1.00  0.00    -0.331 N 
ATOM      7  C   UNL A   1      33.023  22.830  25.199  1.00  0.00     0.253 C 
ATOM      8  O   UNL A   1      32.340  22.078  25.891  1.00  0.00    -0.269 OA
ATOM      9  N   UNL A   1      32.490  23.944  24.561  1.00  0.00    -0.339 N 
ATOM     10  C   UNL A   1      31.330  24.594  25.140  1.00  0.00     0.120 C 
ATOM     11  C   UNL A   1      32.868  24.402  23.232  1.00  0.00     0.120 C 
ATOM     12  C   UNL A   1      31.628  26.089  25.276  1.00  0.00     0.030 C 
ATOM     13  C   UNL A   1      33.132  25.904  23.223  1.00  0.00     0.030 C 
ATOM     14  C   UNL A   1      32.039  26.754  23.932  1.00  0.00    -0.008 C 
ATOM     15  C   UNL A   1      30.824  26.946  22.992  1.00  0.00     0.019 C 
ATOM     16  C   UNL A   1      32.649  28.150  24.188  1.00  0.00     0.127 C 
ATOM     17  C   UNL A   1      29.857  28.025  23.469  1.00  0.00     0.101 C 
ATOM     18  C   UNL A   1      30.526  29.313  23.904  1.00  0.00     0.223 C 
ATOM     19  O   UNL A   1      29.952  30.392  23.827  1.00  0.00    -0.275 OA
BRANCH   7  20
ATOM     20  C   UNL A   1      34.500  22.631  25.188  1.00  0.00     0.043 A 
ATOM     21  C   UNL A   1      38.709  21.906  25.854  1.00  0.00     0.048 C 
ATOM     22  C   UNL A   1      37.253  22.140  25.574  1.00  0.00    -0.009 A 
ATOM     23  C   UNL A   1      36.728  23.428  25.738  1.00  0.00     0.008 A 
ATOM     24  C   UNL A   1      36.377  21.108  25.216  1.00  0.00     0.119 A 
ATOM     25  C   UNL A   1      35.363  23.667  25.565  1.00  0.00     0.014 A 
ATOM     26  C   UNL A   1      35.016  21.346  25.013  1.00  0.00     0.060 A 
BRANCH  24  27
ATOM     27  O   UNL A   1      36.786  19.811  25.082  1.00  0.00    -0.508 OA
ATOM     28  H   UNL A   1      36.166  19.113  25.163  1.00  0.00     0.293 HD
ENDBRANCH  24  27
ENDBRANCH   7  20
ENDBRANCH   5   6
ENDBRANCH   3   5
ENDBRANCH   2   3
ENDBRANCH   1   2
BRANCH   1  29
ATOM     29  C   UNL A   1      33.304  32.955  27.613  1.00  0.00     0.275 C 
BRANCH  29  30
ATOM     30  O   UNL A   1      32.353  33.961  28.009  1.00  0.00    -0.458 OA
BRANCH  30  31
ATOM     31  C   UNL A   1      32.861  34.985  28.731  1.00  0.00     0.338 C 
ATOM     32  O   UNL A   1      32.467  36.136  28.781  1.00  0.00    -0.246 OA
BRANCH  31  33
ATOM     33  C   UNL A   1      34.099  34.554  29.404  1.00  0.00     0.060 A 
ATOM     34  C   UNL A   1      35.353  34.683  28.804  1.00  0.00     0.016 A 
ATOM     35  C   UNL A   1      33.967  33.910  30.636  1.00  0.00     0.016 A 
ATOM     36  C   UNL A   1      36.471  34.105  29.408  1.00  0.00     0.010 A 
ATOM     37  C   UNL A   1      35.093  33.385  31.268  1.00  0.00     0.010 A 
ATOM     38  C   UNL A   1      36.348  33.446  30.643  1.00  0.00    -0.014 A 
BRANCH  38  39
ATOM     39  C   UNL A   1      37.518  32.799  31.287  1.00  0.00     0.031 A 
ATOM     40  C   UNL A   1      38.212  31.651  30.607  1.00  0.00     0.074 A 
ATOM     41  C   UNL A   1      37.929  33.217  32.498  1.00  0.00     0.049 A 
ATOM     42  N   UNL A   1      39.155  30.867  31.064  1.00  0.00    -0.248 NA
ATOM     43  C   UNL A   1      37.779  31.333  29.237  1.00  0.00     0.031 C 
ATOM     44  C   UNL A   1      37.338  34.322  33.253  1.00  0.00     0.029 A 
ATOM     45  N   UNL A   1      38.929  32.752  33.313  1.00  0.00    -0.354 N 
ATOM     46  C   UNL A   1      39.405  29.946  30.054  1.00  0.00     0.074 A 
ATOM     47  C   UNL A   1      38.513  30.264  28.960  1.00  0.00     0.031 C 
ATOM     48  C   UNL A   1      37.988  34.452  34.420  1.00  0.00     0.029 A 
ATOM     49  C   UNL A   1      39.004  33.409  34.516  1.00  0.00     0.049 A 
ATOM     50  H   UNL A   1      39.533  32.017  33.059  1.00  0.00     0.167 HD
ATOM     51  C   UNL A   1      40.299  28.929  30.046  1.00  0.00     0.037 A 
ATOM     52  C   UNL A   1      39.783  33.176  35.588  1.00  0.00     0.037 A 
ATOM     53  C   UNL A   1      41.211  28.639  31.120  1.00  0.00     0.049 A 
ATOM     54  C   UNL A   1      40.767  32.042  35.550  1.00  0.00     0.074 A 
ATOM     55  C   UNL A   1      42.183  27.655  31.188  1.00  0.00     0.029 A 
ATOM     56  N   UNL A   1      41.266  29.339  32.316  1.00  0.00    -0.354 N 
ATOM     57  N   UNL A   1      40.997  31.181  34.589  1.00  0.00    -0.248 NA
ATOM     58  C   UNL A   1      41.594  31.841  36.748  1.00  0.00     0.031 C 
ATOM     59  C   UNL A   1      42.807  27.741  32.437  1.00  0.00     0.029 A 
ATOM     60  C   UNL A   1      42.246  28.800  33.133  1.00  0.00     0.049 A 
ATOM     61  H   UNL A   1      40.695  30.106  32.550  1.00  0.00     0.167 HD
ATOM     62  C   UNL A   1      41.999  30.345  35.057  1.00  0.00     0.074 A 
ATOM     63  C   UNL A   1      42.348  30.812  36.384  1.00  0.00     0.031 C 
ATOM     64  C   UNL A   1      42.576  29.282  34.449  1.00  0.00     0.037 A 
BRANCH  51  65
ATOM     65  C   UNL A   1      40.332  28.035  28.843  1.00  0.00     0.064 A 
ATOM     66  C   UNL A   1      41.105  28.345  27.716  1.00  0.00     0.173 A 
ATOM     67  C   UNL A   1      39.637  26.816  28.849  1.00  0.00     0.173 A 
ATOM     68  F   UNL A   1      41.779  29.504  27.657  1.00  0.00    -0.203 F 
ATOM     69  C   UNL A   1      41.174  27.470  26.634  1.00  0.00     0.198 A 
ATOM     70  C   UNL A   1      39.724  25.935  27.776  1.00  0.00     0.198 A 
ATOM     71  F   UNL A   1      38.886  26.473  29.908  1.00  0.00    -0.203 F 
ATOM     72  F   UNL A   1      41.902  27.796  25.557  1.00  0.00    -0.200 F 
ATOM     73  C   UNL A   1      40.491  26.264  26.668  1.00  0.00     0.200 A 
ATOM     74  F   UNL A   1      39.070  24.766  27.814  1.00  0.00    -0.200 F 
ATOM     75  F   UNL A   1      40.571  25.417  25.632  1.00  0.00    -0.200 F 
ENDBRANCH  51  65
BRANCH  52  76
ATOM     76  C   UNL A   1      39.643  34.026  36.796  1.00  0.00     0.064 A 
ATOM     77  C   UNL A   1      38.842  33.624  37.873  1.00  0.00     0.173 A 
ATOM     78  C   UNL A   1      40.314  35.253  36.901  1.00  0.00     0.173 A 
ATOM     79  F   UNL A   1      38.162  32.469  37.807  1.00  0.00    -0.203 F 
ATOM     80  C   UNL A   1      38.710  34.422  39.007  1.00  0.00     0.198 A 
ATOM     81  C   UNL A   1      40.202  36.038  38.047  1.00  0.00     0.198 A 
ATOM     82  F   UNL A   1      41.093  35.681  35.897  1.00  0.00    -0.203 F 
ATOM     83  F   UNL A   1      37.911  34.032  40.009  1.00  0.00    -0.200 F 
ATOM     84  C   UNL A   1      39.396  35.624  39.096  1.00  0.00     0.200 A 
ATOM     85  F   UNL A   1      40.875  37.193  38.133  1.00  0.00    -0.200 F 
ATOM     86  F   UNL A   1      39.274  36.388  40.190  1.00  0.00    -0.200 F 
ENDBRANCH  52  76
BRANCH  64  87
ATOM     87  C   UNL A   1      43.653  28.567  35.205  1.00  0.00     0.064 A 
ATOM     88  C   UNL A   1      45.005  28.899  35.036  1.00  0.00     0.173 A 
ATOM     89  C   UNL A   1      43.329  27.562  36.128  1.00  0.00     0.173 A 
ATOM     90  F   UNL A   1      45.363  29.843  34.152  1.00  0.00    -0.203 F 
ATOM     91  C   UNL A   1      45.997  28.236  35.751  1.00  0.00     0.198 A 
ATOM     92  C   UNL A   1      44.322  26.915  36.856  1.00  0.00     0.198 A 
ATOM     93  F   UNL A   1      42.049  27.213  36.325  1.00  0.00    -0.203 F 
ATOM     94  F   UNL A   1      47.286  28.541  35.547  1.00  0.00    -0.200 F 
ATOM     95  C   UNL A   1      45.655  27.248  36.664  1.00  0.00     0.200 A 
ATOM     96  F   UNL A   1      43.991  25.966  37.742  1.00  0.00    -0.200 F 
ATOM     97  F   UNL A   1      46.612  26.610  37.351  1.00  0.00    -0.200 F 
ENDBRANCH  64  87
ENDBRANCH  38  39
ENDBRANCH  31  33
ENDBRANCH  30  31
ENDBRANCH  29  30
ENDBRANCH   1  29
TORSDOF 14
ENDMDL
