MODEL 1
REMARK VINA RESULT:     -11.7      0.000      0.000
REMARK SMILES C[C@H](NC1=[NH+]S(=O)(=O)c2ccccc21)C(=O)OCCOC(=O)c1ccc(-c2c3nc(c(-c4c(F)c(F)c(F)c(F)c4F)c4ccc([nH]4)c(-c4c(F)c(F)c(F)c(F)c4F)c4nc(c(-c5c(F)c(F)c(F)c(F)c5F)c5ccc2[nH]5)C=C4)C=C3)cc1
REMARK SMILES IDX 19 1 18 2 17 3 15 4 16 5 2 6 1 7 3 8 4 9 5 11 14 12 6 13
REMARK SMILES IDX 9 15 13 16 7 17 8 18 10 19 12 20 11 21 20 22 21 23 22 24
REMARK SMILES IDX 23 25 24 26 85 27 25 28 84 29 26 30 27 31 28 32 78 33 29 34
REMARK SMILES IDX 83 35 77 36 79 37 30 38 82 39 76 40 75 41 31 43 63 44 43 45
REMARK SMILES IDX 62 46 44 47 47 48 61 49 80 50 45 51 46 52 60 54 81 55 48 56
REMARK SMILES IDX 32 57 33 58 41 59 34 60 35 61 39 62 42 63 36 64 37 65 40 66
REMARK SMILES IDX 38 67 64 68 65 69 73 70 66 71 67 72 71 73 74 74 68 75 69 76
REMARK SMILES IDX 72 77 70 78 49 79 50 80 58 81 51 82 52 83 56 84 59 85 53 86
REMARK SMILES IDX 54 87 57 88 55 89
REMARK H PARENT 3 10 5 14 79 42 47 53
REMARK Flexibility Score: inf
ROOT
ATOM      1  C   UNL A   1      31.757  32.694  26.909  1.00  0.00     0.275 C 
ENDROOT
BRANCH   1   2
ATOM      2  C   UNL A   1      31.778  31.281  26.316  1.00  0.00     0.274 C 
BRANCH   2   3
ATOM      3  O   UNL A   1      32.308  30.320  27.251  1.00  0.00    -0.459 OA
BRANCH   3   4
ATOM      4  C   UNL A   1      33.284  29.491  26.772  1.00  0.00     0.350 C 
ATOM      5  O   UNL A   1      34.488  29.705  26.871  1.00  0.00    -0.247 OA
BRANCH   4   6
ATOM      6  C   UNL A   1      32.706  28.261  26.063  1.00  0.00     0.279 C 
ATOM      7  C   UNL A   1      31.708  27.582  26.995  1.00  0.00     0.071 C 
BRANCH   6   8
ATOM      8  N   UNL A   1      33.743  27.310  25.660  1.00  0.00    -0.260 N 
ATOM      9  C   UNL A   1      33.637  26.507  24.559  1.00  0.00     0.292 C 
ATOM     10  H   UNL A   1      34.558  27.246  26.210  1.00  0.00     0.306 HD
ATOM     11  N   UNL A   1      32.878  26.783  23.538  1.00  0.00    -0.162 N 
ATOM     12  C   UNL A   1      34.331  25.201  24.505  1.00  0.00     0.087 A 
ATOM     13  S   UNL A   1      32.918  25.569  22.434  1.00  0.00     0.329 S 
ATOM     14  H   UNL A   1      32.351  27.608  23.441  1.00  0.00     0.327 HD
ATOM     15  C   UNL A   1      33.957  24.527  23.357  1.00  0.00     0.124 A 
ATOM     16  C   UNL A   1      35.126  24.582  25.453  1.00  0.00     0.018 A 
ATOM     17  O   UNL A   1      33.653  25.974  21.261  1.00  0.00    -0.179 OA
ATOM     18  O   UNL A   1      31.621  24.922  22.361  1.00  0.00    -0.179 OA
ATOM     19  C   UNL A   1      34.308  23.216  23.099  1.00  0.00     0.025 A 
ATOM     20  C   UNL A   1      35.517  23.258  25.215  1.00  0.00     0.001 A 
ATOM     21  C   UNL A   1      35.101  22.578  24.052  1.00  0.00     0.002 A 
ENDBRANCH   6   8
ENDBRANCH   4   6
ENDBRANCH   3   4
ENDBRANCH   2   3
ENDBRANCH   1   2
BRANCH   1  22
ATOM     22  O   UNL A   1      33.056  33.313  26.877  1.00  0.00    -0.458 OA
BRANCH  22  23
ATOM     23  C   UNL A   1      33.446  33.888  28.040  1.00  0.00     0.338 C 
ATOM     24  O   UNL A   1      32.857  34.763  28.655  1.00  0.00    -0.246 OA
BRANCH  23  25
ATOM     25  C   UNL A   1      34.634  33.190  28.567  1.00  0.00     0.060 A 
ATOM     26  C   UNL A   1      34.426  32.063  29.369  1.00  0.00     0.016 A 
ATOM     27  C   UNL A   1      35.929  33.653  28.323  1.00  0.00     0.016 A 
ATOM     28  C   UNL A   1      35.512  31.388  29.923  1.00  0.00     0.010 A 
ATOM     29  C   UNL A   1      37.019  32.984  28.893  1.00  0.00     0.010 A 
ATOM     30  C   UNL A   1      36.815  31.852  29.702  1.00  0.00    -0.014 A 
BRANCH  30  31
ATOM     31  C   UNL A   1      37.950  31.184  30.380  1.00  0.00     0.031 A 
ATOM     32  C   UNL A   1      38.249  31.502  31.816  1.00  0.00     0.074 A 
ATOM     33  C   UNL A   1      38.677  30.261  29.726  1.00  0.00     0.049 A 
ATOM     34  N   UNL A   1      39.210  31.053  32.583  1.00  0.00    -0.248 NA
ATOM     35  C   UNL A   1      37.344  32.454  32.478  1.00  0.00     0.031 C 
ATOM     36  C   UNL A   1      38.448  29.830  28.348  1.00  0.00     0.029 A 
ATOM     37  N   UNL A   1      39.751  29.515  30.139  1.00  0.00    -0.354 N 
ATOM     38  C   UNL A   1      39.029  31.667  33.813  1.00  0.00     0.074 A 
ATOM     39  C   UNL A   1      37.880  32.540  33.687  1.00  0.00     0.031 C 
ATOM     40  C   UNL A   1      39.352  28.889  28.030  1.00  0.00     0.029 A 
ATOM     41  C   UNL A   1      40.243  28.678  29.169  1.00  0.00     0.049 A 
ATOM     42  H   UNL A   1      40.133  29.574  31.044  1.00  0.00     0.167 HD
ATOM     43  C   UNL A   1      39.752  31.512  34.948  1.00  0.00     0.037 A 
ATOM     44  C   UNL A   1      41.304  27.848  29.193  1.00  0.00     0.037 A 
ATOM     45  C   UNL A   1      40.889  30.638  35.075  1.00  0.00     0.049 A 
ATOM     46  C   UNL A   1      42.131  27.743  30.446  1.00  0.00     0.074 A 
ATOM     47  C   UNL A   1      41.689  30.416  36.182  1.00  0.00     0.029 A 
ATOM     48  N   UNL A   1      41.386  29.838  34.056  1.00  0.00    -0.354 N 
ATOM     49  N   UNL A   1      41.961  28.338  31.602  1.00  0.00    -0.248 NA
ATOM     50  C   UNL A   1      43.301  26.856  30.396  1.00  0.00     0.031 C 
ATOM     51  C   UNL A   1      42.693  29.508  35.823  1.00  0.00     0.029 A 
ATOM     52  C   UNL A   1      42.493  29.135  34.504  1.00  0.00     0.049 A 
ATOM     53  H   UNL A   1      41.008  29.780  33.149  1.00  0.00     0.167 HD
ATOM     54  C   UNL A   1      42.986  27.883  32.420  1.00  0.00     0.074 A 
ATOM     55  C   UNL A   1      43.767  26.951  31.634  1.00  0.00     0.031 C 
ATOM     56  C   UNL A   1      43.255  28.209  33.708  1.00  0.00     0.037 A 
BRANCH  43  57
ATOM     57  C   UNL A   1      39.349  32.327  36.140  1.00  0.00     0.064 A 
ATOM     58  C   UNL A   1      39.919  33.581  36.401  1.00  0.00     0.173 A 
ATOM     59  C   UNL A   1      38.356  31.859  37.014  1.00  0.00     0.173 A 
ATOM     60  F   UNL A   1      40.883  34.064  35.601  1.00  0.00    -0.203 F 
ATOM     61  C   UNL A   1      39.524  34.330  37.506  1.00  0.00     0.198 A 
ATOM     62  C   UNL A   1      37.947  32.622  38.104  1.00  0.00     0.198 A 
ATOM     63  F   UNL A   1      37.779  30.667  36.806  1.00  0.00    -0.203 F 
ATOM     64  F   UNL A   1      40.108  35.510  37.758  1.00  0.00    -0.200 F 
ATOM     65  C   UNL A   1      38.535  33.853  38.353  1.00  0.00     0.200 A 
ATOM     66  F   UNL A   1      36.985  32.163  38.918  1.00  0.00    -0.200 F 
ATOM     67  F   UNL A   1      38.151  34.577  39.413  1.00  0.00    -0.200 F 
ENDBRANCH  43  57
BRANCH  44  68
ATOM     68  C   UNL A   1      41.653  27.057  27.986  1.00  0.00     0.064 A 
ATOM     69  C   UNL A   1      41.102  25.788  27.769  1.00  0.00     0.173 A 
ATOM     70  C   UNL A   1      42.553  27.551  27.029  1.00  0.00     0.173 A 
ATOM     71  F   UNL A   1      40.259  25.260  28.669  1.00  0.00    -0.203 F 
ATOM     72  C   UNL A   1      41.445  25.036  26.646  1.00  0.00     0.198 A 
ATOM     73  C   UNL A   1      42.876  26.810  25.895  1.00  0.00     0.198 A 
ATOM     74  F   UNL A   1      43.113  28.758  27.195  1.00  0.00    -0.203 F 
ATOM     75  F   UNL A   1      40.934  23.808  26.483  1.00  0.00    -0.200 F 
ATOM     76  C   UNL A   1      42.327  25.551  25.708  1.00  0.00     0.200 A 
ATOM     77  F   UNL A   1      43.723  27.315  24.987  1.00  0.00    -0.200 F 
ATOM     78  F   UNL A   1      42.655  24.829  24.627  1.00  0.00    -0.200 F 
ENDBRANCH  44  68
BRANCH  56  79
ATOM     79  C   UNL A   1      44.428  27.535  34.354  1.00  0.00     0.064 A 
ATOM     80  C   UNL A   1      45.702  28.123  34.357  1.00  0.00     0.173 A 
ATOM     81  C   UNL A   1      44.269  26.306  35.012  1.00  0.00     0.173 A 
ATOM     82  F   UNL A   1      45.907  29.290  33.729  1.00  0.00    -0.203 F 
ATOM     83  C   UNL A   1      46.777  27.495  34.979  1.00  0.00     0.198 A 
ATOM     84  C   UNL A   1      45.341  25.692  35.653  1.00  0.00     0.198 A 
ATOM     85  F   UNL A   1      43.069  25.705  35.042  1.00  0.00    -0.203 F 
ATOM     86  F   UNL A   1      47.995  28.055  34.936  1.00  0.00    -0.200 F 
ATOM     87  C   UNL A   1      46.595  26.284  35.631  1.00  0.00     0.200 A 
ATOM     88  F   UNL A   1      45.162  24.527  36.291  1.00  0.00    -0.200 F 
ATOM     89  F   UNL A   1      47.631  25.683  36.232  1.00  0.00    -0.200 F 
ENDBRANCH  56  79
ENDBRANCH  30  31
ENDBRANCH  23  25
ENDBRANCH  22  23
ENDBRANCH   1  22
TORSDOF 12
ENDMDL
MODEL 2
REMARK VINA RESULT:     -11.7      4.887     10.470
REMARK SMILES C[C@H](NC1=[NH+]S(=O)(=O)c2ccccc21)C(=O)OCCOC(=O)c1ccc(-c2c3nc(c(-c4c(F)c(F)c(F)c(F)c4F)c4ccc([nH]4)c(-c4c(F)c(F)c(F)c(F)c4F)c4nc(c(-c5c(F)c(F)c(F)c(F)c5F)c5ccc2[nH]5)C=C4)C=C3)cc1
REMARK SMILES IDX 19 1 18 2 17 3 15 4 16 5 2 6 1 7 3 8 4 9 5 11 14 12 6 13
REMARK SMILES IDX 9 15 13 16 7 17 8 18 10 19 12 20 11 21 20 22 21 23 22 24
REMARK SMILES IDX 23 25 24 26 85 27 25 28 84 29 26 30 27 31 28 32 78 33 29 34
REMARK SMILES IDX 83 35 77 36 79 37 30 38 82 39 76 40 75 41 31 43 63 44 43 45
REMARK SMILES IDX 62 46 44 47 47 48 61 49 80 50 45 51 46 52 60 54 81 55 48 56
REMARK SMILES IDX 32 57 33 58 41 59 34 60 35 61 39 62 42 63 36 64 37 65 40 66
REMARK SMILES IDX 38 67 64 68 65 69 73 70 66 71 67 72 71 73 74 74 68 75 69 76
REMARK SMILES IDX 72 77 70 78 49 79 50 80 58 81 51 82 52 83 56 84 59 85 53 86
REMARK SMILES IDX 54 87 57 88 55 89
REMARK H PARENT 3 10 5 14 79 42 47 53
REMARK Flexibility Score: inf
ROOT
ATOM      1  C   UNL A   1      38.997  19.439  25.565  1.00  0.00     0.275 C 
ENDROOT
BRANCH   1   2
ATOM      2  C   UNL A   1      37.663  19.706  24.858  1.00  0.00     0.274 C 
BRANCH   2   3
ATOM      3  O   UNL A   1      37.333  21.109  24.857  1.00  0.00    -0.459 OA
BRANCH   3   4
ATOM      4  C   UNL A   1      36.020  21.417  25.079  1.00  0.00     0.350 C 
ATOM      5  O   UNL A   1      35.288  20.821  25.862  1.00  0.00    -0.247 OA
BRANCH   4   6
ATOM      6  C   UNL A   1      35.544  22.588  24.212  1.00  0.00     0.279 C 
ATOM      7  C   UNL A   1      36.653  22.954  23.230  1.00  0.00     0.071 C 
BRANCH   6   8
ATOM      8  N   UNL A   1      35.175  23.759  25.009  1.00  0.00    -0.260 N 
ATOM      9  C   UNL A   1      33.916  23.963  25.504  1.00  0.00     0.292 C 
ATOM     10  H   UNL A   1      35.867  24.434  25.199  1.00  0.00     0.306 HD
ATOM     11  N   UNL A   1      33.064  23.002  25.718  1.00  0.00    -0.162 N 
ATOM     12  C   UNL A   1      33.411  25.332  25.746  1.00  0.00     0.087 A 
ATOM     13  S   UNL A   1      31.623  23.601  26.228  1.00  0.00     0.329 S 
ATOM     14  H   UNL A   1      33.256  22.046  25.591  1.00  0.00     0.327 HD
ATOM     15  C   UNL A   1      32.079  25.274  26.111  1.00  0.00     0.124 A 
ATOM     16  C   UNL A   1      34.026  26.552  25.532  1.00  0.00     0.018 A 
ATOM     17  O   UNL A   1      31.419  23.311  27.626  1.00  0.00    -0.179 OA
ATOM     18  O   UNL A   1      30.604  23.366  25.222  1.00  0.00    -0.179 OA
ATOM     19  C   UNL A   1      31.281  26.392  26.249  1.00  0.00     0.025 A 
ATOM     20  C   UNL A   1      33.251  27.710  25.682  1.00  0.00     0.001 A 
ATOM     21  C   UNL A   1      31.887  27.629  26.027  1.00  0.00     0.002 A 
ENDBRANCH   6   8
ENDBRANCH   4   6
ENDBRANCH   3   4
ENDBRANCH   2   3
ENDBRANCH   1   2
BRANCH   1  22
ATOM     22  O   UNL A   1      39.720  20.654  25.832  1.00  0.00    -0.458 OA
BRANCH  22  23
ATOM     23  C   UNL A   1      40.416  20.663  26.994  1.00  0.00     0.338 C 
ATOM     24  O   UNL A   1      40.778  19.690  27.636  1.00  0.00    -0.246 OA
BRANCH  23  25
ATOM     25  C   UNL A   1      40.827  22.043  27.317  1.00  0.00     0.060 A 
ATOM     26  C   UNL A   1      40.228  23.086  26.603  1.00  0.00     0.016 A 
ATOM     27  C   UNL A   1      41.817  22.314  28.265  1.00  0.00     0.016 A 
ATOM     28  C   UNL A   1      40.606  24.405  26.842  1.00  0.00     0.010 A 
ATOM     29  C   UNL A   1      42.209  23.639  28.493  1.00  0.00     0.010 A 
ATOM     30  C   UNL A   1      41.610  24.691  27.776  1.00  0.00    -0.014 A 
BRANCH  30  31
ATOM     31  C   UNL A   1      42.072  26.088  27.944  1.00  0.00     0.031 A 
ATOM     32  C   UNL A   1      43.390  26.510  27.365  1.00  0.00     0.074 A 
ATOM     33  C   UNL A   1      41.290  26.986  28.571  1.00  0.00     0.049 A 
ATOM     34  N   UNL A   1      43.989  27.672  27.424  1.00  0.00    -0.248 NA
ATOM     35  C   UNL A   1      44.134  25.485  26.616  1.00  0.00     0.031 C 
ATOM     36  C   UNL A   1      39.968  26.707  29.128  1.00  0.00     0.029 A 
ATOM     37  N   UNL A   1      41.495  28.316  28.835  1.00  0.00    -0.354 N 
ATOM     38  C   UNL A   1      45.179  27.520  26.727  1.00  0.00     0.074 A 
ATOM     39  C   UNL A   1      45.230  26.146  26.271  1.00  0.00     0.031 C 
ATOM     40  C   UNL A   1      39.474  27.835  29.664  1.00  0.00     0.029 A 
ATOM     41  C   UNL A   1      40.460  28.904  29.519  1.00  0.00     0.049 A 
ATOM     42  H   UNL A   1      42.305  28.803  28.562  1.00  0.00     0.167 HD
ATOM     43  C   UNL A   1      46.139  28.444  26.483  1.00  0.00     0.037 A 
ATOM     44  C   UNL A   1      40.332  30.160  29.990  1.00  0.00     0.037 A 
ATOM     45  C   UNL A   1      46.083  29.811  26.930  1.00  0.00     0.049 A 
ATOM     46  C   UNL A   1      41.443  31.150  29.762  1.00  0.00     0.074 A 
ATOM     47  C   UNL A   1      47.008  30.822  26.736  1.00  0.00     0.029 A 
ATOM     48  N   UNL A   1      45.038  30.360  27.660  1.00  0.00    -0.354 N 
ATOM     49  N   UNL A   1      42.571  30.994  29.113  1.00  0.00    -0.248 NA
ATOM     50  C   UNL A   1      41.264  32.490  30.339  1.00  0.00     0.031 C 
ATOM     51  C   UNL A   1      46.540  31.974  27.380  1.00  0.00     0.029 A 
ATOM     52  C   UNL A   1      45.305  31.691  27.940  1.00  0.00     0.049 A 
ATOM     53  H   UNL A   1      44.228  29.876  27.938  1.00  0.00     0.167 HD
ATOM     54  C   UNL A   1      43.225  32.217  29.185  1.00  0.00     0.074 A 
ATOM     55  C   UNL A   1      42.363  33.110  29.929  1.00  0.00     0.031 C 
ATOM     56  C   UNL A   1      44.433  32.566  28.678  1.00  0.00     0.037 A 
BRANCH  43  57
ATOM     57  C   UNL A   1      47.347  27.998  25.717  1.00  0.00     0.064 A 
ATOM     58  C   UNL A   1      48.542  27.652  26.364  1.00  0.00     0.173 A 
ATOM     59  C   UNL A   1      47.298  27.886  24.320  1.00  0.00     0.173 A 
ATOM     60  F   UNL A   1      48.642  27.758  27.698  1.00  0.00    -0.203 F 
ATOM     61  C   UNL A   1      49.652  27.228  25.637  1.00  0.00     0.198 A 
ATOM     62  C   UNL A   1      48.402  27.439  23.599  1.00  0.00     0.198 A 
ATOM     63  F   UNL A   1      46.177  28.202  23.655  1.00  0.00    -0.203 F 
ATOM     64  F   UNL A   1      50.796  26.938  26.272  1.00  0.00    -0.200 F 
ATOM     65  C   UNL A   1      49.578  27.116  24.257  1.00  0.00     0.200 A 
ATOM     66  F   UNL A   1      48.327  27.324  22.265  1.00  0.00    -0.200 F 
ATOM     67  F   UNL A   1      50.645  26.703  23.559  1.00  0.00    -0.200 F 
ENDBRANCH  43  57
BRANCH  44  68
ATOM     68  C   UNL A   1      39.109  30.551  30.735  1.00  0.00     0.064 A 
ATOM     69  C   UNL A   1      38.020  31.139  30.079  1.00  0.00     0.173 A 
ATOM     70  C   UNL A   1      39.007  30.352  32.120  1.00  0.00     0.173 A 
ATOM     71  F   UNL A   1      38.080  31.376  28.760  1.00  0.00    -0.203 F 
ATOM     72  C   UNL A   1      36.879  31.525  30.781  1.00  0.00     0.198 A 
ATOM     73  C   UNL A   1      37.857  30.714  32.817  1.00  0.00     0.198 A 
ATOM     74  F   UNL A   1      40.025  29.798  32.795  1.00  0.00    -0.203 F 
ATOM     75  F   UNL A   1      35.868  32.122  30.137  1.00  0.00    -0.200 F 
ATOM     76  C   UNL A   1      36.797  31.306  32.148  1.00  0.00     0.200 A 
ATOM     77  F   UNL A   1      37.779  30.494  34.137  1.00  0.00    -0.200 F 
ATOM     78  F   UNL A   1      35.699  31.675  32.823  1.00  0.00    -0.200 F 
ENDBRANCH  44  68
BRANCH  56  79
ATOM     79  C   UNL A   1      44.881  33.981  28.892  1.00  0.00     0.064 A 
ATOM     80  C   UNL A   1      45.659  34.344  30.001  1.00  0.00     0.173 A 
ATOM     81  C   UNL A   1      44.563  34.976  27.956  1.00  0.00     0.173 A 
ATOM     82  F   UNL A   1      45.976  33.431  30.931  1.00  0.00    -0.203 F 
ATOM     83  C   UNL A   1      46.086  35.658  30.175  1.00  0.00     0.198 A 
ATOM     84  C   UNL A   1      45.011  36.284  28.121  1.00  0.00     0.198 A 
ATOM     85  F   UNL A   1      43.826  34.678  26.875  1.00  0.00    -0.203 F 
ATOM     86  F   UNL A   1      46.795  35.992  31.263  1.00  0.00    -0.200 F 
ATOM     87  C   UNL A   1      45.766  36.625  29.233  1.00  0.00     0.200 A 
ATOM     88  F   UNL A   1      44.710  37.215  27.205  1.00  0.00    -0.200 F 
ATOM     89  F   UNL A   1      46.181  37.888  29.400  1.00  0.00    -0.200 F 
ENDBRANCH  56  79
ENDBRANCH  30  31
ENDBRANCH  23  25
ENDBRANCH  22  23
ENDBRANCH   1  22
TORSDOF 12
ENDMDL
MODEL 3
REMARK VINA RESULT:     -11.6      1.011      1.669
REMARK SMILES C[C@H](NC1=[NH+]S(=O)(=O)c2ccccc21)C(=O)OCCOC(=O)c1ccc(-c2c3nc(c(-c4c(F)c(F)c(F)c(F)c4F)c4ccc([nH]4)c(-c4c(F)c(F)c(F)c(F)c4F)c4nc(c(-c5c(F)c(F)c(F)c(F)c5F)c5ccc2[nH]5)C=C4)C=C3)cc1
REMARK SMILES IDX 19 1 18 2 17 3 15 4 16 5 2 6 1 7 3 8 4 9 5 11 14 12 6 13
REMARK SMILES IDX 9 15 13 16 7 17 8 18 10 19 12 20 11 21 20 22 21 23 22 24
REMARK SMILES IDX 23 25 24 26 85 27 25 28 84 29 26 30 27 31 28 32 78 33 29 34
REMARK SMILES IDX 83 35 77 36 79 37 30 38 82 39 76 40 75 41 31 43 63 44 43 45
REMARK SMILES IDX 62 46 44 47 47 48 61 49 80 50 45 51 46 52 60 54 81 55 48 56
REMARK SMILES IDX 32 57 33 58 41 59 34 60 35 61 39 62 42 63 36 64 37 65 40 66
REMARK SMILES IDX 38 67 64 68 65 69 73 70 66 71 67 72 71 73 74 74 68 75 69 76
REMARK SMILES IDX 72 77 70 78 49 79 50 80 58 81 51 82 52 83 56 84 59 85 53 86
REMARK SMILES IDX 54 87 57 88 55 89
REMARK H PARENT 3 10 5 14 79 42 47 53
REMARK Flexibility Score: inf
ROOT
ATOM      1  C   UNL A   1      31.678  32.647  27.207  1.00  0.00     0.275 C 
ENDROOT
BRANCH   1   2
ATOM      2  C   UNL A   1      31.643  31.311  26.456  1.00  0.00     0.274 C 
BRANCH   2   3
ATOM      3  O   UNL A   1      32.951  30.710  26.380  1.00  0.00    -0.459 OA
BRANCH   3   4
ATOM      4  C   UNL A   1      33.020  29.501  25.744  1.00  0.00     0.350 C 
ATOM      5  O   UNL A   1      32.599  29.286  24.612  1.00  0.00    -0.247 OA
BRANCH   4   6
ATOM      6  C   UNL A   1      33.665  28.421  26.619  1.00  0.00     0.279 C 
ATOM      7  C   UNL A   1      34.872  29.022  27.331  1.00  0.00     0.071 C 
BRANCH   6   8
ATOM      8  N   UNL A   1      34.074  27.247  25.845  1.00  0.00    -0.260 N 
ATOM      9  C   UNL A   1      33.372  26.073  25.837  1.00  0.00     0.292 C 
ATOM     10  H   UNL A   1      34.894  27.306  25.303  1.00  0.00     0.306 HD
ATOM     11  N   UNL A   1      32.104  25.991  26.117  1.00  0.00    -0.162 N 
ATOM     12  C   UNL A   1      34.056  24.785  25.589  1.00  0.00     0.087 A 
ATOM     13  S   UNL A   1      31.600  24.429  26.101  1.00  0.00     0.329 S 
ATOM     14  H   UNL A   1      31.524  26.762  26.312  1.00  0.00     0.327 HD
ATOM     15  C   UNL A   1      33.163  23.745  25.769  1.00  0.00     0.124 A 
ATOM     16  C   UNL A   1      35.395  24.525  25.358  1.00  0.00     0.018 A 
ATOM     17  O   UNL A   1      30.770  24.175  24.949  1.00  0.00    -0.179 OA
ATOM     18  O   UNL A   1      31.229  24.014  27.441  1.00  0.00    -0.179 OA
ATOM     19  C   UNL A   1      33.535  22.416  25.768  1.00  0.00     0.025 A 
ATOM     20  C   UNL A   1      35.805  23.186  25.330  1.00  0.00     0.001 A 
ATOM     21  C   UNL A   1      34.884  22.140  25.544  1.00  0.00     0.002 A 
ENDBRANCH   6   8
ENDBRANCH   4   6
ENDBRANCH   3   4
ENDBRANCH   2   3
ENDBRANCH   1   2
BRANCH   1  22
ATOM     22  O   UNL A   1      32.930  33.334  27.031  1.00  0.00    -0.458 OA
BRANCH  22  23
ATOM     23  C   UNL A   1      33.391  33.976  28.131  1.00  0.00     0.338 C 
ATOM     24  O   UNL A   1      32.854  34.905  28.714  1.00  0.00    -0.246 OA
BRANCH  23  25
ATOM     25  C   UNL A   1      34.589  33.285  28.644  1.00  0.00     0.060 A 
ATOM     26  C   UNL A   1      34.399  32.119  29.393  1.00  0.00     0.016 A 
ATOM     27  C   UNL A   1      35.876  33.791  28.442  1.00  0.00     0.016 A 
ATOM     28  C   UNL A   1      35.493  31.447  29.933  1.00  0.00     0.010 A 
ATOM     29  C   UNL A   1      36.974  33.125  28.998  1.00  0.00     0.010 A 
ATOM     30  C   UNL A   1      36.787  31.953  29.753  1.00  0.00    -0.014 A 
BRANCH  30  31
ATOM     31  C   UNL A   1      37.929  31.283  30.418  1.00  0.00     0.031 A 
ATOM     32  C   UNL A   1      38.234  31.589  31.855  1.00  0.00     0.074 A 
ATOM     33  C   UNL A   1      38.658  30.371  29.751  1.00  0.00     0.049 A 
ATOM     34  N   UNL A   1      39.201  31.136  32.613  1.00  0.00    -0.248 NA
ATOM     35  C   UNL A   1      37.328  32.529  32.532  1.00  0.00     0.031 C 
ATOM     36  C   UNL A   1      38.424  29.953  28.370  1.00  0.00     0.029 A 
ATOM     37  N   UNL A   1      39.738  29.626  30.151  1.00  0.00    -0.354 N 
ATOM     38  C   UNL A   1      39.024  31.737  33.851  1.00  0.00     0.074 A 
ATOM     39  C   UNL A   1      37.870  32.605  33.739  1.00  0.00     0.031 C 
ATOM     40  C   UNL A   1      39.330  29.019  28.037  1.00  0.00     0.029 A 
ATOM     41  C   UNL A   1      40.229  28.801  29.169  1.00  0.00     0.049 A 
ATOM     42  H   UNL A   1      40.124  29.678  31.055  1.00  0.00     0.167 HD
ATOM     43  C   UNL A   1      39.754  31.574  34.980  1.00  0.00     0.037 A 
ATOM     44  C   UNL A   1      41.294  27.977  29.180  1.00  0.00     0.037 A 
ATOM     45  C   UNL A   1      40.896  30.705  35.092  1.00  0.00     0.049 A 
ATOM     46  C   UNL A   1      42.127  27.863  30.428  1.00  0.00     0.074 A 
ATOM     47  C   UNL A   1      41.703  30.475  36.193  1.00  0.00     0.029 A 
ATOM     48  N   UNL A   1      41.391  29.918  34.062  1.00  0.00    -0.354 N 
ATOM     49  N   UNL A   1      41.961  28.445  31.590  1.00  0.00    -0.248 NA
ATOM     50  C   UNL A   1      43.302  26.983  30.362  1.00  0.00     0.031 C 
ATOM     51  C   UNL A   1      42.709  29.576  35.819  1.00  0.00     0.029 A 
ATOM     52  C   UNL A   1      42.505  29.216  34.497  1.00  0.00     0.049 A 
ATOM     53  H   UNL A   1      41.009  29.866  33.156  1.00  0.00     0.167 HD
ATOM     54  C   UNL A   1      42.992  27.987  32.398  1.00  0.00     0.074 A 
ATOM     55  C   UNL A   1      43.774  27.068  31.599  1.00  0.00     0.031 C 
ATOM     56  C   UNL A   1      43.267  28.302  33.688  1.00  0.00     0.037 A 
BRANCH  43  57
ATOM     57  C   UNL A   1      39.353  32.375  36.182  1.00  0.00     0.064 A 
ATOM     58  C   UNL A   1      39.922  33.627  36.455  1.00  0.00     0.173 A 
ATOM     59  C   UNL A   1      38.364  31.895  37.054  1.00  0.00     0.173 A 
ATOM     60  F   UNL A   1      40.882  34.120  35.659  1.00  0.00    -0.203 F 
ATOM     61  C   UNL A   1      39.528  34.363  37.570  1.00  0.00     0.198 A 
ATOM     62  C   UNL A   1      37.956  32.645  38.154  1.00  0.00     0.198 A 
ATOM     63  F   UNL A   1      37.788  30.704  36.834  1.00  0.00    -0.203 F 
ATOM     64  F   UNL A   1      40.111  35.540  37.834  1.00  0.00    -0.200 F 
ATOM     65  C   UNL A   1      38.543  33.874  38.415  1.00  0.00     0.200 A 
ATOM     66  F   UNL A   1      36.998  32.175  38.965  1.00  0.00    -0.200 F 
ATOM     67  F   UNL A   1      38.161  34.585  39.484  1.00  0.00    -0.200 F 
ENDBRANCH  43  57
BRANCH  44  68
ATOM     68  C   UNL A   1      41.641  27.200  27.963  1.00  0.00     0.064 A 
ATOM     69  C   UNL A   1      41.133  25.910  27.759  1.00  0.00     0.173 A 
ATOM     70  C   UNL A   1      42.494  27.729  26.982  1.00  0.00     0.173 A 
ATOM     71  F   UNL A   1      40.336  25.350  28.682  1.00  0.00    -0.203 F 
ATOM     72  C   UNL A   1      41.475  25.172  26.627  1.00  0.00     0.198 A 
ATOM     73  C   UNL A   1      42.814  27.001  25.839  1.00  0.00     0.198 A 
ATOM     74  F   UNL A   1      43.011  28.956  27.134  1.00  0.00    -0.203 F 
ATOM     75  F   UNL A   1      41.008  23.926  26.476  1.00  0.00    -0.200 F 
ATOM     76  C   UNL A   1      42.310  25.721  25.666  1.00  0.00     0.200 A 
ATOM     77  F   UNL A   1      43.616  27.538  24.909  1.00  0.00    -0.200 F 
ATOM     78  F   UNL A   1      42.637  25.013  24.575  1.00  0.00    -0.200 F 
ENDBRANCH  44  68
BRANCH  56  79
ATOM     79  C   UNL A   1      44.447  27.627  34.321  1.00  0.00     0.064 A 
ATOM     80  C   UNL A   1      44.328  26.376  34.946  1.00  0.00     0.173 A 
ATOM     81  C   UNL A   1      45.718  28.218  34.267  1.00  0.00     0.173 A 
ATOM     82  F   UNL A   1      43.131  25.778  35.036  1.00  0.00    -0.203 F 
ATOM     83  C   UNL A   1      45.436  25.752  35.511  1.00  0.00     0.198 A 
ATOM     84  C   UNL A   1      46.828  27.581  34.813  1.00  0.00     0.198 A 
ATOM     85  F   UNL A   1      45.884  29.411  33.675  1.00  0.00    -0.203 F 
ATOM     86  F   UNL A   1      45.294  24.576  36.139  1.00  0.00    -0.200 F 
ATOM     87  C   UNL A   1      46.686  26.351  35.439  1.00  0.00     0.200 A 
ATOM     88  F   UNL A   1      48.036  28.155  34.734  1.00  0.00    -0.200 F 
ATOM     89  F   UNL A   1      47.752  25.747  35.981  1.00  0.00    -0.200 F 
ENDBRANCH  56  79
ENDBRANCH  30  31
ENDBRANCH  23  25
ENDBRANCH  22  23
ENDBRANCH   1  22
TORSDOF 12
ENDMDL
