MODEL 1
REMARK VINA RESULT:     -12.9      0.000      0.000
REMARK SMILES CC[C@H](C)N1C(=O)c2ccccc2[C@@H](C(=O)OCCOC(=O)c2ccc(-c3c4nc(c(-c5c(F)c(F)c(F)c(F)c5F)c5ccc([nH]5)c(-c5c(F)c(F)c(F)c(F)c5F)c5nc(c(-c6c(F)c(F)c(F)c(F)c6F)c6ccc3[nH]6)C=C5)C=C4)cc2)C12CCCCC2
REMARK SMILES IDX 18 1 17 2 15 3 16 4 14 5 5 6 6 7 86 8 7 9 8 10 87 11 91 12
REMARK SMILES IDX 9 13 13 14 88 15 90 16 10 17 12 18 89 19 11 20 3 21 4 22
REMARK SMILES IDX 2 23 1 24 19 25 20 26 21 27 22 28 23 29 24 30 85 31 25 32
REMARK SMILES IDX 84 33 26 34 27 35 28 36 78 37 29 38 83 39 77 40 79 41 30 42
REMARK SMILES IDX 82 43 76 44 75 45 31 47 63 48 43 49 62 50 44 51 47 52 61 53
REMARK SMILES IDX 80 54 45 55 46 56 60 58 81 59 48 60 32 61 33 62 41 63 34 64
REMARK SMILES IDX 35 65 39 66 42 67 36 68 37 69 40 70 38 71 64 72 65 73 73 74
REMARK SMILES IDX 66 75 67 76 71 77 74 78 68 79 69 80 72 81 70 82 49 83 50 84
REMARK SMILES IDX 58 85 51 86 52 87 56 88 59 89 53 90 54 91 57 92 55 93
REMARK H PARENT 79 46 47 57
REMARK Flexibility Score: inf
ROOT
ATOM      1  C   UNL A   1      31.681  28.903  27.626  1.00  0.00     0.274 C 
ENDROOT
BRANCH   1   2
ATOM      2  O   UNL A   1      32.580  27.845  27.198  1.00  0.00    -0.462 OA
BRANCH   2   3
ATOM      3  C   UNL A   1      32.024  26.830  26.501  1.00  0.00     0.315 C 
ATOM      4  O   UNL A   1      30.867  26.459  26.704  1.00  0.00    -0.251 OA
BRANCH   3   5
ATOM      5  C   UNL A   1      32.978  25.985  25.630  1.00  0.00     0.156 C 
ATOM      6  N   UNL A   1      33.834  23.983  24.331  1.00  0.00    -0.329 N 
ATOM      7  C   UNL A   1      33.686  24.626  23.086  1.00  0.00     0.254 C 
ATOM      8  C   UNL A   1      32.796  24.405  25.442  1.00  0.00     0.061 C 
ATOM      9  O   UNL A   1      33.894  24.095  22.001  1.00  0.00    -0.269 OA
ATOM     10  C   UNL A   1      33.448  26.087  23.118  1.00  0.00     0.044 A 
ATOM     11  C   UNL A   1      31.387  24.019  24.883  1.00  0.00     0.030 C 
ATOM     12  C   UNL A   1      33.057  23.557  26.713  1.00  0.00     0.030 C 
ATOM     13  C   UNL A   1      33.653  26.806  21.924  1.00  0.00     0.014 A 
ATOM     14  C   UNL A   1      33.209  26.758  24.317  1.00  0.00    -0.019 A 
ATOM     15  C   UNL A   1      30.278  23.727  25.898  1.00  0.00     0.002 C 
ATOM     16  C   UNL A   1      31.978  22.953  27.597  1.00  0.00     0.002 C 
ATOM     17  C   UNL A   1      33.658  28.198  21.914  1.00  0.00     0.001 A 
ATOM     18  C   UNL A   1      33.265  28.173  24.290  1.00  0.00     0.005 A 
ATOM     19  C   UNL A   1      30.654  22.680  26.923  1.00  0.00     0.000 C 
ATOM     20  C   UNL A   1      33.478  28.883  23.105  1.00  0.00     0.000 A 
BRANCH   6  21
ATOM     21  C   UNL A   1      35.157  23.239  24.462  1.00  0.00     0.082 C 
ATOM     22  C   UNL A   1      36.286  23.697  25.404  1.00  0.00     0.031 C 
BRANCH  21  23
ATOM     23  C   UNL A   1      35.023  21.696  24.634  1.00  0.00     0.021 C 
ATOM     24  C   UNL A   1      33.671  21.117  24.251  1.00  0.00     0.006 C 
ENDBRANCH  21  23
ENDBRANCH   6  21
ENDBRANCH   3   5
ENDBRANCH   2   3
ENDBRANCH   1   2
BRANCH   1  25
ATOM     25  C   UNL A   1      31.778  30.207  26.814  1.00  0.00     0.275 C 
BRANCH  25  26
ATOM     26  O   UNL A   1      33.138  30.553  26.469  1.00  0.00    -0.458 OA
BRANCH  26  27
ATOM     27  C   UNL A   1      33.678  31.474  27.294  1.00  0.00     0.338 C 
ATOM     28  O   UNL A   1      33.134  32.517  27.626  1.00  0.00    -0.246 OA
BRANCH  27  29
ATOM     29  C   UNL A   1      34.961  31.053  27.874  1.00  0.00     0.060 A 
ATOM     30  C   UNL A   1      35.201  29.710  28.141  1.00  0.00     0.016 A 
ATOM     31  C   UNL A   1      35.982  31.998  28.051  1.00  0.00     0.016 A 
ATOM     32  C   UNL A   1      36.439  29.332  28.668  1.00  0.00     0.010 A 
ATOM     33  C   UNL A   1      37.205  31.631  28.593  1.00  0.00     0.010 A 
ATOM     34  C   UNL A   1      37.426  30.297  28.934  1.00  0.00    -0.014 A 
BRANCH  34  35
ATOM     35  C   UNL A   1      38.665  29.926  29.641  1.00  0.00     0.031 A 
ATOM     36  C   UNL A   1      38.909  30.461  31.019  1.00  0.00     0.074 A 
ATOM     37  C   UNL A   1      39.559  29.120  29.044  1.00  0.00     0.049 A 
ATOM     38  N   UNL A   1      39.831  30.126  31.883  1.00  0.00    -0.248 NA
ATOM     39  C   UNL A   1      38.004  31.526  31.486  1.00  0.00     0.031 C 
ATOM     40  C   UNL A   1      39.460  28.624  27.672  1.00  0.00     0.029 A 
ATOM     41  N   UNL A   1      40.719  28.570  29.523  1.00  0.00    -0.354 N 
ATOM     42  C   UNL A   1      39.592  30.906  33.006  1.00  0.00     0.074 A 
ATOM     43  C   UNL A   1      38.491  31.788  32.690  1.00  0.00     0.031 C 
ATOM     44  C   UNL A   1      40.501  27.808  27.431  1.00  0.00     0.029 A 
ATOM     45  C   UNL A   1      41.324  27.718  28.634  1.00  0.00     0.049 A 
ATOM     46  H   UNL A   1      41.082  28.768  30.416  1.00  0.00     0.167 HD
ATOM     47  C   UNL A   1      40.214  30.855  34.206  1.00  0.00     0.037 A 
ATOM     48  C   UNL A   1      42.399  26.925  28.798  1.00  0.00     0.037 A 
ATOM     49  C   UNL A   1      41.313  29.976  34.500  1.00  0.00     0.049 A 
ATOM     50  C   UNL A   1      43.071  26.878  30.144  1.00  0.00     0.074 A 
ATOM     51  C   UNL A   1      41.985  29.802  35.695  1.00  0.00     0.029 A 
ATOM     52  N   UNL A   1      41.905  29.128  33.575  1.00  0.00    -0.354 N 
ATOM     53  N   UNL A   1      42.767  27.525  31.243  1.00  0.00    -0.248 NA
ATOM     54  C   UNL A   1      44.223  25.977  30.279  1.00  0.00     0.031 C 
ATOM     55  C   UNL A   1      43.009  28.872  35.483  1.00  0.00     0.029 A 
ATOM     56  C   UNL A   1      42.948  28.440  34.166  1.00  0.00     0.049 A 
ATOM     57  H   UNL A   1      41.623  29.031  32.636  1.00  0.00     0.167 HD
ATOM     58  C   UNL A   1      43.670  27.095  32.204  1.00  0.00     0.074 A 
ATOM     59  C   UNL A   1      44.528  26.120  31.562  1.00  0.00     0.031 C 
ATOM     60  C   UNL A   1      43.784  27.474  33.501  1.00  0.00     0.037 A 
BRANCH  47  61
ATOM     61  C   UNL A   1      39.693  31.743  35.295  1.00  0.00     0.064 A 
ATOM     62  C   UNL A   1      38.697  31.295  36.178  1.00  0.00     0.173 A 
ATOM     63  C   UNL A   1      40.220  33.026  35.495  1.00  0.00     0.173 A 
ATOM     64  F   UNL A   1      38.153  30.078  36.021  1.00  0.00    -0.203 F 
ATOM     65  C   UNL A   1      38.236  32.106  37.209  1.00  0.00     0.198 A 
ATOM     66  C   UNL A   1      39.773  33.826  36.544  1.00  0.00     0.198 A 
ATOM     67  F   UNL A   1      41.175  33.499  34.682  1.00  0.00    -0.203 F 
ATOM     68  F   UNL A   1      37.260  31.670  38.018  1.00  0.00    -0.200 F 
ATOM     69  C   UNL A   1      38.779  33.369  37.397  1.00  0.00     0.200 A 
ATOM     70  F   UNL A   1      40.304  35.043  36.730  1.00  0.00    -0.200 F 
ATOM     71  F   UNL A   1      38.342  34.145  38.397  1.00  0.00    -0.200 F 
ENDBRANCH  47  61
BRANCH  48  72
ATOM     72  C   UNL A   1      42.837  26.045  27.687  1.00  0.00     0.064 A 
ATOM     73  C   UNL A   1      42.264  24.779  27.507  1.00  0.00     0.173 A 
ATOM     74  C   UNL A   1      43.810  26.461  26.767  1.00  0.00     0.173 A 
ATOM     75  F   UNL A   1      41.339  24.335  28.371  1.00  0.00    -0.203 F 
ATOM     76  C   UNL A   1      42.655  23.955  26.455  1.00  0.00     0.198 A 
ATOM     77  C   UNL A   1      44.186  25.643  25.702  1.00  0.00     0.198 A 
ATOM     78  F   UNL A   1      44.382  27.667  26.891  1.00  0.00    -0.203 F 
ATOM     79  F   UNL A   1      42.110  22.737  26.322  1.00  0.00    -0.200 F 
ATOM     80  C   UNL A   1      43.611  24.390  25.549  1.00  0.00     0.200 A 
ATOM     81  F   UNL A   1      45.101  26.071  24.822  1.00  0.00    -0.200 F 
ATOM     82  F   UNL A   1      43.981  23.600  24.531  1.00  0.00    -0.200 F 
ENDBRANCH  48  72
BRANCH  60  83
ATOM     83  C   UNL A   1      44.868  26.833  34.314  1.00  0.00     0.064 A 
ATOM     84  C   UNL A   1      46.126  27.436  34.448  1.00  0.00     0.173 A 
ATOM     85  C   UNL A   1      44.616  25.656  35.034  1.00  0.00     0.173 A 
ATOM     86  F   UNL A   1      46.414  28.557  33.771  1.00  0.00    -0.203 F 
ATOM     87  C   UNL A   1      47.101  26.875  35.267  1.00  0.00     0.198 A 
ATOM     88  C   UNL A   1      45.586  25.111  35.871  1.00  0.00     0.198 A 
ATOM     89  F   UNL A   1      43.423  25.050  34.944  1.00  0.00    -0.203 F 
ATOM     90  F   UNL A   1      48.308  27.451  35.361  1.00  0.00    -0.200 F 
ATOM     91  C   UNL A   1      46.827  25.719  35.985  1.00  0.00     0.200 A 
ATOM     92  F   UNL A   1      45.315  24.004  36.575  1.00  0.00    -0.200 F 
ATOM     93  F   UNL A   1      47.761  25.190  36.787  1.00  0.00    -0.200 F 
ENDBRANCH  60  83
ENDBRANCH  34  35
ENDBRANCH  27  29
ENDBRANCH  26  27
ENDBRANCH  25  26
ENDBRANCH   1  25
TORSDOF 13
ENDMDL
MODEL 2
REMARK VINA RESULT:     -12.8      4.089      9.604
REMARK SMILES CC[C@H](C)N1C(=O)c2ccccc2[C@@H](C(=O)OCCOC(=O)c2ccc(-c3c4nc(c(-c5c(F)c(F)c(F)c(F)c5F)c5ccc([nH]5)c(-c5c(F)c(F)c(F)c(F)c5F)c5nc(c(-c6c(F)c(F)c(F)c(F)c6F)c6ccc3[nH]6)C=C5)C=C4)cc2)C12CCCCC2
REMARK SMILES IDX 18 1 17 2 15 3 16 4 14 5 5 6 6 7 86 8 7 9 8 10 87 11 91 12
REMARK SMILES IDX 9 13 13 14 88 15 90 16 10 17 12 18 89 19 11 20 3 21 4 22
REMARK SMILES IDX 2 23 1 24 19 25 20 26 21 27 22 28 23 29 24 30 85 31 25 32
REMARK SMILES IDX 84 33 26 34 27 35 28 36 78 37 29 38 83 39 77 40 79 41 30 42
REMARK SMILES IDX 82 43 76 44 75 45 31 47 63 48 43 49 62 50 44 51 47 52 61 53
REMARK SMILES IDX 80 54 45 55 46 56 60 58 81 59 48 60 32 61 33 62 41 63 34 64
REMARK SMILES IDX 35 65 39 66 42 67 36 68 37 69 40 70 38 71 64 72 65 73 73 74
REMARK SMILES IDX 66 75 67 76 71 77 74 78 68 79 69 80 72 81 70 82 49 83 50 84
REMARK SMILES IDX 58 85 51 86 52 87 56 88 59 89 53 90 54 91 57 92 55 93
REMARK H PARENT 79 46 47 57
REMARK Flexibility Score: inf
ROOT
ATOM      1  C   UNL A   1      37.032  22.343  23.596  1.00  0.00     0.274 C 
ENDROOT
BRANCH   1   2
ATOM      2  O   UNL A   1      36.364  23.461  24.240  1.00  0.00    -0.462 OA
BRANCH   2   3
ATOM      3  C   UNL A   1      35.105  23.726  23.829  1.00  0.00     0.315 C 
ATOM      4  O   UNL A   1      34.737  23.504  22.674  1.00  0.00    -0.251 OA
BRANCH   3   5
ATOM      5  C   UNL A   1      34.226  24.561  24.785  1.00  0.00     0.156 C 
ATOM      6  N   UNL A   1      32.318  26.049  25.538  1.00  0.00    -0.329 N 
ATOM      7  C   UNL A   1      31.709  25.025  26.291  1.00  0.00     0.254 C 
ATOM      8  C   UNL A   1      33.105  25.575  24.256  1.00  0.00     0.061 C 
ATOM      9  O   UNL A   1      30.637  25.136  26.875  1.00  0.00    -0.269 OA
ATOM     10  C   UNL A   1      32.521  23.812  26.538  1.00  0.00     0.044 A 
ATOM     11  C   UNL A   1      32.048  24.883  23.333  1.00  0.00     0.030 C 
ATOM     12  C   UNL A   1      33.645  26.824  23.514  1.00  0.00     0.030 C 
ATOM     13  C   UNL A   1      32.098  22.944  27.564  1.00  0.00     0.014 A 
ATOM     14  C   UNL A   1      33.753  23.622  25.912  1.00  0.00    -0.019 A 
ATOM     15  C   UNL A   1      32.324  24.869  21.827  1.00  0.00     0.002 C 
ATOM     16  C   UNL A   1      33.648  27.011  22.005  1.00  0.00     0.002 C 
ATOM     17  C   UNL A   1      32.908  21.901  28.002  1.00  0.00     0.001 A 
ATOM     18  C   UNL A   1      34.578  22.583  26.407  1.00  0.00     0.005 A 
ATOM     19  C   UNL A   1      32.595  26.239  21.246  1.00  0.00     0.000 C 
ATOM     20  C   UNL A   1      34.159  21.730  27.431  1.00  0.00     0.000 A 
BRANCH   6  21
ATOM     21  C   UNL A   1      32.363  27.383  26.275  1.00  0.00     0.082 C 
ATOM     22  C   UNL A   1      33.679  28.092  26.643  1.00  0.00     0.031 C 
BRANCH  21  23
ATOM     23  C   UNL A   1      31.404  28.473  25.710  1.00  0.00     0.021 C 
ATOM     24  C   UNL A   1      32.089  29.692  25.114  1.00  0.00     0.006 C 
ENDBRANCH  21  23
ENDBRANCH   6  21
ENDBRANCH   3   5
ENDBRANCH   2   3
ENDBRANCH   1   2
BRANCH   1  25
ATOM     25  C   UNL A   1      37.394  21.175  24.531  1.00  0.00     0.275 C 
BRANCH  25  26
ATOM     26  O   UNL A   1      37.729  21.610  25.868  1.00  0.00    -0.458 OA
BRANCH  26  27
ATOM     27  C   UNL A   1      39.050  21.536  26.135  1.00  0.00     0.338 C 
ATOM     28  O   UNL A   1      39.755  20.566  25.898  1.00  0.00    -0.246 OA
BRANCH  27  29
ATOM     29  C   UNL A   1      39.612  22.797  26.638  1.00  0.00     0.060 A 
ATOM     30  C   UNL A   1      39.088  24.014  26.218  1.00  0.00     0.016 A 
ATOM     31  C   UNL A   1      40.603  22.763  27.630  1.00  0.00     0.016 A 
ATOM     32  C   UNL A   1      39.623  25.198  26.732  1.00  0.00     0.010 A 
ATOM     33  C   UNL A   1      41.151  23.937  28.128  1.00  0.00     0.010 A 
ATOM     34  C   UNL A   1      40.683  25.161  27.654  1.00  0.00    -0.014 A 
BRANCH  34  35
ATOM     35  C   UNL A   1      41.357  26.405  28.070  1.00  0.00     0.031 A 
ATOM     36  C   UNL A   1      42.774  26.646  27.644  1.00  0.00     0.074 A 
ATOM     37  C   UNL A   1      40.701  27.300  28.826  1.00  0.00     0.049 A 
ATOM     38  N   UNL A   1      43.490  27.735  27.742  1.00  0.00    -0.248 NA
ATOM     39  C   UNL A   1      43.486  25.508  27.037  1.00  0.00     0.031 C 
ATOM     40  C   UNL A   1      39.357  27.117  29.371  1.00  0.00     0.029 A 
ATOM     41  N   UNL A   1      41.075  28.547  29.254  1.00  0.00    -0.354 N 
ATOM     42  C   UNL A   1      44.718  27.426  27.175  1.00  0.00     0.074 A 
ATOM     43  C   UNL A   1      44.682  26.029  26.806  1.00  0.00     0.031 C 
ATOM     44  C   UNL A   1      39.001  28.232  30.032  1.00  0.00     0.029 A 
ATOM     45  C   UNL A   1      40.087  29.205  29.943  1.00  0.00     0.049 A 
ATOM     46  H   UNL A   1      41.965  28.931  29.084  1.00  0.00     0.167 HD
ATOM     47  C   UNL A   1      45.764  28.252  26.946  1.00  0.00     0.037 A 
ATOM     48  C   UNL A   1      40.057  30.467  30.406  1.00  0.00     0.037 A 
ATOM     49  C   UNL A   1      45.786  29.638  27.327  1.00  0.00     0.049 A 
ATOM     50  C   UNL A   1      41.229  31.372  30.135  1.00  0.00     0.074 A 
ATOM     51  C   UNL A   1      46.770  30.582  27.100  1.00  0.00     0.029 A 
ATOM     52  N   UNL A   1      44.770  30.272  28.028  1.00  0.00    -0.354 N 
ATOM     53  N   UNL A   1      42.340  31.114  29.488  1.00  0.00    -0.248 NA
ATOM     54  C   UNL A   1      41.134  32.748  30.639  1.00  0.00     0.031 C 
ATOM     55  C   UNL A   1      46.363  31.782  27.695  1.00  0.00     0.029 A 
ATOM     56  C   UNL A   1      45.110  31.593  28.259  1.00  0.00     0.049 A 
ATOM     57  H   UNL A   1      43.931  29.845  28.317  1.00  0.00     0.167 HD
ATOM     58  C   UNL A   1      43.066  32.296  29.487  1.00  0.00     0.074 A 
ATOM     59  C   UNL A   1      42.263  33.279  30.186  1.00  0.00     0.031 C 
ATOM     60  C   UNL A   1      44.289  32.547  28.957  1.00  0.00     0.037 A 
BRANCH  47  61
ATOM     61  C   UNL A   1      46.948  27.689  26.219  1.00  0.00     0.064 A 
ATOM     62  C   UNL A   1      47.015  27.719  24.817  1.00  0.00     0.173 A 
ATOM     63  C   UNL A   1      48.042  27.162  26.919  1.00  0.00     0.173 A 
ATOM     64  F   UNL A   1      45.989  28.204  24.102  1.00  0.00    -0.203 F 
ATOM     65  C   UNL A   1      48.128  27.226  24.143  1.00  0.00     0.198 A 
ATOM     66  C   UNL A   1      49.163  26.691  26.241  1.00  0.00     0.198 A 
ATOM     67  F   UNL A   1      48.028  27.112  28.259  1.00  0.00    -0.203 F 
ATOM     68  F   UNL A   1      48.155  27.234  22.803  1.00  0.00    -0.200 F 
ATOM     69  C   UNL A   1      49.204  26.718  24.855  1.00  0.00     0.200 A 
ATOM     70  F   UNL A   1      50.208  26.208  26.930  1.00  0.00    -0.200 F 
ATOM     71  F   UNL A   1      50.279  26.254  24.204  1.00  0.00    -0.200 F 
ENDBRANCH  47  61
BRANCH  48  72
ATOM     72  C   UNL A   1      38.837  30.969  31.086  1.00  0.00     0.064 A 
ATOM     73  C   UNL A   1      37.775  31.507  30.347  1.00  0.00     0.173 A 
ATOM     74  C   UNL A   1      38.693  30.893  32.479  1.00  0.00     0.173 A 
ATOM     75  F   UNL A   1      37.874  31.612  29.013  1.00  0.00    -0.203 F 
ATOM     76  C   UNL A   1      36.619  31.962  30.975  1.00  0.00     0.198 A 
ATOM     77  C   UNL A   1      37.527  31.330  33.104  1.00  0.00     0.198 A 
ATOM     78  F   UNL A   1      39.678  30.379  33.229  1.00  0.00    -0.203 F 
ATOM     79  F   UNL A   1      35.629  32.498  30.246  1.00  0.00    -0.200 F 
ATOM     80  C   UNL A   1      36.492  31.867  32.353  1.00  0.00     0.200 A 
ATOM     81  F   UNL A   1      37.403  31.226  34.434  1.00  0.00    -0.200 F 
ATOM     82  F   UNL A   1      35.375  32.297  32.956  1.00  0.00    -0.200 F 
ENDBRANCH  48  72
BRANCH  60  83
ATOM     83  C   UNL A   1      44.833  33.935  29.109  1.00  0.00     0.064 A 
ATOM     84  C   UNL A   1      45.654  34.279  30.192  1.00  0.00     0.173 A 
ATOM     85  C   UNL A   1      44.605  34.902  28.119  1.00  0.00     0.173 A 
ATOM     86  F   UNL A   1      45.892  33.390  31.167  1.00  0.00    -0.203 F 
ATOM     87  C   UNL A   1      46.219  35.547  30.284  1.00  0.00     0.198 A 
ATOM     88  C   UNL A   1      45.191  36.161  28.202  1.00  0.00     0.198 A 
ATOM     89  F   UNL A   1      43.834  34.615  27.059  1.00  0.00    -0.203 F 
ATOM     90  F   UNL A   1      46.979  35.865  31.341  1.00  0.00    -0.200 F 
ATOM     91  C   UNL A   1      45.995  36.483  29.285  1.00  0.00     0.200 A 
ATOM     92  F   UNL A   1      44.986  37.060  27.229  1.00  0.00    -0.200 F 
ATOM     93  F   UNL A   1      46.554  37.698  29.366  1.00  0.00    -0.200 F 
ENDBRANCH  60  83
ENDBRANCH  34  35
ENDBRANCH  27  29
ENDBRANCH  26  27
ENDBRANCH  25  26
ENDBRANCH   1  25
TORSDOF 13
ENDMDL
MODEL 3
REMARK VINA RESULT:     -12.4      1.197      2.836
REMARK SMILES CC[C@H](C)N1C(=O)c2ccccc2[C@@H](C(=O)OCCOC(=O)c2ccc(-c3c4nc(c(-c5c(F)c(F)c(F)c(F)c5F)c5ccc([nH]5)c(-c5c(F)c(F)c(F)c(F)c5F)c5nc(c(-c6c(F)c(F)c(F)c(F)c6F)c6ccc3[nH]6)C=C5)C=C4)cc2)C12CCCCC2
REMARK SMILES IDX 18 1 17 2 15 3 16 4 14 5 5 6 6 7 86 8 7 9 8 10 87 11 91 12
REMARK SMILES IDX 9 13 13 14 88 15 90 16 10 17 12 18 89 19 11 20 3 21 4 22
REMARK SMILES IDX 2 23 1 24 19 25 20 26 21 27 22 28 23 29 24 30 85 31 25 32
REMARK SMILES IDX 84 33 26 34 27 35 28 36 78 37 29 38 83 39 77 40 79 41 30 42
REMARK SMILES IDX 82 43 76 44 75 45 31 47 63 48 43 49 62 50 44 51 47 52 61 53
REMARK SMILES IDX 80 54 45 55 46 56 60 58 81 59 48 60 32 61 33 62 41 63 34 64
REMARK SMILES IDX 35 65 39 66 42 67 36 68 37 69 40 70 38 71 64 72 65 73 73 74
REMARK SMILES IDX 66 75 67 76 71 77 74 78 68 79 69 80 72 81 70 82 49 83 50 84
REMARK SMILES IDX 58 85 51 86 52 87 56 88 59 89 53 90 54 91 57 92 55 93
REMARK H PARENT 79 46 47 57
REMARK Flexibility Score: inf
ROOT
ATOM      1  C   UNL A   1      33.957  28.490  23.881  1.00  0.00     0.274 C 
ENDROOT
BRANCH   1   2
ATOM      2  O   UNL A   1      33.926  27.078  24.221  1.00  0.00    -0.462 OA
BRANCH   2   3
ATOM      3  C   UNL A   1      33.774  26.216  23.193  1.00  0.00     0.315 C 
ATOM      4  O   UNL A   1      34.028  26.538  22.031  1.00  0.00    -0.251 OA
BRANCH   3   5
ATOM      5  C   UNL A   1      33.021  24.903  23.497  1.00  0.00     0.156 C 
ATOM      6  N   UNL A   1      32.575  22.619  24.502  1.00  0.00    -0.329 N 
ATOM      7  C   UNL A   1      31.545  23.098  25.336  1.00  0.00     0.254 C 
ATOM      8  C   UNL A   1      33.732  23.647  24.191  1.00  0.00     0.061 C 
ATOM      9  O   UNL A   1      30.948  22.418  26.163  1.00  0.00    -0.269 OA
ATOM     10  C   UNL A   1      31.035  24.458  25.045  1.00  0.00     0.044 A 
ATOM     11  C   UNL A   1      34.375  24.000  25.572  1.00  0.00     0.030 C 
ATOM     12  C   UNL A   1      34.807  22.938  23.328  1.00  0.00     0.030 C 
ATOM     13  C   UNL A   1      29.794  24.820  25.604  1.00  0.00     0.014 A 
ATOM     14  C   UNL A   1      31.661  25.285  24.113  1.00  0.00    -0.019 A 
ATOM     15  C   UNL A   1      35.838  24.453  25.577  1.00  0.00     0.002 C 
ATOM     16  C   UNL A   1      36.309  23.098  23.499  1.00  0.00     0.002 C 
ATOM     17  C   UNL A   1      29.145  25.990  25.217  1.00  0.00     0.001 A 
ATOM     18  C   UNL A   1      30.960  26.444  23.701  1.00  0.00     0.005 A 
ATOM     19  C   UNL A   1      36.774  23.489  24.881  1.00  0.00     0.000 C 
ATOM     20  C   UNL A   1      29.724  26.796  24.250  1.00  0.00     0.000 A 
BRANCH   6  21
ATOM     21  C   UNL A   1      32.219  21.309  23.809  1.00  0.00     0.082 C 
ATOM     22  C   UNL A   1      32.026  21.194  22.285  1.00  0.00     0.031 C 
BRANCH  21  23
ATOM     23  C   UNL A   1      33.074  20.084  24.251  1.00  0.00     0.021 C 
ATOM     24  C   UNL A   1      33.694  20.192  25.634  1.00  0.00     0.006 C 
ENDBRANCH  21  23
ENDBRANCH   6  21
ENDBRANCH   3   5
ENDBRANCH   2   3
ENDBRANCH   1   2
BRANCH   1  25
ATOM     25  C   UNL A   1      32.929  29.362  24.625  1.00  0.00     0.275 C 
BRANCH  25  26
ATOM     26  O   UNL A   1      33.040  29.254  26.062  1.00  0.00    -0.458 OA
BRANCH  26  27
ATOM     27  C   UNL A   1      33.404  30.411  26.654  1.00  0.00     0.338 C 
ATOM     28  O   UNL A   1      32.738  31.436  26.651  1.00  0.00    -0.246 OA
BRANCH  27  29
ATOM     29  C   UNL A   1      34.649  30.300  27.428  1.00  0.00     0.060 A 
ATOM     30  C   UNL A   1      35.452  31.418  27.626  1.00  0.00     0.016 A 
ATOM     31  C   UNL A   1      34.964  29.088  28.059  1.00  0.00     0.016 A 
ATOM     32  C   UNL A   1      36.617  31.292  28.387  1.00  0.00     0.010 A 
ATOM     33  C   UNL A   1      36.130  28.953  28.798  1.00  0.00     0.010 A 
ATOM     34  C   UNL A   1      36.979  30.050  28.937  1.00  0.00    -0.014 A 
BRANCH  34  35
ATOM     35  C   UNL A   1      38.286  29.876  29.598  1.00  0.00     0.031 A 
ATOM     36  C   UNL A   1      38.505  30.478  30.953  1.00  0.00     0.074 A 
ATOM     37  C   UNL A   1      39.261  29.189  28.980  1.00  0.00     0.049 A 
ATOM     38  N   UNL A   1      39.498  30.300  31.783  1.00  0.00    -0.248 NA
ATOM     39  C   UNL A   1      37.477  31.416  31.435  1.00  0.00     0.031 C 
ATOM     40  C   UNL A   1      39.180  28.647  27.625  1.00  0.00     0.029 A 
ATOM     41  N   UNL A   1      40.505  28.822  29.421  1.00  0.00    -0.354 N 
ATOM     42  C   UNL A   1      39.196  31.068  32.898  1.00  0.00     0.074 A 
ATOM     43  C   UNL A   1      37.969  31.777  32.611  1.00  0.00     0.031 C 
ATOM     44  C   UNL A   1      40.315  27.980  27.357  1.00  0.00     0.029 A 
ATOM     45  C   UNL A   1      41.190  28.040  28.525  1.00  0.00     0.049 A 
ATOM     46  H   UNL A   1      40.871  29.092  30.293  1.00  0.00     0.167 HD
ATOM     47  C   UNL A   1      39.865  31.138  34.071  1.00  0.00     0.037 A 
ATOM     48  C   UNL A   1      42.372  27.411  28.660  1.00  0.00     0.037 A 
ATOM     49  C   UNL A   1      41.089  30.432  34.337  1.00  0.00     0.049 A 
ATOM     50  C   UNL A   1      43.097  27.496  29.977  1.00  0.00     0.074 A 
ATOM     51  C   UNL A   1      41.825  30.386  35.505  1.00  0.00     0.029 A 
ATOM     52  N   UNL A   1      41.758  29.651  33.405  1.00  0.00    -0.354 N 
ATOM     53  N   UNL A   1      42.747  28.123  31.074  1.00  0.00    -0.248 NA
ATOM     54  C   UNL A   1      44.369  26.770  30.081  1.00  0.00     0.031 C 
ATOM     55  C   UNL A   1      42.962  29.604  35.270  1.00  0.00     0.029 A 
ATOM     56  C   UNL A   1      42.911  29.133  33.966  1.00  0.00     0.049 A 
ATOM     57  H   UNL A   1      41.457  29.490  32.481  1.00  0.00     0.167 HD
ATOM     58  C   UNL A   1      43.739  27.851  32.004  1.00  0.00     0.074 A 
ATOM     59  C   UNL A   1      44.701  26.990  31.346  1.00  0.00     0.031 C 
ATOM     60  C   UNL A   1      43.849  28.277  33.287  1.00  0.00     0.037 A 
BRANCH  47  61
ATOM     61  C   UNL A   1      39.267  31.973  35.163  1.00  0.00     0.064 A 
ATOM     62  C   UNL A   1      38.476  31.390  36.166  1.00  0.00     0.173 A 
ATOM     63  C   UNL A   1      39.520  33.349  35.242  1.00  0.00     0.173 A 
ATOM     64  F   UNL A   1      38.196  30.078  36.129  1.00  0.00    -0.203 F 
ATOM     65  C   UNL A   1      37.947  32.159  37.198  1.00  0.00     0.198 A 
ATOM     66  C   UNL A   1      39.008  34.110  36.290  1.00  0.00     0.198 A 
ATOM     67  F   UNL A   1      40.272  33.952  34.310  1.00  0.00    -0.203 F 
ATOM     68  F   UNL A   1      37.167  31.586  38.126  1.00  0.00    -0.200 F 
ATOM     69  C   UNL A   1      38.219  33.517  37.264  1.00  0.00     0.200 A 
ATOM     70  F   UNL A   1      39.279  35.422  36.357  1.00  0.00    -0.200 F 
ATOM     71  F   UNL A   1      37.718  34.253  38.264  1.00  0.00    -0.200 F 
ENDBRANCH  47  61
BRANCH  48  72
ATOM     72  C   UNL A   1      42.887  26.572  27.550  1.00  0.00     0.064 A 
ATOM     73  C   UNL A   1      43.776  27.101  26.605  1.00  0.00     0.173 A 
ATOM     74  C   UNL A   1      42.529  25.222  27.428  1.00  0.00     0.173 A 
ATOM     75  F   UNL A   1      44.136  28.392  26.674  1.00  0.00    -0.203 F 
ATOM     76  C   UNL A   1      44.279  26.315  25.571  1.00  0.00     0.198 A 
ATOM     77  C   UNL A   1      43.049  24.431  26.405  1.00  0.00     0.198 A 
ATOM     78  F   UNL A   1      41.688  24.667  28.313  1.00  0.00    -0.203 F 
ATOM     79  F   UNL A   1      45.106  26.854  24.664  1.00  0.00    -0.200 F 
ATOM     80  C   UNL A   1      43.921  24.978  25.476  1.00  0.00     0.200 A 
ATOM     81  F   UNL A   1      42.710  23.137  26.322  1.00  0.00    -0.200 F 
ATOM     82  F   UNL A   1      44.413  24.221  24.486  1.00  0.00    -0.200 F 
ENDBRANCH  48  72
BRANCH  60  83
ATOM     83  C   UNL A   1      45.044  27.818  34.066  1.00  0.00     0.064 A 
ATOM     84  C   UNL A   1      45.021  26.618  34.789  1.00  0.00     0.173 A 
ATOM     85  C   UNL A   1      46.245  28.539  34.017  1.00  0.00     0.173 A 
ATOM     86  F   UNL A   1      43.891  25.901  34.872  1.00  0.00    -0.203 F 
ATOM     87  C   UNL A   1      46.159  26.160  35.447  1.00  0.00     0.198 A 
ATOM     88  C   UNL A   1      47.388  28.066  34.655  1.00  0.00     0.198 A 
ATOM     89  F   UNL A   1      46.317  29.689  33.329  1.00  0.00    -0.203 F 
ATOM     90  F   UNL A   1      46.110  25.024  36.156  1.00  0.00    -0.200 F 
ATOM     91  C   UNL A   1      47.343  26.879  35.371  1.00  0.00     0.200 A 
ATOM     92  F   UNL A   1      48.536  28.754  34.569  1.00  0.00    -0.200 F 
ATOM     93  F   UNL A   1      48.443  26.428  35.990  1.00  0.00    -0.200 F 
ENDBRANCH  60  83
ENDBRANCH  34  35
ENDBRANCH  27  29
ENDBRANCH  26  27
ENDBRANCH  25  26
ENDBRANCH   1  25
TORSDOF 13
ENDMDL
