MODEL 1
REMARK VINA RESULT:     -13.5      0.000      0.000
REMARK SMILES CC[C@@](C)(NC(=O)N[C@@H](C)c1cccc(Br)c1)C(=O)OCCOC(=O)c1ccc(-c2c3nc(c(-c4c(F)c(F)c(F)c(F)c4F)c4ccc([nH]4)c(-c4c(F)c(F)c(F)c(F)c4F)c4nc(c(-c5c(F)c(F)c(F)c(F)c5F)c5ccc2[nH]5)C=C4)C=C3)cc1
REMARK SMILES IDX 21 1 20 2 18 3 19 4 3 5 4 6 2 7 1 8 5 9 6 10 7 12 8 13 9 15
REMARK SMILES IDX 10 16 11 17 12 18 17 19 13 20 15 21 14 22 16 23 22 24 23 25
REMARK SMILES IDX 24 26 25 27 26 28 27 29 88 30 28 31 87 32 29 33 30 34 31 35
REMARK SMILES IDX 81 36 32 37 86 38 80 39 82 40 33 41 85 42 79 43 78 44 34 46
REMARK SMILES IDX 66 47 46 48 65 49 47 50 50 51 64 52 83 53 48 54 49 55 63 57
REMARK SMILES IDX 84 58 51 59 35 60 36 61 44 62 37 63 38 64 42 65 45 66 39 67
REMARK SMILES IDX 40 68 43 69 41 70 67 71 68 72 76 73 69 74 70 75 74 76 77 77
REMARK SMILES IDX 71 78 72 79 75 80 73 81 52 82 53 83 61 84 54 85 55 86 59 87
REMARK SMILES IDX 62 88 56 89 57 90 60 91 58 92
REMARK H PARENT 5 11 8 14 82 45 50 56
REMARK Flexibility Score: inf
ROOT
ATOM      1  C   UNL A   1      31.993  27.182  26.839  1.00  0.00     0.274 C 
ENDROOT
BRANCH   1   2
ATOM      2  O   UNL A   1      32.670  26.318  25.845  1.00  0.00    -0.460 OA
BRANCH   2   3
ATOM      3  C   UNL A   1      32.009  25.254  25.285  1.00  0.00     0.331 C 
ATOM      4  O   UNL A   1      30.914  24.910  25.732  1.00  0.00    -0.249 OA
BRANCH   3   5
ATOM      5  C   UNL A   1      32.670  24.510  23.949  1.00  0.00     0.136 C 
ATOM      6  C   UNL A   1      33.870  23.765  24.601  1.00  0.00     0.047 C 
BRANCH   5   7
ATOM      7  C   UNL A   1      31.693  23.412  23.385  1.00  0.00     0.037 C 
ATOM      8  C   UNL A   1      32.261  22.144  22.761  1.00  0.00     0.007 C 
ENDBRANCH   5   7
BRANCH   5   9
ATOM      9  N   UNL A   1      33.336  25.081  22.669  1.00  0.00    -0.322 N 
ATOM     10  C   UNL A   1      32.912  25.633  21.505  1.00  0.00     0.316 C 
ATOM     11  H   UNL A   1      34.318  25.030  22.714  1.00  0.00     0.166 HD
ATOM     12  O   UNL A   1      33.268  25.128  20.442  1.00  0.00    -0.249 OA
ATOM     13  N   UNL A   1      32.239  26.792  21.487  1.00  0.00    -0.332 N 
ATOM     14  H   UNL A   1      31.954  27.149  20.615  1.00  0.00     0.165 HD
BRANCH  13  15
ATOM     15  C   UNL A   1      31.917  27.531  22.642  1.00  0.00     0.111 C 
ATOM     16  C   UNL A   1      32.935  28.568  23.115  1.00  0.00     0.036 C 
BRANCH  15  17
ATOM     17  C   UNL A   1      30.491  27.974  22.567  1.00  0.00    -0.025 A 
ATOM     18  C   UNL A   1      29.128  27.068  23.418  1.00  0.00     0.006 A 
ATOM     19  C   UNL A   1      30.216  29.677  22.001  1.00  0.00     0.021 A 
ATOM     20  C   UNL A   1      27.530  27.913  23.748  1.00  0.00     0.002 A 
ATOM     21  C   UNL A   1      28.609  30.454  22.261  1.00  0.00     0.018 A 
ATOM     22  C   UNL A   1      27.278  29.591  23.115  1.00  0.00     0.016 A 
ATOM     23  Br  UNL A   1      28.264  32.126  21.452  1.00  0.00    -0.051 Br
ENDBRANCH  15  17
ENDBRANCH  13  15
ENDBRANCH   5   9
ENDBRANCH   3   5
ENDBRANCH   2   3
ENDBRANCH   1   2
BRANCH   1  24
ATOM     24  C   UNL A   1      31.402  28.594  26.331  1.00  0.00     0.275 C 
BRANCH  24  25
ATOM     25  O   UNL A   1      32.011  30.158  26.767  1.00  0.00    -0.458 OA
BRANCH  25  26
ATOM     26  C   UNL A   1      33.266  31.397  27.416  1.00  0.00     0.338 C 
ATOM     27  O   UNL A   1      33.073  32.636  27.421  1.00  0.00    -0.246 OA
BRANCH  26  28
ATOM     28  C   UNL A   1      34.751  31.214  27.921  1.00  0.00     0.060 A 
ATOM     29  C   UNL A   1      35.698  32.249  27.997  1.00  0.00     0.016 A 
ATOM     30  C   UNL A   1      35.153  29.924  28.286  1.00  0.00     0.016 A 
ATOM     31  C   UNL A   1      36.894  32.082  28.696  1.00  0.00     0.010 A 
ATOM     32  C   UNL A   1      36.378  29.733  28.925  1.00  0.00     0.010 A 
ATOM     33  C   UNL A   1      37.222  30.824  29.195  1.00  0.00    -0.014 A 
BRANCH  33  34
ATOM     34  C   UNL A   1      38.487  30.584  29.922  1.00  0.00     0.031 A 
ATOM     35  C   UNL A   1      39.463  29.624  29.323  1.00  0.00     0.074 A 
ATOM     36  C   UNL A   1      38.696  31.133  31.132  1.00  0.00     0.049 A 
ATOM     37  N   UNL A   1      40.441  28.974  29.890  1.00  0.00    -0.248 NA
ATOM     38  C   UNL A   1      39.291  29.341  27.890  1.00  0.00     0.031 C 
ATOM     39  C   UNL A   1      37.842  32.139  31.767  1.00  0.00     0.029 A 
ATOM     40  N   UNL A   1      39.672  30.888  32.067  1.00  0.00    -0.354 N 
ATOM     41  C   UNL A   1      40.959  28.152  28.898  1.00  0.00     0.074 A 
ATOM     42  C   UNL A   1      40.205  28.403  27.690  1.00  0.00     0.031 C 
ATOM     43  C   UNL A   1      38.307  32.392  33.003  1.00  0.00     0.029 A 
ATOM     44  C   UNL A   1      39.444  31.516  33.270  1.00  0.00     0.049 A 
ATOM     45  H   UNL A   1      40.458  30.320  31.894  1.00  0.00     0.167 HD
ATOM     46  C   UNL A   1      41.963  27.253  29.011  1.00  0.00     0.037 A 
ATOM     47  C   UNL A   1      40.043  31.341  34.466  1.00  0.00     0.037 A 
ATOM     48  C   UNL A   1      42.715  27.057  30.222  1.00  0.00     0.049 A 
ATOM     49  C   UNL A   1      41.139  30.306  34.573  1.00  0.00     0.074 A 
ATOM     50  C   UNL A   1      43.782  26.208  30.449  1.00  0.00     0.029 A 
ATOM     51  N   UNL A   1      42.472  27.730  31.412  1.00  0.00    -0.354 N 
ATOM     52  N   UNL A   1      41.623  29.515  33.644  1.00  0.00    -0.248 NA
ATOM     53  C   UNL A   1      41.755  30.122  35.894  1.00  0.00     0.031 C 
ATOM     54  C   UNL A   1      44.153  26.333  31.791  1.00  0.00     0.029 A 
ATOM     55  C   UNL A   1      43.353  27.296  32.387  1.00  0.00     0.049 A 
ATOM     56  H   UNL A   1      41.776  28.415  31.543  1.00  0.00     0.167 HD
ATOM     57  C   UNL A   1      42.607  28.755  34.261  1.00  0.00     0.074 A 
ATOM     58  C   UNL A   1      42.667  29.196  35.640  1.00  0.00     0.031 C 
ATOM     59  C   UNL A   1      43.385  27.772  33.745  1.00  0.00     0.037 A 
BRANCH  46  60
ATOM     60  C   UNL A   1      42.266  26.385  27.828  1.00  0.00     0.064 A 
ATOM     61  C   UNL A   1      43.290  26.688  26.922  1.00  0.00     0.173 A 
ATOM     62  C   UNL A   1      41.534  25.204  27.621  1.00  0.00     0.173 A 
ATOM     63  F   UNL A   1      44.007  27.814  27.062  1.00  0.00    -0.203 F 
ATOM     64  C   UNL A   1      43.562  25.850  25.842  1.00  0.00     0.198 A 
ATOM     65  C   UNL A   1      41.826  24.354  26.559  1.00  0.00     0.198 A 
ATOM     66  F   UNL A   1      40.540  24.869  28.458  1.00  0.00    -0.203 F 
ATOM     67  F   UNL A   1      44.521  26.177  24.966  1.00  0.00    -0.200 F 
ATOM     68  C   UNL A   1      42.837  24.680  25.667  1.00  0.00     0.200 A 
ATOM     69  F   UNL A   1      41.132  23.220  26.399  1.00  0.00    -0.200 F 
ATOM     70  F   UNL A   1      43.110  23.868  24.636  1.00  0.00    -0.200 F 
ENDBRANCH  46  60
BRANCH  47  71
ATOM     71  C   UNL A   1      39.581  32.087  35.670  1.00  0.00     0.064 A 
ATOM     72  C   UNL A   1      38.574  31.575  36.502  1.00  0.00     0.173 A 
ATOM     73  C   UNL A   1      40.100  33.353  35.992  1.00  0.00     0.173 A 
ATOM     74  F   UNL A   1      38.022  30.384  36.227  1.00  0.00    -0.203 F 
ATOM     75  C   UNL A   1      38.088  32.306  37.586  1.00  0.00     0.198 A 
ATOM     76  C   UNL A   1      39.637  34.067  37.097  1.00  0.00     0.198 A 
ATOM     77  F   UNL A   1      41.060  33.898  35.231  1.00  0.00    -0.203 F 
ATOM     78  F   UNL A   1      37.083  31.816  38.325  1.00  0.00    -0.200 F 
ATOM     79  C   UNL A   1      38.624  33.549  37.886  1.00  0.00     0.200 A 
ATOM     80  F   UNL A   1      40.169  35.262  37.389  1.00  0.00    -0.200 F 
ATOM     81  F   UNL A   1      38.155  34.251  38.926  1.00  0.00    -0.200 F 
ENDBRANCH  47  71
BRANCH  59  82
ATOM     82  C   UNL A   1      44.383  27.135  34.666  1.00  0.00     0.064 A 
ATOM     83  C   UNL A   1      45.647  27.702  34.881  1.00  0.00     0.173 A 
ATOM     84  C   UNL A   1      44.043  25.984  35.391  1.00  0.00     0.173 A 
ATOM     85  F   UNL A   1      46.022  28.794  34.197  1.00  0.00    -0.203 F 
ATOM     86  C   UNL A   1      46.542  27.128  35.778  1.00  0.00     0.198 A 
ATOM     87  C   UNL A   1      44.929  25.430  36.310  1.00  0.00     0.198 A 
ATOM     88  F   UNL A   1      42.841  25.410  35.224  1.00  0.00    -0.203 F 
ATOM     89  F   UNL A   1      47.761  27.663  35.940  1.00  0.00    -0.200 F 
ATOM     90  C   UNL A   1      46.179  26.000  36.499  1.00  0.00     0.200 A 
ATOM     91  F   UNL A   1      44.569  24.350  37.017  1.00  0.00    -0.200 F 
ATOM     92  F   UNL A   1      47.037  25.458  37.374  1.00  0.00    -0.200 F 
ENDBRANCH  59  82
ENDBRANCH  33  34
ENDBRANCH  26  28
ENDBRANCH  25  26
ENDBRANCH  24  25
ENDBRANCH   1  24
TORSDOF 15
ENDMDL
MODEL 2
REMARK VINA RESULT:     -13.3      1.706      3.425
REMARK SMILES CC[C@@](C)(NC(=O)N[C@@H](C)c1cccc(Br)c1)C(=O)OCCOC(=O)c1ccc(-c2c3nc(c(-c4c(F)c(F)c(F)c(F)c4F)c4ccc([nH]4)c(-c4c(F)c(F)c(F)c(F)c4F)c4nc(c(-c5c(F)c(F)c(F)c(F)c5F)c5ccc2[nH]5)C=C4)C=C3)cc1
REMARK SMILES IDX 21 1 20 2 18 3 19 4 3 5 4 6 2 7 1 8 5 9 6 10 7 12 8 13 9 15
REMARK SMILES IDX 10 16 11 17 12 18 17 19 13 20 15 21 14 22 16 23 22 24 23 25
REMARK SMILES IDX 24 26 25 27 26 28 27 29 88 30 28 31 87 32 29 33 30 34 31 35
REMARK SMILES IDX 81 36 32 37 86 38 80 39 82 40 33 41 85 42 79 43 78 44 34 46
REMARK SMILES IDX 66 47 46 48 65 49 47 50 50 51 64 52 83 53 48 54 49 55 63 57
REMARK SMILES IDX 84 58 51 59 35 60 36 61 44 62 37 63 38 64 42 65 45 66 39 67
REMARK SMILES IDX 40 68 43 69 41 70 67 71 68 72 76 73 69 74 70 75 74 76 77 77
REMARK SMILES IDX 71 78 72 79 75 80 73 81 52 82 53 83 61 84 54 85 55 86 59 87
REMARK SMILES IDX 62 88 56 89 57 90 60 91 58 92
REMARK H PARENT 5 11 8 14 82 45 50 56
REMARK Flexibility Score: inf
ROOT
ATOM      1  C   UNL A   1      31.867  27.846  26.604  1.00  0.00     0.274 C 
ENDROOT
BRANCH   1   2
ATOM      2  O   UNL A   1      31.964  26.764  25.598  1.00  0.00    -0.460 OA
BRANCH   2   3
ATOM      3  C   UNL A   1      31.134  26.756  24.504  1.00  0.00     0.331 C 
ATOM      4  O   UNL A   1      29.914  26.694  24.662  1.00  0.00    -0.249 OA
BRANCH   3   5
ATOM      5  C   UNL A   1      31.802  26.924  22.988  1.00  0.00     0.136 C 
ATOM      6  C   UNL A   1      30.943  28.092  22.424  1.00  0.00     0.047 C 
BRANCH   5   7
ATOM      7  C   UNL A   1      33.285  27.445  23.088  1.00  0.00     0.037 C 
ATOM      8  C   UNL A   1      33.589  28.912  22.819  1.00  0.00     0.007 C 
ENDBRANCH   5   7
BRANCH   5   9
ATOM      9  N   UNL A   1      31.845  25.970  21.764  1.00  0.00    -0.322 N 
ATOM     10  C   UNL A   1      32.685  25.015  21.294  1.00  0.00     0.316 C 
ATOM     11  H   UNL A   1      31.062  26.089  21.180  1.00  0.00     0.166 HD
ATOM     12  O   UNL A   1      33.133  25.124  20.154  1.00  0.00    -0.249 OA
ATOM     13  N   UNL A   1      32.918  23.890  21.985  1.00  0.00    -0.332 N 
ATOM     14  H   UNL A   1      33.537  23.228  21.598  1.00  0.00     0.165 HD
BRANCH  13  15
ATOM     15  C   UNL A   1      32.331  23.598  23.230  1.00  0.00     0.111 C 
ATOM     16  C   UNL A   1      30.885  23.103  23.223  1.00  0.00     0.036 C 
BRANCH  15  17
ATOM     17  C   UNL A   1      33.300  22.829  24.069  1.00  0.00    -0.025 A 
ATOM     18  C   UNL A   1      33.248  20.990  24.207  1.00  0.00     0.006 A 
ATOM     19  C   UNL A   1      34.801  23.719  24.570  1.00  0.00     0.021 A 
ATOM     20  C   UNL A   1      34.730  20.069  24.783  1.00  0.00     0.002 A 
ATOM     21  C   UNL A   1      36.213  22.799  25.213  1.00  0.00     0.018 A 
ATOM     22  C   UNL A   1      36.184  21.001  25.328  1.00  0.00     0.016 A 
ATOM     23  Br  UNL A   1      37.663  23.755  25.955  1.00  0.00    -0.051 Br
ENDBRANCH  15  17
ENDBRANCH  13  15
ENDBRANCH   5   9
ENDBRANCH   3   5
ENDBRANCH   2   3
ENDBRANCH   1   2
BRANCH   1  24
ATOM     24  C   UNL A   1      31.529  29.333  26.082  1.00  0.00     0.275 C 
BRANCH  24  25
ATOM     25  O   UNL A   1      32.409  30.770  26.492  1.00  0.00    -0.458 OA
BRANCH  25  26
ATOM     26  C   UNL A   1      33.600  31.836  27.480  1.00  0.00     0.338 C 
ATOM     27  O   UNL A   1      33.369  33.032  27.780  1.00  0.00    -0.246 OA
BRANCH  26  28
ATOM     28  C   UNL A   1      35.069  31.564  27.992  1.00  0.00     0.060 A 
ATOM     29  C   UNL A   1      36.079  32.538  28.063  1.00  0.00     0.016 A 
ATOM     30  C   UNL A   1      35.388  30.255  28.368  1.00  0.00     0.016 A 
ATOM     31  C   UNL A   1      37.261  32.301  28.768  1.00  0.00     0.010 A 
ATOM     32  C   UNL A   1      36.596  29.991  29.013  1.00  0.00     0.010 A 
ATOM     33  C   UNL A   1      37.507  31.029  29.277  1.00  0.00    -0.014 A 
BRANCH  33  34
ATOM     34  C   UNL A   1      38.752  30.715  30.010  1.00  0.00     0.031 A 
ATOM     35  C   UNL A   1      39.695  29.733  29.394  1.00  0.00     0.074 A 
ATOM     36  C   UNL A   1      38.969  31.220  31.239  1.00  0.00     0.049 A 
ATOM     37  N   UNL A   1      40.638  29.026  29.951  1.00  0.00    -0.248 NA
ATOM     38  C   UNL A   1      39.528  29.500  27.951  1.00  0.00     0.031 C 
ATOM     39  C   UNL A   1      38.151  32.241  31.893  1.00  0.00     0.029 A 
ATOM     40  N   UNL A   1      39.924  30.907  32.176  1.00  0.00    -0.354 N 
ATOM     41  C   UNL A   1      41.134  28.213  28.942  1.00  0.00     0.074 A 
ATOM     42  C   UNL A   1      40.404  28.530  27.734  1.00  0.00     0.031 C 
ATOM     43  C   UNL A   1      38.611  32.439  33.141  1.00  0.00     0.029 A 
ATOM     44  C   UNL A   1      39.707  31.509  33.395  1.00  0.00     0.049 A 
ATOM     45  H   UNL A   1      40.687  30.312  31.994  1.00  0.00     0.167 HD
ATOM     46  C   UNL A   1      42.098  27.270  29.039  1.00  0.00     0.037 A 
ATOM     47  C   UNL A   1      40.284  31.274  34.591  1.00  0.00     0.037 A 
ATOM     48  C   UNL A   1      42.826  27.008  30.251  1.00  0.00     0.049 A 
ATOM     49  C   UNL A   1      41.335  30.192  34.679  1.00  0.00     0.074 A 
ATOM     50  C   UNL A   1      43.854  26.109  30.464  1.00  0.00     0.029 A 
ATOM     51  N   UNL A   1      42.597  27.655  31.458  1.00  0.00    -0.354 N 
ATOM     52  N   UNL A   1      41.797  29.409  33.733  1.00  0.00    -0.248 NA
ATOM     53  C   UNL A   1      41.927  29.944  36.000  1.00  0.00     0.031 C 
ATOM     54  C   UNL A   1      44.215  26.179  31.813  1.00  0.00     0.029 A 
ATOM     55  C   UNL A   1      43.448  27.157  32.429  1.00  0.00     0.049 A 
ATOM     56  H   UNL A   1      41.929  28.365  31.602  1.00  0.00     0.167 HD
ATOM     57  C   UNL A   1      42.741  28.590  34.337  1.00  0.00     0.074 A 
ATOM     58  C   UNL A   1      42.803  28.988  35.729  1.00  0.00     0.031 C 
ATOM     59  C   UNL A   1      43.484  27.592  33.801  1.00  0.00     0.037 A 
BRANCH  46  60
ATOM     60  C   UNL A   1      42.379  26.425  27.834  1.00  0.00     0.064 A 
ATOM     61  C   UNL A   1      43.392  26.740  26.919  1.00  0.00     0.173 A 
ATOM     62  C   UNL A   1      41.637  25.253  27.613  1.00  0.00     0.173 A 
ATOM     63  F   UNL A   1      44.117  27.859  27.073  1.00  0.00    -0.203 F 
ATOM     64  C   UNL A   1      43.644  25.923  25.819  1.00  0.00     0.198 A 
ATOM     65  C   UNL A   1      41.909  24.423  26.530  1.00  0.00     0.198 A 
ATOM     66  F   UNL A   1      40.653  24.907  28.457  1.00  0.00    -0.203 F 
ATOM     67  F   UNL A   1      44.592  26.263  24.936  1.00  0.00    -0.200 F 
ATOM     68  C   UNL A   1      42.909  24.761  25.630  1.00  0.00     0.200 A 
ATOM     69  F   UNL A   1      41.204  23.297  26.357  1.00  0.00    -0.200 F 
ATOM     70  F   UNL A   1      43.162  23.969  24.580  1.00  0.00    -0.200 F 
ENDBRANCH  46  60
BRANCH  47  71
ATOM     71  C   UNL A   1      39.838  32.004  35.811  1.00  0.00     0.064 A 
ATOM     72  C   UNL A   1      38.717  31.584  36.542  1.00  0.00     0.173 A 
ATOM     73  C   UNL A   1      40.494  33.167  36.250  1.00  0.00     0.173 A 
ATOM     74  F   UNL A   1      38.035  30.497  36.153  1.00  0.00    -0.203 F 
ATOM     75  C   UNL A   1      38.255  32.309  37.641  1.00  0.00     0.198 A 
ATOM     76  C   UNL A   1      40.052  33.870  37.370  1.00  0.00     0.198 A 
ATOM     77  F   UNL A   1      41.569  33.622  35.589  1.00  0.00    -0.203 F 
ATOM     78  F   UNL A   1      37.145  31.916  38.280  1.00  0.00    -0.200 F 
ATOM     79  C   UNL A   1      38.925  33.448  38.057  1.00  0.00     0.200 A 
ATOM     80  F   UNL A   1      40.712  34.964  37.775  1.00  0.00    -0.200 F 
ATOM     81  F   UNL A   1      38.480  34.145  39.111  1.00  0.00    -0.200 F 
ENDBRANCH  47  71
BRANCH  59  82
ATOM     82  C   UNL A   1      44.443  26.887  34.714  1.00  0.00     0.064 A 
ATOM     83  C   UNL A   1      44.093  25.694  35.362  1.00  0.00     0.173 A 
ATOM     84  C   UNL A   1      45.746  27.375  34.885  1.00  0.00     0.173 A 
ATOM     85  F   UNL A   1      42.852  25.198  35.240  1.00  0.00    -0.203 F 
ATOM     86  C   UNL A   1      45.011  25.024  36.164  1.00  0.00     0.198 A 
ATOM     87  C   UNL A   1      46.671  26.686  35.664  1.00  0.00     0.198 A 
ATOM     88  F   UNL A   1      46.129  28.510  34.279  1.00  0.00    -0.203 F 
ATOM     89  F   UNL A   1      44.645  23.906  36.808  1.00  0.00    -0.200 F 
ATOM     90  C   UNL A   1      46.301  25.514  36.306  1.00  0.00     0.200 A 
ATOM     91  F   UNL A   1      47.921  27.153  35.785  1.00  0.00    -0.200 F 
ATOM     92  F   UNL A   1      47.188  24.858  37.066  1.00  0.00    -0.200 F 
ENDBRANCH  59  82
ENDBRANCH  33  34
ENDBRANCH  26  28
ENDBRANCH  25  26
ENDBRANCH  24  25
ENDBRANCH   1  24
TORSDOF 15
ENDMDL
MODEL 3
REMARK VINA RESULT:     -13.2      4.974     10.261
REMARK SMILES CC[C@@](C)(NC(=O)N[C@@H](C)c1cccc(Br)c1)C(=O)OCCOC(=O)c1ccc(-c2c3nc(c(-c4c(F)c(F)c(F)c(F)c4F)c4ccc([nH]4)c(-c4c(F)c(F)c(F)c(F)c4F)c4nc(c(-c5c(F)c(F)c(F)c(F)c5F)c5ccc2[nH]5)C=C4)C=C3)cc1
REMARK SMILES IDX 21 1 20 2 18 3 19 4 3 5 4 6 2 7 1 8 5 9 6 10 7 12 8 13 9 15
REMARK SMILES IDX 10 16 11 17 12 18 17 19 13 20 15 21 14 22 16 23 22 24 23 25
REMARK SMILES IDX 24 26 25 27 26 28 27 29 88 30 28 31 87 32 29 33 30 34 31 35
REMARK SMILES IDX 81 36 32 37 86 38 80 39 82 40 33 41 85 42 79 43 78 44 34 46
REMARK SMILES IDX 66 47 46 48 65 49 47 50 50 51 64 52 83 53 48 54 49 55 63 57
REMARK SMILES IDX 84 58 51 59 35 60 36 61 44 62 37 63 38 64 42 65 45 66 39 67
REMARK SMILES IDX 40 68 43 69 41 70 67 71 68 72 76 73 69 74 70 75 74 76 77 77
REMARK SMILES IDX 71 78 72 79 75 80 73 81 52 82 53 83 61 84 54 85 55 86 59 87
REMARK SMILES IDX 62 88 56 89 57 90 60 91 58 92
REMARK H PARENT 5 11 8 14 82 45 50 56
REMARK Flexibility Score: inf
ROOT
ATOM      1  C   UNL A   1      36.089  23.152  23.511  1.00  0.00     0.274 C 
ENDROOT
BRANCH   1   2
ATOM      2  O   UNL A   1      35.051  24.034  24.091  1.00  0.00    -0.460 OA
BRANCH   2   3
ATOM      3  C   UNL A   1      33.834  24.176  23.472  1.00  0.00     0.331 C 
ATOM      4  O   UNL A   1      33.708  23.855  22.289  1.00  0.00    -0.249 OA
BRANCH   3   5
ATOM      5  C   UNL A   1      32.531  24.698  24.369  1.00  0.00     0.136 C 
ATOM      6  C   UNL A   1      32.770  26.235  24.352  1.00  0.00     0.047 C 
BRANCH   5   7
ATOM      7  C   UNL A   1      31.184  24.429  23.598  1.00  0.00     0.037 C 
ATOM      8  C   UNL A   1      30.065  25.461  23.654  1.00  0.00     0.007 C 
ENDBRANCH   5   7
BRANCH   5   9
ATOM      9  N   UNL A   1      32.140  24.473  25.853  1.00  0.00    -0.322 N 
ATOM     10  C   UNL A   1      31.415  23.563  26.550  1.00  0.00     0.316 C 
ATOM     11  H   UNL A   1      32.513  25.171  26.440  1.00  0.00     0.166 HD
ATOM     12  O   UNL A   1      30.478  23.953  27.244  1.00  0.00    -0.249 OA
ATOM     13  N   UNL A   1      31.786  22.278  26.614  1.00  0.00    -0.332 N 
ATOM     14  H   UNL A   1      31.225  21.658  27.134  1.00  0.00     0.165 HD
BRANCH  13  15
ATOM     15  C   UNL A   1      32.933  21.760  25.983  1.00  0.00     0.111 C 
ATOM     16  C   UNL A   1      34.174  21.548  26.850  1.00  0.00     0.036 C 
BRANCH  15  17
ATOM     17  C   UNL A   1      32.540  20.630  25.086  1.00  0.00    -0.025 A 
ATOM     18  C   UNL A   1      32.229  20.861  23.282  1.00  0.00     0.006 A 
ATOM     19  C   UNL A   1      32.831  18.960  25.735  1.00  0.00     0.021 A 
ATOM     20  C   UNL A   1      32.282  19.417  22.148  1.00  0.00     0.002 A 
ATOM     21  C   UNL A   1      32.792  17.547  24.614  1.00  0.00     0.018 A 
ATOM     22  C   UNL A   1      32.516  17.762  22.846  1.00  0.00     0.016 A 
ATOM     23  Br  UNL A   1      32.851  15.805  25.341  1.00  0.00    -0.051 Br
ENDBRANCH  15  17
ENDBRANCH  13  15
ENDBRANCH   5   9
ENDBRANCH   3   5
ENDBRANCH   2   3
ENDBRANCH   1   2
BRANCH   1  24
ATOM     24  C   UNL A   1      36.322  21.712  24.196  1.00  0.00     0.275 C 
BRANCH  24  25
ATOM     25  O   UNL A   1      37.614  21.307  25.280  1.00  0.00    -0.458 OA
BRANCH  25  26
ATOM     26  C   UNL A   1      39.294  21.493  26.100  1.00  0.00     0.338 C 
ATOM     27  O   UNL A   1      40.091  20.538  26.263  1.00  0.00    -0.246 OA
BRANCH  26  28
ATOM     28  C   UNL A   1      39.973  22.720  26.827  1.00  0.00     0.060 A 
ATOM     29  C   UNL A   1      40.898  22.608  27.879  1.00  0.00     0.016 A 
ATOM     30  C   UNL A   1      39.599  24.002  26.411  1.00  0.00     0.016 A 
ATOM     31  C   UNL A   1      41.656  23.705  28.292  1.00  0.00     0.010 A 
ATOM     32  C   UNL A   1      40.305  25.115  26.869  1.00  0.00     0.010 A 
ATOM     33  C   UNL A   1      41.382  24.962  27.758  1.00  0.00    -0.014 A 
BRANCH  33  34
ATOM     34  C   UNL A   1      42.136  26.162  28.178  1.00  0.00     0.031 A 
ATOM     35  C   UNL A   1      41.405  27.208  28.955  1.00  0.00     0.074 A 
ATOM     36  C   UNL A   1      43.408  26.347  27.777  1.00  0.00     0.049 A 
ATOM     37  N   UNL A   1      41.697  28.468  29.131  1.00  0.00    -0.248 NA
ATOM     38  C   UNL A   1      40.156  26.775  29.600  1.00  0.00     0.031 C 
ATOM     39  C   UNL A   1      44.231  25.356  27.083  1.00  0.00     0.029 A 
ATOM     40  N   UNL A   1      44.217  27.454  27.858  1.00  0.00    -0.354 N 
ATOM     41  C   UNL A   1      40.633  28.995  29.849  1.00  0.00     0.074 A 
ATOM     42  C   UNL A   1      39.702  27.916  30.098  1.00  0.00     0.031 C 
ATOM     43  C   UNL A   1      45.412  25.913  26.763  1.00  0.00     0.029 A 
ATOM     44  C   UNL A   1      45.398  27.317  27.164  1.00  0.00     0.049 A 
ATOM     45  H   UNL A   1      43.977  28.265  28.362  1.00  0.00     0.167 HD
ATOM     46  C   UNL A   1      40.454  30.277  30.238  1.00  0.00     0.037 A 
ATOM     47  C   UNL A   1      46.320  28.243  26.832  1.00  0.00     0.037 A 
ATOM     48  C   UNL A   1      41.421  31.316  30.003  1.00  0.00     0.049 A 
ATOM     49  C   UNL A   1      46.079  29.675  27.250  1.00  0.00     0.074 A 
ATOM     50  C   UNL A   1      41.374  32.643  30.386  1.00  0.00     0.029 A 
ATOM     51  N   UNL A   1      42.617  31.133  29.321  1.00  0.00    -0.354 N 
ATOM     52  N   UNL A   1      45.069  30.183  27.916  1.00  0.00    -0.248 NA
ATOM     53  C   UNL A   1      47.089  30.664  26.853  1.00  0.00     0.031 C 
ATOM     54  C   UNL A   1      42.520  33.275  29.893  1.00  0.00     0.029 A 
ATOM     55  C   UNL A   1      43.305  32.331  29.248  1.00  0.00     0.049 A 
ATOM     56  H   UNL A   1      42.929  30.278  28.945  1.00  0.00     0.167 HD
ATOM     57  C   UNL A   1      45.329  31.542  28.031  1.00  0.00     0.074 A 
ATOM     58  C   UNL A   1      46.605  31.775  27.386  1.00  0.00     0.031 C 
ATOM     59  C   UNL A   1      44.581  32.515  28.606  1.00  0.00     0.037 A 
BRANCH  46  60
ATOM     60  C   UNL A   1      39.158  30.637  30.900  1.00  0.00     0.064 A 
ATOM     61  C   UNL A   1      38.994  30.602  32.290  1.00  0.00     0.173 A 
ATOM     62  C   UNL A   1      38.070  31.061  30.120  1.00  0.00     0.173 A 
ATOM     63  F   UNL A   1      39.996  30.185  33.079  1.00  0.00    -0.203 F 
ATOM     64  C   UNL A   1      37.783  30.963  32.877  1.00  0.00     0.198 A 
ATOM     65  C   UNL A   1      36.871  31.448  30.711  1.00  0.00     0.198 A 
ATOM     66  F   UNL A   1      38.173  31.110  28.784  1.00  0.00    -0.203 F 
ATOM     67  F   UNL A   1      37.635  30.885  34.207  1.00  0.00    -0.200 F 
ATOM     68  C   UNL A   1      36.726  31.394  32.089  1.00  0.00     0.200 A 
ATOM     69  F   UNL A   1      35.856  31.874  29.947  1.00  0.00    -0.200 F 
ATOM     70  F   UNL A   1      35.567  31.754  32.657  1.00  0.00    -0.200 F 
ENDBRANCH  46  60
BRANCH  47  71
ATOM     71  C   UNL A   1      47.504  27.881  26.003  1.00  0.00     0.064 A 
ATOM     72  C   UNL A   1      47.412  27.783  24.607  1.00  0.00     0.173 A 
ATOM     73  C   UNL A   1      48.745  27.578  26.590  1.00  0.00     0.173 A 
ATOM     74  F   UNL A   1      46.246  28.033  23.995  1.00  0.00    -0.203 F 
ATOM     75  C   UNL A   1      48.501  27.371  23.836  1.00  0.00     0.198 A 
ATOM     76  C   UNL A   1      49.841  27.201  25.815  1.00  0.00     0.198 A 
ATOM     77  F   UNL A   1      48.893  27.648  27.921  1.00  0.00    -0.203 F 
ATOM     78  F   UNL A   1      48.363  27.227  22.511  1.00  0.00    -0.200 F 
ATOM     79  C   UNL A   1      49.715  27.086  24.440  1.00  0.00     0.200 A 
ATOM     80  F   UNL A   1      51.016  26.939  26.404  1.00  0.00    -0.200 F 
ATOM     81  F   UNL A   1      50.758  26.689  23.699  1.00  0.00    -0.200 F 
ENDBRANCH  47  71
BRANCH  59  82
ATOM     82  C   UNL A   1      45.139  33.907  28.587  1.00  0.00     0.064 A 
ATOM     83  C   UNL A   1      46.082  34.330  29.535  1.00  0.00     0.173 A 
ATOM     84  C   UNL A   1      44.775  34.802  27.570  1.00  0.00     0.173 A 
ATOM     85  F   UNL A   1      46.447  33.514  30.535  1.00  0.00    -0.203 F 
ATOM     86  C   UNL A   1      46.629  35.608  29.473  1.00  0.00     0.198 A 
ATOM     87  C   UNL A   1      45.347  36.068  27.494  1.00  0.00     0.198 A 
ATOM     88  F   UNL A   1      43.881  34.439  26.638  1.00  0.00    -0.203 F 
ATOM     89  F   UNL A   1      47.500  36.007  30.411  1.00  0.00    -0.200 F 
ATOM     90  C   UNL A   1      46.270  36.471  28.448  1.00  0.00     0.200 A 
ATOM     91  F   UNL A   1      45.011  36.894  26.494  1.00  0.00    -0.200 F 
ATOM     92  F   UNL A   1      46.811  37.695  28.382  1.00  0.00    -0.200 F 
ENDBRANCH  59  82
ENDBRANCH  33  34
ENDBRANCH  26  28
ENDBRANCH  25  26
ENDBRANCH  24  25
ENDBRANCH   1  24
TORSDOF 15
ENDMDL
