MODEL 1
REMARK VINA RESULT:     -11.4      0.000      0.000
REMARK SMILES Nc1ccc(S[C@@H](C(=O)OCCOC(=O)c2ccc(-c3c4nc(c(-c5c(F)c(F)c(F)c(F)c5F)c5ccc([nH]5)c(-c5c(F)c(F)c(F)c(F)c5F)c5nc(c(-c6c(F)c(F)c(F)c(F)c6F)c6ccc3[nH]6)C=C5)C=C4)cc2)C2CC2)cc1F
REMARK SMILES IDX 11 1 10 2 8 3 9 4 7 5 6 6 5 7 2 8 3 9 83 10 4 11 82 12 84 13
REMARK SMILES IDX 1 14 79 17 80 18 81 19 12 20 13 21 14 22 15 23 16 24 17 25
REMARK SMILES IDX 78 26 18 27 77 28 19 29 20 30 21 31 71 32 22 33 76 34 70 35
REMARK SMILES IDX 72 36 23 37 75 38 69 39 68 40 24 42 56 43 36 44 55 45 37 46
REMARK SMILES IDX 40 47 54 48 73 49 38 50 39 51 53 53 74 54 41 55 25 56 26 57
REMARK SMILES IDX 34 58 27 59 28 60 32 61 35 62 29 63 30 64 33 65 31 66 57 67
REMARK SMILES IDX 58 68 66 69 59 70 60 71 64 72 67 73 61 74 62 75 65 76 63 77
REMARK SMILES IDX 42 78 43 79 51 80 44 81 45 82 49 83 52 84 46 85 47 86 50 87
REMARK SMILES IDX 48 88
REMARK H PARENT 1 15 1 16 72 41 40 52
REMARK Flexibility Score: inf
ROOT
ATOM      1  C   UNL A   1      31.458  28.404  24.704  1.00  0.00     0.274 C 
ENDROOT
BRANCH   1   2
ATOM      2  O   UNL A   1      31.150  27.305  25.593  1.00  0.00    -0.461 OA
BRANCH   2   3
ATOM      3  C   UNL A   1      30.642  26.173  25.023  1.00  0.00     0.319 C 
ATOM      4  O   UNL A   1      29.480  26.089  24.635  1.00  0.00    -0.251 OA
BRANCH   3   5
ATOM      5  C   UNL A   1      31.598  24.986  25.090  1.00  0.00     0.164 C 
BRANCH   5   6
ATOM      6  S   UNL A   1      32.730  24.769  23.658  1.00  0.00    -0.110 SA
BRANCH   6   7
ATOM      7  C   UNL A   1      34.317  24.206  24.242  1.00  0.00     0.011 A 
ATOM      8  C   UNL A   1      36.876  23.166  24.938  1.00  0.00     0.068 A 
ATOM      9  C   UNL A   1      36.136  23.922  25.844  1.00  0.00     0.030 A 
ATOM     10  C   UNL A   1      36.334  22.976  23.665  1.00  0.00     0.147 A 
ATOM     11  C   UNL A   1      34.860  24.409  25.509  1.00  0.00     0.017 A 
ATOM     12  C   UNL A   1      35.077  23.473  23.321  1.00  0.00     0.056 A 
ATOM     13  F   UNL A   1      37.028  22.280  22.749  1.00  0.00    -0.205 F 
BRANCH   8  14
ATOM     14  N   UNL A   1      38.163  22.742  25.249  1.00  0.00    -0.396 N 
ATOM     15  H   UNL A   1      38.296  21.966  25.842  1.00  0.00     0.156 HD
ATOM     16  H   UNL A   1      38.941  23.217  24.879  1.00  0.00     0.156 HD
ENDBRANCH   8  14
ENDBRANCH   6   7
ENDBRANCH   5   6
BRANCH   5  17
ATOM     17  C   UNL A   1      31.158  23.637  25.626  1.00  0.00     0.014 C 
ATOM     18  C   UNL A   1      31.722  22.991  26.877  1.00  0.00     0.006 C 
ATOM     19  C   UNL A   1      30.274  23.385  26.826  1.00  0.00     0.006 C 
ENDBRANCH   5  17
ENDBRANCH   3   5
ENDBRANCH   2   3
ENDBRANCH   1   2
BRANCH   1  20
ATOM     20  C   UNL A   1      31.466  29.734  25.456  1.00  0.00     0.275 C 
BRANCH  20  21
ATOM     21  O   UNL A   1      32.829  30.093  25.721  1.00  0.00    -0.458 OA
BRANCH  21  22
ATOM     22  C   UNL A   1      33.030  31.032  26.673  1.00  0.00     0.338 C 
ATOM     23  O   UNL A   1      32.252  31.910  27.002  1.00  0.00    -0.246 OA
BRANCH  22  24
ATOM     24  C   UNL A   1      34.335  30.783  27.345  1.00  0.00     0.060 A 
ATOM     25  C   UNL A   1      34.772  29.486  27.626  1.00  0.00     0.016 A 
ATOM     26  C   UNL A   1      35.095  31.866  27.797  1.00  0.00     0.016 A 
ATOM     27  C   UNL A   1      35.904  29.269  28.409  1.00  0.00     0.010 A 
ATOM     28  C   UNL A   1      36.282  31.644  28.509  1.00  0.00     0.010 A 
ATOM     29  C   UNL A   1      36.694  30.341  28.838  1.00  0.00    -0.014 A 
BRANCH  29  30
ATOM     30  C   UNL A   1      37.942  30.100  29.618  1.00  0.00     0.031 A 
ATOM     31  C   UNL A   1      39.056  29.268  29.041  1.00  0.00     0.074 A 
ATOM     32  C   UNL A   1      38.092  30.623  30.852  1.00  0.00     0.049 A 
ATOM     33  N   UNL A   1      40.085  28.730  29.647  1.00  0.00    -0.248 NA
ATOM     34  C   UNL A   1      38.999  28.996  27.597  1.00  0.00     0.031 C 
ATOM     35  C   UNL A   1      37.137  31.503  31.527  1.00  0.00     0.029 A 
ATOM     36  N   UNL A   1      39.115  30.490  31.761  1.00  0.00    -0.354 N 
ATOM     37  C   UNL A   1      40.756  27.998  28.676  1.00  0.00     0.074 A 
ATOM     38  C   UNL A   1      40.030  28.176  27.436  1.00  0.00     0.031 C 
ATOM     39  C   UNL A   1      37.635  31.865  32.718  1.00  0.00     0.029 A 
ATOM     40  C   UNL A   1      38.890  31.157  32.940  1.00  0.00     0.049 A 
ATOM     41  H   UNL A   1      39.930  29.967  31.584  1.00  0.00     0.167 HD
ATOM     42  C   UNL A   1      41.869  27.237  28.816  1.00  0.00     0.037 A 
ATOM     43  C   UNL A   1      39.577  31.157  34.098  1.00  0.00     0.037 A 
ATOM     44  C   UNL A   1      42.634  27.120  30.031  1.00  0.00     0.049 A 
ATOM     45  C   UNL A   1      40.791  30.285  34.238  1.00  0.00     0.074 A 
ATOM     46  C   UNL A   1      43.784  26.382  30.261  1.00  0.00     0.029 A 
ATOM     47  N   UNL A   1      42.342  27.780  31.215  1.00  0.00    -0.354 N 
ATOM     48  N   UNL A   1      41.355  29.505  33.350  1.00  0.00    -0.248 NA
ATOM     49  C   UNL A   1      41.443  30.267  35.555  1.00  0.00     0.031 C 
ATOM     50  C   UNL A   1      44.173  26.576  31.591  1.00  0.00     0.029 A 
ATOM     51  C   UNL A   1      43.286  27.460  32.179  1.00  0.00     0.049 A 
ATOM     52  H   UNL A   1      41.578  28.385  31.351  1.00  0.00     0.167 HD
ATOM     53  C   UNL A   1      42.421  28.899  33.999  1.00  0.00     0.074 A 
ATOM     54  C   UNL A   1      42.445  29.424  35.348  1.00  0.00     0.031 C 
ATOM     55  C   UNL A   1      43.293  27.980  33.521  1.00  0.00     0.037 A 
BRANCH  42  56
ATOM     56  C   UNL A   1      42.316  26.431  27.633  1.00  0.00     0.064 A 
ATOM     57  C   UNL A   1      43.320  26.877  26.764  1.00  0.00     0.173 A 
ATOM     58  C   UNL A   1      41.768  25.158  27.409  1.00  0.00     0.173 A 
ATOM     59  F   UNL A   1      43.864  28.092  26.930  1.00  0.00    -0.203 F 
ATOM     60  C   UNL A   1      43.753  26.082  25.705  1.00  0.00     0.198 A 
ATOM     61  C   UNL A   1      42.220  24.357  26.364  1.00  0.00     0.198 A 
ATOM     62  F   UNL A   1      40.807  24.683  28.217  1.00  0.00    -0.203 F 
ATOM     63  F   UNL A   1      44.695  26.539  24.868  1.00  0.00    -0.200 F 
ATOM     64  C   UNL A   1      43.208  24.821  25.511  1.00  0.00     0.200 A 
ATOM     65  F   UNL A   1      41.701  23.133  26.187  1.00  0.00    -0.200 F 
ATOM     66  F   UNL A   1      43.637  24.052  24.500  1.00  0.00    -0.200 F 
ENDBRANCH  42  56
BRANCH  43  67
ATOM     67  C   UNL A   1      39.087  31.965  35.244  1.00  0.00     0.064 A 
ATOM     68  C   UNL A   1      38.334  31.377  36.268  1.00  0.00     0.173 A 
ATOM     69  C   UNL A   1      39.372  33.336  35.343  1.00  0.00     0.173 A 
ATOM     70  F   UNL A   1      38.012  30.078  36.201  1.00  0.00    -0.203 F 
ATOM     71  C   UNL A   1      37.885  32.131  37.351  1.00  0.00     0.198 A 
ATOM     72  C   UNL A   1      38.949  34.080  36.440  1.00  0.00     0.198 A 
ATOM     73  F   UNL A   1      40.085  33.944  34.385  1.00  0.00    -0.203 F 
ATOM     74  F   UNL A   1      37.138  31.553  38.303  1.00  0.00    -0.200 F 
ATOM     75  C   UNL A   1      38.201  33.478  37.441  1.00  0.00     0.200 A 
ATOM     76  F   UNL A   1      39.269  35.378  36.530  1.00  0.00    -0.200 F 
ATOM     77  F   UNL A   1      37.780  34.199  38.489  1.00  0.00    -0.200 F 
ENDBRANCH  43  67
BRANCH  55  78
ATOM     78  C   UNL A   1      44.351  27.492  34.464  1.00  0.00     0.064 A 
ATOM     79  C   UNL A   1      44.177  26.318  35.211  1.00  0.00     0.173 A 
ATOM     80  C   UNL A   1      45.554  28.197  34.614  1.00  0.00     0.173 A 
ATOM     81  F   UNL A   1      43.035  25.621  35.115  1.00  0.00    -0.203 F 
ATOM     82  C   UNL A   1      45.161  25.880  36.093  1.00  0.00     0.198 A 
ATOM     83  C   UNL A   1      46.545  27.744  35.479  1.00  0.00     0.198 A 
ATOM     84  F   UNL A   1      45.768  29.325  33.920  1.00  0.00    -0.203 F 
ATOM     85  F   UNL A   1      44.956  24.780  36.830  1.00  0.00    -0.200 F 
ATOM     86  C   UNL A   1      46.346  26.590  36.223  1.00  0.00     0.200 A 
ATOM     87  F   UNL A   1      47.692  28.428  35.601  1.00  0.00    -0.200 F 
ATOM     88  F   UNL A   1      47.291  26.169  37.074  1.00  0.00    -0.200 F 
ENDBRANCH  55  78
ENDBRANCH  29  30
ENDBRANCH  22  24
ENDBRANCH  21  22
ENDBRANCH  20  21
ENDBRANCH   1  20
TORSDOF 15
ENDMDL
MODEL 2
REMARK VINA RESULT:     -11.2      1.153      2.287
REMARK SMILES Nc1ccc(S[C@@H](C(=O)OCCOC(=O)c2ccc(-c3c4nc(c(-c5c(F)c(F)c(F)c(F)c5F)c5ccc([nH]5)c(-c5c(F)c(F)c(F)c(F)c5F)c5nc(c(-c6c(F)c(F)c(F)c(F)c6F)c6ccc3[nH]6)C=C5)C=C4)cc2)C2CC2)cc1F
REMARK SMILES IDX 11 1 10 2 8 3 9 4 7 5 6 6 5 7 2 8 3 9 83 10 4 11 82 12 84 13
REMARK SMILES IDX 1 14 79 17 80 18 81 19 12 20 13 21 14 22 15 23 16 24 17 25
REMARK SMILES IDX 78 26 18 27 77 28 19 29 20 30 21 31 71 32 22 33 76 34 70 35
REMARK SMILES IDX 72 36 23 37 75 38 69 39 68 40 24 42 56 43 36 44 55 45 37 46
REMARK SMILES IDX 40 47 54 48 73 49 38 50 39 51 53 53 74 54 41 55 25 56 26 57
REMARK SMILES IDX 34 58 27 59 28 60 32 61 35 62 29 63 30 64 33 65 31 66 57 67
REMARK SMILES IDX 58 68 66 69 59 70 60 71 64 72 67 73 61 74 62 75 65 76 63 77
REMARK SMILES IDX 42 78 43 79 51 80 44 81 45 82 49 83 52 84 46 85 47 86 50 87
REMARK SMILES IDX 48 88
REMARK H PARENT 1 15 1 16 72 41 40 52
REMARK Flexibility Score: inf
ROOT
ATOM      1  C   UNL A   1      31.108  29.685  24.719  1.00  0.00     0.274 C 
ENDROOT
BRANCH   1   2
ATOM      2  O   UNL A   1      32.184  29.112  23.941  1.00  0.00    -0.461 OA
BRANCH   2   3
ATOM      3  C   UNL A   1      31.869  28.053  23.137  1.00  0.00     0.319 C 
ATOM      4  O   UNL A   1      30.943  28.084  22.331  1.00  0.00    -0.251 OA
BRANCH   3   5
ATOM      5  C   UNL A   1      32.656  26.791  23.472  1.00  0.00     0.164 C 
BRANCH   5   6
ATOM      6  S   UNL A   1      33.699  26.857  24.985  1.00  0.00    -0.110 SA
BRANCH   6   7
ATOM      7  C   UNL A   1      33.839  25.220  25.676  1.00  0.00     0.011 A 
ATOM      8  C   UNL A   1      34.320  22.596  26.675  1.00  0.00     0.068 A 
ATOM      9  C   UNL A   1      33.068  23.194  26.797  1.00  0.00     0.030 A 
ATOM     10  C   UNL A   1      35.337  23.348  26.085  1.00  0.00     0.147 A 
ATOM     11  C   UNL A   1      32.825  24.478  26.276  1.00  0.00     0.017 A 
ATOM     12  C   UNL A   1      35.107  24.630  25.584  1.00  0.00     0.056 A 
ATOM     13  F   UNL A   1      36.569  22.823  25.976  1.00  0.00    -0.205 F 
BRANCH   8  14
ATOM     14  N   UNL A   1      34.574  21.355  27.249  1.00  0.00    -0.396 N 
ATOM     15  H   UNL A   1      35.434  20.905  27.086  1.00  0.00     0.156 HD
ATOM     16  H   UNL A   1      33.894  20.928  27.817  1.00  0.00     0.156 HD
ENDBRANCH   8  14
ENDBRANCH   6   7
ENDBRANCH   5   6
BRANCH   5  17
ATOM     17  C   UNL A   1      33.338  25.967  22.396  1.00  0.00     0.014 C 
ATOM     18  C   UNL A   1      33.029  24.509  22.115  1.00  0.00     0.006 C 
ATOM     19  C   UNL A   1      32.749  25.548  21.069  1.00  0.00     0.006 C 
ENDBRANCH   5  17
ENDBRANCH   3   5
ENDBRANCH   2   3
ENDBRANCH   1   2
BRANCH   1  20
ATOM     20  C   UNL A   1      31.563  29.987  26.146  1.00  0.00     0.275 C 
BRANCH  20  21
ATOM     21  O   UNL A   1      32.926  30.432  26.100  1.00  0.00    -0.458 OA
BRANCH  21  22
ATOM     22  C   UNL A   1      33.263  31.430  26.948  1.00  0.00     0.338 C 
ATOM     23  O   UNL A   1      32.593  32.411  27.217  1.00  0.00    -0.246 OA
BRANCH  22  24
ATOM     24  C   UNL A   1      34.565  31.110  27.595  1.00  0.00     0.060 A 
ATOM     25  C   UNL A   1      34.857  29.818  28.039  1.00  0.00     0.016 A 
ATOM     26  C   UNL A   1      35.475  32.138  27.857  1.00  0.00     0.016 A 
ATOM     27  C   UNL A   1      35.998  29.567  28.799  1.00  0.00     0.010 A 
ATOM     28  C   UNL A   1      36.666  31.864  28.545  1.00  0.00     0.010 A 
ATOM     29  C   UNL A   1      36.936  30.576  29.038  1.00  0.00    -0.014 A 
BRANCH  29  30
ATOM     30  C   UNL A   1      38.189  30.287  29.793  1.00  0.00     0.031 A 
ATOM     31  C   UNL A   1      39.266  29.429  29.186  1.00  0.00     0.074 A 
ATOM     32  C   UNL A   1      38.376  30.787  31.031  1.00  0.00     0.049 A 
ATOM     33  N   UNL A   1      40.289  28.851  29.766  1.00  0.00    -0.248 NA
ATOM     34  C   UNL A   1      39.176  29.180  27.740  1.00  0.00     0.031 C 
ATOM     35  C   UNL A   1      37.460  31.686  31.735  1.00  0.00     0.029 A 
ATOM     36  N   UNL A   1      39.409  30.610  31.921  1.00  0.00    -0.354 N 
ATOM     37  C   UNL A   1      40.919  28.113  28.774  1.00  0.00     0.074 A 
ATOM     38  C   UNL A   1      40.179  28.330  27.550  1.00  0.00     0.031 C 
ATOM     39  C   UNL A   1      37.989  32.016  32.922  1.00  0.00     0.029 A 
ATOM     40  C   UNL A   1      39.225  31.267  33.113  1.00  0.00     0.049 A 
ATOM     41  H   UNL A   1      40.204  30.065  31.723  1.00  0.00     0.167 HD
ATOM     42  C   UNL A   1      42.011  27.316  28.884  1.00  0.00     0.037 A 
ATOM     43  C   UNL A   1      39.931  31.229  34.259  1.00  0.00     0.037 A 
ATOM     44  C   UNL A   1      42.792  27.158  30.085  1.00  0.00     0.049 A 
ATOM     45  C   UNL A   1      41.119  30.319  34.366  1.00  0.00     0.074 A 
ATOM     46  C   UNL A   1      43.922  26.383  30.284  1.00  0.00     0.029 A 
ATOM     47  N   UNL A   1      42.541  27.810  31.282  1.00  0.00    -0.354 N 
ATOM     48  N   UNL A   1      41.644  29.535  33.458  1.00  0.00    -0.248 NA
ATOM     49  C   UNL A   1      41.793  30.262  35.671  1.00  0.00     0.031 C 
ATOM     50  C   UNL A   1      44.340  26.545  31.610  1.00  0.00     0.029 A 
ATOM     51  C   UNL A   1      43.491  27.448  32.225  1.00  0.00     0.049 A 
ATOM     52  H   UNL A   1      41.798  28.436  31.440  1.00  0.00     0.167 HD
ATOM     53  C   UNL A   1      42.701  28.886  34.079  1.00  0.00     0.074 A 
ATOM     54  C   UNL A   1      42.764  29.392  35.435  1.00  0.00     0.031 C 
ATOM     55  C   UNL A   1      43.537  27.948  33.574  1.00  0.00     0.037 A 
BRANCH  42  56
ATOM     56  C   UNL A   1      42.413  26.514  27.683  1.00  0.00     0.064 A 
ATOM     57  C   UNL A   1      43.390  26.958  26.783  1.00  0.00     0.173 A 
ATOM     58  C   UNL A   1      41.850  25.245  27.471  1.00  0.00     0.173 A 
ATOM     59  F   UNL A   1      43.947  28.169  26.936  1.00  0.00    -0.203 F 
ATOM     60  C   UNL A   1      43.781  26.166  25.706  1.00  0.00     0.198 A 
ATOM     61  C   UNL A   1      42.261  24.446  26.408  1.00  0.00     0.198 A 
ATOM     62  F   UNL A   1      40.914  24.772  28.309  1.00  0.00    -0.203 F 
ATOM     63  F   UNL A   1      44.698  26.622  24.840  1.00  0.00    -0.200 F 
ATOM     64  C   UNL A   1      43.223  24.909  25.525  1.00  0.00     0.200 A 
ATOM     65  F   UNL A   1      41.729  23.227  26.242  1.00  0.00    -0.200 F 
ATOM     66  F   UNL A   1      43.612  24.143  24.495  1.00  0.00    -0.200 F 
ENDBRANCH  42  56
BRANCH  43  67
ATOM     67  C   UNL A   1      39.485  32.035  35.424  1.00  0.00     0.064 A 
ATOM     68  C   UNL A   1      39.942  33.346  35.609  1.00  0.00     0.173 A 
ATOM     69  C   UNL A   1      38.584  31.516  36.366  1.00  0.00     0.173 A 
ATOM     70  F   UNL A   1      40.827  33.874  34.751  1.00  0.00    -0.203 F 
ATOM     71  C   UNL A   1      39.515  34.108  36.694  1.00  0.00     0.198 A 
ATOM     72  C   UNL A   1      38.134  32.289  37.432  1.00  0.00     0.198 A 
ATOM     73  F   UNL A   1      38.121  30.264  36.235  1.00  0.00    -0.203 F 
ATOM     74  F   UNL A   1      39.992  35.348  36.868  1.00  0.00    -0.200 F 
ATOM     75  C   UNL A   1      38.604  33.583  37.599  1.00  0.00     0.200 A 
ATOM     76  F   UNL A   1      37.243  31.782  38.296  1.00  0.00    -0.200 F 
ATOM     77  F   UNL A   1      38.182  34.321  38.634  1.00  0.00    -0.200 F 
ENDBRANCH  43  67
BRANCH  55  78
ATOM     78  C   UNL A   1      44.594  27.415  34.492  1.00  0.00     0.064 A 
ATOM     79  C   UNL A   1      45.843  28.044  34.611  1.00  0.00     0.173 A 
ATOM     80  C   UNL A   1      44.356  26.273  35.270  1.00  0.00     0.173 A 
ATOM     81  F   UNL A   1      46.124  29.128  33.873  1.00  0.00    -0.203 F 
ATOM     82  C   UNL A   1      46.822  27.534  35.458  1.00  0.00     0.198 A 
ATOM     83  C   UNL A   1      45.329  25.779  36.133  1.00  0.00     0.198 A 
ATOM     84  F   UNL A   1      43.177  25.637  35.192  1.00  0.00    -0.203 F 
ATOM     85  F   UNL A   1      48.023  28.125  35.523  1.00  0.00    -0.200 F 
ATOM     86  C   UNL A   1      46.563  26.405  36.222  1.00  0.00     0.200 A 
ATOM     87  F   UNL A   1      45.076  24.691  36.875  1.00  0.00    -0.200 F 
ATOM     88  F   UNL A   1      47.508  25.914  37.035  1.00  0.00    -0.200 F 
ENDBRANCH  55  78
ENDBRANCH  29  30
ENDBRANCH  22  24
ENDBRANCH  21  22
ENDBRANCH  20  21
ENDBRANCH   1  20
TORSDOF 15
ENDMDL
MODEL 3
REMARK VINA RESULT:     -11.1      2.274      3.576
REMARK SMILES Nc1ccc(S[C@@H](C(=O)OCCOC(=O)c2ccc(-c3c4nc(c(-c5c(F)c(F)c(F)c(F)c5F)c5ccc([nH]5)c(-c5c(F)c(F)c(F)c(F)c5F)c5nc(c(-c6c(F)c(F)c(F)c(F)c6F)c6ccc3[nH]6)C=C5)C=C4)cc2)C2CC2)cc1F
REMARK SMILES IDX 11 1 10 2 8 3 9 4 7 5 6 6 5 7 2 8 3 9 83 10 4 11 82 12 84 13
REMARK SMILES IDX 1 14 79 17 80 18 81 19 12 20 13 21 14 22 15 23 16 24 17 25
REMARK SMILES IDX 78 26 18 27 77 28 19 29 20 30 21 31 71 32 22 33 76 34 70 35
REMARK SMILES IDX 72 36 23 37 75 38 69 39 68 40 24 42 56 43 36 44 55 45 37 46
REMARK SMILES IDX 40 47 54 48 73 49 38 50 39 51 53 53 74 54 41 55 25 56 26 57
REMARK SMILES IDX 34 58 27 59 28 60 32 61 35 62 29 63 30 64 33 65 31 66 57 67
REMARK SMILES IDX 58 68 66 69 59 70 60 71 64 72 67 73 61 74 62 75 65 76 63 77
REMARK SMILES IDX 42 78 43 79 51 80 44 81 45 82 49 83 52 84 46 85 47 86 50 87
REMARK SMILES IDX 48 88
REMARK H PARENT 1 15 1 16 72 41 40 52
REMARK Flexibility Score: inf
ROOT
ATOM      1  C   UNL A   1      32.001  27.936  27.031  1.00  0.00     0.274 C 
ENDROOT
BRANCH   1   2
ATOM      2  O   UNL A   1      30.834  27.098  26.862  1.00  0.00    -0.461 OA
BRANCH   2   3
ATOM      3  C   UNL A   1      31.030  25.872  26.294  1.00  0.00     0.319 C 
ATOM      4  O   UNL A   1      30.775  24.822  26.877  1.00  0.00    -0.251 OA
BRANCH   3   5
ATOM      5  C   UNL A   1      31.760  25.940  24.956  1.00  0.00     0.164 C 
BRANCH   5   6
ATOM      6  S   UNL A   1      30.717  25.791  23.449  1.00  0.00    -0.110 SA
BRANCH   6   7
ATOM      7  C   UNL A   1      29.922  27.354  23.126  1.00  0.00     0.011 A 
ATOM      8  C   UNL A   1      28.412  29.725  22.670  1.00  0.00     0.068 A 
ATOM      9  C   UNL A   1      29.781  29.683  22.415  1.00  0.00     0.030 A 
ATOM     10  C   UNL A   1      27.820  28.575  23.197  1.00  0.00     0.147 A 
ATOM     11  C   UNL A   1      30.518  28.503  22.613  1.00  0.00     0.017 A 
ATOM     12  C   UNL A   1      28.552  27.407  23.414  1.00  0.00     0.056 A 
ATOM     13  F   UNL A   1      26.509  28.581  23.488  1.00  0.00    -0.205 F 
BRANCH   8  14
ATOM     14  N   UNL A   1      27.699  30.911  22.536  1.00  0.00    -0.396 N 
ATOM     15  H   UNL A   1      27.765  31.606  23.230  1.00  0.00     0.156 HD
ATOM     16  H   UNL A   1      27.128  31.056  21.748  1.00  0.00     0.156 HD
ENDBRANCH   8  14
ENDBRANCH   6   7
ENDBRANCH   5   6
BRANCH   5  17
ATOM     17  C   UNL A   1      33.098  25.259  24.743  1.00  0.00     0.014 C 
ATOM     18  C   UNL A   1      34.399  25.720  25.373  1.00  0.00     0.006 C 
ATOM     19  C   UNL A   1      33.831  24.376  25.727  1.00  0.00     0.006 C 
ENDBRANCH   5  17
ENDBRANCH   3   5
ENDBRANCH   2   3
ENDBRANCH   1   2
BRANCH   1  20
ATOM     20  C   UNL A   1      31.675  29.399  26.735  1.00  0.00     0.275 C 
BRANCH  20  21
ATOM     21  O   UNL A   1      32.873  30.046  26.287  1.00  0.00    -0.458 OA
BRANCH  21  22
ATOM     22  C   UNL A   1      33.268  31.134  26.986  1.00  0.00     0.338 C 
ATOM     23  O   UNL A   1      32.638  32.165  27.142  1.00  0.00    -0.246 OA
BRANCH  22  24
ATOM     24  C   UNL A   1      34.580  30.855  27.634  1.00  0.00     0.060 A 
ATOM     25  C   UNL A   1      34.949  29.558  27.997  1.00  0.00     0.016 A 
ATOM     26  C   UNL A   1      35.417  31.920  27.979  1.00  0.00     0.016 A 
ATOM     27  C   UNL A   1      36.094  29.330  28.759  1.00  0.00     0.010 A 
ATOM     28  C   UNL A   1      36.614  31.678  28.669  1.00  0.00     0.010 A 
ATOM     29  C   UNL A   1      36.960  30.379  29.081  1.00  0.00    -0.014 A 
BRANCH  29  30
ATOM     30  C   UNL A   1      38.219  30.121  29.838  1.00  0.00     0.031 A 
ATOM     31  C   UNL A   1      39.310  29.274  29.240  1.00  0.00     0.074 A 
ATOM     32  C   UNL A   1      38.399  30.640  31.069  1.00  0.00     0.049 A 
ATOM     33  N   UNL A   1      40.344  28.721  29.825  1.00  0.00    -0.248 NA
ATOM     34  C   UNL A   1      39.223  29.006  27.797  1.00  0.00     0.031 C 
ATOM     35  C   UNL A   1      37.469  31.531  31.763  1.00  0.00     0.029 A 
ATOM     36  N   UNL A   1      39.436  30.491  31.960  1.00  0.00    -0.354 N 
ATOM     37  C   UNL A   1      40.986  27.982  28.841  1.00  0.00     0.074 A 
ATOM     38  C   UNL A   1      40.240  28.172  27.615  1.00  0.00     0.031 C 
ATOM     39  C   UNL A   1      37.993  31.885  32.945  1.00  0.00     0.029 A 
ATOM     40  C   UNL A   1      39.242  31.159  33.143  1.00  0.00     0.049 A 
ATOM     41  H   UNL A   1      40.241  29.957  31.766  1.00  0.00     0.167 HD
ATOM     42  C   UNL A   1      42.091  27.205  28.959  1.00  0.00     0.037 A 
ATOM     43  C   UNL A   1      39.951  31.148  34.288  1.00  0.00     0.037 A 
ATOM     44  C   UNL A   1      42.876  27.076  30.160  1.00  0.00     0.049 A 
ATOM     45  C   UNL A   1      41.155  30.260  34.405  1.00  0.00     0.074 A 
ATOM     46  C   UNL A   1      44.020  26.323  30.367  1.00  0.00     0.029 A 
ATOM     47  N   UNL A   1      42.616  27.738  31.350  1.00  0.00    -0.354 N 
ATOM     48  N   UNL A   1      41.691  29.473  33.506  1.00  0.00    -0.248 NA
ATOM     49  C   UNL A   1      41.831  30.230  35.710  1.00  0.00     0.031 C 
ATOM     50  C   UNL A   1      44.437  26.508  31.690  1.00  0.00     0.029 A 
ATOM     51  C   UNL A   1      43.573  27.404  32.296  1.00  0.00     0.049 A 
ATOM     52  H   UNL A   1      41.862  28.353  31.501  1.00  0.00     0.167 HD
ATOM     53  C   UNL A   1      42.761  28.851  34.133  1.00  0.00     0.074 A 
ATOM     54  C   UNL A   1      42.817  29.374  35.482  1.00  0.00     0.031 C 
ATOM     55  C   UNL A   1      43.612  27.921  33.638  1.00  0.00     0.037 A 
BRANCH  42  56
ATOM     56  C   UNL A   1      42.505  26.395  27.767  1.00  0.00     0.064 A 
ATOM     57  C   UNL A   1      43.500  26.829  26.881  1.00  0.00     0.173 A 
ATOM     58  C   UNL A   1      41.934  25.130  27.551  1.00  0.00     0.173 A 
ATOM     59  F   UNL A   1      44.065  28.035  27.040  1.00  0.00    -0.203 F 
ATOM     60  C   UNL A   1      43.902  26.029  25.813  1.00  0.00     0.198 A 
ATOM     61  C   UNL A   1      42.355  24.325  26.497  1.00  0.00     0.198 A 
ATOM     62  F   UNL A   1      40.981  24.669  28.375  1.00  0.00    -0.203 F 
ATOM     63  F   UNL A   1      44.835  26.474  24.961  1.00  0.00    -0.200 F 
ATOM     64  C   UNL A   1      43.335  24.776  25.627  1.00  0.00     0.200 A 
ATOM     65  F   UNL A   1      41.816  23.109  26.327  1.00  0.00    -0.200 F 
ATOM     66  F   UNL A   1      43.735  24.003  24.607  1.00  0.00    -0.200 F 
ENDBRANCH  42  56
BRANCH  43  67
ATOM     67  C   UNL A   1      39.493  31.960  35.444  1.00  0.00     0.064 A 
ATOM     68  C   UNL A   1      39.933  33.278  35.616  1.00  0.00     0.173 A 
ATOM     69  C   UNL A   1      38.597  31.439  36.391  1.00  0.00     0.173 A 
ATOM     70  F   UNL A   1      40.812  33.809  34.755  1.00  0.00    -0.203 F 
ATOM     71  C   UNL A   1      39.494  34.046  36.693  1.00  0.00     0.198 A 
ATOM     72  C   UNL A   1      38.135  32.218  37.448  1.00  0.00     0.198 A 
ATOM     73  F   UNL A   1      38.150  30.181  36.271  1.00  0.00    -0.203 F 
ATOM     74  F   UNL A   1      39.955  35.295  36.855  1.00  0.00    -0.200 F 
ATOM     75  C   UNL A   1      38.588  33.520  37.602  1.00  0.00     0.200 A 
ATOM     76  F   UNL A   1      37.249  31.709  38.315  1.00  0.00    -0.200 F 
ATOM     77  F   UNL A   1      38.155  34.263  38.628  1.00  0.00    -0.200 F 
ENDBRANCH  43  67
BRANCH  55  78
ATOM     78  C   UNL A   1      44.680  27.418  34.561  1.00  0.00     0.064 A 
ATOM     79  C   UNL A   1      45.917  28.070  34.671  1.00  0.00     0.173 A 
ATOM     80  C   UNL A   1      44.462  26.281  35.353  1.00  0.00     0.173 A 
ATOM     81  F   UNL A   1      46.179  29.150  33.919  1.00  0.00    -0.203 F 
ATOM     82  C   UNL A   1      46.906  27.587  35.522  1.00  0.00     0.198 A 
ATOM     83  C   UNL A   1      45.445  25.815  36.221  1.00  0.00     0.198 A 
ATOM     84  F   UNL A   1      43.294  25.624  35.285  1.00  0.00    -0.203 F 
ATOM     85  F   UNL A   1      48.097  28.200  35.578  1.00  0.00    -0.200 F 
ATOM     86  C   UNL A   1      46.668  26.464  36.300  1.00  0.00     0.200 A 
ATOM     87  F   UNL A   1      45.212  24.732  36.976  1.00  0.00    -0.200 F 
ATOM     88  F   UNL A   1      47.622  25.999  37.118  1.00  0.00    -0.200 F 
ENDBRANCH  55  78
ENDBRANCH  29  30
ENDBRANCH  22  24
ENDBRANCH  21  22
ENDBRANCH  20  21
ENDBRANCH   1  20
TORSDOF 15
ENDMDL
