MODEL 1
REMARK VINA RESULT:     -12.4      0.000      0.000
REMARK SMILES COc1cccc2c(C)cc(S[C@H](C)C(=O)Nc3ccc(C(=O)OCCOC(=O)c4ccc(-c5c6nc(c(-c7c(F)c(F)c(F)c(F)c7F)c7ccc([nH]7)c(-c7c(F)c(F)c(F)c(F)c7F)c7nc(c(-c8c(F)c(F)c(F)c(F)c8F)c8ccc5[nH]8)C=C7)C=C6)cc4)cc3)nc12
REMARK SMILES IDX 24 1 22 2 23 3 21 4 18 5 19 6 94 7 20 8 93 9 17 10 15 11
REMARK SMILES IDX 16 12 13 14 14 15 12 16 11 17 3 18 4 19 96 20 5 21 7 22
REMARK SMILES IDX 95 23 6 24 8 25 9 26 10 27 2 28 1 29 25 30 26 31 27 32 28 33
REMARK SMILES IDX 29 34 30 35 31 36 92 37 32 38 91 39 33 40 34 41 35 42 85 43
REMARK SMILES IDX 36 44 90 45 84 46 86 47 37 48 89 49 83 50 82 51 38 53 70 54
REMARK SMILES IDX 50 55 69 56 51 57 54 58 68 59 87 60 52 61 53 62 67 64 88 65
REMARK SMILES IDX 55 66 39 67 40 68 48 69 41 70 42 71 46 72 49 73 43 74 44 75
REMARK SMILES IDX 47 76 45 77 71 78 72 79 80 80 73 81 74 82 78 83 81 84 75 85
REMARK SMILES IDX 76 86 79 87 77 88 56 89 57 90 65 91 58 92 59 93 63 94 66 95
REMARK SMILES IDX 60 96 61 97 64 98 62 99
REMARK H PARENT 17 13 86 52 54 63
REMARK Flexibility Score: inf
ROOT
ATOM      1  O   UNL A   1      34.976  19.885  25.342  1.00  0.00    -0.458 OA
ENDROOT
BRANCH   1   2
ATOM      2  C   UNL A   1      33.849  19.642  24.629  1.00  0.00     0.338 C 
ATOM      3  O   UNL A   1      33.544  18.572  24.121  1.00  0.00    -0.246 OA
BRANCH   2   4
ATOM      4  C   UNL A   1      32.946  20.823  24.582  1.00  0.00     0.060 A 
ATOM      5  C   UNL A   1      31.402  23.128  24.315  1.00  0.00     0.041 A 
ATOM      6  C   UNL A   1      31.710  22.379  23.185  1.00  0.00     0.027 A 
ATOM      7  C   UNL A   1      31.750  22.671  25.586  1.00  0.00     0.027 A 
ATOM      8  C   UNL A   1      32.518  21.254  23.316  1.00  0.00     0.018 A 
ATOM      9  C   UNL A   1      32.519  21.509  25.723  1.00  0.00     0.018 A 
BRANCH   5  10
ATOM     10  N   UNL A   1      30.721  24.327  24.130  1.00  0.00    -0.325 N 
ATOM     11  C   UNL A   1      31.130  25.379  23.356  1.00  0.00     0.237 C 
ATOM     12  O   UNL A   1      30.260  26.209  23.055  1.00  0.00    -0.273 OA
ATOM     13  H   UNL A   1      29.863  24.428  24.601  1.00  0.00     0.169 HD
BRANCH  11  14
ATOM     14  C   UNL A   1      32.580  25.599  22.902  1.00  0.00     0.139 C 
ATOM     15  C   UNL A   1      32.683  26.364  21.598  1.00  0.00     0.030 C 
BRANCH  14  16
ATOM     16  S   UNL A   1      33.765  25.814  24.309  1.00  0.00    -0.093 SA
BRANCH  16  17
ATOM     17  C   UNL A   1      33.511  27.359  25.151  1.00  0.00     0.098 A 
ATOM     18  C   UNL A   1      31.023  30.027  24.721  1.00  0.00     0.145 A 
ATOM     19  C   UNL A   1      30.676  31.270  25.266  1.00  0.00     0.049 A 
ATOM     20  C   UNL A   1      32.106  29.265  25.212  1.00  0.00     0.114 A 
ATOM     21  C   UNL A   1      31.370  31.772  26.353  1.00  0.00     0.005 A 
ATOM     22  C   UNL A   1      32.811  29.792  26.318  1.00  0.00     0.007 A 
ATOM     23  N   UNL A   1      32.485  28.088  24.646  1.00  0.00    -0.238 NA
ATOM     24  C   UNL A   1      32.426  31.037  26.876  1.00  0.00     0.011 A 
ATOM     25  C   UNL A   1      33.893  29.045  26.827  1.00  0.00    -0.039 A 
ATOM     26  C   UNL A   1      34.766  29.550  27.946  1.00  0.00     0.045 C 
ATOM     27  C   UNL A   1      34.186  27.793  26.270  1.00  0.00     0.039 A 
BRANCH  18  28
ATOM     28  O   UNL A   1      30.239  29.676  23.641  1.00  0.00    -0.494 OA
ATOM     29  C   UNL A   1      29.062  30.465  23.500  1.00  0.00     0.278 C 
ENDBRANCH  18  28
ENDBRANCH  16  17
ENDBRANCH  14  16
ENDBRANCH  11  14
ENDBRANCH   5  10
ENDBRANCH   2   4
ENDBRANCH   1   2
BRANCH   1  30
ATOM     30  C   UNL A   1      35.974  20.650  24.639  1.00  0.00     0.275 C 
BRANCH  30  31
ATOM     31  C   UNL A   1      37.390  20.227  25.029  1.00  0.00     0.275 C 
BRANCH  31  32
ATOM     32  O   UNL A   1      38.212  21.376  25.309  1.00  0.00    -0.458 OA
BRANCH  32  33
ATOM     33  C   UNL A   1      39.301  21.135  26.072  1.00  0.00     0.338 C 
ATOM     34  O   UNL A   1      39.943  20.100  26.150  1.00  0.00    -0.246 OA
BRANCH  33  35
ATOM     35  C   UNL A   1      39.718  22.363  26.766  1.00  0.00     0.060 A 
ATOM     36  C   UNL A   1      39.105  23.552  26.393  1.00  0.00     0.016 A 
ATOM     37  C   UNL A   1      40.824  22.386  27.611  1.00  0.00     0.016 A 
ATOM     38  C   UNL A   1      39.624  24.777  26.792  1.00  0.00     0.010 A 
ATOM     39  C   UNL A   1      41.310  23.620  28.072  1.00  0.00     0.010 A 
ATOM     40  C   UNL A   1      40.740  24.830  27.632  1.00  0.00    -0.014 A 
BRANCH  40  41
ATOM     41  C   UNL A   1      41.347  26.156  27.937  1.00  0.00     0.031 A 
ATOM     42  C   UNL A   1      42.743  26.474  27.466  1.00  0.00     0.074 A 
ATOM     43  C   UNL A   1      40.621  27.114  28.548  1.00  0.00     0.049 A 
ATOM     44  N   UNL A   1      43.476  27.535  27.696  1.00  0.00    -0.248 NA
ATOM     45  C   UNL A   1      43.406  25.460  26.633  1.00  0.00     0.031 C 
ATOM     46  C   UNL A   1      39.238  26.965  29.005  1.00  0.00     0.029 A 
ATOM     47  N   UNL A   1      40.934  28.414  28.864  1.00  0.00    -0.354 N 
ATOM     48  C   UNL A   1      44.703  27.288  27.091  1.00  0.00     0.074 A 
ATOM     49  C   UNL A   1      44.617  25.976  26.486  1.00  0.00     0.031 C 
ATOM     50  C   UNL A   1      38.804  28.139  29.488  1.00  0.00     0.029 A 
ATOM     51  C   UNL A   1      39.901  29.102  29.454  1.00  0.00     0.049 A 
ATOM     52  H   UNL A   1      41.816  28.815  28.684  1.00  0.00     0.167 HD
ATOM     53  C   UNL A   1      45.799  28.084  27.045  1.00  0.00     0.037 A 
ATOM     54  C   UNL A   1      39.849  30.356  29.940  1.00  0.00     0.037 A 
ATOM     55  C   UNL A   1      45.860  29.417  27.588  1.00  0.00     0.049 A 
ATOM     56  C   UNL A   1      41.080  31.218  29.877  1.00  0.00     0.074 A 
ATOM     57  C   UNL A   1      46.921  30.305  27.584  1.00  0.00     0.029 A 
ATOM     58  N   UNL A   1      44.803  30.062  28.214  1.00  0.00    -0.354 N 
ATOM     59  N   UNL A   1      42.255  30.948  29.364  1.00  0.00    -0.248 NA
ATOM     60  C   UNL A   1      40.979  32.555  30.478  1.00  0.00     0.031 C 
ATOM     61  C   UNL A   1      46.518  31.475  28.238  1.00  0.00     0.029 A 
ATOM     62  C   UNL A   1      45.191  31.334  28.608  1.00  0.00     0.049 A 
ATOM     63  H   UNL A   1      43.910  29.675  28.359  1.00  0.00     0.167 HD
ATOM     64  C   UNL A   1      43.032  32.078  29.575  1.00  0.00     0.074 A 
ATOM     65  C   UNL A   1      42.183  33.051  30.231  1.00  0.00     0.031 C 
ATOM     66  C   UNL A   1      44.336  32.288  29.267  1.00  0.00     0.037 A 
BRANCH  53  67
ATOM     67  C   UNL A   1      47.039  27.519  26.414  1.00  0.00     0.064 A 
ATOM     68  C   UNL A   1      47.999  26.813  27.155  1.00  0.00     0.173 A 
ATOM     69  C   UNL A   1      47.254  27.666  25.035  1.00  0.00     0.173 A 
ATOM     70  F   UNL A   1      47.850  26.658  28.479  1.00  0.00    -0.203 F 
ATOM     71  C   UNL A   1      49.142  26.302  26.543  1.00  0.00     0.198 A 
ATOM     72  C   UNL A   1      48.382  27.127  24.421  1.00  0.00     0.198 A 
ATOM     73  F   UNL A   1      46.366  28.328  24.279  1.00  0.00    -0.203 F 
ATOM     74  F   UNL A   1      50.071  25.675  27.278  1.00  0.00    -0.200 F 
ATOM     75  C   UNL A   1      49.328  26.453  25.177  1.00  0.00     0.200 A 
ATOM     76  F   UNL A   1      48.554  27.264  23.099  1.00  0.00    -0.200 F 
ATOM     77  F   UNL A   1      50.426  25.955  24.589  1.00  0.00    -0.200 F 
ENDBRANCH  53  67
BRANCH  54  78
ATOM     78  C   UNL A   1      38.595  30.863  30.559  1.00  0.00     0.064 A 
ATOM     79  C   UNL A   1      38.402  30.818  31.946  1.00  0.00     0.173 A 
ATOM     80  C   UNL A   1      37.562  31.397  29.774  1.00  0.00     0.173 A 
ATOM     81  F   UNL A   1      39.347  30.289  32.737  1.00  0.00    -0.203 F 
ATOM     82  C   UNL A   1      37.218  31.275  32.523  1.00  0.00     0.198 A 
ATOM     83  C   UNL A   1      36.394  31.885  30.355  1.00  0.00     0.198 A 
ATOM     84  F   UNL A   1      37.692  31.457  28.441  1.00  0.00    -0.203 F 
ATOM     85  F   UNL A   1      37.039  31.175  33.848  1.00  0.00    -0.200 F 
ATOM     86  C   UNL A   1      36.219  31.816  31.729  1.00  0.00     0.200 A 
ATOM     87  F   UNL A   1      35.437  32.418  29.583  1.00  0.00    -0.200 F 
ATOM     88  F   UNL A   1      35.084  32.262  32.285  1.00  0.00    -0.200 F 
ENDBRANCH  54  78
BRANCH  66  89
ATOM     89  C   UNL A   1      44.908  33.629  29.622  1.00  0.00     0.064 A 
ATOM     90  C   UNL A   1      44.851  34.710  28.729  1.00  0.00     0.173 A 
ATOM     91  C   UNL A   1      45.522  33.836  30.865  1.00  0.00     0.173 A 
ATOM     92  F   UNL A   1      44.286  34.559  27.520  1.00  0.00    -0.203 F 
ATOM     93  C   UNL A   1      45.425  35.937  29.053  1.00  0.00     0.198 A 
ATOM     94  C   UNL A   1      46.069  35.072  31.198  1.00  0.00     0.198 A 
ATOM     95  F   UNL A   1      45.596  32.836  31.758  1.00  0.00    -0.203 F 
ATOM     96  F   UNL A   1      45.415  36.936  28.160  1.00  0.00    -0.200 F 
ATOM     97  C   UNL A   1      46.030  36.117  30.287  1.00  0.00     0.200 A 
ATOM     98  F   UNL A   1      46.643  35.249  32.395  1.00  0.00    -0.200 F 
ATOM     99  F   UNL A   1      46.589  37.297  30.595  1.00  0.00    -0.200 F 
ENDBRANCH  66  89
ENDBRANCH  40  41
ENDBRANCH  33  35
ENDBRANCH  32  33
ENDBRANCH  31  32
ENDBRANCH  30  31
ENDBRANCH   1  30
TORSDOF 16
ENDMDL
MODEL 2
REMARK VINA RESULT:     -12.3      2.057      7.566
REMARK SMILES COc1cccc2c(C)cc(S[C@H](C)C(=O)Nc3ccc(C(=O)OCCOC(=O)c4ccc(-c5c6nc(c(-c7c(F)c(F)c(F)c(F)c7F)c7ccc([nH]7)c(-c7c(F)c(F)c(F)c(F)c7F)c7nc(c(-c8c(F)c(F)c(F)c(F)c8F)c8ccc5[nH]8)C=C7)C=C6)cc4)cc3)nc12
REMARK SMILES IDX 24 1 22 2 23 3 21 4 18 5 19 6 94 7 20 8 93 9 17 10 15 11
REMARK SMILES IDX 16 12 13 14 14 15 12 16 11 17 3 18 4 19 96 20 5 21 7 22
REMARK SMILES IDX 95 23 6 24 8 25 9 26 10 27 2 28 1 29 25 30 26 31 27 32 28 33
REMARK SMILES IDX 29 34 30 35 31 36 92 37 32 38 91 39 33 40 34 41 35 42 85 43
REMARK SMILES IDX 36 44 90 45 84 46 86 47 37 48 89 49 83 50 82 51 38 53 70 54
REMARK SMILES IDX 50 55 69 56 51 57 54 58 68 59 87 60 52 61 53 62 67 64 88 65
REMARK SMILES IDX 55 66 39 67 40 68 48 69 41 70 42 71 46 72 49 73 43 74 44 75
REMARK SMILES IDX 47 76 45 77 71 78 72 79 80 80 73 81 74 82 78 83 81 84 75 85
REMARK SMILES IDX 76 86 79 87 77 88 56 89 57 90 65 91 58 92 59 93 63 94 66 95
REMARK SMILES IDX 60 96 61 97 64 98 62 99
REMARK H PARENT 17 13 86 52 54 63
REMARK Flexibility Score: inf
ROOT
ATOM      1  O   UNL A   1      37.765  21.721  25.769  1.00  0.00    -0.458 OA
ENDROOT
BRANCH   1   2
ATOM      2  C   UNL A   1      37.431  23.007  26.040  1.00  0.00     0.338 C 
ATOM      3  O   UNL A   1      38.206  23.887  26.387  1.00  0.00    -0.246 OA
BRANCH   2   4
ATOM      4  C   UNL A   1      35.989  23.277  25.798  1.00  0.00     0.060 A 
ATOM      5  C   UNL A   1      33.302  23.633  25.145  1.00  0.00     0.041 A 
ATOM      6  C   UNL A   1      33.811  22.344  25.259  1.00  0.00     0.027 A 
ATOM      7  C   UNL A   1      34.087  24.737  25.476  1.00  0.00     0.027 A 
ATOM      8  C   UNL A   1      35.162  22.171  25.542  1.00  0.00     0.018 A 
ATOM      9  C   UNL A   1      35.434  24.561  25.811  1.00  0.00     0.018 A 
BRANCH   5  10
ATOM     10  N   UNL A   1      31.987  23.773  24.714  1.00  0.00    -0.325 N 
ATOM     11  C   UNL A   1      31.574  23.972  23.425  1.00  0.00     0.237 C 
ATOM     12  O   UNL A   1      30.378  23.748  23.191  1.00  0.00    -0.273 OA
ATOM     13  H   UNL A   1      31.285  23.723  25.403  1.00  0.00     0.169 HD
BRANCH  11  14
ATOM     14  C   UNL A   1      32.484  24.494  22.303  1.00  0.00     0.139 C 
ATOM     15  C   UNL A   1      33.277  23.395  21.624  1.00  0.00     0.030 C 
BRANCH  14  16
ATOM     16  S   UNL A   1      31.777  25.949  21.403  1.00  0.00    -0.093 SA
BRANCH  16  17
ATOM     17  C   UNL A   1      31.469  27.314  22.500  1.00  0.00     0.098 A 
ATOM     18  C   UNL A   1      29.239  30.223  22.259  1.00  0.00     0.145 A 
ATOM     19  C   UNL A   1      28.874  31.359  22.992  1.00  0.00     0.049 A 
ATOM     20  C   UNL A   1      30.180  29.287  22.741  1.00  0.00     0.114 A 
ATOM     21  C   UNL A   1      29.399  31.573  24.253  1.00  0.00     0.005 A 
ATOM     22  C   UNL A   1      30.715  29.521  24.028  1.00  0.00     0.007 A 
ATOM     23  N   UNL A   1      30.586  28.216  22.007  1.00  0.00    -0.238 NA
ATOM     24  C   UNL A   1      30.310  30.659  24.768  1.00  0.00     0.011 A 
ATOM     25  C   UNL A   1      31.653  28.595  24.530  1.00  0.00    -0.039 A 
ATOM     26  C   UNL A   1      32.350  28.790  25.852  1.00  0.00     0.045 C 
ATOM     27  C   UNL A   1      31.967  27.457  23.776  1.00  0.00     0.039 A 
BRANCH  18  28
ATOM     28  O   UNL A   1      28.632  30.162  21.021  1.00  0.00    -0.494 OA
ATOM     29  C   UNL A   1      28.020  31.384  20.618  1.00  0.00     0.278 C 
ENDBRANCH  18  28
ENDBRANCH  16  17
ENDBRANCH  14  16
ENDBRANCH  11  14
ENDBRANCH   5  10
ENDBRANCH   2   4
ENDBRANCH   1   2
BRANCH   1  30
ATOM     30  C   UNL A   1      39.180  21.455  25.791  1.00  0.00     0.275 C 
BRANCH  30  31
ATOM     31  C   UNL A   1      39.475  19.955  25.751  1.00  0.00     0.275 C 
BRANCH  31  32
ATOM     32  O   UNL A   1      40.443  19.594  26.754  1.00  0.00    -0.458 OA
BRANCH  32  33
ATOM     33  C   UNL A   1      41.699  19.388  26.298  1.00  0.00     0.338 C 
ATOM     34  O   UNL A   1      42.137  18.393  25.746  1.00  0.00    -0.246 OA
BRANCH  33  35
ATOM     35  C   UNL A   1      42.504  20.609  26.457  1.00  0.00     0.060 A 
ATOM     36  C   UNL A   1      42.622  21.140  27.735  1.00  0.00     0.016 A 
ATOM     37  C   UNL A   1      42.960  21.333  25.359  1.00  0.00     0.016 A 
ATOM     38  C   UNL A   1      43.124  22.419  27.931  1.00  0.00     0.010 A 
ATOM     39  C   UNL A   1      43.531  22.599  25.560  1.00  0.00     0.010 A 
ATOM     40  C   UNL A   1      43.580  23.173  26.845  1.00  0.00    -0.014 A 
BRANCH  40  41
ATOM     41  C   UNL A   1      43.992  24.586  27.074  1.00  0.00     0.031 A 
ATOM     42  C   UNL A   1      43.010  25.576  27.645  1.00  0.00     0.074 A 
ATOM     43  C   UNL A   1      45.268  24.966  26.864  1.00  0.00     0.049 A 
ATOM     44  N   UNL A   1      43.148  26.864  27.844  1.00  0.00    -0.248 NA
ATOM     45  C   UNL A   1      41.694  25.050  28.038  1.00  0.00     0.031 C 
ATOM     46  C   UNL A   1      46.339  24.099  26.370  1.00  0.00     0.029 A 
ATOM     47  N   UNL A   1      45.890  26.174  27.069  1.00  0.00    -0.354 N 
ATOM     48  C   UNL A   1      41.921  27.308  28.323  1.00  0.00     0.074 A 
ATOM     49  C   UNL A   1      41.049  26.155  28.383  1.00  0.00     0.031 C 
ATOM     50  C   UNL A   1      47.493  24.783  26.364  1.00  0.00     0.029 A 
ATOM     51  C   UNL A   1      47.232  26.160  26.774  1.00  0.00     0.049 A 
ATOM     52  H   UNL A   1      45.419  26.974  27.398  1.00  0.00     0.167 HD
ATOM     53  C   UNL A   1      41.558  28.564  28.680  1.00  0.00     0.037 A 
ATOM     54  C   UNL A   1      48.146  27.148  26.800  1.00  0.00     0.037 A 
ATOM     55  C   UNL A   1      42.446  29.698  28.685  1.00  0.00     0.049 A 
ATOM     56  C   UNL A   1      47.716  28.533  27.199  1.00  0.00     0.074 A 
ATOM     57  C   UNL A   1      42.175  31.009  29.038  1.00  0.00     0.029 A 
ATOM     58  N   UNL A   1      43.789  29.649  28.339  1.00  0.00    -0.354 N 
ATOM     59  N   UNL A   1      46.536  28.955  27.584  1.00  0.00    -0.248 NA
ATOM     60  C   UNL A   1      48.743  29.582  27.150  1.00  0.00     0.031 C 
ATOM     61  C   UNL A   1      43.343  31.760  28.873  1.00  0.00     0.029 A 
ATOM     62  C   UNL A   1      44.356  30.909  28.462  1.00  0.00     0.049 A 
ATOM     63  H   UNL A   1      44.269  28.841  28.049  1.00  0.00     0.167 HD
ATOM     64  C   UNL A   1      46.678  30.314  27.827  1.00  0.00     0.074 A 
ATOM     65  C   UNL A   1      48.068  30.639  27.580  1.00  0.00     0.031 C 
ATOM     66  C   UNL A   1      45.739  31.217  28.206  1.00  0.00     0.037 A 
BRANCH  53  67
ATOM     67  C   UNL A   1      40.122  28.788  29.062  1.00  0.00     0.064 A 
ATOM     68  C   UNL A   1      39.666  28.631  30.380  1.00  0.00     0.173 A 
ATOM     69  C   UNL A   1      39.193  29.193  28.091  1.00  0.00     0.173 A 
ATOM     70  F   UNL A   1      40.509  28.229  31.343  1.00  0.00    -0.203 F 
ATOM     71  C   UNL A   1      38.328  28.843  30.704  1.00  0.00     0.198 A 
ATOM     72  C   UNL A   1      37.863  29.435  28.424  1.00  0.00     0.198 A 
ATOM     73  F   UNL A   1      39.578  29.362  26.817  1.00  0.00    -0.203 F 
ATOM     74  F   UNL A   1      37.902  28.639  31.958  1.00  0.00    -0.200 F 
ATOM     75  C   UNL A   1      37.430  29.252  29.728  1.00  0.00     0.200 A 
ATOM     76  F   UNL A   1      37.001  29.840  27.482  1.00  0.00    -0.200 F 
ATOM     77  F   UNL A   1      36.143  29.462  30.043  1.00  0.00    -0.200 F 
ENDBRANCH  53  67
BRANCH  54  78
ATOM     78  C   UNL A   1      49.553  26.872  26.406  1.00  0.00     0.064 A 
ATOM     79  C   UNL A   1      49.959  26.946  25.067  1.00  0.00     0.173 A 
ATOM     80  C   UNL A   1      50.519  26.521  27.361  1.00  0.00     0.173 A 
ATOM     81  F   UNL A   1      49.067  27.248  24.113  1.00  0.00    -0.203 F 
ATOM     82  C   UNL A   1      51.274  26.668  24.697  1.00  0.00     0.198 A 
ATOM     83  C   UNL A   1      51.841  26.277  26.994  1.00  0.00     0.198 A 
ATOM     84  F   UNL A   1      50.183  26.429  28.656  1.00  0.00    -0.203 F 
ATOM     85  F   UNL A   1      51.624  26.698  23.403  1.00  0.00    -0.200 F 
ATOM     86  C   UNL A   1      52.216  26.342  25.662  1.00  0.00     0.200 A 
ATOM     87  F   UNL A   1      52.748  25.975  27.933  1.00  0.00    -0.200 F 
ATOM     88  F   UNL A   1      53.481  26.082  25.306  1.00  0.00    -0.200 F 
ENDBRANCH  54  78
BRANCH  66  89
ATOM     89  C   UNL A   1      46.200  32.633  28.393  1.00  0.00     0.064 A 
ATOM     90  C   UNL A   1      46.165  33.560  27.340  1.00  0.00     0.173 A 
ATOM     91  C   UNL A   1      46.685  33.066  29.635  1.00  0.00     0.173 A 
ATOM     92  F   UNL A   1      45.723  33.190  26.128  1.00  0.00    -0.203 F 
ATOM     93  C   UNL A   1      46.638  34.858  27.514  1.00  0.00     0.198 A 
ATOM     94  C   UNL A   1      47.129  34.374  29.814  1.00  0.00     0.198 A 
ATOM     95  F   UNL A   1      46.732  32.221  30.676  1.00  0.00    -0.203 F 
ATOM     96  F   UNL A   1      46.655  35.708  26.478  1.00  0.00    -0.200 F 
ATOM     97  C   UNL A   1      47.116  35.264  28.751  1.00  0.00     0.200 A 
ATOM     98  F   UNL A   1      47.580  34.768  31.012  1.00  0.00    -0.200 F 
ATOM     99  F   UNL A   1      47.577  36.512  28.916  1.00  0.00    -0.200 F 
ENDBRANCH  66  89
ENDBRANCH  40  41
ENDBRANCH  33  35
ENDBRANCH  32  33
ENDBRANCH  31  32
ENDBRANCH  30  31
ENDBRANCH   1  30
TORSDOF 16
ENDMDL
MODEL 3
REMARK VINA RESULT:     -12.2      1.498      7.545
REMARK SMILES COc1cccc2c(C)cc(S[C@H](C)C(=O)Nc3ccc(C(=O)OCCOC(=O)c4ccc(-c5c6nc(c(-c7c(F)c(F)c(F)c(F)c7F)c7ccc([nH]7)c(-c7c(F)c(F)c(F)c(F)c7F)c7nc(c(-c8c(F)c(F)c(F)c(F)c8F)c8ccc5[nH]8)C=C7)C=C6)cc4)cc3)nc12
REMARK SMILES IDX 24 1 22 2 23 3 21 4 18 5 19 6 94 7 20 8 93 9 17 10 15 11
REMARK SMILES IDX 16 12 13 14 14 15 12 16 11 17 3 18 4 19 96 20 5 21 7 22
REMARK SMILES IDX 95 23 6 24 8 25 9 26 10 27 2 28 1 29 25 30 26 31 27 32 28 33
REMARK SMILES IDX 29 34 30 35 31 36 92 37 32 38 91 39 33 40 34 41 35 42 85 43
REMARK SMILES IDX 36 44 90 45 84 46 86 47 37 48 89 49 83 50 82 51 38 53 70 54
REMARK SMILES IDX 50 55 69 56 51 57 54 58 68 59 87 60 52 61 53 62 67 64 88 65
REMARK SMILES IDX 55 66 39 67 40 68 48 69 41 70 42 71 46 72 49 73 43 74 44 75
REMARK SMILES IDX 47 76 45 77 71 78 72 79 80 80 73 81 74 82 78 83 81 84 75 85
REMARK SMILES IDX 76 86 79 87 77 88 56 89 57 90 65 91 58 92 59 93 63 94 66 95
REMARK SMILES IDX 60 96 61 97 64 98 62 99
REMARK H PARENT 17 13 86 52 54 63
REMARK Flexibility Score: inf
ROOT
ATOM      1  O   UNL A   1      34.865  22.181  23.880  1.00  0.00    -0.458 OA
ENDROOT
BRANCH   1   2
ATOM      2  C   UNL A   1      33.564  22.098  23.510  1.00  0.00     0.338 C 
ATOM      3  O   UNL A   1      32.870  21.092  23.565  1.00  0.00    -0.246 OA
BRANCH   2   4
ATOM      4  C   UNL A   1      33.014  23.412  23.084  1.00  0.00     0.060 A 
ATOM      5  C   UNL A   1      31.813  25.750  22.155  1.00  0.00     0.041 A 
ATOM      6  C   UNL A   1      31.028  24.772  22.757  1.00  0.00     0.027 A 
ATOM      7  C   UNL A   1      33.202  25.626  22.126  1.00  0.00     0.027 A 
ATOM      8  C   UNL A   1      31.625  23.589  23.179  1.00  0.00     0.018 A 
ATOM      9  C   UNL A   1      33.808  24.457  22.599  1.00  0.00     0.018 A 
BRANCH   5  10
ATOM     10  N   UNL A   1      31.166  26.853  21.608  1.00  0.00    -0.325 N 
ATOM     11  C   UNL A   1      30.570  27.869  22.305  1.00  0.00     0.237 C 
ATOM     12  O   UNL A   1      30.339  28.908  21.670  1.00  0.00    -0.273 OA
ATOM     13  H   UNL A   1      31.133  26.909  20.626  1.00  0.00     0.169 HD
BRANCH  11  14
ATOM     14  C   UNL A   1      30.141  27.766  23.776  1.00  0.00     0.139 C 
ATOM     15  C   UNL A   1      29.128  26.666  24.021  1.00  0.00     0.030 C 
BRANCH  14  16
ATOM     16  S   UNL A   1      31.493  28.194  24.966  1.00  0.00    -0.093 SA
BRANCH  16  17
ATOM     17  C   UNL A   1      32.335  26.742  25.553  1.00  0.00     0.098 A 
ATOM     18  C   UNL A   1      31.119  23.618  27.055  1.00  0.00     0.145 A 
ATOM     19  C   UNL A   1      31.611  22.408  27.562  1.00  0.00     0.049 A 
ATOM     20  C   UNL A   1      31.969  24.612  26.522  1.00  0.00     0.114 A 
ATOM     21  C   UNL A   1      32.964  22.128  27.508  1.00  0.00     0.005 A 
ATOM     22  C   UNL A   1      33.352  24.317  26.479  1.00  0.00     0.007 A 
ATOM     23  N   UNL A   1      31.504  25.813  26.087  1.00  0.00    -0.238 NA
ATOM     24  C   UNL A   1      33.827  23.074  26.968  1.00  0.00     0.011 A 
ATOM     25  C   UNL A   1      34.218  25.293  25.946  1.00  0.00    -0.039 A 
ATOM     26  C   UNL A   1      35.714  25.121  25.930  1.00  0.00     0.045 C 
ATOM     27  C   UNL A   1      33.680  26.477  25.423  1.00  0.00     0.039 A 
BRANCH  18  28
ATOM     28  O   UNL A   1      29.752  23.743  27.191  1.00  0.00    -0.494 OA
ATOM     29  C   UNL A   1      29.092  22.528  27.534  1.00  0.00     0.278 C 
ENDBRANCH  18  28
ENDBRANCH  16  17
ENDBRANCH  14  16
ENDBRANCH  11  14
ENDBRANCH   5  10
ENDBRANCH   2   4
ENDBRANCH   1   2
BRANCH   1  30
ATOM     30  C   UNL A   1      35.379  21.001  24.526  1.00  0.00     0.275 C 
BRANCH  30  31
ATOM     31  C   UNL A   1      36.409  21.348  25.602  1.00  0.00     0.275 C 
BRANCH  31  32
ATOM     32  O   UNL A   1      37.693  21.628  25.014  1.00  0.00    -0.458 OA
BRANCH  32  33
ATOM     33  C   UNL A   1      38.761  21.281  25.767  1.00  0.00     0.338 C 
ATOM     34  O   UNL A   1      39.299  20.188  25.839  1.00  0.00    -0.246 OA
BRANCH  33  35
ATOM     35  C   UNL A   1      39.304  22.462  26.454  1.00  0.00     0.060 A 
ATOM     36  C   UNL A   1      38.795  23.705  26.097  1.00  0.00     0.016 A 
ATOM     37  C   UNL A   1      40.425  22.380  27.276  1.00  0.00     0.016 A 
ATOM     38  C   UNL A   1      39.432  24.874  26.488  1.00  0.00     0.010 A 
ATOM     39  C   UNL A   1      41.032  23.562  27.730  1.00  0.00     0.010 A 
ATOM     40  C   UNL A   1      40.566  24.821  27.305  1.00  0.00    -0.014 A 
BRANCH  40  41
ATOM     41  C   UNL A   1      41.298  26.085  27.601  1.00  0.00     0.031 A 
ATOM     42  C   UNL A   1      40.660  27.145  28.461  1.00  0.00     0.074 A 
ATOM     43  C   UNL A   1      42.571  26.248  27.185  1.00  0.00     0.049 A 
ATOM     44  N   UNL A   1      41.098  28.341  28.768  1.00  0.00    -0.248 NA
ATOM     45  C   UNL A   1      39.351  26.820  29.047  1.00  0.00     0.031 C 
ATOM     46  C   UNL A   1      43.334  25.279  26.396  1.00  0.00     0.029 A 
ATOM     47  N   UNL A   1      43.458  27.275  27.393  1.00  0.00    -0.354 N 
ATOM     48  C   UNL A   1      40.093  28.930  29.526  1.00  0.00     0.074 A 
ATOM     49  C   UNL A   1      39.022  27.963  29.632  1.00  0.00     0.031 C 
ATOM     50  C   UNL A   1      44.587  25.730  26.236  1.00  0.00     0.029 A 
ATOM     51  C   UNL A   1      44.696  27.056  26.838  1.00  0.00     0.049 A 
ATOM     52  H   UNL A   1      43.230  28.092  27.894  1.00  0.00     0.167 HD
ATOM     53  C   UNL A   1      40.068  30.165  30.084  1.00  0.00     0.037 A 
ATOM     54  C   UNL A   1      45.787  27.843  26.790  1.00  0.00     0.037 A 
ATOM     55  C   UNL A   1      41.162  31.101  30.036  1.00  0.00     0.049 A 
ATOM     56  C   UNL A   1      45.732  29.209  27.416  1.00  0.00     0.074 A 
ATOM     57  C   UNL A   1      41.237  32.373  30.578  1.00  0.00     0.029 A 
ATOM     58  N   UNL A   1      42.385  30.856  29.427  1.00  0.00    -0.354 N 
ATOM     59  N   UNL A   1      44.753  29.782  28.071  1.00  0.00    -0.248 NA
ATOM     60  C   UNL A   1      46.933  30.045  27.279  1.00  0.00     0.031 C 
ATOM     61  C   UNL A   1      42.491  32.910  30.267  1.00  0.00     0.029 A 
ATOM     62  C   UNL A   1      43.216  31.956  29.573  1.00  0.00     0.049 A 
ATOM     63  H   UNL A   1      42.626  30.024  28.961  1.00  0.00     0.167 HD
ATOM     64  C   UNL A   1      45.216  31.040  28.428  1.00  0.00     0.074 A 
ATOM     65  C   UNL A   1      46.580  31.134  27.947  1.00  0.00     0.031 C 
ATOM     66  C   UNL A   1      44.568  32.036  29.082  1.00  0.00     0.037 A 
BRANCH  53  67
ATOM     67  C   UNL A   1      38.800  30.592  30.765  1.00  0.00     0.064 A 
ATOM     68  C   UNL A   1      38.642  30.532  32.158  1.00  0.00     0.173 A 
ATOM     69  C   UNL A   1      37.732  31.098  30.006  1.00  0.00     0.173 A 
ATOM     70  F   UNL A   1      39.625  30.042  32.928  1.00  0.00    -0.203 F 
ATOM     71  C   UNL A   1      37.452  30.933  32.762  1.00  0.00     0.198 A 
ATOM     72  C   UNL A   1      36.556  31.527  30.616  1.00  0.00     0.198 A 
ATOM     73  F   UNL A   1      37.832  31.182  28.671  1.00  0.00    -0.203 F 
ATOM     74  F   UNL A   1      37.304  30.819  34.089  1.00  0.00    -0.200 F 
ATOM     75  C   UNL A   1      36.414  31.437  31.992  1.00  0.00     0.200 A 
ATOM     76  F   UNL A   1      35.560  32.025  29.870  1.00  0.00    -0.200 F 
ATOM     77  F   UNL A   1      35.272  31.829  32.576  1.00  0.00    -0.200 F 
ENDBRANCH  53  67
BRANCH  54  78
ATOM     78  C   UNL A   1      47.015  27.372  26.097  1.00  0.00     0.064 A 
ATOM     79  C   UNL A   1      47.204  27.591  24.726  1.00  0.00     0.173 A 
ATOM     80  C   UNL A   1      48.023  26.686  26.792  1.00  0.00     0.173 A 
ATOM     81  F   UNL A   1      46.256  28.214  24.011  1.00  0.00    -0.203 F 
ATOM     82  C   UNL A   1      48.346  27.131  24.074  1.00  0.00     0.198 A 
ATOM     83  C   UNL A   1      49.181  26.257  26.145  1.00  0.00     0.198 A 
ATOM     84  F   UNL A   1      47.891  26.443  28.104  1.00  0.00    -0.203 F 
ATOM     85  F   UNL A   1      48.479  27.310  22.751  1.00  0.00    -0.200 F 
ATOM     86  C   UNL A   1      49.338  26.472  24.785  1.00  0.00     0.200 A 
ATOM     87  F   UNL A   1      50.140  25.632  26.841  1.00  0.00    -0.200 F 
ATOM     88  F   UNL A   1      50.439  26.037  24.159  1.00  0.00    -0.200 F 
ENDBRANCH  54  78
BRANCH  66  89
ATOM     89  C   UNL A   1      45.341  33.299  29.328  1.00  0.00     0.064 A 
ATOM     90  C   UNL A   1      45.316  34.363  28.414  1.00  0.00     0.173 A 
ATOM     91  C   UNL A   1      46.117  33.445  30.486  1.00  0.00     0.173 A 
ATOM     92  F   UNL A   1      44.600  34.266  27.283  1.00  0.00    -0.203 F 
ATOM     93  C   UNL A   1      46.073  35.511  28.631  1.00  0.00     0.198 A 
ATOM     94  C   UNL A   1      46.850  34.607  30.716  1.00  0.00     0.198 A 
ATOM     95  F   UNL A   1      46.168  32.460  31.396  1.00  0.00    -0.203 F 
ATOM     96  F   UNL A   1      46.085  36.488  27.715  1.00  0.00    -0.200 F 
ATOM     97  C   UNL A   1      46.837  35.633  29.783  1.00  0.00     0.200 A 
ATOM     98  F   UNL A   1      47.578  34.728  31.834  1.00  0.00    -0.200 F 
ATOM     99  F   UNL A   1      47.571  36.736  29.988  1.00  0.00    -0.200 F 
ENDBRANCH  66  89
ENDBRANCH  40  41
ENDBRANCH  33  35
ENDBRANCH  32  33
ENDBRANCH  31  32
ENDBRANCH  30  31
ENDBRANCH   1  30
TORSDOF 16
ENDMDL
