MODEL 1
REMARK VINA RESULT:     -12.4      0.000      0.000
REMARK SMILES COc1cccc(C(=O)N2CCC(C(=O)N3CC[N@H+](C)[C@@H](C(=O)OCCOC(=O)c4ccc(-c5c6nc(c(-c7c(F)c(F)c(F)c(F)c7F)c7ccc([nH]7)c(-c7c(F)c(F)c(F)c(F)c7F)c7nc(c(-c8c(F)c(F)c(F)c(F)c8F)c8ccc5[nH]8)C=C7)C=C6)cc4)C3)CC2)c1
REMARK SMILES IDX 25 1 24 2 22 3 23 4 21 5 16 6 17 7 93 8 18 9 19 10 20 11
REMARK SMILES IDX 14 13 15 14 13 15 8 16 9 17 10 18 11 19 95 20 12 21 94 22
REMARK SMILES IDX 7 23 3 24 4 25 96 26 5 27 6 28 2 29 1 30 26 31 27 32 28 33
REMARK SMILES IDX 29 34 30 35 31 36 92 37 32 38 91 39 33 40 34 41 35 42 85 43
REMARK SMILES IDX 36 44 90 45 84 46 86 47 37 48 89 49 83 50 82 51 38 53 70 54
REMARK SMILES IDX 50 55 69 56 51 57 54 58 68 59 87 60 52 61 53 62 67 64 88 65
REMARK SMILES IDX 55 66 39 67 40 68 48 69 41 70 42 71 46 72 49 73 43 74 44 75
REMARK SMILES IDX 47 76 45 77 71 78 72 79 80 80 73 81 74 82 78 83 81 84 75 85
REMARK SMILES IDX 76 86 79 87 77 88 56 89 57 90 65 91 58 92 59 93 63 94 66 95
REMARK SMILES IDX 60 96 61 97 64 98 62 99
REMARK H PARENT 19 12 86 52 54 63
REMARK Flexibility Score: inf
ROOT
ATOM      1  C   UNL A   1      31.385  31.781  26.731  1.00  0.00     0.274 C 
ENDROOT
BRANCH   1   2
ATOM      2  O   UNL A   1      30.825  31.514  25.429  1.00  0.00    -0.458 OA
BRANCH   2   3
ATOM      3  C   UNL A   1      30.957  30.245  24.964  1.00  0.00     0.366 C 
ATOM      4  O   UNL A   1      30.382  29.811  23.969  1.00  0.00    -0.245 OA
BRANCH   3   5
ATOM      5  C   UNL A   1      31.932  29.389  25.796  1.00  0.00     0.314 C 
ATOM      6  N   UNL A   1      32.051  26.984  24.928  1.00  0.00    -0.330 N 
ATOM      7  C   UNL A   1      33.404  27.272  24.449  1.00  0.00     0.181 C 
ATOM      8  C   UNL A   1      31.509  27.908  25.935  1.00  0.00     0.197 C 
ATOM      9  C   UNL A   1      33.659  28.769  24.214  1.00  0.00     0.284 C 
ATOM     10  N   UNL A   1      33.328  29.640  25.355  1.00  0.00    -0.323 N 
ATOM     11  C   UNL A   1      34.268  29.474  26.462  1.00  0.00     0.333 C 
ATOM     12  H   UNL A   1      33.407  30.609  25.045  1.00  0.00     0.348 HD
BRANCH   6  13
ATOM     13  C   UNL A   1      31.546  25.705  24.690  1.00  0.00     0.226 C 
ATOM     14  O   UNL A   1      30.334  25.480  24.722  1.00  0.00    -0.275 OA
BRANCH  13  15
ATOM     15  C   UNL A   1      32.541  24.569  24.435  1.00  0.00     0.082 C 
ATOM     16  C   UNL A   1      33.322  20.526  25.231  1.00  0.00     0.253 C 
ATOM     17  O   UNL A   1      33.262  20.303  26.441  1.00  0.00    -0.269 OA
ATOM     18  N   UNL A   1      33.408  21.816  24.717  1.00  0.00    -0.339 N 
ATOM     19  C   UNL A   1      33.966  22.854  25.571  1.00  0.00     0.120 C 
ATOM     20  C   UNL A   1      32.897  22.257  23.418  1.00  0.00     0.120 C 
ATOM     21  C   UNL A   1      32.976  23.984  25.783  1.00  0.00     0.035 C 
ATOM     22  C   UNL A   1      31.934  23.443  23.574  1.00  0.00     0.035 C 
BRANCH  16  23
ATOM     23  C   UNL A   1      33.434  19.350  24.324  1.00  0.00     0.043 A 
ATOM     24  C   UNL A   1      34.254  17.116  23.862  1.00  0.00     0.119 A 
ATOM     25  C   UNL A   1      33.348  17.013  22.803  1.00  0.00     0.046 A 
ATOM     26  C   UNL A   1      34.300  18.287  24.621  1.00  0.00     0.060 A 
ATOM     27  C   UNL A   1      32.470  18.057  22.516  1.00  0.00     0.005 A 
ATOM     28  C   UNL A   1      32.509  19.224  23.279  1.00  0.00     0.014 A 
BRANCH  24  29
ATOM     29  O   UNL A   1      35.035  16.009  24.061  1.00  0.00    -0.497 OA
ATOM     30  C   UNL A   1      35.541  15.824  25.377  1.00  0.00     0.278 C 
ENDBRANCH  24  29
ENDBRANCH  16  23
ENDBRANCH  13  15
ENDBRANCH   6  13
ENDBRANCH   3   5
ENDBRANCH   2   3
ENDBRANCH   1   2
BRANCH   1  31
ATOM     31  C   UNL A   1      31.784  33.252  26.890  1.00  0.00     0.275 C 
BRANCH  31  32
ATOM     32  O   UNL A   1      33.214  33.424  26.888  1.00  0.00    -0.458 OA
BRANCH  32  33
ATOM     33  C   UNL A   1      33.730  33.992  27.999  1.00  0.00     0.338 C 
ATOM     34  O   UNL A   1      33.304  34.955  28.614  1.00  0.00    -0.246 OA
BRANCH  33  35
ATOM     35  C   UNL A   1      34.859  33.196  28.495  1.00  0.00     0.060 A 
ATOM     36  C   UNL A   1      34.570  32.014  29.177  1.00  0.00     0.016 A 
ATOM     37  C   UNL A   1      36.167  33.668  28.407  1.00  0.00     0.016 A 
ATOM     38  C   UNL A   1      35.588  31.297  29.796  1.00  0.00     0.010 A 
ATOM     39  C   UNL A   1      37.194  32.939  29.015  1.00  0.00     0.010 A 
ATOM     40  C   UNL A   1      36.907  31.759  29.724  1.00  0.00    -0.014 A 
BRANCH  40  41
ATOM     41  C   UNL A   1      37.977  31.024  30.436  1.00  0.00     0.031 A 
ATOM     42  C   UNL A   1      38.228  31.295  31.889  1.00  0.00     0.074 A 
ATOM     43  C   UNL A   1      38.702  30.100  29.781  1.00  0.00     0.049 A 
ATOM     44  N   UNL A   1      39.185  30.851  32.662  1.00  0.00    -0.248 NA
ATOM     45  C   UNL A   1      37.271  32.185  32.565  1.00  0.00     0.031 C 
ATOM     46  C   UNL A   1      38.506  29.709  28.385  1.00  0.00     0.029 A 
ATOM     47  N   UNL A   1      39.751  29.325  30.203  1.00  0.00    -0.354 N 
ATOM     48  C   UNL A   1      38.966  31.429  33.905  1.00  0.00     0.074 A 
ATOM     49  C   UNL A   1      37.786  32.258  33.784  1.00  0.00     0.031 C 
ATOM     50  C   UNL A   1      39.409  28.768  28.065  1.00  0.00     0.029 A 
ATOM     51  C   UNL A   1      40.277  28.532  29.215  1.00  0.00     0.049 A 
ATOM     52  H   UNL A   1      40.095  29.338  31.126  1.00  0.00     0.167 HD
ATOM     53  C   UNL A   1      39.690  31.280  35.038  1.00  0.00     0.037 A 
ATOM     54  C   UNL A   1      41.360  27.733  29.228  1.00  0.00     0.037 A 
ATOM     55  C   UNL A   1      40.851  30.438  35.154  1.00  0.00     0.049 A 
ATOM     56  C   UNL A   1      42.178  27.627  30.484  1.00  0.00     0.074 A 
ATOM     57  C   UNL A   1      41.653  30.216  36.260  1.00  0.00     0.029 A 
ATOM     58  N   UNL A   1      41.373  29.671  34.122  1.00  0.00    -0.354 N 
ATOM     59  N   UNL A   1      41.987  28.204  31.646  1.00  0.00    -0.248 NA
ATOM     60  C   UNL A   1      43.371  26.772  30.426  1.00  0.00     0.031 C 
ATOM     61  C   UNL A   1      42.679  29.340  35.888  1.00  0.00     0.029 A 
ATOM     62  C   UNL A   1      42.496  28.988  34.560  1.00  0.00     0.049 A 
ATOM     63  H   UNL A   1      41.001  29.621  33.212  1.00  0.00     0.167 HD
ATOM     64  C   UNL A   1      43.024  27.774  32.460  1.00  0.00     0.074 A 
ATOM     65  C   UNL A   1      43.835  26.875  31.664  1.00  0.00     0.031 C 
ATOM     66  C   UNL A   1      43.287  28.098  33.750  1.00  0.00     0.037 A 
BRANCH  53  67
ATOM     67  C   UNL A   1      39.267  32.075  36.237  1.00  0.00     0.064 A 
ATOM     68  C   UNL A   1      38.290  31.607  37.125  1.00  0.00     0.173 A 
ATOM     69  C   UNL A   1      39.869  33.313  36.510  1.00  0.00     0.173 A 
ATOM     70  F   UNL A   1      37.673  30.438  36.895  1.00  0.00    -0.203 F 
ATOM     71  C   UNL A   1      37.915  32.359  38.236  1.00  0.00     0.198 A 
ATOM     72  C   UNL A   1      39.508  34.052  37.633  1.00  0.00     0.198 A 
ATOM     73  F   UNL A   1      40.809  33.804  35.689  1.00  0.00    -0.203 F 
ATOM     74  F   UNL A   1      36.950  31.913  39.050  1.00  0.00    -0.200 F 
ATOM     75  C   UNL A   1      38.528  33.578  38.492  1.00  0.00     0.200 A 
ATOM     76  F   UNL A   1      40.104  35.226  37.881  1.00  0.00    -0.200 F 
ATOM     77  F   UNL A   1      38.167  34.300  39.562  1.00  0.00    -0.200 F 
ENDBRANCH  53  67
BRANCH  54  78
ATOM     78  C   UNL A   1      41.748  26.999  27.998  1.00  0.00     0.064 A 
ATOM     79  C   UNL A   1      42.621  27.569  27.063  1.00  0.00     0.173 A 
ATOM     80  C   UNL A   1      41.259  25.710  27.737  1.00  0.00     0.173 A 
ATOM     81  F   UNL A   1      43.094  28.809  27.257  1.00  0.00    -0.203 F 
ATOM     82  C   UNL A   1      42.985  26.880  25.908  1.00  0.00     0.198 A 
ATOM     83  C   UNL A   1      41.642  25.013  26.594  1.00  0.00     0.198 A 
ATOM     84  F   UNL A   1      40.418  25.125  28.602  1.00  0.00    -0.203 F 
ATOM     85  F   UNL A   1      43.794  27.461  25.011  1.00  0.00    -0.200 F 
ATOM     86  C   UNL A   1      42.501  25.600  25.678  1.00  0.00     0.200 A 
ATOM     87  F   UNL A   1      41.180  23.773  26.383  1.00  0.00    -0.200 F 
ATOM     88  F   UNL A   1      42.856  24.936  24.570  1.00  0.00    -0.200 F 
ENDBRANCH  54  78
BRANCH  66  89
ATOM     89  C   UNL A   1      44.486  27.460  34.382  1.00  0.00     0.064 A 
ATOM     90  C   UNL A   1      45.737  28.091  34.373  1.00  0.00     0.173 A 
ATOM     91  C   UNL A   1      44.373  26.222  35.030  1.00  0.00     0.173 A 
ATOM     92  F   UNL A   1      45.896  29.269  33.751  1.00  0.00    -0.203 F 
ATOM     93  C   UNL A   1      46.840  27.495  34.978  1.00  0.00     0.198 A 
ATOM     94  C   UNL A   1      45.473  25.638  35.653  1.00  0.00     0.198 A 
ATOM     95  F   UNL A   1      43.194  25.583  35.067  1.00  0.00    -0.203 F 
ATOM     96  F   UNL A   1      48.037  28.097  34.927  1.00  0.00    -0.200 F 
ATOM     97  C   UNL A   1      46.706  26.273  35.622  1.00  0.00     0.200 A 
ATOM     98  F   UNL A   1      45.341  24.463  36.281  1.00  0.00    -0.200 F 
ATOM     99  F   UNL A   1      47.769  25.702  36.206  1.00  0.00    -0.200 F 
ENDBRANCH  66  89
ENDBRANCH  40  41
ENDBRANCH  33  35
ENDBRANCH  32  33
ENDBRANCH  31  32
ENDBRANCH   1  31
TORSDOF 15
ENDMDL
MODEL 2
REMARK VINA RESULT:     -12.4      1.895      7.534
REMARK SMILES COc1cccc(C(=O)N2CCC(C(=O)N3CC[N@H+](C)[C@@H](C(=O)OCCOC(=O)c4ccc(-c5c6nc(c(-c7c(F)c(F)c(F)c(F)c7F)c7ccc([nH]7)c(-c7c(F)c(F)c(F)c(F)c7F)c7nc(c(-c8c(F)c(F)c(F)c(F)c8F)c8ccc5[nH]8)C=C7)C=C6)cc4)C3)CC2)c1
REMARK SMILES IDX 25 1 24 2 22 3 23 4 21 5 16 6 17 7 93 8 18 9 19 10 20 11
REMARK SMILES IDX 14 13 15 14 13 15 8 16 9 17 10 18 11 19 95 20 12 21 94 22
REMARK SMILES IDX 7 23 3 24 4 25 96 26 5 27 6 28 2 29 1 30 26 31 27 32 28 33
REMARK SMILES IDX 29 34 30 35 31 36 92 37 32 38 91 39 33 40 34 41 35 42 85 43
REMARK SMILES IDX 36 44 90 45 84 46 86 47 37 48 89 49 83 50 82 51 38 53 70 54
REMARK SMILES IDX 50 55 69 56 51 57 54 58 68 59 87 60 52 61 53 62 67 64 88 65
REMARK SMILES IDX 55 66 39 67 40 68 48 69 41 70 42 71 46 72 49 73 43 74 44 75
REMARK SMILES IDX 47 76 45 77 71 78 72 79 80 80 73 81 74 82 78 83 81 84 75 85
REMARK SMILES IDX 76 86 79 87 77 88 56 89 57 90 65 91 58 92 59 93 63 94 66 95
REMARK SMILES IDX 60 96 61 97 64 98 62 99
REMARK H PARENT 19 12 86 52 54 63
REMARK Flexibility Score: inf
ROOT
ATOM      1  C   UNL A   1      30.970  31.261  26.139  1.00  0.00     0.274 C 
ENDROOT
BRANCH   1   2
ATOM      2  O   UNL A   1      30.788  30.680  24.831  1.00  0.00    -0.458 OA
BRANCH   2   3
ATOM      3  C   UNL A   1      29.918  31.317  24.004  1.00  0.00     0.366 C 
ATOM      4  O   UNL A   1      29.471  32.443  24.209  1.00  0.00    -0.245 OA
BRANCH   3   5
ATOM      5  C   UNL A   1      29.555  30.497  22.752  1.00  0.00     0.314 C 
ATOM      6  N   UNL A   1      28.977  28.075  23.345  1.00  0.00    -0.330 N 
ATOM      7  C   UNL A   1      27.582  28.374  23.015  1.00  0.00     0.181 C 
ATOM      8  C   UNL A   1      29.982  29.012  22.824  1.00  0.00     0.197 C 
ATOM      9  C   UNL A   1      27.243  29.870  23.115  1.00  0.00     0.284 C 
ATOM     10  N   UNL A   1      28.145  30.761  22.366  1.00  0.00    -0.323 N 
ATOM     11  C   UNL A   1      27.962  30.636  20.920  1.00  0.00     0.333 C 
ATOM     12  H   UNL A   1      27.910  31.723  22.609  1.00  0.00     0.348 HD
BRANCH   6  13
ATOM     13  C   UNL A   1      29.268  26.782  23.784  1.00  0.00     0.226 C 
ATOM     14  O   UNL A   1      28.398  25.909  23.820  1.00  0.00    -0.275 OA
BRANCH  13  15
ATOM     15  C   UNL A   1      30.689  26.484  24.269  1.00  0.00     0.082 C 
ATOM     16  C   UNL A   1      33.069  23.608  26.181  1.00  0.00     0.253 C 
ATOM     17  O   UNL A   1      32.552  23.254  27.241  1.00  0.00    -0.269 OA
ATOM     18  N   UNL A   1      32.662  24.753  25.502  1.00  0.00    -0.339 N 
ATOM     19  C   UNL A   1      32.029  25.813  26.273  1.00  0.00     0.120 C 
ATOM     20  C   UNL A   1      32.721  24.958  24.054  1.00  0.00     0.120 C 
ATOM     21  C   UNL A   1      30.635  26.114  25.754  1.00  0.00     0.035 C 
ATOM     22  C   UNL A   1      31.342  25.326  23.488  1.00  0.00     0.035 C 
BRANCH  16  23
ATOM     23  C   UNL A   1      34.250  22.837  25.703  1.00  0.00     0.043 A 
ATOM     24  C   UNL A   1      36.645  22.460  25.665  1.00  0.00     0.119 A 
ATOM     25  C   UNL A   1      36.427  21.192  25.121  1.00  0.00     0.046 A 
ATOM     26  C   UNL A   1      35.555  23.285  25.954  1.00  0.00     0.060 A 
ATOM     27  C   UNL A   1      35.131  20.732  24.889  1.00  0.00     0.005 A 
ATOM     28  C   UNL A   1      34.043  21.552  25.186  1.00  0.00     0.014 A 
BRANCH  24  29
ATOM     29  O   UNL A   1      37.960  22.778  25.876  1.00  0.00    -0.497 OA
ATOM     30  C   UNL A   1      38.215  24.052  26.454  1.00  0.00     0.278 C 
ENDBRANCH  24  29
ENDBRANCH  16  23
ENDBRANCH  13  15
ENDBRANCH   6  13
ENDBRANCH   3   5
ENDBRANCH   2   3
ENDBRANCH   1   2
BRANCH   1  31
ATOM     31  C   UNL A   1      31.997  30.485  26.970  1.00  0.00     0.275 C 
BRANCH  31  32
ATOM     32  O   UNL A   1      33.348  30.872  26.652  1.00  0.00    -0.458 OA
BRANCH  32  33
ATOM     33  C   UNL A   1      33.866  31.848  27.428  1.00  0.00     0.338 C 
ATOM     34  O   UNL A   1      33.346  32.903  27.750  1.00  0.00    -0.246 OA
BRANCH  33  35
ATOM     35  C   UNL A   1      35.156  31.422  27.982  1.00  0.00     0.060 A 
ATOM     36  C   UNL A   1      35.245  30.128  28.498  1.00  0.00     0.016 A 
ATOM     37  C   UNL A   1      36.216  32.317  28.113  1.00  0.00     0.016 A 
ATOM     38  C   UNL A   1      36.393  29.720  29.167  1.00  0.00     0.010 A 
ATOM     39  C   UNL A   1      37.377  31.901  28.772  1.00  0.00     0.010 A 
ATOM     40  C   UNL A   1      37.465  30.606  29.314  1.00  0.00    -0.014 A 
BRANCH  40  41
ATOM     41  C   UNL A   1      38.660  30.186  30.081  1.00  0.00     0.031 A 
ATOM     42  C   UNL A   1      39.630  29.215  29.478  1.00  0.00     0.074 A 
ATOM     43  C   UNL A   1      38.882  30.698  31.305  1.00  0.00     0.049 A 
ATOM     44  N   UNL A   1      40.666  28.632  30.022  1.00  0.00    -0.248 NA
ATOM     45  C   UNL A   1      39.403  28.850  28.071  1.00  0.00     0.031 C 
ATOM     46  C   UNL A   1      38.042  31.696  31.967  1.00  0.00     0.029 A 
ATOM     47  N   UNL A   1      39.880  30.446  32.210  1.00  0.00    -0.354 N 
ATOM     48  C   UNL A   1      41.198  27.810  29.038  1.00  0.00     0.074 A 
ATOM     49  C   UNL A   1      40.369  27.967  27.862  1.00  0.00     0.031 C 
ATOM     50  C   UNL A   1      38.559  31.970  33.175  1.00  0.00     0.029 A 
ATOM     51  C   UNL A   1      39.733  31.129  33.390  1.00  0.00     0.049 A 
ATOM     52  H   UNL A   1      40.630  29.833  32.030  1.00  0.00     0.167 HD
ATOM     53  C   UNL A   1      42.277  26.998  29.117  1.00  0.00     0.037 A 
ATOM     54  C   UNL A   1      40.443  31.054  34.531  1.00  0.00     0.037 A 
ATOM     55  C   UNL A   1      43.108  26.863  30.284  1.00  0.00     0.049 A 
ATOM     56  C   UNL A   1      41.605  30.104  34.609  1.00  0.00     0.074 A 
ATOM     57  C   UNL A   1      44.227  26.069  30.464  1.00  0.00     0.029 A 
ATOM     58  N   UNL A   1      42.909  27.549  31.474  1.00  0.00    -0.354 N 
ATOM     59  N   UNL A   1      42.082  29.303  33.688  1.00  0.00    -0.248 NA
ATOM     60  C   UNL A   1      42.319  30.037  35.892  1.00  0.00     0.031 C 
ATOM     61  C   UNL A   1      44.686  26.250  31.773  1.00  0.00     0.029 A 
ATOM     62  C   UNL A   1      43.875  27.185  32.398  1.00  0.00     0.049 A 
ATOM     63  H   UNL A   1      42.188  28.198  31.638  1.00  0.00     0.167 HD
ATOM     64  C   UNL A   1      43.155  28.646  34.271  1.00  0.00     0.074 A 
ATOM     65  C   UNL A   1      43.271  29.154  35.623  1.00  0.00     0.031 C 
ATOM     66  C   UNL A   1      43.970  27.703  33.738  1.00  0.00     0.037 A 
BRANCH  53  67
ATOM     67  C   UNL A   1      42.601  26.162  27.915  1.00  0.00     0.064 A 
ATOM     68  C   UNL A   1      41.979  24.927  27.686  1.00  0.00     0.173 A 
ATOM     69  C   UNL A   1      43.530  26.619  26.967  1.00  0.00     0.173 A 
ATOM     70  F   UNL A   1      41.098  24.440  28.574  1.00  0.00    -0.203 F 
ATOM     71  C   UNL A   1      42.289  24.169  26.560  1.00  0.00     0.198 A 
ATOM     72  C   UNL A   1      43.821  25.868  25.832  1.00  0.00     0.198 A 
ATOM     73  F   UNL A   1      44.152  27.794  27.142  1.00  0.00    -0.203 F 
ATOM     74  F   UNL A   1      41.714  22.972  26.381  1.00  0.00    -0.200 F 
ATOM     75  C   UNL A   1      43.206  24.642  25.632  1.00  0.00     0.200 A 
ATOM     76  F   UNL A   1      44.702  26.329  24.934  1.00  0.00    -0.200 F 
ATOM     77  F   UNL A   1      43.503  23.911  24.548  1.00  0.00    -0.200 F 
ENDBRANCH  53  67
BRANCH  54  78
ATOM     78  C   UNL A   1      40.051  31.881  35.699  1.00  0.00     0.064 A 
ATOM     79  C   UNL A   1      38.958  31.527  36.499  1.00  0.00     0.173 A 
ATOM     80  C   UNL A   1      40.766  33.038  36.041  1.00  0.00     0.173 A 
ATOM     81  F   UNL A   1      38.228  30.443  36.195  1.00  0.00    -0.203 F 
ATOM     82  C   UNL A   1      38.588  32.304  37.595  1.00  0.00     0.198 A 
ATOM     83  C   UNL A   1      40.411  33.801  37.152  1.00  0.00     0.198 A 
ATOM     84  F   UNL A   1      41.819  33.419  35.304  1.00  0.00    -0.203 F 
ATOM     85  F   UNL A   1      37.517  31.963  38.325  1.00  0.00    -0.200 F 
ATOM     86  C   UNL A   1      39.320  33.435  37.925  1.00  0.00     0.200 A 
ATOM     87  F   UNL A   1      41.127  34.887  37.472  1.00  0.00    -0.200 F 
ATOM     88  F   UNL A   1      38.968  34.179  38.983  1.00  0.00    -0.200 F 
ENDBRANCH  54  78
BRANCH  66  89
ATOM     89  C   UNL A   1      45.067  27.177  34.613  1.00  0.00     0.064 A 
ATOM     90  C   UNL A   1      46.316  27.810  34.676  1.00  0.00     0.173 A 
ATOM     91  C   UNL A   1      44.854  26.050  35.419  1.00  0.00     0.173 A 
ATOM     92  F   UNL A   1      46.570  28.882  33.911  1.00  0.00    -0.203 F 
ATOM     93  C   UNL A   1      47.321  27.320  35.505  1.00  0.00     0.198 A 
ATOM     94  C   UNL A   1      45.855  25.575  36.262  1.00  0.00     0.198 A 
ATOM     95  F   UNL A   1      43.673  25.414  35.393  1.00  0.00    -0.203 F 
ATOM     96  F   UNL A   1      48.521  27.918  35.524  1.00  0.00    -0.200 F 
ATOM     97  C   UNL A   1      47.088  26.209  36.301  1.00  0.00     0.200 A 
ATOM     98  F   UNL A   1      45.626  24.506  37.036  1.00  0.00    -0.200 F 
ATOM     99  F   UNL A   1      48.057  25.740  37.100  1.00  0.00    -0.200 F 
ENDBRANCH  66  89
ENDBRANCH  40  41
ENDBRANCH  33  35
ENDBRANCH  32  33
ENDBRANCH  31  32
ENDBRANCH   1  31
TORSDOF 15
ENDMDL
MODEL 3
REMARK VINA RESULT:     -12.4      4.713     11.149
REMARK SMILES COc1cccc(C(=O)N2CCC(C(=O)N3CC[N@H+](C)[C@@H](C(=O)OCCOC(=O)c4ccc(-c5c6nc(c(-c7c(F)c(F)c(F)c(F)c7F)c7ccc([nH]7)c(-c7c(F)c(F)c(F)c(F)c7F)c7nc(c(-c8c(F)c(F)c(F)c(F)c8F)c8ccc5[nH]8)C=C7)C=C6)cc4)C3)CC2)c1
REMARK SMILES IDX 25 1 24 2 22 3 23 4 21 5 16 6 17 7 93 8 18 9 19 10 20 11
REMARK SMILES IDX 14 13 15 14 13 15 8 16 9 17 10 18 11 19 95 20 12 21 94 22
REMARK SMILES IDX 7 23 3 24 4 25 96 26 5 27 6 28 2 29 1 30 26 31 27 32 28 33
REMARK SMILES IDX 29 34 30 35 31 36 92 37 32 38 91 39 33 40 34 41 35 42 85 43
REMARK SMILES IDX 36 44 90 45 84 46 86 47 37 48 89 49 83 50 82 51 38 53 70 54
REMARK SMILES IDX 50 55 69 56 51 57 54 58 68 59 87 60 52 61 53 62 67 64 88 65
REMARK SMILES IDX 55 66 39 67 40 68 48 69 41 70 42 71 46 72 49 73 43 74 44 75
REMARK SMILES IDX 47 76 45 77 71 78 72 79 80 80 73 81 74 82 78 83 81 84 75 85
REMARK SMILES IDX 76 86 79 87 77 88 56 89 57 90 65 91 58 92 59 93 63 94 66 95
REMARK SMILES IDX 60 96 61 97 64 98 62 99
REMARK H PARENT 19 12 86 52 54 63
REMARK Flexibility Score: inf
ROOT
ATOM      1  C   UNL A   1      38.388  19.727  24.925  1.00  0.00     0.274 C 
ENDROOT
BRANCH   1   2
ATOM      2  O   UNL A   1      37.164  20.261  25.470  1.00  0.00    -0.458 OA
BRANCH   2   3
ATOM      3  C   UNL A   1      36.731  21.436  24.943  1.00  0.00     0.366 C 
ATOM      4  O   UNL A   1      37.134  21.904  23.881  1.00  0.00    -0.245 OA
BRANCH   3   5
ATOM      5  C   UNL A   1      35.653  22.128  25.797  1.00  0.00     0.314 C 
ATOM      6  N   UNL A   1      33.911  23.309  24.341  1.00  0.00    -0.330 N 
ATOM      7  C   UNL A   1      32.945  22.285  24.742  1.00  0.00     0.181 C 
ATOM      8  C   UNL A   1      35.108  23.439  25.184  1.00  0.00     0.197 C 
ATOM      9  C   UNL A   1      33.607  20.975  25.200  1.00  0.00     0.284 C 
ATOM     10  N   UNL A   1      34.641  21.133  26.237  1.00  0.00    -0.323 N 
ATOM     11  C   UNL A   1      34.068  21.502  27.531  1.00  0.00     0.333 C 
ATOM     12  H   UNL A   1      35.099  20.231  26.366  1.00  0.00     0.348 HD
BRANCH   6  13
ATOM     13  C   UNL A   1      33.467  24.295  23.457  1.00  0.00     0.226 C 
ATOM     14  O   UNL A   1      34.073  24.533  22.409  1.00  0.00    -0.275 OA
BRANCH  13  15
ATOM     15  C   UNL A   1      32.233  25.114  23.845  1.00  0.00     0.082 C 
ATOM     16  C   UNL A   1      30.776  29.023  24.278  1.00  0.00     0.253 C 
ATOM     17  O   UNL A   1      31.534  29.691  24.982  1.00  0.00    -0.269 OA
ATOM     18  N   UNL A   1      30.849  27.634  24.220  1.00  0.00    -0.339 N 
ATOM     19  C   UNL A   1      31.424  26.934  25.359  1.00  0.00     0.120 C 
ATOM     20  C   UNL A   1      30.487  26.804  23.070  1.00  0.00     0.120 C 
ATOM     21  C   UNL A   1      32.625  26.104  24.946  1.00  0.00     0.035 C 
ATOM     22  C   UNL A   1      31.653  25.898  22.650  1.00  0.00     0.035 C 
BRANCH  16  23
ATOM     23  C   UNL A   1      29.676  29.743  23.580  1.00  0.00     0.043 A 
ATOM     24  C   UNL A   1      28.601  31.813  22.917  1.00  0.00     0.119 A 
ATOM     25  C   UNL A   1      27.844  31.108  21.978  1.00  0.00     0.046 A 
ATOM     26  C   UNL A   1      29.516  31.130  23.721  1.00  0.00     0.060 A 
ATOM     27  C   UNL A   1      28.013  29.733  21.818  1.00  0.00     0.005 A 
ATOM     28  C   UNL A   1      28.933  29.052  22.615  1.00  0.00     0.014 A 
BRANCH  24  29
ATOM     29  O   UNL A   1      28.366  33.161  22.951  1.00  0.00    -0.497 OA
ATOM     30  C   UNL A   1      29.428  33.975  23.432  1.00  0.00     0.278 C 
ENDBRANCH  24  29
ENDBRANCH  16  23
ENDBRANCH  13  15
ENDBRANCH   6  13
ENDBRANCH   3   5
ENDBRANCH   2   3
ENDBRANCH   1   2
BRANCH   1  31
ATOM     31  C   UNL A   1      39.488  19.624  25.987  1.00  0.00     0.275 C 
BRANCH  31  32
ATOM     32  O   UNL A   1      40.752  19.234  25.415  1.00  0.00    -0.458 OA
BRANCH  32  33
ATOM     33  C   UNL A   1      41.794  19.222  26.273  1.00  0.00     0.338 C 
ATOM     34  O   UNL A   1      42.336  18.254  26.779  1.00  0.00    -0.246 OA
BRANCH  33  35
ATOM     35  C   UNL A   1      42.324  20.579  26.443  1.00  0.00     0.060 A 
ATOM     36  C   UNL A   1      42.486  21.056  27.744  1.00  0.00     0.016 A 
ATOM     37  C   UNL A   1      42.534  21.414  25.346  1.00  0.00     0.016 A 
ATOM     38  C   UNL A   1      42.843  22.381  27.964  1.00  0.00     0.010 A 
ATOM     39  C   UNL A   1      42.909  22.743  25.567  1.00  0.00     0.010 A 
ATOM     40  C   UNL A   1      43.051  23.236  26.877  1.00  0.00    -0.014 A 
BRANCH  40  41
ATOM     41  C   UNL A   1      43.371  24.661  27.119  1.00  0.00     0.031 A 
ATOM     42  C   UNL A   1      44.752  25.173  26.840  1.00  0.00     0.074 A 
ATOM     43  C   UNL A   1      42.413  25.494  27.564  1.00  0.00     0.049 A 
ATOM     44  N   UNL A   1      45.268  26.348  27.094  1.00  0.00    -0.248 NA
ATOM     45  C   UNL A   1      45.679  24.236  26.186  1.00  0.00     0.031 C 
ATOM     46  C   UNL A   1      41.020  25.122  27.811  1.00  0.00     0.029 A 
ATOM     47  N   UNL A   1      42.469  26.824  27.891  1.00  0.00    -0.354 N 
ATOM     48  C   UNL A   1      46.585  26.284  26.660  1.00  0.00     0.074 A 
ATOM     49  C   UNL A   1      46.792  24.954  26.128  1.00  0.00     0.031 C 
ATOM     50  C   UNL A   1      40.353  26.199  28.253  1.00  0.00     0.029 A 
ATOM     51  C   UNL A   1      41.283  27.319  28.371  1.00  0.00     0.049 A 
ATOM     52  H   UNL A   1      43.282  27.371  27.792  1.00  0.00     0.167 HD
ATOM     53  C   UNL A   1      47.531  27.251  26.708  1.00  0.00     0.037 A 
ATOM     54  C   UNL A   1      40.991  28.529  28.883  1.00  0.00     0.037 A 
ATOM     55  C   UNL A   1      47.311  28.577  27.221  1.00  0.00     0.049 A 
ATOM     56  C   UNL A   1      42.075  29.566  28.974  1.00  0.00     0.074 A 
ATOM     57  C   UNL A   1      48.204  29.630  27.310  1.00  0.00     0.029 A 
ATOM     58  N   UNL A   1      46.103  29.034  27.728  1.00  0.00    -0.354 N 
ATOM     59  N   UNL A   1      43.328  29.490  28.596  1.00  0.00    -0.248 NA
ATOM     60  C   UNL A   1      41.707  30.854  29.579  1.00  0.00     0.031 C 
ATOM     61  C   UNL A   1      47.544  30.714  27.901  1.00  0.00     0.029 A 
ATOM     62  C   UNL A   1      46.230  30.348  28.146  1.00  0.00     0.049 A 
ATOM     63  H   UNL A   1      45.276  28.502  27.782  1.00  0.00     0.167 HD
ATOM     64  C   UNL A   1      43.895  30.717  28.903  1.00  0.00     0.074 A 
ATOM     65  C   UNL A   1      42.846  31.528  29.485  1.00  0.00     0.031 C 
ATOM     66  C   UNL A   1      45.172  31.135  28.724  1.00  0.00     0.037 A 
BRANCH  53  67
ATOM     67  C   UNL A   1      48.905  26.895  26.225  1.00  0.00     0.064 A 
ATOM     68  C   UNL A   1      49.301  27.118  24.899  1.00  0.00     0.173 A 
ATOM     69  C   UNL A   1      49.844  26.346  27.111  1.00  0.00     0.173 A 
ATOM     70  F   UNL A   1      48.432  27.623  24.010  1.00  0.00    -0.203 F 
ATOM     71  C   UNL A   1      50.584  26.786  24.471  1.00  0.00     0.198 A 
ATOM     72  C   UNL A   1      51.132  26.036  26.685  1.00  0.00     0.198 A 
ATOM     73  F   UNL A   1      49.513  26.113  28.389  1.00  0.00    -0.203 F 
ATOM     74  F   UNL A   1      50.930  26.969  23.190  1.00  0.00    -0.200 F 
ATOM     75  C   UNL A   1      51.500  26.250  25.366  1.00  0.00     0.200 A 
ATOM     76  F   UNL A   1      52.018  25.523  27.551  1.00  0.00    -0.200 F 
ATOM     77  F   UNL A   1      52.735  25.932  24.953  1.00  0.00    -0.200 F 
ENDBRANCH  53  67
BRANCH  54  78
ATOM     78  C   UNL A   1      39.620  28.808  29.379  1.00  0.00     0.064 A 
ATOM     79  C   UNL A   1      38.653  29.377  28.542  1.00  0.00     0.173 A 
ATOM     80  C   UNL A   1      39.250  28.501  30.696  1.00  0.00     0.173 A 
ATOM     81  F   UNL A   1      38.970  29.711  27.281  1.00  0.00    -0.203 F 
ATOM     82  C   UNL A   1      37.367  29.639  29.007  1.00  0.00     0.198 A 
ATOM     83  C   UNL A   1      37.956  28.741  31.153  1.00  0.00     0.198 A 
ATOM     84  F   UNL A   1      40.142  27.957  31.535  1.00  0.00    -0.203 F 
ATOM     85  F   UNL A   1      36.468  30.218  28.198  1.00  0.00    -0.200 F 
ATOM     86  C   UNL A   1      37.017  29.314  30.309  1.00  0.00     0.200 A 
ATOM     87  F   UNL A   1      37.620  28.415  32.409  1.00  0.00    -0.200 F 
ATOM     88  F   UNL A   1      35.777  29.560  30.754  1.00  0.00    -0.200 F 
ENDBRANCH  54  78
BRANCH  66  89
ATOM     89  C   UNL A   1      45.495  32.537  29.144  1.00  0.00     0.064 A 
ATOM     90  C   UNL A   1      45.996  32.817  30.423  1.00  0.00     0.173 A 
ATOM     91  C   UNL A   1      45.333  33.602  28.247  1.00  0.00     0.173 A 
ATOM     92  F   UNL A   1      46.151  31.831  31.319  1.00  0.00    -0.203 F 
ATOM     93  C   UNL A   1      46.307  34.122  30.795  1.00  0.00     0.198 A 
ATOM     94  C   UNL A   1      45.666  34.903  28.616  1.00  0.00     0.198 A 
ATOM     95  F   UNL A   1      44.860  33.381  27.012  1.00  0.00    -0.203 F 
ATOM     96  F   UNL A   1      46.749  34.375  32.035  1.00  0.00    -0.200 F 
ATOM     97  C   UNL A   1      46.148  35.161  29.891  1.00  0.00     0.200 A 
ATOM     98  F   UNL A   1      45.519  35.905  27.739  1.00  0.00    -0.200 F 
ATOM     99  F   UNL A   1      46.451  36.417  30.251  1.00  0.00    -0.200 F 
ENDBRANCH  66  89
ENDBRANCH  40  41
ENDBRANCH  33  35
ENDBRANCH  32  33
ENDBRANCH  31  32
ENDBRANCH   1  31
TORSDOF 15
ENDMDL
