MODEL 1
REMARK VINA RESULT:     -12.9      0.000      0.000
REMARK SMILES CS(=O)(=O)c1ccc(-c2cc(Cl)cnc2-c2ccc(C(=O)OCCOC(=O)c3ccc(-c4c5nc(c(-c6c(F)c(F)c(F)c(F)c6F)c6ccc([nH]6)c(-c6c(F)c(F)c(F)c(F)c6F)c6nc(c(-c7c(F)c(F)c(F)c(F)c7F)c7ccc4[nH]7)C=C6)C=C5)cc3)nc2)cc1
REMARK SMILES IDX 23 1 22 2 20 3 21 4 19 5 16 6 17 7 92 8 18 9 91 10 15 11
REMARK SMILES IDX 9 12 10 13 11 14 14 15 12 16 13 17 8 18 5 19 6 20 94 21 7 22
REMARK SMILES IDX 93 23 2 24 1 25 3 26 4 27 24 28 25 29 26 30 27 31 28 32
REMARK SMILES IDX 29 33 90 34 30 35 89 36 31 37 32 38 33 39 83 40 34 41 88 42
REMARK SMILES IDX 82 43 84 44 35 45 87 46 81 47 80 48 36 50 68 51 48 52 67 53
REMARK SMILES IDX 49 54 52 55 66 56 85 57 50 58 51 59 65 61 86 62 53 63 37 64
REMARK SMILES IDX 38 65 46 66 39 67 40 68 44 69 47 70 41 71 42 72 45 73 43 74
REMARK SMILES IDX 69 75 70 76 78 77 71 78 72 79 76 80 79 81 73 82 74 83 77 84
REMARK SMILES IDX 75 85 54 86 55 87 63 88 56 89 57 90 61 91 64 92 58 93 59 94
REMARK SMILES IDX 62 95 60 96
REMARK H PARENT 84 49 52 60
REMARK Flexibility Score: inf
ROOT
ATOM      1  C   UNL A   1      38.531  19.879  24.718  1.00  0.00     0.275 C 
ENDROOT
BRANCH   1   2
ATOM      2  O   UNL A   1      37.418  20.547  25.344  1.00  0.00    -0.457 OA
BRANCH   2   3
ATOM      3  C   UNL A   1      37.617  21.865  25.608  1.00  0.00     0.357 C 
ATOM      4  O   UNL A   1      38.636  22.348  26.080  1.00  0.00    -0.244 OA
BRANCH   3   5
ATOM      5  C   UNL A   1      36.461  22.688  25.136  1.00  0.00     0.148 A 
ATOM      6  C   UNL A   1      34.198  24.125  24.502  1.00  0.00     0.019 A 
ATOM      7  C   UNL A   1      34.936  23.496  23.489  1.00  0.00     0.014 A 
ATOM      8  C   UNL A   1      34.706  24.052  25.790  1.00  0.00     0.122 A 
ATOM      9  C   UNL A   1      36.093  22.775  23.802  1.00  0.00     0.037 A 
ATOM     10  N   UNL A   1      35.777  23.316  26.130  1.00  0.00    -0.249 NA
BRANCH   6  11
ATOM     11  C   UNL A   1      32.844  24.639  24.297  1.00  0.00     0.080 A 
ATOM     12  C   UNL A   1      31.755  23.755  24.098  1.00  0.00     0.010 A 
ATOM     13  C   UNL A   1      30.487  24.322  23.933  1.00  0.00     0.033 A 
ATOM     14  C   UNL A   1      30.338  25.704  24.004  1.00  0.00     0.060 A 
ATOM     15  N   UNL A   1      32.710  25.986  24.385  1.00  0.00    -0.254 NA
ATOM     16  Cl  UNL A   1      28.790  26.422  23.814  1.00  0.00    -0.083 Cl
ATOM     17  C   UNL A   1      31.459  26.485  24.238  1.00  0.00     0.132 A 
BRANCH  12  18
ATOM     18  C   UNL A   1      31.950  22.294  24.074  1.00  0.00    -0.016 A 
ATOM     19  C   UNL A   1      32.735  19.602  24.030  1.00  0.00     0.067 A 
ATOM     20  C   UNL A   1      32.566  20.245  25.254  1.00  0.00     0.021 A 
ATOM     21  C   UNL A   1      32.488  20.274  22.830  1.00  0.00     0.021 A 
ATOM     22  C   UNL A   1      32.150  21.579  25.271  1.00  0.00     0.010 A 
ATOM     23  C   UNL A   1      32.091  21.614  22.855  1.00  0.00     0.010 A 
BRANCH  19  24
ATOM     24  S   UNL A   1      33.365  17.941  23.985  1.00  0.00     0.175 S 
ATOM     25  C   UNL A   1      32.533  17.156  25.339  1.00  0.00     0.163 C 
ATOM     26  O   UNL A   1      34.779  17.993  24.297  1.00  0.00    -0.224 OA
ATOM     27  O   UNL A   1      32.896  17.339  22.751  1.00  0.00    -0.224 OA
ENDBRANCH  19  24
ENDBRANCH  12  18
ENDBRANCH   6  11
ENDBRANCH   3   5
ENDBRANCH   2   3
ENDBRANCH   1   2
BRANCH   1  28
ATOM     28  C   UNL A   1      39.434  19.203  25.755  1.00  0.00     0.275 C 
BRANCH  28  29
ATOM     29  O   UNL A   1      40.825  19.244  25.376  1.00  0.00    -0.458 OA
BRANCH  29  30
ATOM     30  C   UNL A   1      41.695  19.421  26.396  1.00  0.00     0.338 C 
ATOM     31  O   UNL A   1      42.365  18.566  26.953  1.00  0.00    -0.246 OA
BRANCH  30  32
ATOM     32  C   UNL A   1      41.817  20.851  26.723  1.00  0.00     0.060 A 
ATOM     33  C   UNL A   1      41.820  21.757  25.668  1.00  0.00     0.016 A 
ATOM     34  C   UNL A   1      42.072  21.295  28.018  1.00  0.00     0.016 A 
ATOM     35  C   UNL A   1      42.144  23.092  25.869  1.00  0.00     0.010 A 
ATOM     36  C   UNL A   1      42.336  22.657  28.237  1.00  0.00     0.010 A 
ATOM     37  C   UNL A   1      42.398  23.563  27.160  1.00  0.00    -0.014 A 
BRANCH  37  38
ATOM     38  C   UNL A   1      42.759  24.993  27.355  1.00  0.00     0.031 A 
ATOM     39  C   UNL A   1      44.097  25.501  26.895  1.00  0.00     0.074 A 
ATOM     40  C   UNL A   1      41.867  25.846  27.895  1.00  0.00     0.049 A 
ATOM     41  N   UNL A   1      44.646  26.676  27.080  1.00  0.00    -0.248 NA
ATOM     42  C   UNL A   1      44.930  24.565  26.123  1.00  0.00     0.031 C 
ATOM     43  C   UNL A   1      40.510  25.496  28.319  1.00  0.00     0.029 A 
ATOM     44  N   UNL A   1      41.964  27.188  28.175  1.00  0.00    -0.354 N 
ATOM     45  C   UNL A   1      45.894  26.611  26.473  1.00  0.00     0.074 A 
ATOM     46  C   UNL A   1      46.032  25.277  25.929  1.00  0.00     0.031 C 
ATOM     47  C   UNL A   1      39.900  26.592  28.794  1.00  0.00     0.029 A 
ATOM     48  C   UNL A   1      40.842  27.706  28.776  1.00  0.00     0.049 A 
ATOM     49  H   UNL A   1      42.761  27.726  27.966  1.00  0.00     0.167 HD
ATOM     50  C   UNL A   1      46.834  27.582  26.374  1.00  0.00     0.037 A 
ATOM     51  C   UNL A   1      40.613  28.927  29.295  1.00  0.00     0.037 A 
ATOM     52  C   UNL A   1      46.683  28.916  26.896  1.00  0.00     0.049 A 
ATOM     53  C   UNL A   1      41.703  29.962  29.234  1.00  0.00     0.074 A 
ATOM     54  C   UNL A   1      47.589  29.962  26.871  1.00  0.00     0.029 A 
ATOM     55  N   UNL A   1      45.541  29.392  27.524  1.00  0.00    -0.354 N 
ATOM     56  N   UNL A   1      42.897  29.878  28.701  1.00  0.00    -0.248 NA
ATOM     57  C   UNL A   1      41.416  31.263  29.856  1.00  0.00     0.031 C 
ATOM     58  C   UNL A   1      47.009  31.061  27.513  1.00  0.00     0.029 A 
ATOM     59  C   UNL A   1      45.724  30.714  27.897  1.00  0.00     0.049 A 
ATOM     60  H   UNL A   1      44.723  28.868  27.681  1.00  0.00     0.167 HD
ATOM     61  C   UNL A   1      43.493  31.115  28.902  1.00  0.00     0.074 A 
ATOM     62  C   UNL A   1      42.522  31.942  29.586  1.00  0.00     0.031 C 
ATOM     63  C   UNL A   1      44.737  31.528  28.557  1.00  0.00     0.037 A 
BRANCH  50  64
ATOM     64  C   UNL A   1      48.125  27.237  25.691  1.00  0.00     0.064 A 
ATOM     65  C   UNL A   1      48.295  27.408  24.310  1.00  0.00     0.173 A 
ATOM     66  C   UNL A   1      49.226  26.789  26.438  1.00  0.00     0.173 A 
ATOM     67  F   UNL A   1      47.270  27.824  23.550  1.00  0.00    -0.203 F 
ATOM     68  C   UNL A   1      49.515  27.129  23.698  1.00  0.00     0.198 A 
ATOM     69  C   UNL A   1      50.452  26.536  25.828  1.00  0.00     0.198 A 
ATOM     70  F   UNL A   1      49.119  26.615  27.763  1.00  0.00    -0.203 F 
ATOM     71  F   UNL A   1      49.646  27.270  22.372  1.00  0.00    -0.200 F 
ATOM     72  C   UNL A   1      50.595  26.703  24.459  1.00  0.00     0.200 A 
ATOM     73  F   UNL A   1      51.498  26.139  26.566  1.00  0.00    -0.200 F 
ATOM     74  F   UNL A   1      51.773  26.451  23.871  1.00  0.00    -0.200 F 
ENDBRANCH  50  64
BRANCH  51  75
ATOM     75  C   UNL A   1      39.319  29.228  29.964  1.00  0.00     0.064 A 
ATOM     76  C   UNL A   1      38.273  29.857  29.276  1.00  0.00     0.173 A 
ATOM     77  C   UNL A   1      39.117  28.927  31.320  1.00  0.00     0.173 A 
ATOM     78  F   UNL A   1      38.426  30.190  27.986  1.00  0.00    -0.203 F 
ATOM     79  C   UNL A   1      37.088  30.202  29.925  1.00  0.00     0.198 A 
ATOM     80  C   UNL A   1      37.919  29.239  31.959  1.00  0.00     0.198 A 
ATOM     81  F   UNL A   1      40.086  28.328  32.028  1.00  0.00    -0.203 F 
ATOM     82  F   UNL A   1      36.130  30.861  29.259  1.00  0.00    -0.200 F 
ATOM     83  C   UNL A   1      36.911  29.887  31.263  1.00  0.00     0.200 A 
ATOM     84  F   UNL A   1      37.749  28.923  33.250  1.00  0.00    -0.200 F 
ATOM     85  F   UNL A   1      35.774  30.224  31.888  1.00  0.00    -0.200 F 
ENDBRANCH  51  75
BRANCH  63  86
ATOM     86  C   UNL A   1      45.098  32.949  28.871  1.00  0.00     0.064 A 
ATOM     87  C   UNL A   1      45.749  33.299  30.064  1.00  0.00     0.173 A 
ATOM     88  C   UNL A   1      44.814  33.971  27.952  1.00  0.00     0.173 A 
ATOM     89  F   UNL A   1      46.026  32.360  30.981  1.00  0.00    -0.203 F 
ATOM     90  C   UNL A   1      46.078  34.624  30.335  1.00  0.00     0.198 A 
ATOM     91  C   UNL A   1      45.171  35.290  28.214  1.00  0.00     0.198 A 
ATOM     92  F   UNL A   1      44.198  33.688  26.795  1.00  0.00    -0.203 F 
ATOM     93  F   UNL A   1      46.654  34.942  31.503  1.00  0.00    -0.200 F 
ATOM     94  C   UNL A   1      45.795  35.616  29.409  1.00  0.00     0.200 A 
ATOM     95  F   UNL A   1      44.909  36.247  27.314  1.00  0.00    -0.200 F 
ATOM     96  F   UNL A   1      46.118  36.891  29.672  1.00  0.00    -0.200 F 
ENDBRANCH  63  86
ENDBRANCH  37  38
ENDBRANCH  30  32
ENDBRANCH  29  30
ENDBRANCH  28  29
ENDBRANCH   1  28
TORSDOF 14
ENDMDL
MODEL 2
REMARK VINA RESULT:     -12.8      0.146      1.557
REMARK SMILES CS(=O)(=O)c1ccc(-c2cc(Cl)cnc2-c2ccc(C(=O)OCCOC(=O)c3ccc(-c4c5nc(c(-c6c(F)c(F)c(F)c(F)c6F)c6ccc([nH]6)c(-c6c(F)c(F)c(F)c(F)c6F)c6nc(c(-c7c(F)c(F)c(F)c(F)c7F)c7ccc4[nH]7)C=C6)C=C5)cc3)nc2)cc1
REMARK SMILES IDX 23 1 22 2 20 3 21 4 19 5 16 6 17 7 92 8 18 9 91 10 15 11
REMARK SMILES IDX 9 12 10 13 11 14 14 15 12 16 13 17 8 18 5 19 6 20 94 21 7 22
REMARK SMILES IDX 93 23 2 24 1 25 3 26 4 27 24 28 25 29 26 30 27 31 28 32
REMARK SMILES IDX 29 33 90 34 30 35 89 36 31 37 32 38 33 39 83 40 34 41 88 42
REMARK SMILES IDX 82 43 84 44 35 45 87 46 81 47 80 48 36 50 68 51 48 52 67 53
REMARK SMILES IDX 49 54 52 55 66 56 85 57 50 58 51 59 65 61 86 62 53 63 37 64
REMARK SMILES IDX 38 65 46 66 39 67 40 68 44 69 47 70 41 71 42 72 45 73 43 74
REMARK SMILES IDX 69 75 70 76 78 77 71 78 72 79 76 80 79 81 73 82 74 83 77 84
REMARK SMILES IDX 75 85 54 86 55 87 63 88 56 89 57 90 61 91 64 92 58 93 59 94
REMARK SMILES IDX 62 95 60 96
REMARK H PARENT 84 49 52 60
REMARK Flexibility Score: inf
ROOT
ATOM      1  C   UNL A   1      38.570  19.684  24.857  1.00  0.00     0.275 C 
ENDROOT
BRANCH   1   2
ATOM      2  O   UNL A   1      37.486  20.449  25.420  1.00  0.00    -0.457 OA
BRANCH   2   3
ATOM      3  C   UNL A   1      37.747  21.771  25.592  1.00  0.00     0.357 C 
ATOM      4  O   UNL A   1      38.805  22.241  25.983  1.00  0.00    -0.244 OA
BRANCH   3   5
ATOM      5  C   UNL A   1      36.599  22.609  25.126  1.00  0.00     0.148 A 
ATOM      6  C   UNL A   1      34.354  24.080  24.507  1.00  0.00     0.019 A 
ATOM      7  C   UNL A   1      35.061  23.420  23.491  1.00  0.00     0.014 A 
ATOM      8  C   UNL A   1      34.882  24.019  25.787  1.00  0.00     0.122 A 
ATOM      9  C   UNL A   1      36.209  22.682  23.797  1.00  0.00     0.037 A 
ATOM     10  N   UNL A   1      35.945  23.266  26.121  1.00  0.00    -0.249 NA
BRANCH   6  11
ATOM     11  C   UNL A   1      33.007  24.618  24.316  1.00  0.00     0.080 A 
ATOM     12  C   UNL A   1      31.901  23.754  24.131  1.00  0.00     0.010 A 
ATOM     13  C   UNL A   1      30.641  24.343  23.980  1.00  0.00     0.033 A 
ATOM     14  C   UNL A   1      30.517  25.727  24.050  1.00  0.00     0.060 A 
ATOM     15  N   UNL A   1      32.898  25.967  24.403  1.00  0.00    -0.254 NA
ATOM     16  Cl  UNL A   1      28.980  26.472  23.876  1.00  0.00    -0.083 Cl
ATOM     17  C   UNL A   1      31.654  26.489  24.269  1.00  0.00     0.132 A 
BRANCH  12  18
ATOM     18  C   UNL A   1      32.069  22.289  24.109  1.00  0.00    -0.016 A 
ATOM     19  C   UNL A   1      32.805  19.584  24.050  1.00  0.00     0.067 A 
ATOM     20  C   UNL A   1      32.693  20.236  25.276  1.00  0.00     0.021 A 
ATOM     21  C   UNL A   1      32.525  20.254  22.856  1.00  0.00     0.021 A 
ATOM     22  C   UNL A   1      32.301  21.577  25.301  1.00  0.00     0.010 A 
ATOM     23  C   UNL A   1      32.153  21.601  22.888  1.00  0.00     0.010 A 
BRANCH  19  24
ATOM     24  S   UNL A   1      33.404  17.912  23.991  1.00  0.00     0.175 S 
ATOM     25  C   UNL A   1      32.569  17.134  25.346  1.00  0.00     0.163 C 
ATOM     26  O   UNL A   1      34.822  17.936  24.292  1.00  0.00    -0.224 OA
ATOM     27  O   UNL A   1      32.915  17.326  22.756  1.00  0.00    -0.224 OA
ENDBRANCH  19  24
ENDBRANCH  12  18
ENDBRANCH   6  11
ENDBRANCH   3   5
ENDBRANCH   2   3
ENDBRANCH   1   2
BRANCH   1  28
ATOM     28  C   UNL A   1      39.582  19.271  25.930  1.00  0.00     0.275 C 
BRANCH  28  29
ATOM     29  O   UNL A   1      40.928  19.208  25.415  1.00  0.00    -0.458 OA
BRANCH  29  30
ATOM     30  C   UNL A   1      41.904  19.414  26.328  1.00  0.00     0.338 C 
ATOM     31  O   UNL A   1      42.674  18.585  26.786  1.00  0.00    -0.246 OA
BRANCH  30  32
ATOM     32  C   UNL A   1      41.998  20.844  26.663  1.00  0.00     0.060 A 
ATOM     33  C   UNL A   1      41.978  21.756  25.614  1.00  0.00     0.016 A 
ATOM     34  C   UNL A   1      42.250  21.285  27.960  1.00  0.00     0.016 A 
ATOM     35  C   UNL A   1      42.276  23.097  25.822  1.00  0.00     0.010 A 
ATOM     36  C   UNL A   1      42.486  22.651  28.186  1.00  0.00     0.010 A 
ATOM     37  C   UNL A   1      42.525  23.564  27.115  1.00  0.00    -0.014 A 
BRANCH  37  38
ATOM     38  C   UNL A   1      42.858  25.000  27.317  1.00  0.00     0.031 A 
ATOM     39  C   UNL A   1      44.188  25.536  26.866  1.00  0.00     0.074 A 
ATOM     40  C   UNL A   1      41.947  25.834  27.857  1.00  0.00     0.049 A 
ATOM     41  N   UNL A   1      44.714  26.720  27.058  1.00  0.00    -0.248 NA
ATOM     42  C   UNL A   1      45.042  24.619  26.094  1.00  0.00     0.031 C 
ATOM     43  C   UNL A   1      40.595  25.456  28.273  1.00  0.00     0.029 A 
ATOM     44  N   UNL A   1      42.017  27.176  28.143  1.00  0.00    -0.354 N 
ATOM     45  C   UNL A   1      45.966  26.682  26.457  1.00  0.00     0.074 A 
ATOM     46  C   UNL A   1      46.132  25.353  25.908  1.00  0.00     0.031 C 
ATOM     47  C   UNL A   1      39.962  26.538  28.750  1.00  0.00     0.029 A 
ATOM     48  C   UNL A   1      40.882  27.670  28.741  1.00  0.00     0.049 A 
ATOM     49  H   UNL A   1      42.805  27.731  27.939  1.00  0.00     0.167 HD
ATOM     50  C   UNL A   1      46.887  27.671  26.366  1.00  0.00     0.037 A 
ATOM     51  C   UNL A   1      40.627  28.884  29.263  1.00  0.00     0.037 A 
ATOM     52  C   UNL A   1      46.708  29.000  26.893  1.00  0.00     0.049 A 
ATOM     53  C   UNL A   1      41.698  29.940  29.212  1.00  0.00     0.074 A 
ATOM     54  C   UNL A   1      47.594  30.063  26.876  1.00  0.00     0.029 A 
ATOM     55  N   UNL A   1      45.554  29.451  27.518  1.00  0.00    -0.354 N 
ATOM     56  N   UNL A   1      42.896  29.881  28.684  1.00  0.00    -0.248 NA
ATOM     57  C   UNL A   1      41.383  31.233  29.838  1.00  0.00     0.031 C 
ATOM     58  C   UNL A   1      46.990  31.148  27.520  1.00  0.00     0.029 A 
ATOM     59  C   UNL A   1      45.710  30.775  27.897  1.00  0.00     0.049 A 
ATOM     60  H   UNL A   1      44.746  28.911  27.669  1.00  0.00     0.167 HD
ATOM     61  C   UNL A   1      43.467  31.129  28.892  1.00  0.00     0.074 A 
ATOM     62  C   UNL A   1      42.477  31.934  29.576  1.00  0.00     0.031 C 
ATOM     63  C   UNL A   1      44.704  31.566  28.555  1.00  0.00     0.037 A 
BRANCH  50  64
ATOM     64  C   UNL A   1      48.188  27.354  25.688  1.00  0.00     0.064 A 
ATOM     65  C   UNL A   1      49.300  26.895  26.408  1.00  0.00     0.173 A 
ATOM     66  C   UNL A   1      48.303  27.452  24.293  1.00  0.00     0.173 A 
ATOM     67  F   UNL A   1      49.244  26.794  27.745  1.00  0.00    -0.203 F 
ATOM     68  C   UNL A   1      50.485  26.559  25.758  1.00  0.00     0.198 A 
ATOM     69  C   UNL A   1      49.481  27.090  23.643  1.00  0.00     0.198 A 
ATOM     70  F   UNL A   1      47.267  27.879  23.556  1.00  0.00    -0.203 F 
ATOM     71  F   UNL A   1      51.546  26.152  26.469  1.00  0.00    -0.200 F 
ATOM     72  C   UNL A   1      50.572  26.648  24.376  1.00  0.00     0.200 A 
ATOM     73  F   UNL A   1      49.557  27.163  22.307  1.00  0.00    -0.200 F 
ATOM     74  F   UNL A   1      51.707  26.309  23.750  1.00  0.00    -0.200 F 
ENDBRANCH  50  64
BRANCH  51  75
ATOM     75  C   UNL A   1      39.325  29.157  29.928  1.00  0.00     0.064 A 
ATOM     76  C   UNL A   1      38.239  29.678  29.212  1.00  0.00     0.173 A 
ATOM     77  C   UNL A   1      39.153  28.939  31.303  1.00  0.00     0.173 A 
ATOM     78  F   UNL A   1      38.360  29.930  27.900  1.00  0.00    -0.203 F 
ATOM     79  C   UNL A   1      37.042  30.000  29.851  1.00  0.00     0.198 A 
ATOM     80  C   UNL A   1      37.946  29.227  31.935  1.00  0.00     0.198 A 
ATOM     81  F   UNL A   1      40.161  28.445  32.038  1.00  0.00    -0.203 F 
ATOM     82  F   UNL A   1      36.043  30.557  29.155  1.00  0.00    -0.200 F 
ATOM     83  C   UNL A   1      36.895  29.768  31.211  1.00  0.00     0.200 A 
ATOM     84  F   UNL A   1      37.805  28.991  33.247  1.00  0.00    -0.200 F 
ATOM     85  F   UNL A   1      35.747  30.082  31.826  1.00  0.00    -0.200 F 
ENDBRANCH  51  75
BRANCH  63  86
ATOM     86  C   UNL A   1      45.037  32.994  28.877  1.00  0.00     0.064 A 
ATOM     87  C   UNL A   1      44.733  34.039  27.992  1.00  0.00     0.173 A 
ATOM     88  C   UNL A   1      45.643  33.321  30.100  1.00  0.00     0.173 A 
ATOM     89  F   UNL A   1      44.170  33.774  26.803  1.00  0.00    -0.203 F 
ATOM     90  C   UNL A   1      45.048  35.357  28.310  1.00  0.00     0.198 A 
ATOM     91  C   UNL A   1      45.928  34.643  30.426  1.00  0.00     0.198 A 
ATOM     92  F   UNL A   1      45.949  32.359  30.982  1.00  0.00    -0.203 F 
ATOM     93  F   UNL A   1      44.794  36.335  27.428  1.00  0.00    -0.200 F 
ATOM     94  C   UNL A   1      45.638  35.659  29.527  1.00  0.00     0.200 A 
ATOM     95  F   UNL A   1      46.489  34.935  31.608  1.00  0.00    -0.200 F 
ATOM     96  F   UNL A   1      45.936  36.930  29.833  1.00  0.00    -0.200 F 
ENDBRANCH  63  86
ENDBRANCH  37  38
ENDBRANCH  30  32
ENDBRANCH  29  30
ENDBRANCH  28  29
ENDBRANCH   1  28
TORSDOF 14
ENDMDL
MODEL 3
REMARK VINA RESULT:     -12.8      6.079      9.815
REMARK SMILES CS(=O)(=O)c1ccc(-c2cc(Cl)cnc2-c2ccc(C(=O)OCCOC(=O)c3ccc(-c4c5nc(c(-c6c(F)c(F)c(F)c(F)c6F)c6ccc([nH]6)c(-c6c(F)c(F)c(F)c(F)c6F)c6nc(c(-c7c(F)c(F)c(F)c(F)c7F)c7ccc4[nH]7)C=C6)C=C5)cc3)nc2)cc1
REMARK SMILES IDX 23 1 22 2 20 3 21 4 19 5 16 6 17 7 92 8 18 9 91 10 15 11
REMARK SMILES IDX 9 12 10 13 11 14 14 15 12 16 13 17 8 18 5 19 6 20 94 21 7 22
REMARK SMILES IDX 93 23 2 24 1 25 3 26 4 27 24 28 25 29 26 30 27 31 28 32
REMARK SMILES IDX 29 33 90 34 30 35 89 36 31 37 32 38 33 39 83 40 34 41 88 42
REMARK SMILES IDX 82 43 84 44 35 45 87 46 81 47 80 48 36 50 68 51 48 52 67 53
REMARK SMILES IDX 49 54 52 55 66 56 85 57 50 58 51 59 65 61 86 62 53 63 37 64
REMARK SMILES IDX 38 65 46 66 39 67 40 68 44 69 47 70 41 71 42 72 45 73 43 74
REMARK SMILES IDX 69 75 70 76 78 77 71 78 72 79 76 80 79 81 73 82 74 83 77 84
REMARK SMILES IDX 75 85 54 86 55 87 63 88 56 89 57 90 61 91 64 92 58 93 59 94
REMARK SMILES IDX 62 95 60 96
REMARK H PARENT 84 49 52 60
REMARK Flexibility Score: inf
ROOT
ATOM      1  C   UNL A   1      33.705  32.020  27.361  1.00  0.00     0.275 C 
ENDROOT
BRANCH   1   2
ATOM      2  O   UNL A   1      33.172  30.693  27.539  1.00  0.00    -0.457 OA
BRANCH   2   3
ATOM      3  C   UNL A   1      34.094  29.696  27.508  1.00  0.00     0.357 C 
ATOM      4  O   UNL A   1      35.116  29.653  28.178  1.00  0.00    -0.244 OA
BRANCH   3   5
ATOM      5  C   UNL A   1      33.645  28.577  26.624  1.00  0.00     0.148 A 
ATOM      6  C   UNL A   1      32.825  26.349  25.225  1.00  0.00     0.019 A 
ATOM      7  C   UNL A   1      33.668  27.290  24.615  1.00  0.00     0.014 A 
ATOM      8  C   UNL A   1      32.377  26.640  26.504  1.00  0.00     0.122 A 
ATOM      9  C   UNL A   1      34.077  28.429  25.315  1.00  0.00     0.037 A 
ATOM     10  N   UNL A   1      32.803  27.692  27.224  1.00  0.00    -0.249 NA
BRANCH   6  11
ATOM     11  C   UNL A   1      32.595  25.014  24.675  1.00  0.00     0.080 A 
ATOM     12  C   UNL A   1      31.545  24.781  23.753  1.00  0.00     0.010 A 
ATOM     13  C   UNL A   1      31.404  23.483  23.252  1.00  0.00     0.033 A 
ATOM     14  C   UNL A   1      32.302  22.494  23.643  1.00  0.00     0.060 A 
ATOM     15  N   UNL A   1      33.487  24.064  25.051  1.00  0.00    -0.254 NA
ATOM     16  Cl  UNL A   1      32.153  20.896  23.034  1.00  0.00    -0.083 Cl
ATOM     17  C   UNL A   1      33.319  22.827  24.524  1.00  0.00     0.132 A 
BRANCH  12  18
ATOM     18  C   UNL A   1      30.643  25.868  23.330  1.00  0.00    -0.016 A 
ATOM     19  C   UNL A   1      29.098  28.157  22.844  1.00  0.00     0.067 A 
ATOM     20  C   UNL A   1      30.338  28.024  22.223  1.00  0.00     0.021 A 
ATOM     21  C   UNL A   1      28.604  27.150  23.678  1.00  0.00     0.021 A 
ATOM     22  C   UNL A   1      31.092  26.870  22.450  1.00  0.00     0.010 A 
ATOM     23  C   UNL A   1      29.374  26.008  23.915  1.00  0.00     0.010 A 
BRANCH  19  24
ATOM     24  S   UNL A   1      28.172  29.662  22.654  1.00  0.00     0.175 S 
ATOM     25  C   UNL A   1      29.154  30.854  23.522  1.00  0.00     0.163 C 
ATOM     26  O   UNL A   1      26.920  29.507  23.367  1.00  0.00    -0.224 OA
ATOM     27  O   UNL A   1      28.188  29.998  21.242  1.00  0.00    -0.224 OA
ENDBRANCH  19  24
ENDBRANCH  12  18
ENDBRANCH   6  11
ENDBRANCH   3   5
ENDBRANCH   2   3
ENDBRANCH   1   2
BRANCH   1  28
ATOM     28  C   UNL A   1      32.654  33.093  27.664  1.00  0.00     0.275 C 
BRANCH  28  29
ATOM     29  O   UNL A   1      33.210  34.423  27.639  1.00  0.00    -0.458 OA
BRANCH  29  30
ATOM     30  C   UNL A   1      33.220  35.066  28.829  1.00  0.00     0.338 C 
ATOM     31  O   UNL A   1      32.405  35.878  29.237  1.00  0.00    -0.246 OA
BRANCH  30  32
ATOM     32  C   UNL A   1      34.338  34.589  29.658  1.00  0.00     0.060 A 
ATOM     33  C   UNL A   1      35.620  34.675  29.127  1.00  0.00     0.016 A 
ATOM     34  C   UNL A   1      34.134  33.932  30.870  1.00  0.00     0.016 A 
ATOM     35  C   UNL A   1      36.698  34.056  29.747  1.00  0.00     0.010 A 
ATOM     36  C   UNL A   1      35.231  33.361  31.535  1.00  0.00     0.010 A 
ATOM     37  C   UNL A   1      36.519  33.397  30.966  1.00  0.00    -0.014 A 
BRANCH  37  38
ATOM     38  C   UNL A   1      37.681  32.726  31.607  1.00  0.00     0.031 A 
ATOM     39  C   UNL A   1      38.385  31.600  30.902  1.00  0.00     0.074 A 
ATOM     40  C   UNL A   1      38.138  33.162  32.798  1.00  0.00     0.049 A 
ATOM     41  N   UNL A   1      39.334  30.811  31.340  1.00  0.00    -0.248 NA
ATOM     42  C   UNL A   1      37.967  31.324  29.518  1.00  0.00     0.031 C 
ATOM     43  C   UNL A   1      37.590  34.289  33.555  1.00  0.00     0.029 A 
ATOM     44  N   UNL A   1      39.175  32.713  33.580  1.00  0.00    -0.354 N 
ATOM     45  C   UNL A   1      39.607  29.932  30.300  1.00  0.00     0.074 A 
ATOM     46  C   UNL A   1      38.712  30.269  29.214  1.00  0.00     0.031 C 
ATOM     47  C   UNL A   1      38.299  34.449  34.683  1.00  0.00     0.029 A 
ATOM     48  C   UNL A   1      39.304  33.396  34.766  1.00  0.00     0.049 A 
ATOM     49  H   UNL A   1      39.768  31.973  33.316  1.00  0.00     0.167 HD
ATOM     50  C   UNL A   1      40.527  28.938  30.256  1.00  0.00     0.037 A 
ATOM     51  C   UNL A   1      40.111  33.172  35.820  1.00  0.00     0.037 A 
ATOM     52  C   UNL A   1      41.433  28.621  31.331  1.00  0.00     0.049 A 
ATOM     53  C   UNL A   1      41.073  32.016  35.771  1.00  0.00     0.074 A 
ATOM     54  C   UNL A   1      42.381  27.616  31.394  1.00  0.00     0.029 A 
ATOM     55  N   UNL A   1      41.511  29.320  32.527  1.00  0.00    -0.354 N 
ATOM     56  N   UNL A   1      41.291  31.160  34.803  1.00  0.00    -0.248 NA
ATOM     57  C   UNL A   1      41.897  31.789  36.967  1.00  0.00     0.031 C 
ATOM     58  C   UNL A   1      43.012  27.684  32.640  1.00  0.00     0.029 A 
ATOM     59  C   UNL A   1      42.488  28.761  33.336  1.00  0.00     0.049 A 
ATOM     60  H   UNL A   1      40.956  30.096  32.766  1.00  0.00     0.167 HD
ATOM     61  C   UNL A   1      42.288  30.310  35.261  1.00  0.00     0.074 A 
ATOM     62  C   UNL A   1      42.650  30.767  36.587  1.00  0.00     0.031 C 
ATOM     63  C   UNL A   1      42.849  29.243  34.643  1.00  0.00     0.037 A 
BRANCH  50  64
ATOM     64  C   UNL A   1      40.594  28.102  29.012  1.00  0.00     0.064 A 
ATOM     65  C   UNL A   1      39.830  26.935  28.868  1.00  0.00     0.173 A 
ATOM     66  C   UNL A   1      41.384  28.507  27.926  1.00  0.00     0.173 A 
ATOM     67  F   UNL A   1      39.066  26.499  29.882  1.00  0.00    -0.203 F 
ATOM     68  C   UNL A   1      39.866  26.196  27.689  1.00  0.00     0.198 A 
ATOM     69  C   UNL A   1      41.399  27.780  26.738  1.00  0.00     0.198 A 
ATOM     70  F   UNL A   1      42.129  29.619  28.009  1.00  0.00    -0.203 F 
ATOM     71  F   UNL A   1      39.152  25.066  27.585  1.00  0.00    -0.200 F 
ATOM     72  C   UNL A   1      40.643  26.624  26.622  1.00  0.00     0.200 A 
ATOM     73  F   UNL A   1      42.138  28.203  25.704  1.00  0.00    -0.200 F 
ATOM     74  F   UNL A   1      40.665  25.920  25.481  1.00  0.00    -0.200 F 
ENDBRANCH  50  64
BRANCH  51  75
ATOM     75  C   UNL A   1      40.012  34.024  37.035  1.00  0.00     0.064 A 
ATOM     76  C   UNL A   1      39.107  33.724  38.062  1.00  0.00     0.173 A 
ATOM     77  C   UNL A   1      40.794  35.181  37.174  1.00  0.00     0.173 A 
ATOM     78  F   UNL A   1      38.318  32.644  37.964  1.00  0.00    -0.203 F 
ATOM     79  C   UNL A   1      38.966  34.564  39.166  1.00  0.00     0.198 A 
ATOM     80  C   UNL A   1      40.678  36.001  38.295  1.00  0.00     0.198 A 
ATOM     81  F   UNL A   1      41.674  35.518  36.220  1.00  0.00    -0.203 F 
ATOM     82  F   UNL A   1      38.047  34.287  40.101  1.00  0.00    -0.200 F 
ATOM     83  C   UNL A   1      39.755  35.697  39.284  1.00  0.00     0.200 A 
ATOM     84  F   UNL A   1      41.451  37.089  38.409  1.00  0.00    -0.200 F 
ATOM     85  F   UNL A   1      39.616  36.507  40.342  1.00  0.00    -0.200 F 
ENDBRANCH  51  75
BRANCH  63  86
ATOM     86  C   UNL A   1      43.947  28.527  35.375  1.00  0.00     0.064 A 
ATOM     87  C   UNL A   1      43.676  27.487  36.276  1.00  0.00     0.173 A 
ATOM     88  C   UNL A   1      45.289  28.870  35.149  1.00  0.00     0.173 A 
ATOM     89  F   UNL A   1      42.408  27.135  36.538  1.00  0.00    -0.203 F 
ATOM     90  C   UNL A   1      44.708  26.833  36.943  1.00  0.00     0.198 A 
ATOM     91  C   UNL A   1      46.319  28.195  35.795  1.00  0.00     0.198 A 
ATOM     92  F   UNL A   1      45.601  29.855  34.293  1.00  0.00    -0.203 F 
ATOM     93  F   UNL A   1      44.424  25.876  37.836  1.00  0.00    -0.200 F 
ATOM     94  C   UNL A   1      46.027  27.182  36.698  1.00  0.00     0.200 A 
ATOM     95  F   UNL A   1      47.594  28.525  35.549  1.00  0.00    -0.200 F 
ATOM     96  F   UNL A   1      47.020  26.548  37.338  1.00  0.00    -0.200 F 
ENDBRANCH  63  86
ENDBRANCH  37  38
ENDBRANCH  30  32
ENDBRANCH  29  30
ENDBRANCH  28  29
ENDBRANCH   1  28
TORSDOF 14
ENDMDL
