MODEL 1
REMARK VINA RESULT:     -13.1      0.000      0.000
REMARK SMILES CC(=O)NS(=O)(=O)c1cc(-c2ccn(C(F)F)c(=O)c2)ccc1C(=O)OCCOC(=O)c1ccc(-c2c3nc(c(-c4c(F)c(F)c(F)c(F)c4F)c4ccc([nH]4)c(-c4c(F)c(F)c(F)c(F)c4F)c4nc(c(-c5c(F)c(F)c(F)c(F)c5F)c5ccc2[nH]5)C=C4)C=C3)cc1
REMARK SMILES IDX 27 1 26 2 24 3 25 4 23 5 8 6 9 7 10 8 22 9 21 10 5 11 6 12
REMARK SMILES IDX 7 13 4 14 1 15 2 16 3 17 11 19 12 20 20 21 13 22 18 23 14 24
REMARK SMILES IDX 19 25 15 26 16 27 17 28 28 29 29 30 30 31 31 32 32 33 33 34
REMARK SMILES IDX 94 35 34 36 93 37 35 38 36 39 37 40 87 41 38 42 92 43 86 44
REMARK SMILES IDX 88 45 39 46 91 47 85 48 84 49 40 51 72 52 52 53 71 54 53 55
REMARK SMILES IDX 56 56 70 57 89 58 54 59 55 60 69 62 90 63 57 64 41 65 42 66
REMARK SMILES IDX 50 67 43 68 44 69 48 70 51 71 45 72 46 73 49 74 47 75 73 76
REMARK SMILES IDX 74 77 82 78 75 79 76 80 80 81 83 82 77 83 78 84 81 85 79 86
REMARK SMILES IDX 58 87 59 88 67 89 60 90 61 91 65 92 68 93 62 94 63 95 66 96
REMARK SMILES IDX 64 97
REMARK H PARENT 4 18 88 50 56 61
REMARK Flexibility Score: inf
ROOT
ATOM      1  C   UNL A   1      31.654  28.633  25.234  1.00  0.00     0.275 C 
ENDROOT
BRANCH   1   2
ATOM      2  O   UNL A   1      32.316  27.405  25.601  1.00  0.00    -0.458 OA
BRANCH   2   3
ATOM      3  C   UNL A   1      33.486  27.135  24.996  1.00  0.00     0.339 C 
ATOM      4  O   UNL A   1      34.366  27.946  24.745  1.00  0.00    -0.246 OA
BRANCH   3   5
ATOM      5  C   UNL A   1      33.689  25.676  24.766  1.00  0.00     0.080 A 
ATOM      6  C   UNL A   1      33.606  24.989  23.547  1.00  0.00     0.103 A 
ATOM      7  C   UNL A   1      33.922  23.619  23.497  1.00  0.00     0.032 A 
ATOM      8  C   UNL A   1      34.180  22.894  24.663  1.00  0.00    -0.017 A 
ATOM      9  C   UNL A   1      34.025  24.940  25.924  1.00  0.00     0.018 A 
ATOM     10  C   UNL A   1      34.227  23.559  25.883  1.00  0.00     0.010 A 
BRANCH   6  11
ATOM     11  S   UNL A   1      33.030  25.778  22.069  1.00  0.00     0.264 S 
ATOM     12  O   UNL A   1      33.026  24.776  21.026  1.00  0.00    -0.201 OA
ATOM     13  O   UNL A   1      33.708  27.047  21.941  1.00  0.00    -0.201 OA
BRANCH  11  14
ATOM     14  N   UNL A   1      31.417  26.122  22.352  1.00  0.00    -0.249 N 
ATOM     15  C   UNL A   1      30.552  23.921  23.186  1.00  0.00     0.115 C 
ATOM     16  C   UNL A   1      30.599  25.425  23.264  1.00  0.00     0.230 C 
ATOM     17  O   UNL A   1      29.805  26.059  23.946  1.00  0.00    -0.274 OA
ATOM     18  H   UNL A   1      31.011  26.863  21.846  1.00  0.00     0.183 HD
ENDBRANCH  11  14
ENDBRANCH   6  11
BRANCH   8  19
ATOM     19  C   UNL A   1      34.289  21.429  24.598  1.00  0.00    -0.011 A 
ATOM     20  C   UNL A   1      35.521  20.743  24.936  1.00  0.00     0.027 A 
ATOM     21  C   UNL A   1      33.208  20.711  24.253  1.00  0.00     0.080 A 
ATOM     22  C   UNL A   1      35.587  19.408  24.898  1.00  0.00     0.095 A 
ATOM     23  C   UNL A   1      33.267  19.223  24.205  1.00  0.00     0.255 A 
ATOM     24  N   UNL A   1      34.486  18.653  24.538  1.00  0.00    -0.258 N 
ATOM     25  O   UNL A   1      32.254  18.611  23.885  1.00  0.00    -0.269 OA
BRANCH  24  26
ATOM     26  C   UNL A   1      34.573  17.215  24.487  1.00  0.00     0.451 C 
ATOM     27  F   UNL A   1      34.530  16.771  23.208  1.00  0.00    -0.185 F 
ATOM     28  F   UNL A   1      35.727  16.781  25.048  1.00  0.00    -0.185 F 
ENDBRANCH  24  26
ENDBRANCH   8  19
ENDBRANCH   3   5
ENDBRANCH   2   3
ENDBRANCH   1   2
BRANCH   1  29
ATOM     29  C   UNL A   1      31.804  29.651  26.361  1.00  0.00     0.275 C 
BRANCH  29  30
ATOM     30  O   UNL A   1      32.911  30.518  26.054  1.00  0.00    -0.458 OA
BRANCH  30  31
ATOM     31  C   UNL A   1      33.219  31.438  26.993  1.00  0.00     0.338 C 
ATOM     32  O   UNL A   1      32.567  32.405  27.345  1.00  0.00    -0.246 OA
BRANCH  31  33
ATOM     33  C   UNL A   1      34.526  31.104  27.580  1.00  0.00     0.060 A 
ATOM     34  C   UNL A   1      34.825  29.779  27.897  1.00  0.00     0.016 A 
ATOM     35  C   UNL A   1      35.412  32.126  27.918  1.00  0.00     0.016 A 
ATOM     36  C   UNL A   1      35.984  29.478  28.611  1.00  0.00     0.010 A 
ATOM     37  C   UNL A   1      36.610  31.814  28.569  1.00  0.00     0.010 A 
ATOM     38  C   UNL A   1      36.894  30.491  28.955  1.00  0.00    -0.014 A 
BRANCH  38  39
ATOM     39  C   UNL A   1      38.105  30.184  29.769  1.00  0.00     0.031 A 
ATOM     40  C   UNL A   1      39.205  29.330  29.194  1.00  0.00     0.074 A 
ATOM     41  C   UNL A   1      38.241  30.677  31.016  1.00  0.00     0.049 A 
ATOM     42  N   UNL A   1      40.249  28.809  29.787  1.00  0.00    -0.248 NA
ATOM     43  C   UNL A   1      39.112  29.012  27.760  1.00  0.00     0.031 C 
ATOM     44  C   UNL A   1      37.283  31.549  31.694  1.00  0.00     0.029 A 
ATOM     45  N   UNL A   1      39.252  30.519  31.934  1.00  0.00    -0.354 N 
ATOM     46  C   UNL A   1      40.896  28.048  28.821  1.00  0.00     0.074 A 
ATOM     47  C   UNL A   1      40.136  28.185  27.597  1.00  0.00     0.031 C 
ATOM     48  C   UNL A   1      37.770  31.886  32.898  1.00  0.00     0.029 A 
ATOM     49  C   UNL A   1      39.036  31.191  33.113  1.00  0.00     0.049 A 
ATOM     50  H   UNL A   1      40.055  29.975  31.764  1.00  0.00     0.167 HD
ATOM     51  C   UNL A   1      42.017  27.298  28.946  1.00  0.00     0.037 A 
ATOM     52  C   UNL A   1      39.755  31.219  34.251  1.00  0.00     0.037 A 
ATOM     53  C   UNL A   1      42.815  27.213  30.141  1.00  0.00     0.049 A 
ATOM     54  C   UNL A   1      41.002  30.387  34.362  1.00  0.00     0.074 A 
ATOM     55  C   UNL A   1      43.976  26.487  30.355  1.00  0.00     0.029 A 
ATOM     56  N   UNL A   1      42.548  27.895  31.318  1.00  0.00    -0.354 N 
ATOM     57  N   UNL A   1      41.560  29.612  33.467  1.00  0.00    -0.248 NA
ATOM     58  C   UNL A   1      41.701  30.413  35.656  1.00  0.00     0.031 C 
ATOM     59  C   UNL A   1      44.399  26.716  31.669  1.00  0.00     0.029 A 
ATOM     60  C   UNL A   1      43.520  27.607  32.261  1.00  0.00     0.049 A 
ATOM     61  H   UNL A   1      41.780  28.495  31.461  1.00  0.00     0.167 HD
ATOM     62  C   UNL A   1      42.670  29.054  34.085  1.00  0.00     0.074 A 
ATOM     63  C   UNL A   1      42.726  29.602  35.424  1.00  0.00     0.031 C 
ATOM     64  C   UNL A   1      43.557  28.156  33.591  1.00  0.00     0.037 A 
BRANCH  51  65
ATOM     65  C   UNL A   1      42.437  26.477  27.763  1.00  0.00     0.064 A 
ATOM     66  C   UNL A   1      41.896  25.208  27.513  1.00  0.00     0.173 A 
ATOM     67  C   UNL A   1      43.367  26.990  26.846  1.00  0.00     0.173 A 
ATOM     68  F   UNL A   1      41.016  24.667  28.369  1.00  0.00    -0.203 F 
ATOM     69  C   UNL A   1      42.286  24.474  26.394  1.00  0.00     0.198 A 
ATOM     70  C   UNL A   1      43.737  26.263  25.718  1.00  0.00     0.198 A 
ATOM     71  F   UNL A   1      43.910  28.201  27.041  1.00  0.00    -0.203 F 
ATOM     72  F   UNL A   1      41.785  23.247  26.193  1.00  0.00    -0.200 F 
ATOM     73  C   UNL A   1      43.199  25.005  25.495  1.00  0.00     0.200 A 
ATOM     74  F   UNL A   1      44.613  26.781  24.845  1.00  0.00    -0.200 F 
ATOM     75  F   UNL A   1      43.569  24.299  24.417  1.00  0.00    -0.200 F 
ENDBRANCH  51  65
BRANCH  52  76
ATOM     76  C   UNL A   1      39.290  32.045  35.395  1.00  0.00     0.064 A 
ATOM     77  C   UNL A   1      39.646  33.396  35.498  1.00  0.00     0.173 A 
ATOM     78  C   UNL A   1      38.475  31.504  36.400  1.00  0.00     0.173 A 
ATOM     79  F   UNL A   1      40.448  33.949  34.576  1.00  0.00    -0.203 F 
ATOM     80  C   UNL A   1      39.205  34.175  36.565  1.00  0.00     0.198 A 
ATOM     81  C   UNL A   1      38.013  32.291  37.452  1.00  0.00     0.198 A 
ATOM     82  F   UNL A   1      38.112  30.213  36.348  1.00  0.00    -0.203 F 
ATOM     83  F   UNL A   1      39.585  35.456  36.658  1.00  0.00    -0.200 F 
ATOM     84  C   UNL A   1      38.382  33.624  37.536  1.00  0.00     0.200 A 
ATOM     85  F   UNL A   1      37.208  31.758  38.381  1.00  0.00    -0.200 F 
ATOM     86  F   UNL A   1      37.948  34.377  38.556  1.00  0.00    -0.200 F 
ENDBRANCH  52  76
BRANCH  64  87
ATOM     87  C   UNL A   1      44.663  27.718  34.501  1.00  0.00     0.064 A 
ATOM     88  C   UNL A   1      45.871  28.427  34.572  1.00  0.00     0.173 A 
ATOM     89  C   UNL A   1      44.505  26.598  35.331  1.00  0.00     0.173 A 
ATOM     90  F   UNL A   1      46.073  29.496  33.785  1.00  0.00    -0.203 F 
ATOM     91  C   UNL A   1      46.890  28.019  35.428  1.00  0.00     0.198 A 
ATOM     92  C   UNL A   1      45.518  26.205  36.199  1.00  0.00     0.198 A 
ATOM     93  F   UNL A   1      43.366  25.891  35.299  1.00  0.00    -0.203 F 
ATOM     94  F   UNL A   1      48.050  28.688  35.454  1.00  0.00    -0.200 F 
ATOM     95  C   UNL A   1      46.711  26.911  36.244  1.00  0.00     0.200 A 
ATOM     96  F   UNL A   1      45.343  25.137  36.991  1.00  0.00    -0.200 F 
ATOM     97  F   UNL A   1      47.693  26.519  37.067  1.00  0.00    -0.200 F 
ENDBRANCH  64  87
ENDBRANCH  38  39
ENDBRANCH  31  33
ENDBRANCH  30  31
ENDBRANCH  29  30
ENDBRANCH   1  29
TORSDOF 15
ENDMDL
MODEL 2
REMARK VINA RESULT:     -12.8      4.714      9.904
REMARK SMILES CC(=O)NS(=O)(=O)c1cc(-c2ccn(C(F)F)c(=O)c2)ccc1C(=O)OCCOC(=O)c1ccc(-c2c3nc(c(-c4c(F)c(F)c(F)c(F)c4F)c4ccc([nH]4)c(-c4c(F)c(F)c(F)c(F)c4F)c4nc(c(-c5c(F)c(F)c(F)c(F)c5F)c5ccc2[nH]5)C=C4)C=C3)cc1
REMARK SMILES IDX 27 1 26 2 24 3 25 4 23 5 8 6 9 7 10 8 22 9 21 10 5 11 6 12
REMARK SMILES IDX 7 13 4 14 1 15 2 16 3 17 11 19 12 20 20 21 13 22 18 23 14 24
REMARK SMILES IDX 19 25 15 26 16 27 17 28 28 29 29 30 30 31 31 32 32 33 33 34
REMARK SMILES IDX 94 35 34 36 93 37 35 38 36 39 37 40 87 41 38 42 92 43 86 44
REMARK SMILES IDX 88 45 39 46 91 47 85 48 84 49 40 51 72 52 52 53 71 54 53 55
REMARK SMILES IDX 56 56 70 57 89 58 54 59 55 60 69 62 90 63 57 64 41 65 42 66
REMARK SMILES IDX 50 67 43 68 44 69 48 70 51 71 45 72 46 73 49 74 47 75 73 76
REMARK SMILES IDX 74 77 82 78 75 79 76 80 80 81 83 82 77 83 78 84 81 85 79 86
REMARK SMILES IDX 58 87 59 88 67 89 60 90 61 91 65 92 68 93 62 94 63 95 66 96
REMARK SMILES IDX 64 97
REMARK H PARENT 4 18 88 50 56 61
REMARK Flexibility Score: inf
ROOT
ATOM      1  C   UNL A   1      35.246  21.076  25.632  1.00  0.00     0.275 C 
ENDROOT
BRANCH   1   2
ATOM      2  O   UNL A   1      34.899  22.430  25.276  1.00  0.00    -0.458 OA
BRANCH   2   3
ATOM      3  C   UNL A   1      34.818  23.325  26.276  1.00  0.00     0.339 C 
ATOM      4  O   UNL A   1      35.503  23.332  27.288  1.00  0.00    -0.246 OA
BRANCH   3   5
ATOM      5  C   UNL A   1      33.871  24.437  25.975  1.00  0.00     0.080 A 
ATOM      6  C   UNL A   1      32.509  24.502  26.295  1.00  0.00     0.103 A 
ATOM      7  C   UNL A   1      31.784  25.676  26.015  1.00  0.00     0.032 A 
ATOM      8  C   UNL A   1      32.359  26.727  25.297  1.00  0.00    -0.017 A 
ATOM      9  C   UNL A   1      34.455  25.541  25.314  1.00  0.00     0.018 A 
ATOM     10  C   UNL A   1      33.701  26.655  24.941  1.00  0.00     0.010 A 
BRANCH   6  11
ATOM     11  S   UNL A   1      31.641  23.113  26.969  1.00  0.00     0.264 S 
ATOM     12  O   UNL A   1      30.263  23.516  27.145  1.00  0.00    -0.201 OA
ATOM     13  O   UNL A   1      32.441  22.554  28.033  1.00  0.00    -0.201 OA
BRANCH  11  14
ATOM     14  N   UNL A   1      31.610  21.974  25.743  1.00  0.00    -0.249 N 
ATOM     15  C   UNL A   1      30.816  23.332  23.789  1.00  0.00     0.115 C 
ATOM     16  C   UNL A   1      31.720  22.274  24.370  1.00  0.00     0.230 C 
ATOM     17  O   UNL A   1      32.389  21.538  23.657  1.00  0.00    -0.274 OA
ATOM     18  H   UNL A   1      31.509  21.029  25.998  1.00  0.00     0.183 HD
ENDBRANCH  11  14
ENDBRANCH   6  11
BRANCH   8  19
ATOM     19  C   UNL A   1      31.514  27.837  24.834  1.00  0.00    -0.011 A 
ATOM     20  C   UNL A   1      31.721  29.195  25.301  1.00  0.00     0.027 A 
ATOM     21  C   UNL A   1      30.552  27.590  23.930  1.00  0.00     0.080 A 
ATOM     22  C   UNL A   1      30.958  30.193  24.843  1.00  0.00     0.095 A 
ATOM     23  C   UNL A   1      29.694  28.693  23.412  1.00  0.00     0.255 A 
ATOM     24  N   UNL A   1      29.959  29.957  23.917  1.00  0.00    -0.258 N 
ATOM     25  O   UNL A   1      28.830  28.419  22.586  1.00  0.00    -0.269 OA
BRANCH  24  26
ATOM     26  C   UNL A   1      29.134  31.039  23.441  1.00  0.00     0.451 C 
ATOM     27  F   UNL A   1      29.375  32.176  24.137  1.00  0.00    -0.185 F 
ATOM     28  F   UNL A   1      29.370  31.286  22.131  1.00  0.00    -0.185 F 
ENDBRANCH  24  26
ENDBRANCH   8  19
ENDBRANCH   3   5
ENDBRANCH   2   3
ENDBRANCH   1   2
BRANCH   1  29
ATOM     29  C   UNL A   1      36.568  20.697  24.972  1.00  0.00     0.275 C 
BRANCH  29  30
ATOM     30  O   UNL A   1      37.521  21.748  25.212  1.00  0.00    -0.458 OA
BRANCH  30  31
ATOM     31  C   UNL A   1      38.657  21.384  25.845  1.00  0.00     0.338 C 
ATOM     32  O   UNL A   1      39.129  20.268  25.965  1.00  0.00    -0.246 OA
BRANCH  31  33
ATOM     33  C   UNL A   1      39.298  22.584  26.406  1.00  0.00     0.060 A 
ATOM     34  C   UNL A   1      38.787  23.847  26.109  1.00  0.00     0.016 A 
ATOM     35  C   UNL A   1      40.478  22.456  27.139  1.00  0.00     0.016 A 
ATOM     36  C   UNL A   1      39.488  24.990  26.490  1.00  0.00     0.010 A 
ATOM     37  C   UNL A   1      41.140  23.604  27.585  1.00  0.00     0.010 A 
ATOM     38  C   UNL A   1      40.674  24.885  27.235  1.00  0.00    -0.014 A 
BRANCH  38  39
ATOM     39  C   UNL A   1      41.459  26.100  27.594  1.00  0.00     0.031 A 
ATOM     40  C   UNL A   1      40.854  27.152  28.488  1.00  0.00     0.074 A 
ATOM     41  C   UNL A   1      42.718  26.267  27.144  1.00  0.00     0.049 A 
ATOM     42  N   UNL A   1      41.297  28.350  28.779  1.00  0.00    -0.248 NA
ATOM     43  C   UNL A   1      39.575  26.815  29.132  1.00  0.00     0.031 C 
ATOM     44  C   UNL A   1      43.452  25.321  26.305  1.00  0.00     0.029 A 
ATOM     45  N   UNL A   1      43.608  27.296  27.339  1.00  0.00    -0.354 N 
ATOM     46  C   UNL A   1      40.321  28.932  29.579  1.00  0.00     0.074 A 
ATOM     47  C   UNL A   1      39.269  27.952  29.742  1.00  0.00     0.031 C 
ATOM     48  C   UNL A   1      44.692  25.787  26.096  1.00  0.00     0.029 A 
ATOM     49  C   UNL A   1      44.818  27.104  26.716  1.00  0.00     0.049 A 
ATOM     50  H   UNL A   1      43.399  28.095  27.874  1.00  0.00     0.167 HD
ATOM     51  C   UNL A   1      40.303  30.172  30.124  1.00  0.00     0.037 A 
ATOM     52  C   UNL A   1      45.894  27.907  26.623  1.00  0.00     0.037 A 
ATOM     53  C   UNL A   1      41.378  31.125  30.023  1.00  0.00     0.049 A 
ATOM     54  C   UNL A   1      45.855  29.276  27.244  1.00  0.00     0.074 A 
ATOM     55  C   UNL A   1      41.452  32.403  30.553  1.00  0.00     0.029 A 
ATOM     56  N   UNL A   1      42.576  30.896  29.365  1.00  0.00    -0.354 N 
ATOM     57  N   UNL A   1      44.896  29.843  27.933  1.00  0.00    -0.248 NA
ATOM     58  C   UNL A   1      47.038  30.126  27.048  1.00  0.00     0.031 C 
ATOM     59  C   UNL A   1      42.689  32.953  30.199  1.00  0.00     0.029 A 
ATOM     60  C   UNL A   1      43.395  32.007  29.475  1.00  0.00     0.049 A 
ATOM     61  H   UNL A   1      42.809  30.065  28.890  1.00  0.00     0.167 HD
ATOM     62  C   UNL A   1      45.355  31.113  28.249  1.00  0.00     0.074 A 
ATOM     63  C   UNL A   1      46.691  31.227  27.702  1.00  0.00     0.031 C 
ATOM     64  C   UNL A   1      44.720  32.105  28.920  1.00  0.00     0.037 A 
BRANCH  51  65
ATOM     65  C   UNL A   1      39.063  30.590  30.856  1.00  0.00     0.064 A 
ATOM     66  C   UNL A   1      37.980  31.188  30.198  1.00  0.00     0.173 A 
ATOM     67  C   UNL A   1      38.946  30.349  32.234  1.00  0.00     0.173 A 
ATOM     68  F   UNL A   1      38.050  31.455  28.885  1.00  0.00    -0.203 F 
ATOM     69  C   UNL A   1      36.829  31.547  30.898  1.00  0.00     0.198 A 
ATOM     70  C   UNL A   1      37.786  30.687  32.925  1.00  0.00     0.198 A 
ATOM     71  F   UNL A   1      39.955  29.776  32.907  1.00  0.00    -0.203 F 
ATOM     72  F   UNL A   1      35.819  32.152  30.257  1.00  0.00    -0.200 F 
ATOM     73  C   UNL A   1      36.731  31.289  32.257  1.00  0.00     0.200 A 
ATOM     74  F   UNL A   1      37.689  30.430  34.237  1.00  0.00    -0.200 F 
ATOM     75  F   UNL A   1      35.621  31.630  32.927  1.00  0.00    -0.200 F 
ENDBRANCH  51  65
BRANCH  52  76
ATOM     76  C   UNL A   1      47.094  27.447  25.879  1.00  0.00     0.064 A 
ATOM     77  C   UNL A   1      47.209  27.660  24.499  1.00  0.00     0.173 A 
ATOM     78  C   UNL A   1      48.152  26.798  26.532  1.00  0.00     0.173 A 
ATOM     79  F   UNL A   1      46.210  28.250  23.827  1.00  0.00    -0.203 F 
ATOM     80  C   UNL A   1      48.337  27.237  23.799  1.00  0.00     0.198 A 
ATOM     81  C   UNL A   1      49.291  26.400  25.836  1.00  0.00     0.198 A 
ATOM     82  F   UNL A   1      48.086  26.568  27.852  1.00  0.00    -0.203 F 
ATOM     83  F   UNL A   1      48.409  27.423  22.474  1.00  0.00    -0.200 F 
ATOM     84  C   UNL A   1      49.381  26.616  24.469  1.00  0.00     0.200 A 
ATOM     85  F   UNL A   1      50.302  25.812  26.490  1.00  0.00    -0.200 F 
ATOM     86  F   UNL A   1      50.471  26.221  23.798  1.00  0.00    -0.200 F 
ENDBRANCH  52  76
BRANCH  64  87
ATOM     87  C   UNL A   1      45.465  33.391  29.104  1.00  0.00     0.064 A 
ATOM     88  C   UNL A   1      46.310  33.592  30.205  1.00  0.00     0.173 A 
ATOM     89  C   UNL A   1      45.357  34.421  28.158  1.00  0.00     0.173 A 
ATOM     90  F   UNL A   1      46.432  32.640  31.143  1.00  0.00    -0.203 F 
ATOM     91  C   UNL A   1      47.006  34.786  30.363  1.00  0.00     0.198 A 
ATOM     92  C   UNL A   1      46.069  35.607  28.309  1.00  0.00     0.198 A 
ATOM     93  F   UNL A   1      44.562  34.274  27.087  1.00  0.00    -0.203 F 
ATOM     94  F   UNL A   1      47.780  34.972  31.440  1.00  0.00    -0.200 F 
ATOM     95  C   UNL A   1      46.889  35.791  29.413  1.00  0.00     0.200 A 
ATOM     96  F   UNL A   1      45.960  36.575  27.388  1.00  0.00    -0.200 F 
ATOM     97  F   UNL A   1      47.560  36.940  29.566  1.00  0.00    -0.200 F 
ENDBRANCH  64  87
ENDBRANCH  38  39
ENDBRANCH  31  33
ENDBRANCH  30  31
ENDBRANCH  29  30
ENDBRANCH   1  29
TORSDOF 15
ENDMDL
MODEL 3
REMARK VINA RESULT:     -12.7      5.011     10.729
REMARK SMILES CC(=O)NS(=O)(=O)c1cc(-c2ccn(C(F)F)c(=O)c2)ccc1C(=O)OCCOC(=O)c1ccc(-c2c3nc(c(-c4c(F)c(F)c(F)c(F)c4F)c4ccc([nH]4)c(-c4c(F)c(F)c(F)c(F)c4F)c4nc(c(-c5c(F)c(F)c(F)c(F)c5F)c5ccc2[nH]5)C=C4)C=C3)cc1
REMARK SMILES IDX 27 1 26 2 24 3 25 4 23 5 8 6 9 7 10 8 22 9 21 10 5 11 6 12
REMARK SMILES IDX 7 13 4 14 1 15 2 16 3 17 11 19 12 20 20 21 13 22 18 23 14 24
REMARK SMILES IDX 19 25 15 26 16 27 17 28 28 29 29 30 30 31 31 32 32 33 33 34
REMARK SMILES IDX 94 35 34 36 93 37 35 38 36 39 37 40 87 41 38 42 92 43 86 44
REMARK SMILES IDX 88 45 39 46 91 47 85 48 84 49 40 51 72 52 52 53 71 54 53 55
REMARK SMILES IDX 56 56 70 57 89 58 54 59 55 60 69 62 90 63 57 64 41 65 42 66
REMARK SMILES IDX 50 67 43 68 44 69 48 70 51 71 45 72 46 73 49 74 47 75 73 76
REMARK SMILES IDX 74 77 82 78 75 79 76 80 80 81 83 82 77 83 78 84 81 85 79 86
REMARK SMILES IDX 58 87 59 88 67 89 60 90 61 91 65 92 68 93 62 94 63 95 66 96
REMARK SMILES IDX 64 97
REMARK H PARENT 4 18 88 50 56 61
REMARK Flexibility Score: inf
ROOT
ATOM      1  C   UNL A   1      34.678  33.587  29.496  1.00  0.00     0.275 C 
ENDROOT
BRANCH   1   2
ATOM      2  O   UNL A   1      35.638  32.764  30.190  1.00  0.00    -0.458 OA
BRANCH   2   3
ATOM      3  C   UNL A   1      35.355  32.431  31.461  1.00  0.00     0.339 C 
ATOM      4  O   UNL A   1      34.245  32.437  31.972  1.00  0.00    -0.246 OA
BRANCH   3   5
ATOM      5  C   UNL A   1      36.541  31.900  32.192  1.00  0.00     0.080 A 
ATOM      6  C   UNL A   1      37.577  32.639  32.779  1.00  0.00     0.103 A 
ATOM      7  C   UNL A   1      38.575  31.974  33.516  1.00  0.00     0.032 A 
ATOM      8  C   UNL A   1      38.635  30.579  33.556  1.00  0.00    -0.017 A 
ATOM      9  C   UNL A   1      36.577  30.492  32.307  1.00  0.00     0.018 A 
ATOM     10  C   UNL A   1      37.632  29.836  32.944  1.00  0.00     0.010 A 
BRANCH   6  11
ATOM     11  S   UNL A   1      37.719  34.390  32.552  1.00  0.00     0.264 S 
ATOM     12  O   UNL A   1      38.268  34.605  31.231  1.00  0.00    -0.201 OA
ATOM     13  O   UNL A   1      38.297  34.955  33.748  1.00  0.00    -0.201 OA
BRANCH  11  14
ATOM     14  N   UNL A   1      36.145  34.953  32.469  1.00  0.00    -0.249 N 
ATOM     15  C   UNL A   1      35.259  34.367  34.741  1.00  0.00     0.115 C 
ATOM     16  C   UNL A   1      35.369  35.328  33.585  1.00  0.00     0.230 C 
ATOM     17  O   UNL A   1      34.653  36.316  33.499  1.00  0.00    -0.274 OA
ATOM     18  H   UNL A   1      35.732  35.028  31.578  1.00  0.00     0.183 HD
ENDBRANCH  11  14
ENDBRANCH   6  11
BRANCH   8  19
ATOM     19  C   UNL A   1      39.809  29.920  34.147  1.00  0.00    -0.011 A 
ATOM     20  C   UNL A   1      40.477  28.818  33.482  1.00  0.00     0.027 A 
ATOM     21  C   UNL A   1      40.292  30.376  35.315  1.00  0.00     0.080 A 
ATOM     22  C   UNL A   1      41.561  28.254  34.026  1.00  0.00     0.095 A 
ATOM     23  C   UNL A   1      41.498  29.756  35.932  1.00  0.00     0.255 A 
ATOM     24  N   UNL A   1      42.068  28.706  35.229  1.00  0.00    -0.258 N 
ATOM     25  O   UNL A   1      41.903  30.208  36.998  1.00  0.00    -0.269 OA
BRANCH  24  26
ATOM     26  C   UNL A   1      43.229  28.081  35.812  1.00  0.00     0.451 C 
ATOM     27  F   UNL A   1      43.082  26.735  35.864  1.00  0.00    -0.185 F 
ATOM     28  F   UNL A   1      44.341  28.357  35.090  1.00  0.00    -0.185 F 
ENDBRANCH  24  26
ENDBRANCH   8  19
ENDBRANCH   3   5
ENDBRANCH   2   3
ENDBRANCH   1   2
BRANCH   1  29
ATOM     29  C   UNL A   1      33.947  32.749  28.452  1.00  0.00     0.275 C 
BRANCH  29  30
ATOM     30  O   UNL A   1      34.917  31.987  27.711  1.00  0.00    -0.458 OA
BRANCH  30  31
ATOM     31  C   UNL A   1      34.771  30.644  27.753  1.00  0.00     0.338 C 
ATOM     32  O   UNL A   1      33.752  29.992  27.621  1.00  0.00    -0.246 OA
BRANCH  31  33
ATOM     33  C   UNL A   1      36.086  30.027  27.989  1.00  0.00     0.060 A 
ATOM     34  C   UNL A   1      36.323  29.331  29.174  1.00  0.00     0.016 A 
ATOM     35  C   UNL A   1      37.120  30.237  27.076  1.00  0.00     0.016 A 
ATOM     36  C   UNL A   1      37.612  28.897  29.481  1.00  0.00     0.010 A 
ATOM     37  C   UNL A   1      38.396  29.736  27.353  1.00  0.00     0.010 A 
ATOM     38  C   UNL A   1      38.666  29.091  28.574  1.00  0.00    -0.014 A 
BRANCH  38  39
ATOM     39  C   UNL A   1      40.056  28.682  28.922  1.00  0.00     0.031 A 
ATOM     40  C   UNL A   1      40.919  29.584  29.767  1.00  0.00     0.074 A 
ATOM     41  C   UNL A   1      40.554  27.501  28.506  1.00  0.00     0.049 A 
ATOM     42  N   UNL A   1      42.198  29.497  30.038  1.00  0.00    -0.248 NA
ATOM     43  C   UNL A   1      40.257  30.745  30.381  1.00  0.00     0.031 C 
ATOM     44  C   UNL A   1      39.829  26.505  27.718  1.00  0.00     0.029 A 
ATOM     45  N   UNL A   1      41.791  26.933  28.700  1.00  0.00    -0.354 N 
ATOM     46  C   UNL A   1      42.505  30.623  30.791  1.00  0.00     0.074 A 
ATOM     47  C   UNL A   1      41.277  31.373  30.949  1.00  0.00     0.031 C 
ATOM     48  C   UNL A   1      40.614  25.433  27.534  1.00  0.00     0.029 A 
ATOM     49  C   UNL A   1      41.926  25.695  28.120  1.00  0.00     0.049 A 
ATOM     50  H   UNL A   1      42.512  27.372  29.206  1.00  0.00     0.167 HD
ATOM     51  C   UNL A   1      43.702  31.000  31.300  1.00  0.00     0.037 A 
ATOM     52  C   UNL A   1      42.991  24.876  28.038  1.00  0.00     0.037 A 
ATOM     53  C   UNL A   1      44.911  30.224  31.205  1.00  0.00     0.049 A 
ATOM     54  C   UNL A   1      44.308  25.311  28.619  1.00  0.00     0.074 A 
ATOM     55  C   UNL A   1      46.170  30.521  31.701  1.00  0.00     0.029 A 
ATOM     56  N   UNL A   1      45.007  28.985  30.591  1.00  0.00    -0.354 N 
ATOM     57  N   UNL A   1      44.603  26.413  29.262  1.00  0.00    -0.248 NA
ATOM     58  C   UNL A   1      45.446  24.399  28.435  1.00  0.00     0.031 C 
ATOM     59  C   UNL A   1      47.031  29.469  31.370  1.00  0.00     0.029 A 
ATOM     60  C   UNL A   1      46.302  28.505  30.695  1.00  0.00     0.049 A 
ATOM     61  H   UNL A   1      44.263  28.516  30.147  1.00  0.00     0.167 HD
ATOM     62  C   UNL A   1      45.957  26.331  29.555  1.00  0.00     0.074 A 
ATOM     63  C   UNL A   1      46.422  25.058  29.046  1.00  0.00     0.031 C 
ATOM     64  C   UNL A   1      46.749  27.238  30.178  1.00  0.00     0.037 A 
BRANCH  51  65
ATOM     65  C   UNL A   1      43.778  32.333  31.982  1.00  0.00     0.064 A 
ATOM     66  C   UNL A   1      43.695  32.459  33.375  1.00  0.00     0.173 A 
ATOM     67  C   UNL A   1      43.978  33.499  31.225  1.00  0.00     0.173 A 
ATOM     68  F   UNL A   1      43.487  31.376  34.140  1.00  0.00    -0.203 F 
ATOM     69  C   UNL A   1      43.791  33.707  33.986  1.00  0.00     0.198 A 
ATOM     70  C   UNL A   1      44.097  34.741  31.841  1.00  0.00     0.198 A 
ATOM     71  F   UNL A   1      44.068  33.429  29.889  1.00  0.00    -0.203 F 
ATOM     72  F   UNL A   1      43.672  33.810  35.317  1.00  0.00    -0.200 F 
ATOM     73  C   UNL A   1      44.000  34.845  33.220  1.00  0.00     0.200 A 
ATOM     74  F   UNL A   1      44.307  35.838  31.100  1.00  0.00    -0.200 F 
ATOM     75  F   UNL A   1      44.098  36.044  33.811  1.00  0.00    -0.200 F 
ENDBRANCH  51  65
BRANCH  52  76
ATOM     76  C   UNL A   1      42.864  23.569  27.344  1.00  0.00     0.064 A 
ATOM     77  C   UNL A   1      43.301  23.412  26.022  1.00  0.00     0.173 A 
ATOM     78  C   UNL A   1      42.315  22.452  27.990  1.00  0.00     0.173 A 
ATOM     79  F   UNL A   1      43.806  24.460  25.355  1.00  0.00    -0.203 F 
ATOM     80  C   UNL A   1      43.191  22.185  25.371  1.00  0.00     0.198 A 
ATOM     81  C   UNL A   1      42.230  21.219  27.347  1.00  0.00     0.198 A 
ATOM     82  F   UNL A   1      41.879  22.554  29.254  1.00  0.00    -0.203 F 
ATOM     83  F   UNL A   1      43.586  22.068  24.096  1.00  0.00    -0.200 F 
ATOM     84  C   UNL A   1      42.665  21.088  26.037  1.00  0.00     0.200 A 
ATOM     85  F   UNL A   1      41.733  20.159  27.998  1.00  0.00    -0.200 F 
ATOM     86  F   UNL A   1      42.570  19.905  25.414  1.00  0.00    -0.200 F 
ENDBRANCH  52  76
BRANCH  64  87
ATOM     87  C   UNL A   1      48.193  26.880  30.349  1.00  0.00     0.064 A 
ATOM     88  C   UNL A   1      48.628  26.104  31.433  1.00  0.00     0.173 A 
ATOM     89  C   UNL A   1      49.147  27.291  29.406  1.00  0.00     0.173 A 
ATOM     90  F   UNL A   1      47.752  25.701  32.367  1.00  0.00    -0.203 F 
ATOM     91  C   UNL A   1      49.970  25.767  31.578  1.00  0.00     0.198 A 
ATOM     92  C   UNL A   1      50.485  26.937  29.544  1.00  0.00     0.198 A 
ATOM     93  F   UNL A   1      48.778  28.032  28.351  1.00  0.00    -0.203 F 
ATOM     94  F   UNL A   1      50.370  25.056  32.640  1.00  0.00    -0.200 F 
ATOM     95  C   UNL A   1      50.897  26.180  30.631  1.00  0.00     0.200 A 
ATOM     96  F   UNL A   1      51.380  27.331  28.627  1.00  0.00    -0.200 F 
ATOM     97  F   UNL A   1      52.189  25.855  30.772  1.00  0.00    -0.200 F 
ENDBRANCH  64  87
ENDBRANCH  38  39
ENDBRANCH  31  33
ENDBRANCH  30  31
ENDBRANCH  29  30
ENDBRANCH   1  29
TORSDOF 15
ENDMDL
