MODEL 1
REMARK VINA RESULT:     -11.6      0.000      0.000
REMARK SMILES CCc1nn(-c2ccncn2)c(Cl)c1C(=O)OCCOC(=O)c1ccc(-c2c3nc(c(-c4c(F)c(F)c(F)c(F)c4F)c4ccc([nH]4)c(-c4c(F)c(F)c(F)c(F)c4F)c4nc(c(-c5c(F)c(F)c(F)c(F)c5F)c5ccc2[nH]5)C=C4)C=C3)cc1
REMARK SMILES IDX 19 1 18 2 17 3 15 4 16 5 14 6 3 7 4 8 5 9 12 10 13 11 2 12
REMARK SMILES IDX 1 13 6 14 7 15 11 16 8 17 10 18 9 19 20 20 21 21 22 22 23 23
REMARK SMILES IDX 24 24 85 25 25 26 84 27 26 28 27 29 28 30 78 31 29 32 83 33
REMARK SMILES IDX 77 34 79 35 30 36 82 37 76 38 75 39 31 41 63 42 43 43 62 44
REMARK SMILES IDX 44 45 47 46 61 47 80 48 45 49 46 50 60 52 81 53 48 54 32 55
REMARK SMILES IDX 33 56 41 57 34 58 35 59 39 60 42 61 36 62 37 63 40 64 38 65
REMARK SMILES IDX 64 66 65 67 73 68 66 69 67 70 71 71 74 72 68 73 69 74 72 75
REMARK SMILES IDX 70 76 49 77 50 78 58 79 51 80 52 81 56 82 59 83 53 84 54 85
REMARK SMILES IDX 57 86 55 87
REMARK H PARENT 79 40 47 51
REMARK Flexibility Score: inf
ROOT
ATOM      1  C   UNL A   1      34.313  33.964  27.881  1.00  0.00     0.275 C 
ENDROOT
BRANCH   1   2
ATOM      2  C   UNL A   1      34.326  34.717  29.202  1.00  0.00     0.275 C 
BRANCH   2   3
ATOM      3  O   UNL A   1      35.338  34.163  30.057  1.00  0.00    -0.458 OA
BRANCH   3   4
ATOM      4  C   UNL A   1      34.918  33.387  31.081  1.00  0.00     0.343 C 
ATOM      5  O   UNL A   1      34.186  32.410  30.915  1.00  0.00    -0.246 OA
BRANCH   4   6
ATOM      6  C   UNL A   1      35.481  33.751  32.371  1.00  0.00     0.120 A 
ATOM      7  C   UNL A   1      35.317  34.871  33.261  1.00  0.00     0.079 A 
ATOM      8  N   UNL A   1      36.060  34.718  34.378  1.00  0.00    -0.169 NA
ATOM      9  N   UNL A   1      36.762  33.582  34.190  1.00  0.00    -0.203 N 
ATOM     10  C   UNL A   1      36.456  32.997  32.995  1.00  0.00     0.149 A 
ATOM     11  Cl  UNL A   1      37.244  31.548  32.526  1.00  0.00    -0.061 Cl
BRANCH   7  12
ATOM     12  C   UNL A   1      34.499  36.138  33.248  1.00  0.00     0.056 C 
ATOM     13  C   UNL A   1      33.222  36.228  32.447  1.00  0.00     0.011 C 
ENDBRANCH   7  12
BRANCH   9  14
ATOM     14  C   UNL A   1      37.688  33.126  35.160  1.00  0.00     0.158 A 
ATOM     15  C   UNL A   1      38.983  33.607  35.098  1.00  0.00     0.069 A 
ATOM     16  N   UNL A   1      37.286  32.155  36.011  1.00  0.00    -0.217 NA
ATOM     17  C   UNL A   1      39.869  33.017  35.967  1.00  0.00     0.117 A 
ATOM     18  C   UNL A   1      38.243  31.650  36.798  1.00  0.00     0.224 A 
ATOM     19  N   UNL A   1      39.531  32.030  36.818  1.00  0.00    -0.245 NA
ENDBRANCH   9  14
ENDBRANCH   4   6
ENDBRANCH   3   4
ENDBRANCH   2   3
ENDBRANCH   1   2
BRANCH   1  20
ATOM     20  O   UNL A   1      35.453  33.112  27.757  1.00  0.00    -0.458 OA
BRANCH  20  21
ATOM     21  C   UNL A   1      35.201  31.788  27.700  1.00  0.00     0.338 C 
ATOM     22  O   UNL A   1      34.157  31.243  27.364  1.00  0.00    -0.246 OA
BRANCH  21  23
ATOM     23  C   UNL A   1      36.328  31.063  28.290  1.00  0.00     0.060 A 
ATOM     24  C   UNL A   1      37.379  31.795  28.850  1.00  0.00     0.016 A 
ATOM     25  C   UNL A   1      36.426  29.676  28.094  1.00  0.00     0.016 A 
ATOM     26  C   UNL A   1      38.572  31.148  29.122  1.00  0.00     0.010 A 
ATOM     27  C   UNL A   1      37.613  29.034  28.366  1.00  0.00     0.010 A 
ATOM     28  C   UNL A   1      38.694  29.785  28.823  1.00  0.00    -0.014 A 
BRANCH  28  29
ATOM     29  C   UNL A   1      39.971  29.136  29.061  1.00  0.00     0.031 A 
ATOM     30  C   UNL A   1      40.317  28.921  30.489  1.00  0.00     0.074 A 
ATOM     31  C   UNL A   1      40.718  28.618  28.068  1.00  0.00     0.049 A 
ATOM     32  N   UNL A   1      41.369  29.319  31.125  1.00  0.00    -0.248 NA
ATOM     33  C   UNL A   1      39.328  28.230  31.331  1.00  0.00     0.031 C 
ATOM     34  C   UNL A   1      40.374  28.465  26.653  1.00  0.00     0.029 A 
ATOM     35  N   UNL A   1      41.928  28.002  28.163  1.00  0.00    -0.354 N 
ATOM     36  C   UNL A   1      41.250  28.813  32.417  1.00  0.00     0.074 A 
ATOM     37  C   UNL A   1      39.932  28.241  32.518  1.00  0.00     0.031 C 
ATOM     38  C   UNL A   1      41.250  27.613  26.075  1.00  0.00     0.029 A 
ATOM     39  C   UNL A   1      42.279  27.268  27.042  1.00  0.00     0.049 A 
ATOM     40  H   UNL A   1      42.503  28.072  28.959  1.00  0.00     0.167 HD
ATOM     41  C   UNL A   1      42.314  28.741  33.262  1.00  0.00     0.037 A 
ATOM     42  C   UNL A   1      43.301  26.383  26.955  1.00  0.00     0.037 A 
ATOM     43  C   UNL A   1      43.379  29.620  32.863  1.00  0.00     0.049 A 
ATOM     44  C   UNL A   1      44.247  26.672  28.062  1.00  0.00     0.074 A 
ATOM     45  C   UNL A   1      43.484  30.987  32.689  1.00  0.00     0.029 A 
ATOM     46  N   UNL A   1      44.479  29.088  32.238  1.00  0.00    -0.354 N 
ATOM     47  N   UNL A   1      44.998  27.735  28.127  1.00  0.00    -0.248 NA
ATOM     48  C   UNL A   1      44.050  25.970  29.323  1.00  0.00     0.031 C 
ATOM     49  C   UNL A   1      44.340  31.152  31.561  1.00  0.00     0.029 A 
ATOM     50  C   UNL A   1      44.729  29.879  31.146  1.00  0.00     0.049 A 
ATOM     51  H   UNL A   1      44.989  28.294  32.519  1.00  0.00     0.167 HD
ATOM     52  C   UNL A   1      45.017  28.073  29.473  1.00  0.00     0.074 A 
ATOM     53  C   UNL A   1      44.506  26.898  30.170  1.00  0.00     0.031 C 
ATOM     54  C   UNL A   1      45.178  29.368  29.874  1.00  0.00     0.037 A 
BRANCH  41  55
ATOM     55  C   UNL A   1      42.502  27.650  34.280  1.00  0.00     0.064 A 
ATOM     56  C   UNL A   1      43.070  26.422  33.891  1.00  0.00     0.173 A 
ATOM     57  C   UNL A   1      41.882  27.666  35.548  1.00  0.00     0.173 A 
ATOM     58  F   UNL A   1      43.657  26.291  32.692  1.00  0.00    -0.203 F 
ATOM     59  C   UNL A   1      42.969  25.279  34.688  1.00  0.00     0.198 A 
ATOM     60  C   UNL A   1      41.829  26.538  36.363  1.00  0.00     0.198 A 
ATOM     61  F   UNL A   1      41.207  28.734  35.992  1.00  0.00    -0.203 F 
ATOM     62  F   UNL A   1      43.418  24.105  34.227  1.00  0.00    -0.200 F 
ATOM     63  C   UNL A   1      42.345  25.337  35.922  1.00  0.00     0.200 A 
ATOM     64  F   UNL A   1      41.202  26.608  37.546  1.00  0.00    -0.200 F 
ATOM     65  F   UNL A   1      42.195  24.231  36.662  1.00  0.00    -0.200 F 
ENDBRANCH  41  55
BRANCH  42  66
ATOM     66  C   UNL A   1      43.371  25.144  26.150  1.00  0.00     0.064 A 
ATOM     67  C   UNL A   1      44.426  24.923  25.251  1.00  0.00     0.173 A 
ATOM     68  C   UNL A   1      42.552  24.035  26.439  1.00  0.00     0.173 A 
ATOM     69  F   UNL A   1      45.280  25.914  24.957  1.00  0.00    -0.203 F 
ATOM     70  C   UNL A   1      44.659  23.664  24.691  1.00  0.00     0.198 A 
ATOM     71  C   UNL A   1      42.777  22.782  25.871  1.00  0.00     0.198 A 
ATOM     72  F   UNL A   1      41.572  24.120  27.351  1.00  0.00    -0.203 F 
ATOM     73  F   UNL A   1      45.714  23.475  23.886  1.00  0.00    -0.200 F 
ATOM     74  C   UNL A   1      43.840  22.591  25.008  1.00  0.00     0.200 A 
ATOM     75  F   UNL A   1      41.997  21.747  26.213  1.00  0.00    -0.200 F 
ATOM     76  F   UNL A   1      44.097  21.372  24.517  1.00  0.00    -0.200 F 
ENDBRANCH  42  66
BRANCH  54  77
ATOM     77  C   UNL A   1      45.590  30.377  28.841  1.00  0.00     0.064 A 
ATOM     78  C   UNL A   1      44.686  31.031  27.984  1.00  0.00     0.173 A 
ATOM     79  C   UNL A   1      46.925  30.801  28.812  1.00  0.00     0.173 A 
ATOM     80  F   UNL A   1      43.376  30.764  28.032  1.00  0.00    -0.203 F 
ATOM     81  C   UNL A   1      45.112  32.021  27.103  1.00  0.00     0.198 A 
ATOM     82  C   UNL A   1      47.341  31.819  27.958  1.00  0.00     0.198 A 
ATOM     83  F   UNL A   1      47.821  30.259  29.652  1.00  0.00    -0.203 F 
ATOM     84  F   UNL A   1      44.232  32.617  26.285  1.00  0.00    -0.200 F 
ATOM     85  C   UNL A   1      46.438  32.419  27.094  1.00  0.00     0.200 A 
ATOM     86  F   UNL A   1      48.614  32.238  27.990  1.00  0.00    -0.200 F 
ATOM     87  F   UNL A   1      46.842  33.400  26.275  1.00  0.00    -0.200 F 
ENDBRANCH  54  77
ENDBRANCH  28  29
ENDBRANCH  21  23
ENDBRANCH  20  21
ENDBRANCH   1  20
TORSDOF 13
ENDMDL
MODEL 2
REMARK VINA RESULT:     -11.4      5.872     11.319
REMARK SMILES CCc1nn(-c2ccncn2)c(Cl)c1C(=O)OCCOC(=O)c1ccc(-c2c3nc(c(-c4c(F)c(F)c(F)c(F)c4F)c4ccc([nH]4)c(-c4c(F)c(F)c(F)c(F)c4F)c4nc(c(-c5c(F)c(F)c(F)c(F)c5F)c5ccc2[nH]5)C=C4)C=C3)cc1
REMARK SMILES IDX 19 1 18 2 17 3 15 4 16 5 14 6 3 7 4 8 5 9 12 10 13 11 2 12
REMARK SMILES IDX 1 13 6 14 7 15 11 16 8 17 10 18 9 19 20 20 21 21 22 22 23 23
REMARK SMILES IDX 24 24 85 25 25 26 84 27 26 28 27 29 28 30 78 31 29 32 83 33
REMARK SMILES IDX 77 34 79 35 30 36 82 37 76 38 75 39 31 41 63 42 43 43 62 44
REMARK SMILES IDX 44 45 47 46 61 47 80 48 45 49 46 50 60 52 81 53 48 54 32 55
REMARK SMILES IDX 33 56 41 57 34 58 35 59 39 60 42 61 36 62 37 63 40 64 38 65
REMARK SMILES IDX 64 66 65 67 73 68 66 69 67 70 71 71 74 72 68 73 69 74 72 75
REMARK SMILES IDX 70 76 49 77 50 78 58 79 51 80 52 81 56 82 59 83 53 84 54 85
REMARK SMILES IDX 57 86 55 87
REMARK H PARENT 79 40 47 51
REMARK Flexibility Score: inf
ROOT
ATOM      1  C   UNL A   1      38.294  22.175  25.755  1.00  0.00     0.275 C 
ENDROOT
BRANCH   1   2
ATOM      2  C   UNL A   1      37.189  23.220  25.778  1.00  0.00     0.275 C 
BRANCH   2   3
ATOM      3  O   UNL A   1      35.937  22.585  26.077  1.00  0.00    -0.458 OA
BRANCH   3   4
ATOM      4  C   UNL A   1      34.915  22.807  25.220  1.00  0.00     0.343 C 
ATOM      5  O   UNL A   1      34.840  23.824  24.529  1.00  0.00    -0.246 OA
BRANCH   4   6
ATOM      6  C   UNL A   1      33.973  21.705  25.122  1.00  0.00     0.120 A 
ATOM      7  C   UNL A   1      32.538  21.597  25.190  1.00  0.00     0.079 A 
ATOM      8  N   UNL A   1      32.137  20.322  25.005  1.00  0.00    -0.169 NA
ATOM      9  N   UNL A   1      33.271  19.597  24.910  1.00  0.00    -0.203 N 
ATOM     10  C   UNL A   1      34.379  20.390  25.000  1.00  0.00     0.149 A 
ATOM     11  Cl  UNL A   1      35.941  19.686  24.930  1.00  0.00    -0.061 Cl
BRANCH   7  12
ATOM     12  C   UNL A   1      31.400  22.565  25.388  1.00  0.00     0.056 C 
ATOM     13  C   UNL A   1      31.159  23.688  24.406  1.00  0.00     0.011 C 
ENDBRANCH   7  12
BRANCH   9  14
ATOM     14  C   UNL A   1      33.229  18.191  24.747  1.00  0.00     0.158 A 
ATOM     15  C   UNL A   1      32.663  17.436  25.758  1.00  0.00     0.069 A 
ATOM     16  N   UNL A   1      33.856  17.660  23.672  1.00  0.00    -0.217 NA
ATOM     17  C   UNL A   1      32.787  16.075  25.612  1.00  0.00     0.117 A 
ATOM     18  C   UNL A   1      33.923  16.324  23.650  1.00  0.00     0.224 A 
ATOM     19  N   UNL A   1      33.421  15.492  24.577  1.00  0.00    -0.245 NA
ENDBRANCH   9  14
ENDBRANCH   4   6
ENDBRANCH   3   4
ENDBRANCH   2   3
ENDBRANCH   1   2
BRANCH   1  20
ATOM     20  O   UNL A   1      39.256  22.413  26.785  1.00  0.00    -0.458 OA
BRANCH  20  21
ATOM     21  C   UNL A   1      40.512  22.680  26.373  1.00  0.00     0.338 C 
ATOM     22  O   UNL A   1      41.308  21.905  25.859  1.00  0.00    -0.246 OA
BRANCH  21  23
ATOM     23  C   UNL A   1      40.878  24.031  26.806  1.00  0.00     0.060 A 
ATOM     24  C   UNL A   1      41.585  24.184  28.002  1.00  0.00     0.016 A 
ATOM     25  C   UNL A   1      40.336  25.136  26.131  1.00  0.00     0.016 A 
ATOM     26  C   UNL A   1      41.662  25.442  28.575  1.00  0.00     0.010 A 
ATOM     27  C   UNL A   1      40.413  26.386  26.702  1.00  0.00     0.010 A 
ATOM     28  C   UNL A   1      41.026  26.520  27.946  1.00  0.00    -0.014 A 
BRANCH  28  29
ATOM     29  C   UNL A   1      41.068  27.820  28.591  1.00  0.00     0.031 A 
ATOM     30  C   UNL A   1      42.177  28.707  28.158  1.00  0.00     0.074 A 
ATOM     31  C   UNL A   1      40.086  28.261  29.400  1.00  0.00     0.049 A 
ATOM     32  N   UNL A   1      43.084  29.267  28.889  1.00  0.00    -0.248 NA
ATOM     33  C   UNL A   1      42.333  28.946  26.715  1.00  0.00     0.031 C 
ATOM     34  C   UNL A   1      38.786  27.645  29.675  1.00  0.00     0.029 A 
ATOM     35  N   UNL A   1      40.018  29.444  30.067  1.00  0.00    -0.354 N 
ATOM     36  C   UNL A   1      43.849  30.044  28.023  1.00  0.00     0.074 A 
ATOM     37  C   UNL A   1      43.409  29.730  26.687  1.00  0.00     0.031 C 
ATOM     38  C   UNL A   1      37.983  28.556  30.269  1.00  0.00     0.029 A 
ATOM     39  C   UNL A   1      38.751  29.763  30.527  1.00  0.00     0.049 A 
ATOM     40  H   UNL A   1      40.801  30.024  30.212  1.00  0.00     0.167 HD
ATOM     41  C   UNL A   1      44.671  31.029  28.476  1.00  0.00     0.037 A 
ATOM     42  C   UNL A   1      38.356  30.965  31.010  1.00  0.00     0.037 A 
ATOM     43  C   UNL A   1      44.994  30.862  29.867  1.00  0.00     0.049 A 
ATOM     44  C   UNL A   1      39.573  31.717  31.406  1.00  0.00     0.074 A 
ATOM     45  C   UNL A   1      45.618  29.869  30.598  1.00  0.00     0.029 A 
ATOM     46  N   UNL A   1      44.364  31.654  30.793  1.00  0.00    -0.354 N 
ATOM     47  N   UNL A   1      40.328  31.408  32.423  1.00  0.00    -0.248 NA
ATOM     48  C   UNL A   1      40.193  32.580  30.409  1.00  0.00     0.031 C 
ATOM     49  C   UNL A   1      44.917  29.827  31.839  1.00  0.00     0.029 A 
ATOM     50  C   UNL A   1      43.940  30.821  31.797  1.00  0.00     0.049 A 
ATOM     51  H   UNL A   1      44.239  32.630  30.746  1.00  0.00     0.167 HD
ATOM     52  C   UNL A   1      41.621  31.675  31.996  1.00  0.00     0.074 A 
ATOM     53  C   UNL A   1      41.468  32.488  30.794  1.00  0.00     0.031 C 
ATOM     54  C   UNL A   1      42.686  30.979  32.492  1.00  0.00     0.037 A 
BRANCH  41  55
ATOM     55  C   UNL A   1      44.939  32.306  27.729  1.00  0.00     0.064 A 
ATOM     56  C   UNL A   1      46.156  32.472  27.043  1.00  0.00     0.173 A 
ATOM     57  C   UNL A   1      44.169  33.476  27.907  1.00  0.00     0.173 A 
ATOM     58  F   UNL A   1      46.978  31.429  26.848  1.00  0.00    -0.203 F 
ATOM     59  C   UNL A   1      46.597  33.729  26.620  1.00  0.00     0.198 A 
ATOM     60  C   UNL A   1      44.587  34.719  27.436  1.00  0.00     0.198 A 
ATOM     61  F   UNL A   1      43.047  33.480  28.637  1.00  0.00    -0.203 F 
ATOM     62  F   UNL A   1      47.815  33.859  26.078  1.00  0.00    -0.200 F 
ATOM     63  C   UNL A   1      45.814  34.852  26.821  1.00  0.00     0.200 A 
ATOM     64  F   UNL A   1      43.824  35.798  27.659  1.00  0.00    -0.200 F 
ATOM     65  F   UNL A   1      46.260  36.064  26.469  1.00  0.00    -0.200 F 
ENDBRANCH  41  55
BRANCH  42  66
ATOM     66  C   UNL A   1      37.026  31.605  30.896  1.00  0.00     0.064 A 
ATOM     67  C   UNL A   1      36.206  31.775  32.022  1.00  0.00     0.173 A 
ATOM     68  C   UNL A   1      36.645  32.300  29.732  1.00  0.00     0.173 A 
ATOM     69  F   UNL A   1      36.524  31.186  33.184  1.00  0.00    -0.203 F 
ATOM     70  C   UNL A   1      35.083  32.608  31.991  1.00  0.00     0.198 A 
ATOM     71  C   UNL A   1      35.518  33.120  29.697  1.00  0.00     0.198 A 
ATOM     72  F   UNL A   1      37.408  32.272  28.630  1.00  0.00    -0.203 F 
ATOM     73  F   UNL A   1      34.360  32.797  33.103  1.00  0.00    -0.200 F 
ATOM     74  C   UNL A   1      34.745  33.287  30.831  1.00  0.00     0.200 A 
ATOM     75  F   UNL A   1      35.222  33.797  28.579  1.00  0.00    -0.200 F 
ATOM     76  F   UNL A   1      33.703  34.129  30.816  1.00  0.00    -0.200 F 
ENDBRANCH  42  66
BRANCH  54  77
ATOM     77  C   UNL A   1      42.457  30.104  33.691  1.00  0.00     0.064 A 
ATOM     78  C   UNL A   1      41.972  28.786  33.614  1.00  0.00     0.173 A 
ATOM     79  C   UNL A   1      42.874  30.564  34.947  1.00  0.00     0.173 A 
ATOM     80  F   UNL A   1      41.660  28.235  32.435  1.00  0.00    -0.203 F 
ATOM     81  C   UNL A   1      41.858  27.989  34.750  1.00  0.00     0.198 A 
ATOM     82  C   UNL A   1      42.797  29.751  36.076  1.00  0.00     0.198 A 
ATOM     83  F   UNL A   1      43.405  31.790  35.072  1.00  0.00    -0.203 F 
ATOM     84  F   UNL A   1      41.377  26.742  34.651  1.00  0.00    -0.200 F 
ATOM     85  C   UNL A   1      42.276  28.470  35.979  1.00  0.00     0.200 A 
ATOM     86  F   UNL A   1      43.251  30.201  37.253  1.00  0.00    -0.200 F 
ATOM     87  F   UNL A   1      42.205  27.690  37.067  1.00  0.00    -0.200 F 
ENDBRANCH  54  77
ENDBRANCH  28  29
ENDBRANCH  21  23
ENDBRANCH  20  21
ENDBRANCH   1  20
TORSDOF 13
ENDMDL
MODEL 3
REMARK VINA RESULT:     -11.4      5.484     11.081
REMARK SMILES CCc1nn(-c2ccncn2)c(Cl)c1C(=O)OCCOC(=O)c1ccc(-c2c3nc(c(-c4c(F)c(F)c(F)c(F)c4F)c4ccc([nH]4)c(-c4c(F)c(F)c(F)c(F)c4F)c4nc(c(-c5c(F)c(F)c(F)c(F)c5F)c5ccc2[nH]5)C=C4)C=C3)cc1
REMARK SMILES IDX 19 1 18 2 17 3 15 4 16 5 14 6 3 7 4 8 5 9 12 10 13 11 2 12
REMARK SMILES IDX 1 13 6 14 7 15 11 16 8 17 10 18 9 19 20 20 21 21 22 22 23 23
REMARK SMILES IDX 24 24 85 25 25 26 84 27 26 28 27 29 28 30 78 31 29 32 83 33
REMARK SMILES IDX 77 34 79 35 30 36 82 37 76 38 75 39 31 41 63 42 43 43 62 44
REMARK SMILES IDX 44 45 47 46 61 47 80 48 45 49 46 50 60 52 81 53 48 54 32 55
REMARK SMILES IDX 33 56 41 57 34 58 35 59 39 60 42 61 36 62 37 63 40 64 38 65
REMARK SMILES IDX 64 66 65 67 73 68 66 69 67 70 71 71 74 72 68 73 69 74 72 75
REMARK SMILES IDX 70 76 49 77 50 78 58 79 51 80 52 81 56 82 59 83 53 84 54 85
REMARK SMILES IDX 57 86 55 87
REMARK H PARENT 79 40 47 51
REMARK Flexibility Score: inf
ROOT
ATOM      1  C   UNL A   1      38.353  21.134  25.453  1.00  0.00     0.275 C 
ENDROOT
BRANCH   1   2
ATOM      2  C   UNL A   1      37.127  21.311  24.571  1.00  0.00     0.275 C 
BRANCH   2   3
ATOM      3  O   UNL A   1      36.032  20.562  25.120  1.00  0.00    -0.458 OA
BRANCH   3   4
ATOM      4  C   UNL A   1      35.012  21.269  25.658  1.00  0.00     0.343 C 
ATOM      5  O   UNL A   1      34.958  21.545  26.857  1.00  0.00    -0.246 OA
BRANCH   4   6
ATOM      6  C   UNL A   1      34.044  21.748  24.685  1.00  0.00     0.120 A 
ATOM      7  C   UNL A   1      33.010  21.124  23.901  1.00  0.00     0.079 A 
ATOM      8  N   UNL A   1      32.352  22.032  23.151  1.00  0.00    -0.169 NA
ATOM      9  N   UNL A   1      32.990  23.202  23.361  1.00  0.00    -0.203 N 
ATOM     10  C   UNL A   1      34.016  23.060  24.250  1.00  0.00     0.149 A 
ATOM     11  Cl  UNL A   1      34.989  24.412  24.657  1.00  0.00    -0.061 Cl
BRANCH   7  12
ATOM     12  C   UNL A   1      32.482  19.720  23.750  1.00  0.00     0.056 C 
ATOM     13  C   UNL A   1      33.148  18.562  24.456  1.00  0.00     0.011 C 
ENDBRANCH   7  12
BRANCH   9  14
ATOM     14  C   UNL A   1      32.587  24.386  22.694  1.00  0.00     0.158 A 
ATOM     15  C   UNL A   1      31.597  25.155  23.278  1.00  0.00     0.069 A 
ATOM     16  N   UNL A   1      33.104  24.628  21.468  1.00  0.00    -0.217 NA
ATOM     17  C   UNL A   1      31.144  26.204  22.514  1.00  0.00     0.117 A 
ATOM     18  C   UNL A   1      32.573  25.669  20.818  1.00  0.00     0.224 A 
ATOM     19  N   UNL A   1      31.605  26.478  21.279  1.00  0.00    -0.245 NA
ENDBRANCH   9  14
ENDBRANCH   4   6
ENDBRANCH   3   4
ENDBRANCH   2   3
ENDBRANCH   1   2
BRANCH   1  20
ATOM     20  O   UNL A   1      38.661  22.337  26.162  1.00  0.00    -0.458 OA
BRANCH  20  21
ATOM     21  C   UNL A   1      39.783  22.313  26.911  1.00  0.00     0.338 C 
ATOM     22  O   UNL A   1      40.331  21.332  27.401  1.00  0.00    -0.246 OA
BRANCH  21  23
ATOM     23  C   UNL A   1      40.174  23.688  27.227  1.00  0.00     0.060 A 
ATOM     24  C   UNL A   1      41.346  23.902  27.957  1.00  0.00     0.016 A 
ATOM     25  C   UNL A   1      39.269  24.731  26.976  1.00  0.00     0.016 A 
ATOM     26  C   UNL A   1      41.561  25.146  28.525  1.00  0.00     0.010 A 
ATOM     27  C   UNL A   1      39.483  25.968  27.541  1.00  0.00     0.010 A 
ATOM     28  C   UNL A   1      40.598  26.150  28.357  1.00  0.00    -0.014 A 
BRANCH  28  29
ATOM     29  C   UNL A   1      40.813  27.430  29.008  1.00  0.00     0.031 A 
ATOM     30  C   UNL A   1      41.938  28.234  28.469  1.00  0.00     0.074 A 
ATOM     31  C   UNL A   1      39.960  27.931  29.921  1.00  0.00     0.049 A 
ATOM     32  N   UNL A   1      42.959  28.706  29.106  1.00  0.00    -0.248 NA
ATOM     33  C   UNL A   1      41.960  28.488  27.020  1.00  0.00     0.031 C 
ATOM     34  C   UNL A   1      38.650  27.416  30.326  1.00  0.00     0.029 A 
ATOM     35  N   UNL A   1      40.058  29.104  30.604  1.00  0.00    -0.354 N 
ATOM     36  C   UNL A   1      43.689  29.437  28.172  1.00  0.00     0.074 A 
ATOM     37  C   UNL A   1      43.088  29.184  26.887  1.00  0.00     0.031 C 
ATOM     38  C   UNL A   1      37.990  28.377  31.011  1.00  0.00     0.029 A 
ATOM     39  C   UNL A   1      38.876  29.514  31.199  1.00  0.00     0.049 A 
ATOM     40  H   UNL A   1      40.896  29.616  30.671  1.00  0.00     0.167 HD
ATOM     41  C   UNL A   1      44.631  30.344  28.545  1.00  0.00     0.037 A 
ATOM     42  C   UNL A   1      38.632  30.734  31.734  1.00  0.00     0.037 A 
ATOM     43  C   UNL A   1      45.084  30.126  29.892  1.00  0.00     0.049 A 
ATOM     44  C   UNL A   1      39.941  31.379  32.006  1.00  0.00     0.074 A 
ATOM     45  C   UNL A   1      45.698  29.073  30.543  1.00  0.00     0.029 A 
ATOM     46  N   UNL A   1      44.620  30.948  30.888  1.00  0.00    -0.354 N 
ATOM     47  N   UNL A   1      40.771  30.992  32.934  1.00  0.00    -0.248 NA
ATOM     48  C   UNL A   1      40.520  32.209  30.959  1.00  0.00     0.031 C 
ATOM     49  C   UNL A   1      45.131  29.063  31.850  1.00  0.00     0.029 A 
ATOM     50  C   UNL A   1      44.238  30.132  31.922  1.00  0.00     0.049 A 
ATOM     51  H   UNL A   1      44.571  31.931  30.865  1.00  0.00     0.167 HD
ATOM     52  C   UNL A   1      42.030  31.163  32.375  1.00  0.00     0.074 A 
ATOM     53  C   UNL A   1      41.818  32.008  31.205  1.00  0.00     0.031 C 
ATOM     54  C   UNL A   1      43.081  30.376  32.749  1.00  0.00     0.037 A 
BRANCH  41  55
ATOM     55  C   UNL A   1      44.922  31.610  27.788  1.00  0.00     0.064 A 
ATOM     56  C   UNL A   1      46.146  31.752  27.108  1.00  0.00     0.173 A 
ATOM     57  C   UNL A   1      44.167  32.792  27.949  1.00  0.00     0.173 A 
ATOM     58  F   UNL A   1      46.954  30.696  26.928  1.00  0.00    -0.203 F 
ATOM     59  C   UNL A   1      46.607  32.998  26.675  1.00  0.00     0.198 A 
ATOM     60  C   UNL A   1      44.606  34.025  27.469  1.00  0.00     0.198 A 
ATOM     61  F   UNL A   1      43.041  32.820  28.672  1.00  0.00    -0.203 F 
ATOM     62  F   UNL A   1      47.830  33.106  26.140  1.00  0.00    -0.200 F 
ATOM     63  C   UNL A   1      45.838  34.134  26.860  1.00  0.00     0.200 A 
ATOM     64  F   UNL A   1      43.857  35.117  27.676  1.00  0.00    -0.200 F 
ATOM     65  F   UNL A   1      46.303  35.337  26.500  1.00  0.00    -0.200 F 
ENDBRANCH  41  55
BRANCH  42  66
ATOM     66  C   UNL A   1      37.354  31.479  31.768  1.00  0.00     0.064 A 
ATOM     67  C   UNL A   1      36.760  31.843  32.987  1.00  0.00     0.173 A 
ATOM     68  C   UNL A   1      36.825  32.080  30.609  1.00  0.00     0.173 A 
ATOM     69  F   UNL A   1      37.235  31.352  34.141  1.00  0.00    -0.203 F 
ATOM     70  C   UNL A   1      35.715  32.768  33.044  1.00  0.00     0.198 A 
ATOM     71  C   UNL A   1      35.773  32.993  30.666  1.00  0.00     0.198 A 
ATOM     72  F   UNL A   1      37.377  31.865  29.407  1.00  0.00    -0.203 F 
ATOM     73  F   UNL A   1      35.215  33.140  34.232  1.00  0.00    -0.200 F 
ATOM     74  C   UNL A   1      35.227  33.350  31.885  1.00  0.00     0.200 A 
ATOM     75  F   UNL A   1      35.334  33.573  29.540  1.00  0.00    -0.200 F 
ATOM     76  F   UNL A   1      34.264  34.279  31.944  1.00  0.00    -0.200 F 
ENDBRANCH  42  66
BRANCH  54  77
ATOM     77  C   UNL A   1      42.908  29.499  33.956  1.00  0.00     0.064 A 
ATOM     78  C   UNL A   1      42.293  28.235  33.920  1.00  0.00     0.173 A 
ATOM     79  C   UNL A   1      43.510  29.889  35.159  1.00  0.00     0.173 A 
ATOM     80  F   UNL A   1      41.796  27.742  32.780  1.00  0.00    -0.203 F 
ATOM     81  C   UNL A   1      42.236  27.427  35.053  1.00  0.00     0.198 A 
ATOM     82  C   UNL A   1      43.486  29.062  36.280  1.00  0.00     0.198 A 
ATOM     83  F   UNL A   1      44.168  31.056  35.236  1.00  0.00    -0.203 F 
ATOM     84  F   UNL A   1      41.628  26.232  34.996  1.00  0.00    -0.200 F 
ATOM     85  C   UNL A   1      42.837  27.838  36.230  1.00  0.00     0.200 A 
ATOM     86  F   UNL A   1      44.114  29.439  37.401  1.00  0.00    -0.200 F 
ATOM     87  F   UNL A   1      42.817  27.043  37.310  1.00  0.00    -0.200 F 
ENDBRANCH  54  77
ENDBRANCH  28  29
ENDBRANCH  21  23
ENDBRANCH  20  21
ENDBRANCH   1  20
TORSDOF 13
ENDMDL
