MODEL 1
REMARK VINA RESULT:     -12.2      0.000      0.000
REMARK SMILES O=C(OCCOC(=O)c1ccc(Cl)cc1-c1ccc(C(F)(F)F)cc1)c1ccc(-c2c3nc(c(-c4c(F)c(F)c(F)c(F)c4F)c4ccc([nH]4)c(-c4c(F)c(F)c(F)c(F)c4F)c4nc(c(-c5c(F)c(F)c(F)c(F)c5F)c5ccc2[nH]5)C=C4)C=C3)cc1
REMARK SMILES IDX 4 1 3 2 2 3 1 4 26 5 27 6 88 7 28 8 87 9 29 10 30 11 31 12
REMARK SMILES IDX 81 13 32 14 86 15 80 16 82 17 33 18 85 19 79 20 78 21 34 23
REMARK SMILES IDX 66 24 46 25 65 26 47 27 50 28 64 29 83 30 48 31 49 32 63 34
REMARK SMILES IDX 84 35 51 36 35 37 36 38 44 39 37 40 38 41 42 42 45 43 39 44
REMARK SMILES IDX 40 45 43 46 41 47 67 48 68 49 76 50 69 51 70 52 74 53 77 54
REMARK SMILES IDX 71 55 72 56 75 57 73 58 52 59 53 60 61 61 54 62 55 63 59 64
REMARK SMILES IDX 62 65 56 66 57 67 60 68 58 69 5 70 6 71 7 72 8 73 9 74 10 75
REMARK SMILES IDX 15 76 11 77 14 78 12 79 13 80 16 81 17 82 25 83 18 84 24 85
REMARK SMILES IDX 19 86 20 87 21 88 22 89 23 90
REMARK H PARENT 82 22 50 33
REMARK Flexibility Score: inf
ROOT
ATOM      1  C   UNL A   1      32.063  30.079  26.098  1.00  0.00     0.275 C 
ENDROOT
BRANCH   1   2
ATOM      2  O   UNL A   1      33.440  30.452  26.204  1.00  0.00    -0.458 OA
BRANCH   2   3
ATOM      3  C   UNL A   1      33.693  31.327  27.210  1.00  0.00     0.338 C 
ATOM      4  O   UNL A   1      33.136  32.392  27.407  1.00  0.00    -0.246 OA
BRANCH   3   5
ATOM      5  C   UNL A   1      34.957  30.912  27.866  1.00  0.00     0.060 A 
ATOM      6  C   UNL A   1      36.032  31.799  28.001  1.00  0.00     0.016 A 
ATOM      7  C   UNL A   1      34.991  29.668  28.501  1.00  0.00     0.016 A 
ATOM      8  C   UNL A   1      37.128  31.447  28.774  1.00  0.00     0.010 A 
ATOM      9  C   UNL A   1      36.064  29.332  29.318  1.00  0.00     0.010 A 
ATOM     10  C   UNL A   1      37.145  30.216  29.436  1.00  0.00    -0.014 A 
BRANCH  10  11
ATOM     11  C   UNL A   1      38.373  29.800  30.132  1.00  0.00     0.031 A 
ATOM     12  C   UNL A   1      38.648  30.390  31.479  1.00  0.00     0.074 A 
ATOM     13  C   UNL A   1      39.193  28.892  29.572  1.00  0.00     0.049 A 
ATOM     14  N   UNL A   1      39.634  30.150  32.300  1.00  0.00    -0.248 NA
ATOM     15  C   UNL A   1      37.677  31.380  31.978  1.00  0.00     0.031 C 
ATOM     16  C   UNL A   1      38.983  28.253  28.274  1.00  0.00     0.029 A 
ATOM     17  N   UNL A   1      40.378  28.369  30.013  1.00  0.00    -0.354 N 
ATOM     18  C   UNL A   1      39.385  30.933  33.416  1.00  0.00     0.074 A 
ATOM     19  C   UNL A   1      38.203  31.716  33.144  1.00  0.00     0.031 C 
ATOM     20  C   UNL A   1      40.043  27.479  27.988  1.00  0.00     0.029 A 
ATOM     21  C   UNL A   1      40.994  27.559  29.092  1.00  0.00     0.049 A 
ATOM     22  H   UNL A   1      40.752  28.555  30.904  1.00  0.00     0.167 HD
ATOM     23  C   UNL A   1      40.063  30.953  34.584  1.00  0.00     0.037 A 
ATOM     24  C   UNL A   1      42.201  26.968  29.142  1.00  0.00     0.037 A 
ATOM     25  C   UNL A   1      41.221  30.145  34.835  1.00  0.00     0.049 A 
ATOM     26  C   UNL A   1      42.989  27.080  30.418  1.00  0.00     0.074 A 
ATOM     27  C   UNL A   1      41.939  29.999  36.005  1.00  0.00     0.029 A 
ATOM     28  N   UNL A   1      41.837  29.352  33.876  1.00  0.00    -0.354 N 
ATOM     29  N   UNL A   1      42.684  27.726  31.519  1.00  0.00    -0.248 NA
ATOM     30  C   UNL A   1      44.266  26.358  30.479  1.00  0.00     0.031 C 
ATOM     31  C   UNL A   1      43.018  29.147  35.742  1.00  0.00     0.029 A 
ATOM     32  C   UNL A   1      42.953  28.740  34.416  1.00  0.00     0.049 A 
ATOM     33  H   UNL A   1      41.526  29.240  32.949  1.00  0.00     0.167 HD
ATOM     34  C   UNL A   1      43.707  27.459  32.416  1.00  0.00     0.074 A 
ATOM     35  C   UNL A   1      44.644  26.593  31.728  1.00  0.00     0.031 C 
ATOM     36  C   UNL A   1      43.854  27.878  33.697  1.00  0.00     0.037 A 
BRANCH  23  37
ATOM     37  C   UNL A   1      39.550  31.857  35.660  1.00  0.00     0.064 A 
ATOM     38  C   UNL A   1      40.049  33.160  35.819  1.00  0.00     0.173 A 
ATOM     39  C   UNL A   1      38.557  31.420  36.546  1.00  0.00     0.173 A 
ATOM     40  F   UNL A   1      41.019  33.616  35.012  1.00  0.00    -0.203 F 
ATOM     41  C   UNL A   1      39.586  33.984  36.842  1.00  0.00     0.198 A 
ATOM     42  C   UNL A   1      38.081  32.255  37.554  1.00  0.00     0.198 A 
ATOM     43  F   UNL A   1      38.056  30.181  36.441  1.00  0.00    -0.203 F 
ATOM     44  F   UNL A   1      40.110  35.207  37.004  1.00  0.00    -0.200 F 
ATOM     45  C   UNL A   1      38.600  33.532  37.705  1.00  0.00     0.200 A 
ATOM     46  F   UNL A   1      37.126  31.818  38.386  1.00  0.00    -0.200 F 
ATOM     47  F   UNL A   1      38.156  34.325  38.690  1.00  0.00    -0.200 F 
ENDBRANCH  23  37
BRANCH  24  48
ATOM     48  C   UNL A   1      42.725  26.238  27.960  1.00  0.00     0.064 A 
ATOM     49  C   UNL A   1      43.536  26.865  27.006  1.00  0.00     0.173 A 
ATOM     50  C   UNL A   1      42.412  24.884  27.759  1.00  0.00     0.173 A 
ATOM     51  F   UNL A   1      43.856  28.159  27.147  1.00  0.00    -0.203 F 
ATOM     52  C   UNL A   1      43.994  26.175  25.883  1.00  0.00     0.198 A 
ATOM     53  C   UNL A   1      42.886  24.190  26.648  1.00  0.00     0.198 A 
ATOM     54  F   UNL A   1      41.649  24.232  28.648  1.00  0.00    -0.203 F 
ATOM     55  F   UNL A   1      44.737  26.810  24.967  1.00  0.00    -0.200 F 
ATOM     56  C   UNL A   1      43.670  24.837  25.706  1.00  0.00     0.200 A 
ATOM     57  F   UNL A   1      42.583  22.894  26.489  1.00  0.00    -0.200 F 
ATOM     58  F   UNL A   1      44.110  24.176  24.627  1.00  0.00    -0.200 F 
ENDBRANCH  24  48
BRANCH  36  59
ATOM     59  C   UNL A   1      45.055  27.382  34.438  1.00  0.00     0.064 A 
ATOM     60  C   UNL A   1      46.239  28.130  34.485  1.00  0.00     0.173 A 
ATOM     61  C   UNL A   1      44.996  26.181  35.159  1.00  0.00     0.173 A 
ATOM     62  F   UNL A   1      46.341  29.275  33.794  1.00  0.00    -0.203 F 
ATOM     63  C   UNL A   1      47.330  27.686  35.224  1.00  0.00     0.198 A 
ATOM     64  C   UNL A   1      46.080  25.753  35.917  1.00  0.00     0.198 A 
ATOM     65  F   UNL A   1      43.880  25.438  35.145  1.00  0.00    -0.203 F 
ATOM     66  F   UNL A   1      48.465  28.398  35.232  1.00  0.00    -0.200 F 
ATOM     67  C   UNL A   1      47.246  26.504  35.946  1.00  0.00     0.200 A 
ATOM     68  F   UNL A   1      45.994  24.618  36.625  1.00  0.00    -0.200 F 
ATOM     69  F   UNL A   1      48.294  26.086  36.670  1.00  0.00    -0.200 F 
ENDBRANCH  36  59
ENDBRANCH  10  11
ENDBRANCH   3   5
ENDBRANCH   2   3
ENDBRANCH   1   2
BRANCH   1  70
ATOM     70  C   UNL A   1      31.779  28.842  26.965  1.00  0.00     0.275 C 
BRANCH  70  71
ATOM     71  O   UNL A   1      32.271  27.618  26.375  1.00  0.00    -0.458 OA
BRANCH  71  72
ATOM     72  C   UNL A   1      31.388  26.613  26.164  1.00  0.00     0.338 C 
ATOM     73  O   UNL A   1      30.428  26.326  26.852  1.00  0.00    -0.246 OA
BRANCH  72  74
ATOM     74  C   UNL A   1      31.853  25.815  24.999  1.00  0.00     0.068 A 
ATOM     75  C   UNL A   1      32.608  24.661  25.268  1.00  0.00     0.018 A 
ATOM     76  C   UNL A   1      31.511  26.149  23.670  1.00  0.00    -0.002 A 
ATOM     77  C   UNL A   1      33.030  23.837  24.223  1.00  0.00     0.021 A 
ATOM     78  C   UNL A   1      31.977  25.317  22.631  1.00  0.00     0.030 A 
ATOM     79  C   UNL A   1      32.728  24.175  22.909  1.00  0.00     0.041 A 
ATOM     80  Cl  UNL A   1      33.278  23.175  21.624  1.00  0.00    -0.084 Cl
BRANCH  76  81
ATOM     81  C   UNL A   1      30.701  27.322  23.325  1.00  0.00    -0.017 A 
ATOM     82  C   UNL A   1      31.297  28.480  22.810  1.00  0.00     0.009 A 
ATOM     83  C   UNL A   1      29.313  27.317  23.509  1.00  0.00     0.009 A 
ATOM     84  C   UNL A   1      30.518  29.573  22.424  1.00  0.00     0.014 A 
ATOM     85  C   UNL A   1      28.528  28.397  23.104  1.00  0.00     0.014 A 
ATOM     86  C   UNL A   1      29.122  29.528  22.534  1.00  0.00     0.056 A 
BRANCH  86  87
ATOM     87  C   UNL A   1      28.272  30.684  22.074  1.00  0.00     0.416 C 
ATOM     88  F   UNL A   1      27.279  30.979  22.958  1.00  0.00    -0.166 F 
ATOM     89  F   UNL A   1      28.978  31.836  21.907  1.00  0.00    -0.166 F 
ATOM     90  F   UNL A   1      27.654  30.453  20.883  1.00  0.00    -0.166 F 
ENDBRANCH  86  87
ENDBRANCH  76  81
ENDBRANCH  72  74
ENDBRANCH  71  72
ENDBRANCH  70  71
ENDBRANCH   1  70
TORSDOF 13
ENDMDL
MODEL 2
REMARK VINA RESULT:     -12.2      0.083      1.653
REMARK SMILES O=C(OCCOC(=O)c1ccc(Cl)cc1-c1ccc(C(F)(F)F)cc1)c1ccc(-c2c3nc(c(-c4c(F)c(F)c(F)c(F)c4F)c4ccc([nH]4)c(-c4c(F)c(F)c(F)c(F)c4F)c4nc(c(-c5c(F)c(F)c(F)c(F)c5F)c5ccc2[nH]5)C=C4)C=C3)cc1
REMARK SMILES IDX 4 1 3 2 2 3 1 4 26 5 27 6 88 7 28 8 87 9 29 10 30 11 31 12
REMARK SMILES IDX 81 13 32 14 86 15 80 16 82 17 33 18 85 19 79 20 78 21 34 23
REMARK SMILES IDX 66 24 46 25 65 26 47 27 50 28 64 29 83 30 48 31 49 32 63 34
REMARK SMILES IDX 84 35 51 36 35 37 36 38 44 39 37 40 38 41 42 42 45 43 39 44
REMARK SMILES IDX 40 45 43 46 41 47 67 48 68 49 76 50 69 51 70 52 74 53 77 54
REMARK SMILES IDX 71 55 72 56 75 57 73 58 52 59 53 60 61 61 54 62 55 63 59 64
REMARK SMILES IDX 62 65 56 66 57 67 60 68 58 69 5 70 6 71 7 72 8 73 9 74 10 75
REMARK SMILES IDX 15 76 11 77 14 78 12 79 13 80 16 81 17 82 25 83 18 84 24 85
REMARK SMILES IDX 19 86 20 87 21 88 22 89 23 90
REMARK H PARENT 82 22 50 33
REMARK Flexibility Score: inf
ROOT
ATOM      1  C   UNL A   1      32.053  30.142  26.238  1.00  0.00     0.275 C 
ENDROOT
BRANCH   1   2
ATOM      2  O   UNL A   1      33.441  30.487  26.290  1.00  0.00    -0.458 OA
BRANCH   2   3
ATOM      3  C   UNL A   1      33.741  31.398  27.251  1.00  0.00     0.338 C 
ATOM      4  O   UNL A   1      33.223  32.488  27.409  1.00  0.00    -0.246 OA
BRANCH   3   5
ATOM      5  C   UNL A   1      35.005  30.971  27.901  1.00  0.00     0.060 A 
ATOM      6  C   UNL A   1      36.078  31.857  28.057  1.00  0.00     0.016 A 
ATOM      7  C   UNL A   1      35.040  29.714  28.509  1.00  0.00     0.016 A 
ATOM      8  C   UNL A   1      37.173  31.492  28.826  1.00  0.00     0.010 A 
ATOM      9  C   UNL A   1      36.111  29.363  29.321  1.00  0.00     0.010 A 
ATOM     10  C   UNL A   1      37.190  30.246  29.461  1.00  0.00    -0.014 A 
BRANCH  10  11
ATOM     11  C   UNL A   1      38.418  29.818  30.151  1.00  0.00     0.031 A 
ATOM     12  C   UNL A   1      38.695  30.392  31.505  1.00  0.00     0.074 A 
ATOM     13  C   UNL A   1      39.234  28.914  29.580  1.00  0.00     0.049 A 
ATOM     14  N   UNL A   1      39.681  30.138  32.322  1.00  0.00    -0.248 NA
ATOM     15  C   UNL A   1      37.728  31.379  32.016  1.00  0.00     0.031 C 
ATOM     16  C   UNL A   1      39.021  28.291  28.274  1.00  0.00     0.029 A 
ATOM     17  N   UNL A   1      40.417  28.383  30.014  1.00  0.00    -0.354 N 
ATOM     18  C   UNL A   1      39.435  30.910  33.447  1.00  0.00     0.074 A 
ATOM     19  C   UNL A   1      38.256  31.699  33.186  1.00  0.00     0.031 C 
ATOM     20  C   UNL A   1      40.079  27.517  27.979  1.00  0.00     0.029 A 
ATOM     21  C   UNL A   1      41.030  27.581  29.083  1.00  0.00     0.049 A 
ATOM     22  H   UNL A   1      40.793  28.556  30.907  1.00  0.00     0.167 HD
ATOM     23  C   UNL A   1      40.114  30.913  34.615  1.00  0.00     0.037 A 
ATOM     24  C   UNL A   1      42.235  26.986  29.125  1.00  0.00     0.037 A 
ATOM     25  C   UNL A   1      41.270  30.099  34.856  1.00  0.00     0.049 A 
ATOM     26  C   UNL A   1      43.025  27.080  30.402  1.00  0.00     0.074 A 
ATOM     27  C   UNL A   1      41.989  29.936  36.023  1.00  0.00     0.029 A 
ATOM     28  N   UNL A   1      41.883  29.315  33.887  1.00  0.00    -0.354 N 
ATOM     29  N   UNL A   1      42.723  27.714  31.511  1.00  0.00    -0.248 NA
ATOM     30  C   UNL A   1      44.299  26.353  30.454  1.00  0.00     0.031 C 
ATOM     31  C   UNL A   1      43.064  29.084  35.750  1.00  0.00     0.029 A 
ATOM     32  C   UNL A   1      42.997  28.693  34.420  1.00  0.00     0.049 A 
ATOM     33  H   UNL A   1      41.570  29.215  32.959  1.00  0.00     0.167 HD
ATOM     34  C   UNL A   1      43.745  27.433  32.403  1.00  0.00     0.074 A 
ATOM     35  C   UNL A   1      44.679  26.572  31.705  1.00  0.00     0.031 C 
ATOM     36  C   UNL A   1      43.894  27.836  33.689  1.00  0.00     0.037 A 
BRANCH  23  37
ATOM     37  C   UNL A   1      39.606  31.807  35.703  1.00  0.00     0.064 A 
ATOM     38  C   UNL A   1      38.583  31.392  36.571  1.00  0.00     0.173 A 
ATOM     39  C   UNL A   1      40.137  33.090  35.878  1.00  0.00     0.173 A 
ATOM     40  F   UNL A   1      38.024  30.181  36.427  1.00  0.00    -0.203 F 
ATOM     41  C   UNL A   1      38.097  32.241  37.561  1.00  0.00     0.198 A 
ATOM     42  C   UNL A   1      39.664  33.929  36.884  1.00  0.00     0.198 A 
ATOM     43  F   UNL A   1      41.109  33.535  35.069  1.00  0.00    -0.203 F 
ATOM     44  F   UNL A   1      37.088  31.841  38.348  1.00  0.00    -0.200 F 
ATOM     45  C   UNL A   1      38.641  33.506  37.720  1.00  0.00     0.200 A 
ATOM     46  F   UNL A   1      40.191  35.151  37.038  1.00  0.00    -0.200 F 
ATOM     47  F   UNL A   1      38.172  34.323  38.673  1.00  0.00    -0.200 F 
ENDBRANCH  23  37
BRANCH  24  48
ATOM     48  C   UNL A   1      42.756  26.268  27.934  1.00  0.00     0.064 A 
ATOM     49  C   UNL A   1      42.476  24.914  27.708  1.00  0.00     0.173 A 
ATOM     50  C   UNL A   1      43.560  26.931  26.994  1.00  0.00     0.173 A 
ATOM     51  F   UNL A   1      41.721  24.233  28.582  1.00  0.00    -0.203 F 
ATOM     52  C   UNL A   1      43.000  24.244  26.603  1.00  0.00     0.198 A 
ATOM     53  C   UNL A   1      44.066  26.267  25.878  1.00  0.00     0.198 A 
ATOM     54  F   UNL A   1      43.849  28.231  27.155  1.00  0.00    -0.203 F 
ATOM     55  F   UNL A   1      42.748  22.940  26.431  1.00  0.00    -0.200 F 
ATOM     56  C   UNL A   1      43.793  24.922  25.687  1.00  0.00     0.200 A 
ATOM     57  F   UNL A   1      44.819  26.930  24.989  1.00  0.00    -0.200 F 
ATOM     58  F   UNL A   1      44.296  24.277  24.626  1.00  0.00    -0.200 F 
ENDBRANCH  24  48
BRANCH  36  59
ATOM     59  C   UNL A   1      45.095  27.328  34.423  1.00  0.00     0.064 A 
ATOM     60  C   UNL A   1      46.287  28.063  34.463  1.00  0.00     0.173 A 
ATOM     61  C   UNL A   1      45.027  26.128  35.145  1.00  0.00     0.173 A 
ATOM     62  F   UNL A   1      46.397  29.207  33.771  1.00  0.00    -0.203 F 
ATOM     63  C   UNL A   1      47.377  27.608  35.196  1.00  0.00     0.198 A 
ATOM     64  C   UNL A   1      46.110  25.689  35.897  1.00  0.00     0.198 A 
ATOM     65  F   UNL A   1      43.903  25.396  35.138  1.00  0.00    -0.203 F 
ATOM     66  F   UNL A   1      48.520  28.308  35.198  1.00  0.00    -0.200 F 
ATOM     67  C   UNL A   1      47.284  26.427  35.919  1.00  0.00     0.200 A 
ATOM     68  F   UNL A   1      46.016  24.555  36.606  1.00  0.00    -0.200 F 
ATOM     69  F   UNL A   1      48.332  25.997  36.637  1.00  0.00    -0.200 F 
ENDBRANCH  36  59
ENDBRANCH  10  11
ENDBRANCH   3   5
ENDBRANCH   2   3
ENDBRANCH   1   2
BRANCH   1  70
ATOM     70  C   UNL A   1      31.794  28.859  27.046  1.00  0.00     0.275 C 
BRANCH  70  71
ATOM     71  O   UNL A   1      32.274  27.670  26.380  1.00  0.00    -0.458 OA
BRANCH  71  72
ATOM     72  C   UNL A   1      31.400  26.656  26.178  1.00  0.00     0.338 C 
ATOM     73  O   UNL A   1      30.450  26.360  26.876  1.00  0.00    -0.246 OA
BRANCH  72  74
ATOM     74  C   UNL A   1      31.862  25.861  25.010  1.00  0.00     0.068 A 
ATOM     75  C   UNL A   1      32.617  24.705  25.275  1.00  0.00     0.018 A 
ATOM     76  C   UNL A   1      31.517  26.199  23.683  1.00  0.00    -0.002 A 
ATOM     77  C   UNL A   1      33.036  23.884  24.226  1.00  0.00     0.021 A 
ATOM     78  C   UNL A   1      31.980  25.370  22.640  1.00  0.00     0.030 A 
ATOM     79  C   UNL A   1      32.731  24.226  22.914  1.00  0.00     0.041 A 
ATOM     80  Cl  UNL A   1      33.278  23.229  21.625  1.00  0.00    -0.084 Cl
BRANCH  76  81
ATOM     81  C   UNL A   1      30.708  27.373  23.343  1.00  0.00    -0.017 A 
ATOM     82  C   UNL A   1      31.311  28.556  22.897  1.00  0.00     0.009 A 
ATOM     83  C   UNL A   1      29.313  27.344  23.461  1.00  0.00     0.009 A 
ATOM     84  C   UNL A   1      30.534  29.653  22.515  1.00  0.00     0.014 A 
ATOM     85  C   UNL A   1      28.532  28.428  23.059  1.00  0.00     0.014 A 
ATOM     86  C   UNL A   1      29.135  29.587  22.558  1.00  0.00     0.056 A 
BRANCH  86  87
ATOM     87  C   UNL A   1      28.291  30.748  22.101  1.00  0.00     0.416 C 
ATOM     88  F   UNL A   1      29.026  31.879  21.911  1.00  0.00    -0.166 F 
ATOM     89  F   UNL A   1      27.652  30.515  20.921  1.00  0.00    -0.166 F 
ATOM     90  F   UNL A   1      27.315  31.083  22.990  1.00  0.00    -0.166 F 
ENDBRANCH  86  87
ENDBRANCH  76  81
ENDBRANCH  72  74
ENDBRANCH  71  72
ENDBRANCH  70  71
ENDBRANCH   1  70
TORSDOF 13
ENDMDL
MODEL 3
REMARK VINA RESULT:     -12.2      0.208      1.614
REMARK SMILES O=C(OCCOC(=O)c1ccc(Cl)cc1-c1ccc(C(F)(F)F)cc1)c1ccc(-c2c3nc(c(-c4c(F)c(F)c(F)c(F)c4F)c4ccc([nH]4)c(-c4c(F)c(F)c(F)c(F)c4F)c4nc(c(-c5c(F)c(F)c(F)c(F)c5F)c5ccc2[nH]5)C=C4)C=C3)cc1
REMARK SMILES IDX 4 1 3 2 2 3 1 4 26 5 27 6 88 7 28 8 87 9 29 10 30 11 31 12
REMARK SMILES IDX 81 13 32 14 86 15 80 16 82 17 33 18 85 19 79 20 78 21 34 23
REMARK SMILES IDX 66 24 46 25 65 26 47 27 50 28 64 29 83 30 48 31 49 32 63 34
REMARK SMILES IDX 84 35 51 36 35 37 36 38 44 39 37 40 38 41 42 42 45 43 39 44
REMARK SMILES IDX 40 45 43 46 41 47 67 48 68 49 76 50 69 51 70 52 74 53 77 54
REMARK SMILES IDX 71 55 72 56 75 57 73 58 52 59 53 60 61 61 54 62 55 63 59 64
REMARK SMILES IDX 62 65 56 66 57 67 60 68 58 69 5 70 6 71 7 72 8 73 9 74 10 75
REMARK SMILES IDX 15 76 11 77 14 78 12 79 13 80 16 81 17 82 25 83 18 84 24 85
REMARK SMILES IDX 19 86 20 87 21 88 22 89 23 90
REMARK H PARENT 82 22 50 33
REMARK Flexibility Score: inf
ROOT
ATOM      1  C   UNL A   1      32.005  30.202  26.335  1.00  0.00     0.275 C 
ENDROOT
BRANCH   1   2
ATOM      2  O   UNL A   1      33.398  30.525  26.368  1.00  0.00    -0.458 OA
BRANCH   2   3
ATOM      3  C   UNL A   1      33.721  31.456  27.301  1.00  0.00     0.338 C 
ATOM      4  O   UNL A   1      33.210  32.553  27.444  1.00  0.00    -0.246 OA
BRANCH   3   5
ATOM      5  C   UNL A   1      34.995  31.039  27.937  1.00  0.00     0.060 A 
ATOM      6  C   UNL A   1      36.074  31.923  28.052  1.00  0.00     0.016 A 
ATOM      7  C   UNL A   1      35.036  29.797  28.575  1.00  0.00     0.016 A 
ATOM      8  C   UNL A   1      37.182  31.571  28.809  1.00  0.00     0.010 A 
ATOM      9  C   UNL A   1      36.120  29.460  29.375  1.00  0.00     0.010 A 
ATOM     10  C   UNL A   1      37.206  30.341  29.474  1.00  0.00    -0.014 A 
BRANCH  10  11
ATOM     11  C   UNL A   1      38.444  29.923  30.150  1.00  0.00     0.031 A 
ATOM     12  C   UNL A   1      38.733  30.502  31.500  1.00  0.00     0.074 A 
ATOM     13  C   UNL A   1      39.260  29.024  29.573  1.00  0.00     0.049 A 
ATOM     14  N   UNL A   1      39.730  30.258  32.306  1.00  0.00    -0.248 NA
ATOM     15  C   UNL A   1      37.764  31.484  32.019  1.00  0.00     0.031 C 
ATOM     16  C   UNL A   1      39.036  28.396  28.271  1.00  0.00     0.029 A 
ATOM     17  N   UNL A   1      40.452  28.502  29.994  1.00  0.00    -0.354 N 
ATOM     18  C   UNL A   1      39.491  31.030  33.432  1.00  0.00     0.074 A 
ATOM     19  C   UNL A   1      38.304  31.811  33.182  1.00  0.00     0.031 C 
ATOM     20  C   UNL A   1      40.096  27.628  27.965  1.00  0.00     0.029 A 
ATOM     21  C   UNL A   1      41.060  27.702  29.058  1.00  0.00     0.049 A 
ATOM     22  H   UNL A   1      40.836  28.680  30.882  1.00  0.00     0.167 HD
ATOM     23  C   UNL A   1      40.184  31.042  34.591  1.00  0.00     0.037 A 
ATOM     24  C   UNL A   1      42.270  27.115  29.087  1.00  0.00     0.037 A 
ATOM     25  C   UNL A   1      41.348  30.236  34.821  1.00  0.00     0.049 A 
ATOM     26  C   UNL A   1      43.073  27.218  30.355  1.00  0.00     0.074 A 
ATOM     27  C   UNL A   1      42.081  30.082  35.981  1.00  0.00     0.029 A 
ATOM     28  N   UNL A   1      41.955  29.454  33.847  1.00  0.00    -0.354 N 
ATOM     29  N   UNL A   1      42.779  27.853  31.465  1.00  0.00    -0.248 NA
ATOM     30  C   UNL A   1      44.353  26.501  30.394  1.00  0.00     0.031 C 
ATOM     31  C   UNL A   1      43.159  29.237  35.697  1.00  0.00     0.029 A 
ATOM     32  C   UNL A   1      43.079  28.842  34.369  1.00  0.00     0.049 A 
ATOM     33  H   UNL A   1      41.633  29.349  32.923  1.00  0.00     0.167 HD
ATOM     34  C   UNL A   1      43.814  27.581  32.347  1.00  0.00     0.074 A 
ATOM     35  C   UNL A   1      44.746  26.726  31.640  1.00  0.00     0.031 C 
ATOM     36  C   UNL A   1      43.975  27.989  33.630  1.00  0.00     0.037 A 
BRANCH  23  37
ATOM     37  C   UNL A   1      39.681  31.934  35.683  1.00  0.00     0.064 A 
ATOM     38  C   UNL A   1      40.224  33.213  35.890  1.00  0.00     0.173 A 
ATOM     39  C   UNL A   1      38.653  31.510  36.534  1.00  0.00     0.173 A 
ATOM     40  F   UNL A   1      41.227  33.654  35.116  1.00  0.00    -0.203 F 
ATOM     41  C   UNL A   1      39.769  34.024  36.925  1.00  0.00     0.198 A 
ATOM     42  C   UNL A   1      38.186  32.333  37.555  1.00  0.00     0.198 A 
ATOM     43  F   UNL A   1      38.109  30.294  36.383  1.00  0.00    -0.203 F 
ATOM     44  F   UNL A   1      40.334  35.222  37.134  1.00  0.00    -0.200 F 
ATOM     45  C   UNL A   1      38.748  33.586  37.754  1.00  0.00     0.200 A 
ATOM     46  F   UNL A   1      37.197  31.910  38.355  1.00  0.00    -0.200 F 
ATOM     47  F   UNL A   1      38.312  34.367  38.752  1.00  0.00    -0.200 F 
ENDBRANCH  23  37
BRANCH  24  48
ATOM     48  C   UNL A   1      42.782  26.398  27.892  1.00  0.00     0.064 A 
ATOM     49  C   UNL A   1      42.521  25.038  27.681  1.00  0.00     0.173 A 
ATOM     50  C   UNL A   1      43.558  27.068  26.934  1.00  0.00     0.173 A 
ATOM     51  F   UNL A   1      41.793  24.350  28.572  1.00  0.00    -0.203 F 
ATOM     52  C   UNL A   1      43.037  24.370  26.571  1.00  0.00     0.198 A 
ATOM     53  C   UNL A   1      44.055  26.405  25.814  1.00  0.00     0.198 A 
ATOM     54  F   UNL A   1      43.827  28.374  27.081  1.00  0.00    -0.203 F 
ATOM     55  F   UNL A   1      42.804  23.060  26.412  1.00  0.00    -0.200 F 
ATOM     56  C   UNL A   1      43.802  25.054  25.637  1.00  0.00     0.200 A 
ATOM     57  F   UNL A   1      44.782  27.074  24.907  1.00  0.00    -0.200 F 
ATOM     58  F   UNL A   1      44.297  24.411  24.571  1.00  0.00    -0.200 F 
ENDBRANCH  24  48
BRANCH  36  59
ATOM     59  C   UNL A   1      45.187  27.492  34.351  1.00  0.00     0.064 A 
ATOM     60  C   UNL A   1      45.175  26.269  35.034  1.00  0.00     0.173 A 
ATOM     61  C   UNL A   1      46.387  28.216  34.301  1.00  0.00     0.173 A 
ATOM     62  F   UNL A   1      44.042  25.556  35.121  1.00  0.00    -0.203 F 
ATOM     63  C   UNL A   1      46.325  25.790  35.653  1.00  0.00     0.198 A 
ATOM     64  C   UNL A   1      47.540  27.722  34.899  1.00  0.00     0.198 A 
ATOM     65  F   UNL A   1      46.443  29.388  33.653  1.00  0.00    -0.203 F 
ATOM     66  F   UNL A   1      46.287  24.633  36.329  1.00  0.00    -0.200 F 
ATOM     67  C   UNL A   1      47.507  26.512  35.576  1.00  0.00     0.200 A 
ATOM     68  F   UNL A   1      48.686  28.413  34.814  1.00  0.00    -0.200 F 
ATOM     69  F   UNL A   1      48.618  26.040  36.161  1.00  0.00    -0.200 F 
ENDBRANCH  36  59
ENDBRANCH  10  11
ENDBRANCH   3   5
ENDBRANCH   2   3
ENDBRANCH   1   2
BRANCH   1  70
ATOM     70  C   UNL A   1      31.750  28.870  27.060  1.00  0.00     0.275 C 
BRANCH  70  71
ATOM     71  O   UNL A   1      32.200  27.724  26.302  1.00  0.00    -0.458 OA
BRANCH  71  72
ATOM     72  C   UNL A   1      31.344  26.686  26.150  1.00  0.00     0.338 C 
ATOM     73  O   UNL A   1      30.400  26.406  26.864  1.00  0.00    -0.246 OA
BRANCH  72  74
ATOM     74  C   UNL A   1      31.818  25.845  25.019  1.00  0.00     0.068 A 
ATOM     75  C   UNL A   1      32.559  24.695  25.338  1.00  0.00     0.018 A 
ATOM     76  C   UNL A   1      31.498  26.138  23.676  1.00  0.00    -0.002 A 
ATOM     77  C   UNL A   1      32.988  23.833  24.327  1.00  0.00     0.021 A 
ATOM     78  C   UNL A   1      31.971  25.268  22.671  1.00  0.00     0.030 A 
ATOM     79  C   UNL A   1      32.708  24.130  22.998  1.00  0.00     0.041 A 
ATOM     80  Cl  UNL A   1      33.268  23.083  21.755  1.00  0.00    -0.084 Cl
BRANCH  76  81
ATOM     81  C   UNL A   1      30.704  27.306  23.280  1.00  0.00    -0.017 A 
ATOM     82  C   UNL A   1      31.318  28.440  22.735  1.00  0.00     0.009 A 
ATOM     83  C   UNL A   1      29.314  27.319  23.443  1.00  0.00     0.009 A 
ATOM     84  C   UNL A   1      30.554  29.527  22.302  1.00  0.00     0.014 A 
ATOM     85  C   UNL A   1      28.544  28.391  22.991  1.00  0.00     0.014 A 
ATOM     86  C   UNL A   1      29.156  29.498  22.393  1.00  0.00     0.056 A 
BRANCH  86  87
ATOM     87  C   UNL A   1      28.323  30.645  21.883  1.00  0.00     0.416 C 
ATOM     88  F   UNL A   1      27.306  30.963  22.731  1.00  0.00    -0.166 F 
ATOM     89  F   UNL A   1      29.038  31.792  21.710  1.00  0.00    -0.166 F 
ATOM     90  F   UNL A   1      27.739  30.388  20.679  1.00  0.00    -0.166 F 
ENDBRANCH  86  87
ENDBRANCH  76  81
ENDBRANCH  72  74
ENDBRANCH  71  72
ENDBRANCH  70  71
ENDBRANCH   1  70
TORSDOF 13
ENDMDL
