MODEL 1
REMARK VINA RESULT:     -11.6      0.000      0.000
REMARK SMILES COc1ccc(-n2c(=S)[nH]cc(CC(=O)OCCOC(=O)c3ccc(-c4c5nc(c(-c6c(F)c(F)c(F)c(F)c6F)c6ccc([nH]6)c(-c6c(F)c(F)c(F)c(F)c6F)c6nc(c(-c7c(F)c(F)c(F)c(F)c7F)c7ccc4[nH]7)C=C6)C=C5)cc3)c2=O)cc1Cl
REMARK SMILES IDX 17 1 16 2 14 3 15 4 13 5 12 6 7 7 8 8 85 9 9 10 10 11 86 12
REMARK SMILES IDX 11 13 6 15 3 16 4 17 88 18 5 19 87 20 89 21 2 22 1 23 18 24
REMARK SMILES IDX 19 25 20 26 21 27 22 28 23 29 84 30 24 31 83 32 25 33 26 34
REMARK SMILES IDX 27 35 77 36 28 37 82 38 76 39 78 40 29 41 81 42 75 43 74 44
REMARK SMILES IDX 30 46 62 47 42 48 61 49 43 50 46 51 60 52 79 53 44 54 45 55
REMARK SMILES IDX 59 57 80 58 47 59 31 60 32 61 40 62 33 63 34 64 38 65 41 66
REMARK SMILES IDX 35 67 36 68 39 69 37 70 63 71 64 72 72 73 65 74 66 75 70 76
REMARK SMILES IDX 73 77 67 78 68 79 71 80 69 81 48 82 49 83 57 84 50 85 51 86
REMARK SMILES IDX 55 87 58 88 52 89 53 90 56 91 54 92
REMARK H PARENT 10 14 78 45 46 56
REMARK Flexibility Score: inf
ROOT
ATOM      1  C   UNL A   1      31.433  29.281  25.546  1.00  0.00     0.274 C 
ENDROOT
BRANCH   1   2
ATOM      2  O   UNL A   1      31.350  29.220  24.108  1.00  0.00    -0.462 OA
BRANCH   2   3
ATOM      3  C   UNL A   1      32.313  28.496  23.482  1.00  0.00     0.310 C 
ATOM      4  O   UNL A   1      33.459  28.882  23.278  1.00  0.00    -0.252 OA
BRANCH   3   5
ATOM      5  C   UNL A   1      31.839  27.126  23.030  1.00  0.00     0.165 C 
BRANCH   5   6
ATOM      6  C   UNL A   1      31.951  26.036  24.058  1.00  0.00     0.045 A 
ATOM      7  N   UNL A   1      33.307  24.243  25.064  1.00  0.00    -0.253 N 
ATOM      8  C   UNL A   1      32.286  23.972  25.988  1.00  0.00     0.184 A 
ATOM      9  C   UNL A   1      33.195  25.220  24.066  1.00  0.00     0.262 A 
ATOM     10  S   UNL A   1      32.279  22.858  27.245  1.00  0.00    -0.040 S 
ATOM     11  N   UNL A   1      31.174  24.771  25.886  1.00  0.00    -0.338 N 
ATOM     12  O   UNL A   1      34.043  25.439  23.200  1.00  0.00    -0.269 OA
ATOM     13  C   UNL A   1      31.024  25.773  24.983  1.00  0.00     0.095 A 
ATOM     14  H   UNL A   1      30.433  24.604  26.513  1.00  0.00     0.168 HD
BRANCH   7  15
ATOM     15  C   UNL A   1      34.555  23.546  25.116  1.00  0.00     0.053 A 
ATOM     16  C   UNL A   1      36.952  22.114  25.246  1.00  0.00     0.137 A 
ATOM     17  C   UNL A   1      35.828  21.531  24.662  1.00  0.00     0.050 A 
ATOM     18  C   UNL A   1      36.891  23.422  25.741  1.00  0.00     0.085 A 
ATOM     19  C   UNL A   1      34.627  22.238  24.615  1.00  0.00     0.031 A 
ATOM     20  C   UNL A   1      35.692  24.136  25.681  1.00  0.00     0.051 A 
ATOM     21  Cl  UNL A   1      38.269  24.197  26.431  1.00  0.00    -0.080 Cl
BRANCH  16  22
ATOM     22  O   UNL A   1      38.107  21.378  25.248  1.00  0.00    -0.495 OA
ATOM     23  C   UNL A   1      37.853  20.048  24.793  1.00  0.00     0.278 C 
ENDBRANCH  16  22
ENDBRANCH   7  15
ENDBRANCH   5   6
ENDBRANCH   3   5
ENDBRANCH   2   3
ENDBRANCH   1   2
BRANCH   1  24
ATOM     24  C   UNL A   1      31.803  30.688  26.014  1.00  0.00     0.275 C 
BRANCH  24  25
ATOM     25  O   UNL A   1      33.213  30.767  26.296  1.00  0.00    -0.458 OA
BRANCH  25  26
ATOM     26  C   UNL A   1      33.588  31.701  27.197  1.00  0.00     0.338 C 
ATOM     27  O   UNL A   1      32.995  32.709  27.530  1.00  0.00    -0.246 OA
BRANCH  26  28
ATOM     28  C   UNL A   1      34.851  31.279  27.816  1.00  0.00     0.060 A 
ATOM     29  C   UNL A   1      35.869  32.211  28.009  1.00  0.00     0.016 A 
ATOM     30  C   UNL A   1      34.983  29.969  28.283  1.00  0.00     0.016 A 
ATOM     31  C   UNL A   1      37.044  31.811  28.649  1.00  0.00     0.010 A 
ATOM     32  C   UNL A   1      36.140  29.582  28.956  1.00  0.00     0.010 A 
ATOM     33  C   UNL A   1      37.186  30.496  29.131  1.00  0.00    -0.014 A 
BRANCH  33  34
ATOM     34  C   UNL A   1      38.426  30.092  29.835  1.00  0.00     0.031 A 
ATOM     35  C   UNL A   1      38.721  30.600  31.217  1.00  0.00     0.074 A 
ATOM     36  C   UNL A   1      39.291  29.264  29.218  1.00  0.00     0.049 A 
ATOM     37  N   UNL A   1      39.698  30.268  32.023  1.00  0.00    -0.248 NA
ATOM     38  C   UNL A   1      37.813  31.620  31.762  1.00  0.00     0.031 C 
ATOM     39  C   UNL A   1      39.147  28.766  27.850  1.00  0.00     0.029 A 
ATOM     40  N   UNL A   1      40.455  28.691  29.663  1.00  0.00    -0.354 N 
ATOM     41  C   UNL A   1      39.515  31.027  33.170  1.00  0.00     0.074 A 
ATOM     42  C   UNL A   1      38.367  31.876  32.941  1.00  0.00     0.031 C 
ATOM     43  C   UNL A   1      40.168  27.938  27.577  1.00  0.00     0.029 A 
ATOM     44  C   UNL A   1      41.039  27.853  28.746  1.00  0.00     0.049 A 
ATOM     45  H   UNL A   1      40.835  28.864  30.555  1.00  0.00     0.167 HD
ATOM     46  C   UNL A   1      40.228  30.995  34.321  1.00  0.00     0.037 A 
ATOM     47  C   UNL A   1      42.144  27.089  28.843  1.00  0.00     0.037 A 
ATOM     48  C   UNL A   1      41.359  30.135  34.552  1.00  0.00     0.049 A 
ATOM     49  C   UNL A   1      42.903  27.056  30.141  1.00  0.00     0.074 A 
ATOM     50  C   UNL A   1      42.097  29.976  35.712  1.00  0.00     0.029 A 
ATOM     51  N   UNL A   1      41.920  29.296  33.602  1.00  0.00    -0.354 N 
ATOM     52  N   UNL A   1      42.657  27.697  31.258  1.00  0.00    -0.248 NA
ATOM     53  C   UNL A   1      44.084  26.182  30.199  1.00  0.00     0.031 C 
ATOM     54  C   UNL A   1      43.129  29.070  35.452  1.00  0.00     0.029 A 
ATOM     55  C   UNL A   1      43.009  28.634  34.143  1.00  0.00     0.049 A 
ATOM     56  H   UNL A   1      41.592  29.186  32.680  1.00  0.00     0.167 HD
ATOM     57  C   UNL A   1      43.637  27.294  32.154  1.00  0.00     0.074 A 
ATOM     58  C   UNL A   1      44.473  26.337  31.457  1.00  0.00     0.031 C 
ATOM     59  C   UNL A   1      43.831  27.686  33.436  1.00  0.00     0.037 A 
BRANCH  46  60
ATOM     60  C   UNL A   1      39.796  31.891  35.442  1.00  0.00     0.064 A 
ATOM     61  C   UNL A   1      40.317  33.187  35.578  1.00  0.00     0.173 A 
ATOM     62  C   UNL A   1      38.782  31.492  36.326  1.00  0.00     0.173 A 
ATOM     63  F   UNL A   1      41.292  33.611  34.760  1.00  0.00    -0.203 F 
ATOM     64  C   UNL A   1      39.842  34.049  36.562  1.00  0.00     0.198 A 
ATOM     65  C   UNL A   1      38.295  32.366  37.295  1.00  0.00     0.198 A 
ATOM     66  F   UNL A   1      38.247  30.267  36.232  1.00  0.00    -0.203 F 
ATOM     67  F   UNL A   1      40.366  35.277  36.683  1.00  0.00    -0.200 F 
ATOM     68  C   UNL A   1      38.824  33.642  37.412  1.00  0.00     0.200 A 
ATOM     69  F   UNL A   1      37.303  31.976  38.108  1.00  0.00    -0.200 F 
ATOM     70  F   UNL A   1      38.353  34.482  38.343  1.00  0.00    -0.200 F 
ENDBRANCH  46  60
BRANCH  47  71
ATOM     71  C   UNL A   1      42.565  26.256  27.689  1.00  0.00     0.064 A 
ATOM     72  C   UNL A   1      41.986  25.001  27.457  1.00  0.00     0.173 A 
ATOM     73  C   UNL A   1      43.543  26.702  26.790  1.00  0.00     0.173 A 
ATOM     74  F   UNL A   1      41.059  24.526  28.302  1.00  0.00    -0.203 F 
ATOM     75  C   UNL A   1      42.379  24.218  26.375  1.00  0.00     0.198 A 
ATOM     76  C   UNL A   1      43.919  25.928  25.695  1.00  0.00     0.198 A 
ATOM     77  F   UNL A   1      44.123  27.898  26.967  1.00  0.00    -0.203 F 
ATOM     78  F   UNL A   1      41.834  23.007  26.194  1.00  0.00    -0.200 F 
ATOM     79  C   UNL A   1      43.341  24.684  25.491  1.00  0.00     0.200 A 
ATOM     80  F   UNL A   1      44.839  26.388  24.836  1.00  0.00    -0.200 F 
ATOM     81  F   UNL A   1      43.714  23.933  24.446  1.00  0.00    -0.200 F 
ENDBRANCH  47  71
BRANCH  59  82
ATOM     82  C   UNL A   1      44.986  27.083  34.177  1.00  0.00     0.064 A 
ATOM     83  C   UNL A   1      46.236  27.716  34.214  1.00  0.00     0.173 A 
ATOM     84  C   UNL A   1      44.821  25.902  34.917  1.00  0.00     0.173 A 
ATOM     85  F   UNL A   1      46.444  28.840  33.513  1.00  0.00    -0.203 F 
ATOM     86  C   UNL A   1      47.286  27.180  34.955  1.00  0.00     0.198 A 
ATOM     87  C   UNL A   1      45.865  25.383  35.677  1.00  0.00     0.198 A 
ATOM     88  F   UNL A   1      43.641  25.265  34.920  1.00  0.00    -0.203 F 
ATOM     89  F   UNL A   1      48.483  27.784  34.952  1.00  0.00    -0.200 F 
ATOM     90  C   UNL A   1      47.098  26.020  35.692  1.00  0.00     0.200 A 
ATOM     91  F   UNL A   1      45.678  24.270  36.400  1.00  0.00    -0.200 F 
ATOM     92  F   UNL A   1      48.105  25.514  36.416  1.00  0.00    -0.200 F 
ENDBRANCH  59  82
ENDBRANCH  33  34
ENDBRANCH  26  28
ENDBRANCH  25  26
ENDBRANCH  24  25
ENDBRANCH   1  24
TORSDOF 14
ENDMDL
MODEL 2
REMARK VINA RESULT:     -11.6      0.964      1.960
REMARK SMILES COc1ccc(-n2c(=S)[nH]cc(CC(=O)OCCOC(=O)c3ccc(-c4c5nc(c(-c6c(F)c(F)c(F)c(F)c6F)c6ccc([nH]6)c(-c6c(F)c(F)c(F)c(F)c6F)c6nc(c(-c7c(F)c(F)c(F)c(F)c7F)c7ccc4[nH]7)C=C6)C=C5)cc3)c2=O)cc1Cl
REMARK SMILES IDX 17 1 16 2 14 3 15 4 13 5 12 6 7 7 8 8 85 9 9 10 10 11 86 12
REMARK SMILES IDX 11 13 6 15 3 16 4 17 88 18 5 19 87 20 89 21 2 22 1 23 18 24
REMARK SMILES IDX 19 25 20 26 21 27 22 28 23 29 84 30 24 31 83 32 25 33 26 34
REMARK SMILES IDX 27 35 77 36 28 37 82 38 76 39 78 40 29 41 81 42 75 43 74 44
REMARK SMILES IDX 30 46 62 47 42 48 61 49 43 50 46 51 60 52 79 53 44 54 45 55
REMARK SMILES IDX 59 57 80 58 47 59 31 60 32 61 40 62 33 63 34 64 38 65 41 66
REMARK SMILES IDX 35 67 36 68 39 69 37 70 63 71 64 72 72 73 65 74 66 75 70 76
REMARK SMILES IDX 73 77 67 78 68 79 71 80 69 81 48 82 49 83 57 84 50 85 51 86
REMARK SMILES IDX 55 87 58 88 52 89 53 90 56 91 54 92
REMARK H PARENT 10 14 78 45 46 56
REMARK Flexibility Score: inf
ROOT
ATOM      1  C   UNL A   1      31.274  29.049  25.057  1.00  0.00     0.274 C 
ENDROOT
BRANCH   1   2
ATOM      2  O   UNL A   1      31.958  28.788  23.816  1.00  0.00    -0.462 OA
BRANCH   2   3
ATOM      3  C   UNL A   1      31.172  28.505  22.745  1.00  0.00     0.310 C 
ATOM      4  O   UNL A   1      30.424  29.304  22.193  1.00  0.00    -0.252 OA
BRANCH   3   5
ATOM      5  C   UNL A   1      31.291  27.066  22.275  1.00  0.00     0.165 C 
BRANCH   5   6
ATOM      6  C   UNL A   1      31.119  26.025  23.344  1.00  0.00     0.045 A 
ATOM      7  N   UNL A   1      32.123  24.215  24.681  1.00  0.00    -0.253 N 
ATOM      8  C   UNL A   1      30.918  24.045  25.378  1.00  0.00     0.184 A 
ATOM      9  C   UNL A   1      32.282  25.146  23.645  1.00  0.00     0.262 A 
ATOM     10  S   UNL A   1      30.581  22.996  26.646  1.00  0.00    -0.040 S 
ATOM     11  N   UNL A   1      29.903  24.894  25.014  1.00  0.00    -0.338 N 
ATOM     12  O   UNL A   1      33.303  25.277  22.970  1.00  0.00    -0.269 OA
ATOM     13  C   UNL A   1      30.006  25.856  24.062  1.00  0.00     0.095 A 
ATOM     14  H   UNL A   1      29.038  24.797  25.476  1.00  0.00     0.168 HD
BRANCH   7  15
ATOM     15  C   UNL A   1      33.288  23.458  25.020  1.00  0.00     0.053 A 
ATOM     16  C   UNL A   1      35.614  22.042  25.651  1.00  0.00     0.137 A 
ATOM     17  C   UNL A   1      35.512  23.392  25.989  1.00  0.00     0.050 A 
ATOM     18  C   UNL A   1      34.547  21.389  25.024  1.00  0.00     0.085 A 
ATOM     19  C   UNL A   1      34.359  24.103  25.656  1.00  0.00     0.031 A 
ATOM     20  C   UNL A   1      33.386  22.098  24.703  1.00  0.00     0.051 A 
ATOM     21  Cl  UNL A   1      34.615  19.711  24.629  1.00  0.00    -0.080 Cl
BRANCH  16  22
ATOM     22  O   UNL A   1      36.763  21.393  26.019  1.00  0.00    -0.495 OA
ATOM     23  C   UNL A   1      37.809  21.658  25.083  1.00  0.00     0.278 C 
ENDBRANCH  16  22
ENDBRANCH   7  15
ENDBRANCH   5   6
ENDBRANCH   3   5
ENDBRANCH   2   3
ENDBRANCH   1   2
BRANCH   1  24
ATOM     24  C   UNL A   1      31.606  30.444  25.584  1.00  0.00     0.275 C 
BRANCH  24  25
ATOM     25  O   UNL A   1      32.971  30.495  26.038  1.00  0.00    -0.458 OA
BRANCH  25  26
ATOM     26  C   UNL A   1      33.259  31.445  26.954  1.00  0.00     0.338 C 
ATOM     27  O   UNL A   1      32.589  32.408  27.278  1.00  0.00    -0.246 OA
BRANCH  26  28
ATOM     28  C   UNL A   1      34.531  31.105  27.604  1.00  0.00     0.060 A 
ATOM     29  C   UNL A   1      35.428  32.118  27.934  1.00  0.00     0.016 A 
ATOM     30  C   UNL A   1      34.787  29.779  27.960  1.00  0.00     0.016 A 
ATOM     31  C   UNL A   1      36.610  31.789  28.601  1.00  0.00     0.010 A 
ATOM     32  C   UNL A   1      35.948  29.457  28.660  1.00  0.00     0.010 A 
ATOM     33  C   UNL A   1      36.876  30.457  28.973  1.00  0.00    -0.014 A 
BRANCH  33  34
ATOM     34  C   UNL A   1      38.120  30.124  29.708  1.00  0.00     0.031 A 
ATOM     35  C   UNL A   1      38.351  30.647  31.096  1.00  0.00     0.074 A 
ATOM     36  C   UNL A   1      39.045  29.349  29.112  1.00  0.00     0.049 A 
ATOM     37  N   UNL A   1      39.326  30.372  31.926  1.00  0.00    -0.248 NA
ATOM     38  C   UNL A   1      37.373  31.613  31.619  1.00  0.00     0.031 C 
ATOM     39  C   UNL A   1      38.964  28.844  27.741  1.00  0.00     0.029 A 
ATOM     40  N   UNL A   1      40.229  28.843  29.585  1.00  0.00    -0.354 N 
ATOM     41  C   UNL A   1      39.072  31.117  33.068  1.00  0.00     0.074 A 
ATOM     42  C   UNL A   1      37.883  31.899  32.810  1.00  0.00     0.031 C 
ATOM     43  C   UNL A   1      40.037  28.076  27.493  1.00  0.00     0.029 A 
ATOM     44  C   UNL A   1      40.883  28.041  28.683  1.00  0.00     0.049 A 
ATOM     45  H   UNL A   1      40.577  29.036  30.486  1.00  0.00     0.167 HD
ATOM     46  C   UNL A   1      39.757  31.125  34.235  1.00  0.00     0.037 A 
ATOM     47  C   UNL A   1      42.027  27.342  28.807  1.00  0.00     0.037 A 
ATOM     48  C   UNL A   1      40.930  30.331  34.494  1.00  0.00     0.049 A 
ATOM     49  C   UNL A   1      42.755  27.351  30.124  1.00  0.00     0.074 A 
ATOM     50  C   UNL A   1      41.647  30.214  35.672  1.00  0.00     0.029 A 
ATOM     51  N   UNL A   1      41.561  29.527  33.558  1.00  0.00    -0.354 N 
ATOM     52  N   UNL A   1      42.445  27.975  31.234  1.00  0.00    -0.248 NA
ATOM     53  C   UNL A   1      43.983  26.546  30.210  1.00  0.00     0.031 C 
ATOM     54  C   UNL A   1      42.736  29.369  35.438  1.00  0.00     0.029 A 
ATOM     55  C   UNL A   1      42.673  28.928  34.126  1.00  0.00     0.049 A 
ATOM     56  H   UNL A   1      41.262  29.399  32.629  1.00  0.00     0.167 HD
ATOM     57  C   UNL A   1      43.425  27.628  32.153  1.00  0.00     0.074 A 
ATOM     58  C   UNL A   1      44.331  26.722  31.478  1.00  0.00     0.031 C 
ATOM     59  C   UNL A   1      43.564  28.029  33.439  1.00  0.00     0.037 A 
BRANCH  46  60
ATOM     60  C   UNL A   1      39.247  31.994  35.346  1.00  0.00     0.064 A 
ATOM     61  C   UNL A   1      38.406  31.478  36.343  1.00  0.00     0.173 A 
ATOM     62  C   UNL A   1      39.682  33.322  35.471  1.00  0.00     0.173 A 
ATOM     63  F   UNL A   1      37.960  30.215  36.263  1.00  0.00    -0.203 F 
ATOM     64  C   UNL A   1      38.014  32.262  37.423  1.00  0.00     0.198 A 
ATOM     65  C   UNL A   1      39.304  34.096  36.565  1.00  0.00     0.198 A 
ATOM     66  F   UNL A   1      40.491  33.858  34.547  1.00  0.00    -0.203 F 
ATOM     67  F   UNL A   1      37.197  31.754  38.356  1.00  0.00    -0.200 F 
ATOM     68  C   UNL A   1      38.471  33.567  37.540  1.00  0.00     0.200 A 
ATOM     69  F   UNL A   1      39.756  35.353  36.683  1.00  0.00    -0.200 F 
ATOM     70  F   UNL A   1      38.111  34.312  38.592  1.00  0.00    -0.200 F 
ENDBRANCH  46  60
BRANCH  47  71
ATOM     71  C   UNL A   1      42.524  26.535  27.664  1.00  0.00     0.064 A 
ATOM     72  C   UNL A   1      43.469  27.057  26.771  1.00  0.00     0.173 A 
ATOM     73  C   UNL A   1      42.074  25.225  27.450  1.00  0.00     0.173 A 
ATOM     74  F   UNL A   1      43.914  28.313  26.927  1.00  0.00    -0.203 F 
ATOM     75  C   UNL A   1      43.937  26.302  25.698  1.00  0.00     0.198 A 
ATOM     76  C   UNL A   1      42.560  24.463  26.390  1.00  0.00     0.198 A 
ATOM     77  F   UNL A   1      41.174  24.680  28.281  1.00  0.00    -0.203 F 
ATOM     78  F   UNL A   1      44.815  26.836  24.838  1.00  0.00    -0.200 F 
ATOM     79  C   UNL A   1      43.486  25.003  25.512  1.00  0.00     0.200 A 
ATOM     80  F   UNL A   1      42.132  23.204  26.222  1.00  0.00    -0.200 F 
ATOM     81  F   UNL A   1      43.941  24.276  24.483  1.00  0.00    -0.200 F 
ENDBRANCH  47  71
BRANCH  59  82
ATOM     82  C   UNL A   1      44.734  27.493  34.209  1.00  0.00     0.064 A 
ATOM     83  C   UNL A   1      45.946  28.195  34.274  1.00  0.00     0.173 A 
ATOM     84  C   UNL A   1      44.619  26.305  34.947  1.00  0.00     0.173 A 
ATOM     85  F   UNL A   1      46.106  29.329  33.576  1.00  0.00    -0.203 F 
ATOM     86  C   UNL A   1      47.006  27.721  35.040  1.00  0.00     0.198 A 
ATOM     87  C   UNL A   1      45.673  25.846  35.731  1.00  0.00     0.198 A 
ATOM     88  F   UNL A   1      43.477  25.602  34.923  1.00  0.00    -0.203 F 
ATOM     89  F   UNL A   1      48.166  28.391  35.064  1.00  0.00    -0.200 F 
ATOM     90  C   UNL A   1      46.866  26.552  35.775  1.00  0.00     0.200 A 
ATOM     91  F   UNL A   1      45.532  24.725  36.452  1.00  0.00    -0.200 F 
ATOM     92  F   UNL A   1      47.883  26.104  36.523  1.00  0.00    -0.200 F 
ENDBRANCH  59  82
ENDBRANCH  33  34
ENDBRANCH  26  28
ENDBRANCH  25  26
ENDBRANCH  24  25
ENDBRANCH   1  24
TORSDOF 14
ENDMDL
MODEL 3
REMARK VINA RESULT:     -11.5      2.812      8.725
REMARK SMILES COc1ccc(-n2c(=S)[nH]cc(CC(=O)OCCOC(=O)c3ccc(-c4c5nc(c(-c6c(F)c(F)c(F)c(F)c6F)c6ccc([nH]6)c(-c6c(F)c(F)c(F)c(F)c6F)c6nc(c(-c7c(F)c(F)c(F)c(F)c7F)c7ccc4[nH]7)C=C6)C=C5)cc3)c2=O)cc1Cl
REMARK SMILES IDX 17 1 16 2 14 3 15 4 13 5 12 6 7 7 8 8 85 9 9 10 10 11 86 12
REMARK SMILES IDX 11 13 6 15 3 16 4 17 88 18 5 19 87 20 89 21 2 22 1 23 18 24
REMARK SMILES IDX 19 25 20 26 21 27 22 28 23 29 84 30 24 31 83 32 25 33 26 34
REMARK SMILES IDX 27 35 77 36 28 37 82 38 76 39 78 40 29 41 81 42 75 43 74 44
REMARK SMILES IDX 30 46 62 47 42 48 61 49 43 50 46 51 60 52 79 53 44 54 45 55
REMARK SMILES IDX 59 57 80 58 47 59 31 60 32 61 40 62 33 63 34 64 38 65 41 66
REMARK SMILES IDX 35 67 36 68 39 69 37 70 63 71 64 72 72 73 65 74 66 75 70 76
REMARK SMILES IDX 73 77 67 78 68 79 71 80 69 81 48 82 49 83 57 84 50 85 51 86
REMARK SMILES IDX 55 87 58 88 52 89 53 90 56 91 54 92
REMARK H PARENT 10 14 78 45 46 56
REMARK Flexibility Score: inf
ROOT
ATOM      1  C   UNL A   1      42.712  20.849  26.149  1.00  0.00     0.274 C 
ENDROOT
BRANCH   1   2
ATOM      2  O   UNL A   1      41.326  20.896  25.756  1.00  0.00    -0.462 OA
BRANCH   2   3
ATOM      3  C   UNL A   1      40.459  21.400  26.671  1.00  0.00     0.310 C 
ATOM      4  O   UNL A   1      40.402  21.056  27.847  1.00  0.00    -0.252 OA
BRANCH   3   5
ATOM      5  C   UNL A   1      39.528  22.455  26.102  1.00  0.00     0.165 C 
BRANCH   5   6
ATOM      6  C   UNL A   1      38.143  21.977  25.769  1.00  0.00     0.045 A 
ATOM      7  N   UNL A   1      35.776  22.538  25.376  1.00  0.00    -0.253 N 
ATOM      8  C   UNL A   1      35.489  21.190  25.111  1.00  0.00     0.184 A 
ATOM      9  C   UNL A   1      37.052  22.989  25.740  1.00  0.00     0.262 A 
ATOM     10  S   UNL A   1      34.028  20.503  24.646  1.00  0.00    -0.040 S 
ATOM     11  N   UNL A   1      36.561  20.336  25.180  1.00  0.00    -0.338 N 
ATOM     12  O   UNL A   1      37.325  24.152  26.042  1.00  0.00    -0.269 OA
ATOM     13  C   UNL A   1      37.833  20.714  25.468  1.00  0.00     0.095 A 
ATOM     14  H   UNL A   1      36.395  19.380  25.008  1.00  0.00     0.168 HD
BRANCH   7  15
ATOM     15  C   UNL A   1      34.771  23.547  25.252  1.00  0.00     0.053 A 
ATOM     16  C   UNL A   1      32.747  25.464  25.043  1.00  0.00     0.137 A 
ATOM     17  C   UNL A   1      32.896  24.740  26.226  1.00  0.00     0.050 A 
ATOM     18  C   UNL A   1      33.624  25.254  23.973  1.00  0.00     0.085 A 
ATOM     19  C   UNL A   1      33.892  23.770  26.323  1.00  0.00     0.031 A 
ATOM     20  C   UNL A   1      34.633  24.292  24.075  1.00  0.00     0.051 A 
ATOM     21  Cl  UNL A   1      33.504  26.159  22.508  1.00  0.00    -0.080 Cl
BRANCH  16  22
ATOM     22  O   UNL A   1      31.761  26.414  25.013  1.00  0.00    -0.495 OA
ATOM     23  C   UNL A   1      31.886  27.300  26.127  1.00  0.00     0.278 C 
ENDBRANCH  16  22
ENDBRANCH   7  15
ENDBRANCH   5   6
ENDBRANCH   3   5
ENDBRANCH   2   3
ENDBRANCH   1   2
BRANCH   1  24
ATOM     24  C   UNL A   1      43.550  21.820  25.319  1.00  0.00     0.275 C 
BRANCH  24  25
ATOM     25  O   UNL A   1      42.879  23.089  25.204  1.00  0.00    -0.458 OA
BRANCH  25  26
ATOM     26  C   UNL A   1      43.668  24.185  25.234  1.00  0.00     0.338 C 
ATOM     27  O   UNL A   1      44.609  24.457  24.512  1.00  0.00    -0.246 OA
BRANCH  26  28
ATOM     28  C   UNL A   1      43.166  25.099  26.267  1.00  0.00     0.060 A 
ATOM     29  C   UNL A   1      42.331  24.613  27.271  1.00  0.00     0.016 A 
ATOM     30  C   UNL A   1      43.604  26.425  26.281  1.00  0.00     0.016 A 
ATOM     31  C   UNL A   1      41.905  25.479  28.280  1.00  0.00     0.010 A 
ATOM     32  C   UNL A   1      43.210  27.278  27.310  1.00  0.00     0.010 A 
ATOM     33  C   UNL A   1      42.345  26.816  28.310  1.00  0.00    -0.014 A 
BRANCH  33  34
ATOM     34  C   UNL A   1      41.911  27.718  29.403  1.00  0.00     0.031 A 
ATOM     35  C   UNL A   1      40.665  28.546  29.263  1.00  0.00     0.074 A 
ATOM     36  C   UNL A   1      42.651  27.791  30.525  1.00  0.00     0.049 A 
ATOM     37  N   UNL A   1      40.079  29.304  30.154  1.00  0.00    -0.248 NA
ATOM     38  C   UNL A   1      39.999  28.534  27.953  1.00  0.00     0.031 C 
ATOM     39  C   UNL A   1      43.917  27.091  30.745  1.00  0.00     0.029 A 
ATOM     40  N   UNL A   1      42.441  28.479  31.693  1.00  0.00    -0.354 N 
ATOM     41  C   UNL A   1      38.972  29.847  29.519  1.00  0.00     0.074 A 
ATOM     42  C   UNL A   1      38.993  29.377  28.151  1.00  0.00     0.031 C 
ATOM     43  C   UNL A   1      44.357  27.362  31.984  1.00  0.00     0.029 A 
ATOM     44  C   UNL A   1      43.410  28.258  32.641  1.00  0.00     0.049 A 
ATOM     45  H   UNL A   1      41.670  29.074  31.839  1.00  0.00     0.167 HD
ATOM     46  C   UNL A   1      38.010  30.644  30.041  1.00  0.00     0.037 A 
ATOM     47  C   UNL A   1      43.512  28.714  33.905  1.00  0.00     0.037 A 
ATOM     48  C   UNL A   1      37.982  31.095  31.408  1.00  0.00     0.049 A 
ATOM     49  C   UNL A   1      42.418  29.579  34.466  1.00  0.00     0.074 A 
ATOM     50  C   UNL A   1      37.009  31.841  32.049  1.00  0.00     0.029 A 
ATOM     51  N   UNL A   1      38.978  30.847  32.341  1.00  0.00    -0.354 N 
ATOM     52  N   UNL A   1      41.318  29.998  33.888  1.00  0.00    -0.248 NA
ATOM     53  C   UNL A   1      42.569  30.023  35.859  1.00  0.00     0.031 C 
ATOM     54  C   UNL A   1      37.434  32.079  33.359  1.00  0.00     0.029 A 
ATOM     55  C   UNL A   1      38.652  31.446  33.546  1.00  0.00     0.049 A 
ATOM     56  H   UNL A   1      39.794  30.323  32.172  1.00  0.00     0.167 HD
ATOM     57  C   UNL A   1      40.640  30.737  34.846  1.00  0.00     0.074 A 
ATOM     58  C   UNL A   1      41.442  30.695  36.051  1.00  0.00     0.031 C 
ATOM     59  C   UNL A   1      39.462  31.396  34.736  1.00  0.00     0.037 A 
BRANCH  46  60
ATOM     60  C   UNL A   1      36.881  31.063  29.148  1.00  0.00     0.064 A 
ATOM     61  C   UNL A   1      35.838  30.179  28.834  1.00  0.00     0.173 A 
ATOM     62  C   UNL A   1      36.787  32.385  28.687  1.00  0.00     0.173 A 
ATOM     63  F   UNL A   1      35.886  28.904  29.248  1.00  0.00    -0.203 F 
ATOM     64  C   UNL A   1      34.744  30.602  28.085  1.00  0.00     0.198 A 
ATOM     65  C   UNL A   1      35.680  32.809  27.955  1.00  0.00     0.198 A 
ATOM     66  F   UNL A   1      37.756  33.269  28.967  1.00  0.00    -0.203 F 
ATOM     67  F   UNL A   1      33.766  29.737  27.783  1.00  0.00    -0.200 F 
ATOM     68  C   UNL A   1      34.660  31.919  27.655  1.00  0.00     0.200 A 
ATOM     69  F   UNL A   1      35.595  34.085  27.552  1.00  0.00    -0.200 F 
ATOM     70  F   UNL A   1      33.596  32.329  26.955  1.00  0.00    -0.200 F 
ENDBRANCH  46  60
BRANCH  47  71
ATOM     71  C   UNL A   1      44.675  28.315  34.737  1.00  0.00     0.064 A 
ATOM     72  C   UNL A   1      45.847  29.083  34.752  1.00  0.00     0.173 A 
ATOM     73  C   UNL A   1      44.632  27.169  35.543  1.00  0.00     0.173 A 
ATOM     74  F   UNL A   1      45.940  30.178  33.984  1.00  0.00    -0.203 F 
ATOM     75  C   UNL A   1      46.939  28.712  35.533  1.00  0.00     0.198 A 
ATOM     76  C   UNL A   1      45.717  26.811  36.341  1.00  0.00     0.198 A 
ATOM     77  F   UNL A   1      43.531  26.405  35.565  1.00  0.00    -0.203 F 
ATOM     78  F   UNL A   1      48.061  29.444  35.504  1.00  0.00    -0.200 F 
ATOM     79  C   UNL A   1      46.871  27.579  36.331  1.00  0.00     0.200 A 
ATOM     80  F   UNL A   1      45.641  25.724  37.120  1.00  0.00    -0.200 F 
ATOM     81  F   UNL A   1      47.920  27.226  37.087  1.00  0.00    -0.200 F 
ENDBRANCH  47  71
BRANCH  59  82
ATOM     82  C   UNL A   1      38.960  32.126  35.946  1.00  0.00     0.064 A 
ATOM     83  C   UNL A   1      38.195  31.474  36.923  1.00  0.00     0.173 A 
ATOM     84  C   UNL A   1      39.309  33.467  36.166  1.00  0.00     0.173 A 
ATOM     85  F   UNL A   1      37.828  30.196  36.750  1.00  0.00    -0.203 F 
ATOM     86  C   UNL A   1      37.785  32.142  38.072  1.00  0.00     0.198 A 
ATOM     87  C   UNL A   1      38.919  34.125  37.328  1.00  0.00     0.198 A 
ATOM     88  F   UNL A   1      40.047  34.131  35.264  1.00  0.00    -0.203 F 
ATOM     89  F   UNL A   1      37.028  31.510  38.980  1.00  0.00    -0.200 F 
ATOM     90  C   UNL A   1      38.154  33.464  38.279  1.00  0.00     0.200 A 
ATOM     91  F   UNL A   1      39.287  35.397  37.534  1.00  0.00    -0.200 F 
ATOM     92  F   UNL A   1      37.771  34.101  39.393  1.00  0.00    -0.200 F 
ENDBRANCH  59  82
ENDBRANCH  33  34
ENDBRANCH  26  28
ENDBRANCH  25  26
ENDBRANCH  24  25
ENDBRANCH   1  24
TORSDOF 14
ENDMDL
