MODEL 1
REMARK VINA RESULT:     -12.3      0.000      0.000
REMARK SMILES O=C(/C=C/c1ccc(O)cc1)NC[C@@H]1CC[C@H](C(=O)OCCOC(=O)c2ccc(-c3c4nc(c(-c5c(F)c(F)c(F)c(F)c5F)c5ccc([nH]5)c(-c5c(F)c(F)c(F)c(F)c5F)c5nc(c(-c6c(F)c(F)c(F)c(F)c6F)c6ccc3[nH]6)C=C5)C=C4)cc2)O1
REMARK SMILES IDX 20 1 18 2 19 3 17 4 14 5 15 6 89 7 16 8 13 9 12 10 1 11 2 12
REMARK SMILES IDX 3 14 4 15 5 16 6 17 11 18 7 19 10 20 8 21 9 22 21 24 22 25
REMARK SMILES IDX 23 26 24 27 25 28 26 29 27 30 88 31 28 32 87 33 29 34 30 35
REMARK SMILES IDX 31 36 81 37 32 38 86 39 80 40 82 41 33 42 85 43 79 44 78 45
REMARK SMILES IDX 34 47 66 48 46 49 65 50 47 51 50 52 64 53 83 54 48 55 49 56
REMARK SMILES IDX 63 58 84 59 51 60 35 61 36 62 44 63 37 64 38 65 42 66 45 67
REMARK SMILES IDX 39 68 40 69 43 70 41 71 67 72 68 73 76 74 69 75 70 76 74 77
REMARK SMILES IDX 77 78 71 79 72 80 75 81 73 82 52 83 53 84 61 85 54 86 55 87
REMARK SMILES IDX 59 88 62 89 56 90 57 91 60 92 58 93
REMARK H PARENT 12 13 9 23 82 46 50 57
REMARK Flexibility Score: inf
ROOT
ATOM      1  O   UNL A   1      43.801  20.109  24.558  1.00  0.00    -0.460 OA
ENDROOT
BRANCH   1   2
ATOM      2  C   UNL A   1      43.772  18.927  25.236  1.00  0.00     0.335 C 
ATOM      3  O   UNL A   1      44.708  18.133  25.283  1.00  0.00    -0.249 OA
BRANCH   2   4
ATOM      4  C   UNL A   1      42.444  18.675  25.958  1.00  0.00     0.228 C 
ATOM      5  C   UNL A   1      40.901  20.307  26.597  1.00  0.00     0.138 C 
ATOM      6  C   UNL A   1      41.871  20.127  27.755  1.00  0.00     0.037 C 
ATOM      7  O   UNL A   1      41.428  19.562  25.492  1.00  0.00    -0.361 OA
ATOM      8  C   UNL A   1      42.475  18.773  27.475  1.00  0.00     0.047 C 
BRANCH   5   9
ATOM      9  C   UNL A   1      40.635  21.762  26.185  1.00  0.00     0.148 C 
BRANCH   9  10
ATOM     10  N   UNL A   1      39.278  21.992  25.714  1.00  0.00    -0.350 N 
ATOM     11  O   UNL A   1      38.943  23.988  26.804  1.00  0.00    -0.270 OA
ATOM     12  C   UNL A   1      38.529  23.067  26.112  1.00  0.00     0.244 C 
ATOM     13  H   UNL A   1      38.882  21.349  25.083  1.00  0.00     0.163 HD
BRANCH  12  14
ATOM     14  C   UNL A   1      37.130  23.114  25.603  1.00  0.00     0.072 C 
ATOM     15  C   UNL A   1      36.736  22.822  24.354  1.00  0.00     0.014 C 
BRANCH  15  16
ATOM     16  C   UNL A   1      35.328  22.811  23.926  1.00  0.00    -0.025 A 
ATOM     17  C   UNL A   1      34.782  23.814  23.115  1.00  0.00     0.012 A 
ATOM     18  C   UNL A   1      34.518  21.729  24.303  1.00  0.00     0.012 A 
ATOM     19  C   UNL A   1      33.446  23.752  22.707  1.00  0.00     0.047 A 
ATOM     20  C   UNL A   1      33.183  21.669  23.901  1.00  0.00     0.047 A 
ATOM     21  C   UNL A   1      32.658  22.678  23.105  1.00  0.00     0.115 A 
BRANCH  21  22
ATOM     22  O   UNL A   1      31.353  22.574  22.727  1.00  0.00    -0.508 OA
ATOM     23  H   UNL A   1      31.136  22.392  21.834  1.00  0.00     0.293 HD
ENDBRANCH  21  22
ENDBRANCH  15  16
ENDBRANCH  12  14
ENDBRANCH   9  10
ENDBRANCH   5   9
ENDBRANCH   2   4
ENDBRANCH   1   2
BRANCH   1  24
ATOM     24  C   UNL A   1      44.634  21.135  25.138  1.00  0.00     0.274 C 
BRANCH  24  25
ATOM     25  C   UNL A   1      44.696  22.400  24.278  1.00  0.00     0.275 C 
BRANCH  25  26
ATOM     26  O   UNL A   1      43.825  23.427  24.781  1.00  0.00    -0.458 OA
BRANCH  26  27
ATOM     27  C   UNL A   1      44.446  24.584  25.100  1.00  0.00     0.338 C 
ATOM     28  O   UNL A   1      45.457  25.044  24.596  1.00  0.00    -0.246 OA
BRANCH  27  29
ATOM     29  C   UNL A   1      43.639  25.340  26.067  1.00  0.00     0.060 A 
ATOM     30  C   UNL A   1      43.961  26.686  26.259  1.00  0.00     0.016 A 
ATOM     31  C   UNL A   1      42.651  24.725  26.840  1.00  0.00     0.016 A 
ATOM     32  C   UNL A   1      43.321  27.423  27.245  1.00  0.00     0.010 A 
ATOM     33  C   UNL A   1      42.011  25.465  27.840  1.00  0.00     0.010 A 
ATOM     34  C   UNL A   1      42.366  26.807  28.063  1.00  0.00    -0.014 A 
BRANCH  34  35
ATOM     35  C   UNL A   1      41.851  27.556  29.231  1.00  0.00     0.031 A 
ATOM     36  C   UNL A   1      42.607  27.496  30.526  1.00  0.00     0.074 A 
ATOM     37  C   UNL A   1      40.770  28.345  29.103  1.00  0.00     0.049 A 
ATOM     38  N   UNL A   1      42.346  28.079  31.668  1.00  0.00    -0.248 NA
ATOM     39  C   UNL A   1      43.824  26.670  30.536  1.00  0.00     0.031 C 
ATOM     40  C   UNL A   1      39.993  28.517  27.877  1.00  0.00     0.029 A 
ATOM     41  N   UNL A   1      40.151  29.160  30.014  1.00  0.00    -0.354 N 
ATOM     42  C   UNL A   1      43.354  27.679  32.535  1.00  0.00     0.074 A 
ATOM     43  C   UNL A   1      44.222  26.788  31.794  1.00  0.00     0.031 C 
ATOM     44  C   UNL A   1      39.003  29.395  28.109  1.00  0.00     0.029 A 
ATOM     45  C   UNL A   1      39.061  29.820  29.506  1.00  0.00     0.049 A 
ATOM     46  H   UNL A   1      40.457  29.263  30.944  1.00  0.00     0.167 HD
ATOM     47  C   UNL A   1      43.539  28.029  33.829  1.00  0.00     0.037 A 
ATOM     48  C   UNL A   1      38.202  30.665  30.107  1.00  0.00     0.037 A 
ATOM     49  C   UNL A   1      42.681  28.928  34.554  1.00  0.00     0.049 A 
ATOM     50  C   UNL A   1      38.416  31.016  31.555  1.00  0.00     0.074 A 
ATOM     51  C   UNL A   1      42.772  29.339  35.871  1.00  0.00     0.029 A 
ATOM     52  N   UNL A   1      41.571  29.560  34.012  1.00  0.00    -0.354 N 
ATOM     53  N   UNL A   1      39.363  30.621  32.372  1.00  0.00    -0.248 NA
ATOM     54  C   UNL A   1      37.443  31.933  32.163  1.00  0.00     0.031 C 
ATOM     55  C   UNL A   1      41.698  30.198  36.136  1.00  0.00     0.029 A 
ATOM     56  C   UNL A   1      40.963  30.353  34.972  1.00  0.00     0.049 A 
ATOM     57  H   UNL A   1      41.260  29.460  33.083  1.00  0.00     0.167 HD
ATOM     58  C   UNL A   1      39.114  31.256  33.580  1.00  0.00     0.074 A 
ATOM     59  C   UNL A   1      37.936  32.076  33.386  1.00  0.00     0.031 C 
ATOM     60  C   UNL A   1      39.796  31.166  34.749  1.00  0.00     0.037 A 
BRANCH  47  61
ATOM     61  C   UNL A   1      44.700  27.410  34.549  1.00  0.00     0.064 A 
ATOM     62  C   UNL A   1      44.582  26.182  35.218  1.00  0.00     0.173 A 
ATOM     63  C   UNL A   1      45.949  28.047  34.558  1.00  0.00     0.173 A 
ATOM     64  F   UNL A   1      43.403  25.542  35.255  1.00  0.00    -0.203 F 
ATOM     65  C   UNL A   1      45.669  25.626  35.891  1.00  0.00     0.198 A 
ATOM     66  C   UNL A   1      47.039  27.476  35.211  1.00  0.00     0.198 A 
ATOM     67  F   UNL A   1      46.114  29.222  33.934  1.00  0.00    -0.203 F 
ATOM     68  F   UNL A   1      45.523  24.476  36.563  1.00  0.00    -0.200 F 
ATOM     69  C   UNL A   1      46.896  26.272  35.882  1.00  0.00     0.200 A 
ATOM     70  F   UNL A   1      48.227  28.097  35.196  1.00  0.00    -0.200 F 
ATOM     71  F   UNL A   1      47.941  25.736  36.529  1.00  0.00    -0.200 F 
ENDBRANCH  47  61
BRANCH  48  72
ATOM     72  C   UNL A   1      37.065  31.234  29.341  1.00  0.00     0.064 A 
ATOM     73  C   UNL A   1      37.058  32.578  28.947  1.00  0.00     0.173 A 
ATOM     74  C   UNL A   1      35.959  30.444  28.993  1.00  0.00     0.173 A 
ATOM     75  F   UNL A   1      38.082  33.379  29.280  1.00  0.00    -0.203 F 
ATOM     76  C   UNL A   1      35.981  33.116  28.244  1.00  0.00     0.198 A 
ATOM     77  C   UNL A   1      34.895  30.977  28.268  1.00  0.00     0.198 A 
ATOM     78  F   UNL A   1      35.916  29.153  29.351  1.00  0.00    -0.203 F 
ATOM     79  F   UNL A   1      35.979  34.415  27.917  1.00  0.00    -0.200 F 
ATOM     80  C   UNL A   1      34.903  32.314  27.901  1.00  0.00     0.200 A 
ATOM     81  F   UNL A   1      33.859  30.196  27.932  1.00  0.00    -0.200 F 
ATOM     82  F   UNL A   1      33.869  32.831  27.224  1.00  0.00    -0.200 F 
ENDBRANCH  48  72
BRANCH  60  83
ATOM     83  C   UNL A   1      39.299  32.002  35.892  1.00  0.00     0.064 A 
ATOM     84  C   UNL A   1      39.752  33.313  36.092  1.00  0.00     0.173 A 
ATOM     85  C   UNL A   1      38.344  31.489  36.782  1.00  0.00     0.173 A 
ATOM     86  F   UNL A   1      40.676  33.842  35.275  1.00  0.00    -0.203 F 
ATOM     87  C   UNL A   1      39.286  34.073  37.161  1.00  0.00     0.198 A 
ATOM     88  C   UNL A   1      37.861  32.261  37.835  1.00  0.00     0.198 A 
ATOM     89  F   UNL A   1      37.876  30.242  36.628  1.00  0.00    -0.203 F 
ATOM     90  F   UNL A   1      39.767  35.308  37.363  1.00  0.00    -0.200 F 
ATOM     91  C   UNL A   1      38.339  33.549  38.028  1.00  0.00     0.200 A 
ATOM     92  F   UNL A   1      36.938  31.758  38.665  1.00  0.00    -0.200 F 
ATOM     93  F   UNL A   1      37.892  34.282  39.057  1.00  0.00    -0.200 F 
ENDBRANCH  60  83
ENDBRANCH  34  35
ENDBRANCH  27  29
ENDBRANCH  26  27
ENDBRANCH  25  26
ENDBRANCH  24  25
ENDBRANCH   1  24
TORSDOF 16
ENDMDL
MODEL 2
REMARK VINA RESULT:     -12.1      4.156      9.536
REMARK SMILES O=C(/C=C/c1ccc(O)cc1)NC[C@@H]1CC[C@H](C(=O)OCCOC(=O)c2ccc(-c3c4nc(c(-c5c(F)c(F)c(F)c(F)c5F)c5ccc([nH]5)c(-c5c(F)c(F)c(F)c(F)c5F)c5nc(c(-c6c(F)c(F)c(F)c(F)c6F)c6ccc3[nH]6)C=C5)C=C4)cc2)O1
REMARK SMILES IDX 20 1 18 2 19 3 17 4 14 5 15 6 89 7 16 8 13 9 12 10 1 11 2 12
REMARK SMILES IDX 3 14 4 15 5 16 6 17 11 18 7 19 10 20 8 21 9 22 21 24 22 25
REMARK SMILES IDX 23 26 24 27 25 28 26 29 27 30 88 31 28 32 87 33 29 34 30 35
REMARK SMILES IDX 31 36 81 37 32 38 86 39 80 40 82 41 33 42 85 43 79 44 78 45
REMARK SMILES IDX 34 47 66 48 46 49 65 50 47 51 50 52 64 53 83 54 48 55 49 56
REMARK SMILES IDX 63 58 84 59 51 60 35 61 36 62 44 63 37 64 38 65 42 66 45 67
REMARK SMILES IDX 39 68 40 69 43 70 41 71 67 72 68 73 76 74 69 75 70 76 74 77
REMARK SMILES IDX 77 78 71 79 72 80 75 81 73 82 52 83 53 84 61 85 54 86 55 87
REMARK SMILES IDX 59 88 62 89 56 90 57 91 60 92 58 93
REMARK H PARENT 12 13 9 23 82 46 50 57
REMARK Flexibility Score: inf
ROOT
ATOM      1  O   UNL A   1      33.751  28.431  25.725  1.00  0.00    -0.460 OA
ENDROOT
BRANCH   1   2
ATOM      2  C   UNL A   1      33.215  27.203  25.974  1.00  0.00     0.335 C 
ATOM      3  O   UNL A   1      32.297  26.995  26.762  1.00  0.00    -0.249 OA
BRANCH   2   4
ATOM      4  C   UNL A   1      33.869  26.080  25.161  1.00  0.00     0.228 C 
ATOM      5  C   UNL A   1      32.745  24.486  23.877  1.00  0.00     0.138 C 
ATOM      6  C   UNL A   1      32.886  23.915  25.279  1.00  0.00     0.037 C 
ATOM      7  O   UNL A   1      33.169  25.854  23.938  1.00  0.00    -0.361 OA
ATOM      8  C   UNL A   1      34.009  24.737  25.862  1.00  0.00     0.047 C 
BRANCH   5   9
ATOM      9  C   UNL A   1      31.339  24.387  23.266  1.00  0.00     0.148 C 
BRANCH   9  10
ATOM     10  N   UNL A   1      30.745  25.680  22.965  1.00  0.00    -0.350 N 
ATOM     11  O   UNL A   1      29.650  25.953  24.967  1.00  0.00    -0.270 OA
ATOM     12  C   UNL A   1      29.904  26.327  23.829  1.00  0.00     0.244 C 
ATOM     13  H   UNL A   1      30.957  26.108  22.104  1.00  0.00     0.163 HD
BRANCH  12  14
ATOM     14  C   UNL A   1      29.315  27.604  23.338  1.00  0.00     0.072 C 
ATOM     15  C   UNL A   1      29.808  28.834  23.555  1.00  0.00     0.014 C 
BRANCH  15  16
ATOM     16  C   UNL A   1      29.227  30.056  22.979  1.00  0.00    -0.025 A 
ATOM     17  C   UNL A   1      29.100  31.244  23.712  1.00  0.00     0.012 A 
ATOM     18  C   UNL A   1      28.834  30.046  21.633  1.00  0.00     0.012 A 
ATOM     19  C   UNL A   1      28.569  32.394  23.119  1.00  0.00     0.047 A 
ATOM     20  C   UNL A   1      28.299  31.191  21.040  1.00  0.00     0.047 A 
ATOM     21  C   UNL A   1      28.172  32.356  21.786  1.00  0.00     0.115 A 
BRANCH  21  22
ATOM     22  O   UNL A   1      27.653  33.452  21.166  1.00  0.00    -0.508 OA
ATOM     23  H   UNL A   1      27.377  34.191  21.673  1.00  0.00     0.293 HD
ENDBRANCH  21  22
ENDBRANCH  15  16
ENDBRANCH  12  14
ENDBRANCH   9  10
ENDBRANCH   5   9
ENDBRANCH   2   4
ENDBRANCH   1   2
BRANCH   1  24
ATOM     24  C   UNL A   1      32.903  29.339  24.992  1.00  0.00     0.274 C 
BRANCH  24  25
ATOM     25  C   UNL A   1      32.303  30.433  25.880  1.00  0.00     0.275 C 
BRANCH  25  26
ATOM     26  O   UNL A   1      32.852  30.399  27.208  1.00  0.00    -0.458 OA
BRANCH  26  27
ATOM     27  C   UNL A   1      33.580  31.488  27.543  1.00  0.00     0.338 C 
ATOM     28  O   UNL A   1      33.191  32.641  27.626  1.00  0.00    -0.246 OA
BRANCH  27  29
ATOM     29  C   UNL A   1      34.928  31.082  27.966  1.00  0.00     0.060 A 
ATOM     30  C   UNL A   1      35.106  29.750  28.347  1.00  0.00     0.016 A 
ATOM     31  C   UNL A   1      35.971  32.004  28.080  1.00  0.00     0.016 A 
ATOM     32  C   UNL A   1      36.321  29.332  28.873  1.00  0.00     0.010 A 
ATOM     33  C   UNL A   1      37.192  31.585  28.619  1.00  0.00     0.010 A 
ATOM     34  C   UNL A   1      37.359  30.255  29.043  1.00  0.00    -0.014 A 
BRANCH  34  35
ATOM     35  C   UNL A   1      38.564  29.831  29.790  1.00  0.00     0.031 A 
ATOM     36  C   UNL A   1      38.766  30.330  31.192  1.00  0.00     0.074 A 
ATOM     37  C   UNL A   1      39.416  28.944  29.248  1.00  0.00     0.049 A 
ATOM     38  N   UNL A   1      39.737  30.078  32.031  1.00  0.00    -0.248 NA
ATOM     39  C   UNL A   1      37.731  31.231  31.721  1.00  0.00     0.031 C 
ATOM     40  C   UNL A   1      39.285  28.355  27.917  1.00  0.00     0.029 A 
ATOM     41  N   UNL A   1      40.551  28.372  29.762  1.00  0.00    -0.354 N 
ATOM     42  C   UNL A   1      39.441  30.801  33.178  1.00  0.00     0.074 A 
ATOM     43  C   UNL A   1      38.208  31.516  32.923  1.00  0.00     0.031 C 
ATOM     44  C   UNL A   1      40.298  27.495  27.720  1.00  0.00     0.029 A 
ATOM     45  C   UNL A   1      41.161  27.497  28.899  1.00  0.00     0.049 A 
ATOM     46  H   UNL A   1      40.896  28.569  30.662  1.00  0.00     0.167 HD
ATOM     47  C   UNL A   1      40.132  30.856  34.340  1.00  0.00     0.037 A 
ATOM     48  C   UNL A   1      42.296  26.787  29.045  1.00  0.00     0.037 A 
ATOM     49  C   UNL A   1      41.348  30.130  34.592  1.00  0.00     0.049 A 
ATOM     50  C   UNL A   1      43.060  26.888  30.338  1.00  0.00     0.074 A 
ATOM     51  C   UNL A   1      42.134  30.126  35.730  1.00  0.00     0.029 A 
ATOM     52  N   UNL A   1      41.951  29.271  33.685  1.00  0.00    -0.354 N 
ATOM     53  N   UNL A   1      42.781  27.586  31.412  1.00  0.00    -0.248 NA
ATOM     54  C   UNL A   1      44.295  26.099  30.438  1.00  0.00     0.031 C 
ATOM     55  C   UNL A   1      43.231  29.285  35.500  1.00  0.00     0.029 A 
ATOM     56  C   UNL A   1      43.105  28.736  34.235  1.00  0.00     0.049 A 
ATOM     57  H   UNL A   1      41.610  29.071  32.784  1.00  0.00     0.167 HD
ATOM     58  C   UNL A   1      43.790  27.305  32.322  1.00  0.00     0.074 A 
ATOM     59  C   UNL A   1      44.679  26.360  31.681  1.00  0.00     0.031 C 
ATOM     60  C   UNL A   1      43.968  27.790  33.576  1.00  0.00     0.037 A 
BRANCH  47  61
ATOM     61  C   UNL A   1      39.602  31.760  35.413  1.00  0.00     0.064 A 
ATOM     62  C   UNL A   1      38.641  31.323  36.338  1.00  0.00     0.173 A 
ATOM     63  C   UNL A   1      40.070  33.077  35.525  1.00  0.00     0.173 A 
ATOM     64  F   UNL A   1      38.147  30.078  36.261  1.00  0.00    -0.203 F 
ATOM     65  C   UNL A   1      38.152  32.181  37.321  1.00  0.00     0.198 A 
ATOM     66  C   UNL A   1      39.597  33.924  36.524  1.00  0.00     0.198 A 
ATOM     67  F   UNL A   1      40.988  33.544  34.666  1.00  0.00    -0.203 F 
ATOM     68  F   UNL A   1      37.201  31.758  38.165  1.00  0.00    -0.200 F 
ATOM     69  C   UNL A   1      38.634  33.477  37.416  1.00  0.00     0.200 A 
ATOM     70  F   UNL A   1      40.069  35.175  36.620  1.00  0.00    -0.200 F 
ATOM     71  F   UNL A   1      38.163  34.301  38.363  1.00  0.00    -0.200 F 
ENDBRANCH  47  61
BRANCH  48  72
ATOM     72  C   UNL A   1      42.773  25.920  27.938  1.00  0.00     0.064 A 
ATOM     73  C   UNL A   1      42.357  24.586  27.832  1.00  0.00     0.173 A 
ATOM     74  C   UNL A   1      43.661  26.408  26.969  1.00  0.00     0.173 A 
ATOM     75  F   UNL A   1      41.529  24.068  28.751  1.00  0.00    -0.203 F 
ATOM     76  C   UNL A   1      42.822  23.768  26.804  1.00  0.00     0.198 A 
ATOM     77  C   UNL A   1      44.105  25.596  25.927  1.00  0.00     0.198 A 
ATOM     78  F   UNL A   1      44.092  27.676  27.030  1.00  0.00    -0.203 F 
ATOM     79  F   UNL A   1      42.443  22.484  26.749  1.00  0.00    -0.200 F 
ATOM     80  C   UNL A   1      43.691  24.275  25.849  1.00  0.00     0.200 A 
ATOM     81  F   UNL A   1      44.939  26.092  25.002  1.00  0.00    -0.200 F 
ATOM     82  F   UNL A   1      44.136  23.488  24.860  1.00  0.00    -0.200 F 
ENDBRANCH  48  72
BRANCH  60  83
ATOM     83  C   UNL A   1      45.152  27.277  34.342  1.00  0.00     0.064 A 
ATOM     84  C   UNL A   1      45.079  26.105  35.108  1.00  0.00     0.173 A 
ATOM     85  C   UNL A   1      46.379  27.955  34.288  1.00  0.00     0.173 A 
ATOM     86  F   UNL A   1      43.924  25.430  35.201  1.00  0.00    -0.203 F 
ATOM     87  C   UNL A   1      46.185  25.646  35.817  1.00  0.00     0.198 A 
ATOM     88  C   UNL A   1      47.490  27.479  34.977  1.00  0.00     0.198 A 
ATOM     89  F   UNL A   1      46.500  29.077  33.563  1.00  0.00    -0.203 F 
ATOM     90  F   UNL A   1      46.081  24.550  36.582  1.00  0.00    -0.200 F 
ATOM     91  C   UNL A   1      47.390  26.330  35.748  1.00  0.00     0.200 A 
ATOM     92  F   UNL A   1      48.656  28.134  34.901  1.00  0.00    -0.200 F 
ATOM     93  F   UNL A   1      48.454  25.886  36.431  1.00  0.00    -0.200 F 
ENDBRANCH  60  83
ENDBRANCH  34  35
ENDBRANCH  27  29
ENDBRANCH  26  27
ENDBRANCH  25  26
ENDBRANCH  24  25
ENDBRANCH   1  24
TORSDOF 16
ENDMDL
MODEL 3
REMARK VINA RESULT:     -12.0      3.417      9.396
REMARK SMILES O=C(/C=C/c1ccc(O)cc1)NC[C@@H]1CC[C@H](C(=O)OCCOC(=O)c2ccc(-c3c4nc(c(-c5c(F)c(F)c(F)c(F)c5F)c5ccc([nH]5)c(-c5c(F)c(F)c(F)c(F)c5F)c5nc(c(-c6c(F)c(F)c(F)c(F)c6F)c6ccc3[nH]6)C=C5)C=C4)cc2)O1
REMARK SMILES IDX 20 1 18 2 19 3 17 4 14 5 15 6 89 7 16 8 13 9 12 10 1 11 2 12
REMARK SMILES IDX 3 14 4 15 5 16 6 17 11 18 7 19 10 20 8 21 9 22 21 24 22 25
REMARK SMILES IDX 23 26 24 27 25 28 26 29 27 30 88 31 28 32 87 33 29 34 30 35
REMARK SMILES IDX 31 36 81 37 32 38 86 39 80 40 82 41 33 42 85 43 79 44 78 45
REMARK SMILES IDX 34 47 66 48 46 49 65 50 47 51 50 52 64 53 83 54 48 55 49 56
REMARK SMILES IDX 63 58 84 59 51 60 35 61 36 62 44 63 37 64 38 65 42 66 45 67
REMARK SMILES IDX 39 68 40 69 43 70 41 71 67 72 68 73 76 74 69 75 70 76 74 77
REMARK SMILES IDX 77 78 71 79 72 80 75 81 73 82 52 83 53 84 61 85 54 86 55 87
REMARK SMILES IDX 59 88 62 89 56 90 57 91 60 92 58 93
REMARK H PARENT 12 13 9 23 82 46 50 57
REMARK Flexibility Score: inf
ROOT
ATOM      1  O   UNL A   1      32.930  30.070  25.767  1.00  0.00    -0.460 OA
ENDROOT
BRANCH   1   2
ATOM      2  C   UNL A   1      32.671  29.320  24.658  1.00  0.00     0.335 C 
ATOM      3  O   UNL A   1      33.509  29.027  23.810  1.00  0.00    -0.249 OA
BRANCH   2   4
ATOM      4  C   UNL A   1      31.212  28.860  24.565  1.00  0.00     0.228 C 
ATOM      5  C   UNL A   1      30.422  27.058  23.308  1.00  0.00     0.138 C 
ATOM      6  C   UNL A   1      30.371  28.286  22.413  1.00  0.00     0.037 C 
ATOM      7  O   UNL A   1      31.123  27.437  24.498  1.00  0.00    -0.361 OA
ATOM      8  C   UNL A   1      30.404  29.422  23.405  1.00  0.00     0.047 C 
BRANCH   5   9
ATOM      9  C   UNL A   1      31.068  25.814  22.678  1.00  0.00     0.148 C 
BRANCH   9  10
ATOM     10  N   UNL A   1      32.235  25.337  23.404  1.00  0.00    -0.350 N 
ATOM     11  O   UNL A   1      33.806  25.988  21.858  1.00  0.00    -0.270 OA
ATOM     12  C   UNL A   1      33.505  25.420  22.900  1.00  0.00     0.244 C 
ATOM     13  H   UNL A   1      32.106  24.938  24.295  1.00  0.00     0.163 HD
BRANCH  12  14
ATOM     14  C   UNL A   1      34.581  24.812  23.731  1.00  0.00     0.072 C 
ATOM     15  C   UNL A   1      35.047  23.558  23.621  1.00  0.00     0.014 C 
BRANCH  15  16
ATOM     16  C   UNL A   1      36.167  23.034  24.418  1.00  0.00    -0.025 A 
ATOM     17  C   UNL A   1      36.683  21.745  24.231  1.00  0.00     0.012 A 
ATOM     18  C   UNL A   1      36.773  23.875  25.364  1.00  0.00     0.012 A 
ATOM     19  C   UNL A   1      37.768  21.294  24.990  1.00  0.00     0.047 A 
ATOM     20  C   UNL A   1      37.852  23.425  26.126  1.00  0.00     0.047 A 
ATOM     21  C   UNL A   1      38.343  22.140  25.933  1.00  0.00     0.115 A 
BRANCH  21  22
ATOM     22  O   UNL A   1      39.404  21.746  26.691  1.00  0.00    -0.508 OA
ATOM     23  H   UNL A   1      39.840  22.364  27.244  1.00  0.00     0.293 HD
ENDBRANCH  21  22
ENDBRANCH  15  16
ENDBRANCH  12  14
ENDBRANCH   9  10
ENDBRANCH   5   9
ENDBRANCH   2   4
ENDBRANCH   1   2
BRANCH   1  24
ATOM     24  C   UNL A   1      31.777  30.421  26.559  1.00  0.00     0.274 C 
BRANCH  24  25
ATOM     25  C   UNL A   1      31.711  31.918  26.876  1.00  0.00     0.275 C 
BRANCH  25  26
ATOM     26  O   UNL A   1      32.983  32.558  26.678  1.00  0.00    -0.458 OA
BRANCH  26  27
ATOM     27  C   UNL A   1      33.471  33.188  27.770  1.00  0.00     0.338 C 
ATOM     28  O   UNL A   1      32.915  34.041  28.441  1.00  0.00    -0.246 OA
BRANCH  27  29
ATOM     29  C   UNL A   1      34.753  32.589  28.167  1.00  0.00     0.060 A 
ATOM     30  C   UNL A   1      34.737  31.253  28.574  1.00  0.00     0.016 A 
ATOM     31  C   UNL A   1      35.927  33.342  28.234  1.00  0.00     0.016 A 
ATOM     32  C   UNL A   1      35.888  30.663  29.078  1.00  0.00     0.010 A 
ATOM     33  C   UNL A   1      37.085  32.752  28.750  1.00  0.00     0.010 A 
ATOM     34  C   UNL A   1      37.060  31.420  29.199  1.00  0.00    -0.014 A 
BRANCH  34  35
ATOM     35  C   UNL A   1      38.206  30.830  29.925  1.00  0.00     0.031 A 
ATOM     36  C   UNL A   1      38.395  31.155  31.378  1.00  0.00     0.074 A 
ATOM     37  C   UNL A   1      39.013  29.950  29.309  1.00  0.00     0.049 A 
ATOM     38  N   UNL A   1      39.319  30.744  32.209  1.00  0.00    -0.248 NA
ATOM     39  C   UNL A   1      37.407  32.065  31.979  1.00  0.00     0.031 C 
ATOM     40  C   UNL A   1      38.888  29.523  27.916  1.00  0.00     0.029 A 
ATOM     41  N   UNL A   1      40.089  29.244  29.784  1.00  0.00    -0.354 N 
ATOM     42  C   UNL A   1      39.034  31.355  33.422  1.00  0.00     0.074 A 
ATOM     43  C   UNL A   1      37.862  32.181  33.218  1.00  0.00     0.031 C 
ATOM     44  C   UNL A   1      39.845  28.619  27.650  1.00  0.00     0.029 A 
ATOM     45  C   UNL A   1      40.666  28.429  28.844  1.00  0.00     0.049 A 
ATOM     46  H   UNL A   1      40.416  29.316  30.709  1.00  0.00     0.167 HD
ATOM     47  C   UNL A   1      39.688  31.232  34.601  1.00  0.00     0.037 A 
ATOM     48  C   UNL A   1      41.744  27.627  28.938  1.00  0.00     0.037 A 
ATOM     49  C   UNL A   1      40.843  30.397  34.800  1.00  0.00     0.049 A 
ATOM     50  C   UNL A   1      42.470  27.530  30.253  1.00  0.00     0.074 A 
ATOM     51  C   UNL A   1      41.588  30.210  35.950  1.00  0.00     0.029 A 
ATOM     52  N   UNL A   1      41.415  29.602  33.818  1.00  0.00    -0.354 N 
ATOM     53  N   UNL A   1      42.203  28.123  31.392  1.00  0.00    -0.248 NA
ATOM     54  C   UNL A   1      43.644  26.648  30.296  1.00  0.00     0.031 C 
ATOM     55  C   UNL A   1      42.631  29.324  35.655  1.00  0.00     0.029 A 
ATOM     56  C   UNL A   1      42.510  28.928  34.333  1.00  0.00     0.049 A 
ATOM     57  H   UNL A   1      41.091  29.527  32.891  1.00  0.00     0.167 HD
ATOM     58  C   UNL A   1      43.160  27.672  32.290  1.00  0.00     0.074 A 
ATOM     59  C   UNL A   1      44.003  26.742  31.569  1.00  0.00     0.031 C 
ATOM     60  C   UNL A   1      43.329  28.001  33.595  1.00  0.00     0.037 A 
BRANCH  47  61
ATOM     61  C   UNL A   1      39.185  32.047  35.754  1.00  0.00     0.064 A 
ATOM     62  C   UNL A   1      39.574  33.383  35.938  1.00  0.00     0.173 A 
ATOM     63  C   UNL A   1      38.294  31.488  36.681  1.00  0.00     0.173 A 
ATOM     64  F   UNL A   1      40.440  33.958  35.090  1.00  0.00    -0.203 F 
ATOM     65  C   UNL A   1      39.104  34.122  37.022  1.00  0.00     0.198 A 
ATOM     66  C   UNL A   1      37.807  32.238  37.750  1.00  0.00     0.198 A 
ATOM     67  F   UNL A   1      37.892  30.215  36.551  1.00  0.00    -0.203 F 
ATOM     68  F   UNL A   1      39.523  35.382  37.205  1.00  0.00    -0.200 F 
ATOM     69  C   UNL A   1      38.218  33.550  37.923  1.00  0.00     0.200 A 
ATOM     70  F   UNL A   1      36.946  31.686  38.616  1.00  0.00    -0.200 F 
ATOM     71  F   UNL A   1      37.767  34.262  38.965  1.00  0.00    -0.200 F 
ENDBRANCH  47  61
BRANCH  48  72
ATOM     72  C   UNL A   1      42.198  26.856  27.754  1.00  0.00     0.064 A 
ATOM     73  C   UNL A   1      43.158  27.376  26.875  1.00  0.00     0.173 A 
ATOM     74  C   UNL A   1      41.675  25.585  27.474  1.00  0.00     0.173 A 
ATOM     75  F   UNL A   1      43.667  28.599  27.087  1.00  0.00    -0.203 F 
ATOM     76  C   UNL A   1      43.568  26.659  25.753  1.00  0.00     0.198 A 
ATOM     77  C   UNL A   1      42.105  24.859  26.365  1.00  0.00     0.198 A 
ATOM     78  F   UNL A   1      40.751  25.046  28.282  1.00  0.00    -0.203 F 
ATOM     79  F   UNL A   1      44.455  27.196  24.904  1.00  0.00    -0.200 F 
ATOM     80  C   UNL A   1      43.046  25.399  25.502  1.00  0.00     0.200 A 
ATOM     81  F   UNL A   1      41.603  23.638  26.132  1.00  0.00    -0.200 F 
ATOM     82  F   UNL A   1      43.442  24.709  24.423  1.00  0.00    -0.200 F 
ENDBRANCH  48  72
BRANCH  60  83
ATOM     83  C   UNL A   1      44.449  27.323  34.328  1.00  0.00     0.064 A 
ATOM     84  C   UNL A   1      45.716  27.912  34.438  1.00  0.00     0.173 A 
ATOM     85  C   UNL A   1      44.242  26.080  34.945  1.00  0.00     0.173 A 
ATOM     86  F   UNL A   1      45.965  29.093  33.853  1.00  0.00    -0.203 F 
ATOM     87  C   UNL A   1      46.746  27.267  35.116  1.00  0.00     0.198 A 
ATOM     88  C   UNL A   1      45.267  25.450  35.644  1.00  0.00     0.198 A 
ATOM     89  F   UNL A   1      43.045  25.480  34.873  1.00  0.00    -0.203 F 
ATOM     90  F   UNL A   1      47.964  27.825  35.169  1.00  0.00    -0.200 F 
ATOM     91  C   UNL A   1      46.520  26.040  35.721  1.00  0.00     0.200 A 
ATOM     92  F   UNL A   1      45.045  24.270  36.238  1.00  0.00    -0.200 F 
ATOM     93  F   UNL A   1      47.513  25.420  36.374  1.00  0.00    -0.200 F 
ENDBRANCH  60  83
ENDBRANCH  34  35
ENDBRANCH  27  29
ENDBRANCH  26  27
ENDBRANCH  25  26
ENDBRANCH  24  25
ENDBRANCH   1  24
TORSDOF 16
ENDMDL
