MODEL 1
REMARK VINA RESULT:     -13.3      0.000      0.000
REMARK SMILES CC(C)N1C(=O)C[C@@H]([N@H+]2CC[C@H](C(=O)OCCOC(=O)c3ccc(-c4c5nc(c(-c6c(F)c(F)c(F)c(F)c6F)c6ccc([nH]6)c(-c6c(F)c(F)c(F)c(F)c6F)c6nc(c(-c7c(F)c(F)c(F)c(F)c7F)c7ccc4[nH]7)C=C6)C=C5)cc3)[C@@H]2C)C1=O
REMARK SMILES IDX 16 1 15 2 13 3 14 4 12 5 9 6 10 7 84 8 11 10 85 11 8 12 4 13
REMARK SMILES IDX 5 14 86 15 6 16 7 17 87 18 2 19 1 20 3 21 17 22 18 23 19 24
REMARK SMILES IDX 20 25 21 26 22 27 83 28 23 29 82 30 24 31 25 32 26 33 76 34
REMARK SMILES IDX 27 35 81 36 75 37 77 38 28 39 80 40 74 41 73 42 29 44 61 45
REMARK SMILES IDX 41 46 60 47 42 48 45 49 59 50 78 51 43 52 44 53 58 55 79 56
REMARK SMILES IDX 46 57 30 58 31 59 39 60 32 61 33 62 37 63 40 64 34 65 35 66
REMARK SMILES IDX 38 67 36 68 62 69 63 70 71 71 64 72 65 73 69 74 72 75 66 76
REMARK SMILES IDX 67 77 70 78 68 79 47 80 48 81 56 82 49 83 50 84 54 85 57 86
REMARK SMILES IDX 51 87 52 88 55 89 53 90
REMARK H PARENT 9 9 77 43 45 54
REMARK Flexibility Score: inf
ROOT
ATOM      1  C   UNL A   1      39.007  21.447  25.989  1.00  0.00     0.274 C 
ENDROOT
BRANCH   1   2
ATOM      2  O   UNL A   1      38.098  20.849  25.012  1.00  0.00    -0.462 OA
BRANCH   2   3
ATOM      3  C   UNL A   1      36.967  21.568  24.724  1.00  0.00     0.315 C 
ATOM      4  O   UNL A   1      36.888  22.296  23.739  1.00  0.00    -0.252 OA
BRANCH   3   5
ATOM      5  C   UNL A   1      35.871  21.506  25.809  1.00  0.00     0.162 C 
ATOM      6  N   UNL A   1      33.818  22.394  25.069  1.00  0.00    -0.321 N 
ATOM      7  C   UNL A   1      34.231  23.364  26.063  1.00  0.00     0.264 C 
ATOM      8  C   UNL A   1      34.418  21.109  25.461  1.00  0.00     0.196 C 
ATOM      9  H   UNL A   1      33.650  22.256  24.072  1.00  0.00     0.349 HD
ATOM     10  C   UNL A   1      35.655  22.913  26.430  1.00  0.00     0.083 C 
ATOM     11  C   UNL A   1      34.281  19.751  24.779  1.00  0.00     0.076 C 
BRANCH   6  12
ATOM     12  C   UNL A   1      32.830  22.750  23.983  1.00  0.00     0.284 C 
ATOM     13  N   UNL A   1      32.050  25.695  23.412  1.00  0.00    -0.275 N 
ATOM     14  C   UNL A   1      33.279  25.444  22.098  1.00  0.00     0.236 C 
ATOM     15  C   UNL A   1      31.704  24.322  24.505  1.00  0.00     0.288 C 
ATOM     16  O   UNL A   1      33.595  26.413  21.404  1.00  0.00    -0.274 OA
ATOM     17  C   UNL A   1      33.876  23.328  22.376  1.00  0.00     0.176 C 
ATOM     18  O   UNL A   1      31.078  24.425  25.558  1.00  0.00    -0.267 OA
BRANCH  13  19
ATOM     19  C   UNL A   1      31.634  27.095  23.634  1.00  0.00     0.087 C 
ATOM     20  C   UNL A   1      30.137  27.308  23.681  1.00  0.00     0.031 C 
ATOM     21  C   UNL A   1      32.333  27.679  24.882  1.00  0.00     0.031 C 
ENDBRANCH  13  19
ENDBRANCH   6  12
ENDBRANCH   3   5
ENDBRANCH   2   3
ENDBRANCH   1   2
BRANCH   1  22
ATOM     22  C   UNL A   1      40.305  20.640  26.194  1.00  0.00     0.275 C 
BRANCH  22  23
ATOM     23  O   UNL A   1      41.343  21.173  25.353  1.00  0.00    -0.458 OA
BRANCH  23  24
ATOM     24  C   UNL A   1      42.449  21.687  25.950  1.00  0.00     0.338 C 
ATOM     25  O   UNL A   1      43.589  21.268  25.889  1.00  0.00    -0.246 OA
BRANCH  24  26
ATOM     26  C   UNL A   1      42.102  23.045  26.440  1.00  0.00     0.060 A 
ATOM     27  C   UNL A   1      42.811  24.221  25.559  1.00  0.00     0.016 A 
ATOM     28  C   UNL A   1      41.454  23.292  28.000  1.00  0.00     0.016 A 
ATOM     29  C   UNL A   1      43.050  25.723  26.285  1.00  0.00     0.010 A 
ATOM     30  C   UNL A   1      41.447  24.791  28.848  1.00  0.00     0.010 A 
ATOM     31  C   UNL A   1      42.316  26.165  28.139  1.00  0.00    -0.014 A 
BRANCH  31  32
ATOM     32  C   UNL A   1      42.077  27.482  29.281  1.00  0.00     0.031 A 
ATOM     33  C   UNL A   1      42.778  27.462  30.663  1.00  0.00     0.074 A 
ATOM     34  C   UNL A   1      41.162  28.512  29.307  1.00  0.00     0.049 A 
ATOM     35  N   UNL A   1      42.374  28.037  31.783  1.00  0.00    -0.248 NA
ATOM     36  C   UNL A   1      44.002  26.674  30.835  1.00  0.00     0.031 C 
ATOM     37  C   UNL A   1      40.140  28.600  28.321  1.00  0.00     0.029 A 
ATOM     38  N   UNL A   1      40.755  29.582  30.118  1.00  0.00    -0.354 N 
ATOM     39  C   UNL A   1      43.252  27.648  32.784  1.00  0.00     0.074 A 
ATOM     40  C   UNL A   1      44.178  26.725  32.153  1.00  0.00     0.031 C 
ATOM     41  C   UNL A   1      39.555  29.790  28.226  1.00  0.00     0.029 A 
ATOM     42  C   UNL A   1      39.618  30.235  29.597  1.00  0.00     0.049 A 
ATOM     43  H   UNL A   1      41.209  29.846  30.951  1.00  0.00     0.167 HD
ATOM     44  C   UNL A   1      43.306  28.042  34.088  1.00  0.00     0.037 A 
ATOM     45  C   UNL A   1      38.541  30.876  30.106  1.00  0.00     0.037 A 
ATOM     46  C   UNL A   1      42.452  29.038  34.713  1.00  0.00     0.049 A 
ATOM     47  C   UNL A   1      38.503  31.157  31.551  1.00  0.00     0.074 A 
ATOM     48  C   UNL A   1      42.607  29.631  35.961  1.00  0.00     0.029 A 
ATOM     49  N   UNL A   1      41.294  29.585  34.173  1.00  0.00    -0.354 N 
ATOM     50  N   UNL A   1      39.304  30.697  32.469  1.00  0.00    -0.248 NA
ATOM     51  C   UNL A   1      37.443  32.049  32.031  1.00  0.00     0.031 C 
ATOM     52  C   UNL A   1      41.532  30.497  36.193  1.00  0.00     0.029 A 
ATOM     53  C   UNL A   1      40.738  30.505  35.063  1.00  0.00     0.049 A 
ATOM     54  H   UNL A   1      40.922  29.356  33.292  1.00  0.00     0.167 HD
ATOM     55  C   UNL A   1      38.917  31.330  33.628  1.00  0.00     0.074 A 
ATOM     56  C   UNL A   1      37.751  32.133  33.314  1.00  0.00     0.031 C 
ATOM     57  C   UNL A   1      39.562  31.300  34.813  1.00  0.00     0.037 A 
BRANCH  44  58
ATOM     58  C   UNL A   1      44.384  27.443  34.964  1.00  0.00     0.064 A 
ATOM     59  C   UNL A   1      45.642  28.050  35.107  1.00  0.00     0.173 A 
ATOM     60  C   UNL A   1      44.118  26.313  35.758  1.00  0.00     0.173 A 
ATOM     61  F   UNL A   1      45.950  29.142  34.391  1.00  0.00    -0.203 F 
ATOM     62  C   UNL A   1      46.602  27.527  35.971  1.00  0.00     0.198 A 
ATOM     63  C   UNL A   1      45.067  25.817  36.652  1.00  0.00     0.198 A 
ATOM     64  F   UNL A   1      42.923  25.706  35.693  1.00  0.00    -0.203 F 
ATOM     65  F   UNL A   1      47.811  28.101  36.049  1.00  0.00    -0.200 F 
ATOM     66  C   UNL A   1      46.312  26.418  36.750  1.00  0.00     0.200 A 
ATOM     67  F   UNL A   1      44.773  24.763  37.425  1.00  0.00    -0.200 F 
ATOM     68  F   UNL A   1      47.230  25.930  37.595  1.00  0.00    -0.200 F 
ENDBRANCH  44  58
BRANCH  45  69
ATOM     69  C   UNL A   1      37.300  31.112  29.285  1.00  0.00     0.064 A 
ATOM     70  C   UNL A   1      36.983  32.367  28.751  1.00  0.00     0.173 A 
ATOM     71  C   UNL A   1      36.398  30.059  29.028  1.00  0.00     0.173 A 
ATOM     72  F   UNL A   1      37.780  33.416  28.995  1.00  0.00    -0.203 F 
ATOM     73  C   UNL A   1      35.816  32.564  28.005  1.00  0.00     0.198 A 
ATOM     74  C   UNL A   1      35.250  30.249  28.258  1.00  0.00     0.198 A 
ATOM     75  F   UNL A   1      36.654  28.828  29.499  1.00  0.00    -0.203 F 
ATOM     76  F   UNL A   1      35.518  33.786  27.542  1.00  0.00    -0.200 F 
ATOM     77  C   UNL A   1      34.956  31.505  27.752  1.00  0.00     0.200 A 
ATOM     78  F   UNL A   1      34.432  29.218  28.005  1.00  0.00    -0.200 F 
ATOM     79  F   UNL A   1      33.842  31.696  27.030  1.00  0.00    -0.200 F 
ENDBRANCH  45  69
BRANCH  57  80
ATOM     80  C   UNL A   1      39.111  32.324  35.805  1.00  0.00     0.064 A 
ATOM     81  C   UNL A   1      39.611  33.633  35.825  1.00  0.00     0.173 A 
ATOM     82  C   UNL A   1      38.255  31.928  36.846  1.00  0.00     0.173 A 
ATOM     83  F   UNL A   1      40.481  34.038  34.886  1.00  0.00    -0.203 F 
ATOM     84  C   UNL A   1      39.305  34.495  36.876  1.00  0.00     0.198 A 
ATOM     85  C   UNL A   1      37.924  32.803  37.873  1.00  0.00     0.198 A 
ATOM     86  F   UNL A   1      37.778  30.676  36.888  1.00  0.00    -0.203 F 
ATOM     87  F   UNL A   1      39.872  35.708  36.930  1.00  0.00    -0.200 F 
ATOM     88  C   UNL A   1      38.461  34.079  37.896  1.00  0.00     0.200 A 
ATOM     89  F   UNL A   1      37.113  32.396  38.860  1.00  0.00    -0.200 F 
ATOM     90  F   UNL A   1      38.187  34.902  38.917  1.00  0.00    -0.200 F 
ENDBRANCH  57  80
ENDBRANCH  31  32
ENDBRANCH  24  26
ENDBRANCH  23  24
ENDBRANCH  22  23
ENDBRANCH   1  22
TORSDOF 13
ENDMDL
MODEL 2
REMARK VINA RESULT:     -13.3      1.042      2.000
REMARK SMILES CC(C)N1C(=O)C[C@@H]([N@H+]2CC[C@H](C(=O)OCCOC(=O)c3ccc(-c4c5nc(c(-c6c(F)c(F)c(F)c(F)c6F)c6ccc([nH]6)c(-c6c(F)c(F)c(F)c(F)c6F)c6nc(c(-c7c(F)c(F)c(F)c(F)c7F)c7ccc4[nH]7)C=C6)C=C5)cc3)[C@@H]2C)C1=O
REMARK SMILES IDX 16 1 15 2 13 3 14 4 12 5 9 6 10 7 84 8 11 10 85 11 8 12 4 13
REMARK SMILES IDX 5 14 86 15 6 16 7 17 87 18 2 19 1 20 3 21 17 22 18 23 19 24
REMARK SMILES IDX 20 25 21 26 22 27 83 28 23 29 82 30 24 31 25 32 26 33 76 34
REMARK SMILES IDX 27 35 81 36 75 37 77 38 28 39 80 40 74 41 73 42 29 44 61 45
REMARK SMILES IDX 41 46 60 47 42 48 45 49 59 50 78 51 43 52 44 53 58 55 79 56
REMARK SMILES IDX 46 57 30 58 31 59 39 60 32 61 33 62 37 63 40 64 34 65 35 66
REMARK SMILES IDX 38 67 36 68 62 69 63 70 71 71 64 72 65 73 69 74 72 75 66 76
REMARK SMILES IDX 67 77 70 78 68 79 47 80 48 81 56 82 49 83 50 84 54 85 57 86
REMARK SMILES IDX 51 87 52 88 55 89 53 90
REMARK H PARENT 9 9 77 43 45 54
REMARK Flexibility Score: inf
ROOT
ATOM      1  C   UNL A   1      39.417  20.976  26.171  1.00  0.00     0.274 C 
ENDROOT
BRANCH   1   2
ATOM      2  O   UNL A   1      38.512  20.401  25.176  1.00  0.00    -0.462 OA
BRANCH   2   3
ATOM      3  C   UNL A   1      37.303  21.028  25.028  1.00  0.00     0.315 C 
ATOM      4  O   UNL A   1      36.239  20.463  25.266  1.00  0.00    -0.252 OA
BRANCH   3   5
ATOM      5  C   UNL A   1      37.380  22.435  24.398  1.00  0.00     0.162 C 
ATOM      6  N   UNL A   1      35.647  23.851  25.136  1.00  0.00    -0.321 N 
ATOM      7  C   UNL A   1      35.305  23.648  23.742  1.00  0.00     0.264 C 
ATOM      8  C   UNL A   1      37.108  23.705  25.235  1.00  0.00     0.196 C 
ATOM      9  H   UNL A   1      35.348  23.664  26.094  1.00  0.00     0.349 HD
ATOM     10  C   UNL A   1      36.311  22.579  23.281  1.00  0.00     0.083 C 
ATOM     11  C   UNL A   1      37.994  23.850  26.469  1.00  0.00     0.076 C 
BRANCH   6  12
ATOM     12  C   UNL A   1      34.611  24.277  26.148  1.00  0.00     0.284 C 
ATOM     13  N   UNL A   1      31.619  24.547  25.381  1.00  0.00    -0.275 N 
ATOM     14  C   UNL A   1      31.588  22.908  26.162  1.00  0.00     0.236 C 
ATOM     15  C   UNL A   1      33.187  25.406  25.306  1.00  0.00     0.288 C 
ATOM     16  O   UNL A   1      30.535  22.268  26.129  1.00  0.00    -0.274 OA
ATOM     17  C   UNL A   1      33.689  22.626  26.808  1.00  0.00     0.176 C 
ATOM     18  O   UNL A   1      33.390  26.400  24.613  1.00  0.00    -0.267 OA
BRANCH  13  19
ATOM     19  C   UNL A   1      30.400  24.920  24.635  1.00  0.00     0.087 C 
ATOM     20  C   UNL A   1      29.910  26.327  24.891  1.00  0.00     0.031 C 
ATOM     21  C   UNL A   1      30.579  24.643  23.126  1.00  0.00     0.031 C 
ENDBRANCH  13  19
ENDBRANCH   6  12
ENDBRANCH   3   5
ENDBRANCH   2   3
ENDBRANCH   1   2
BRANCH   1  22
ATOM     22  C   UNL A   1      40.827  20.355  26.150  1.00  0.00     0.275 C 
BRANCH  22  23
ATOM     23  O   UNL A   1      41.684  21.130  25.293  1.00  0.00    -0.458 OA
BRANCH  23  24
ATOM     24  C   UNL A   1      42.785  21.706  25.841  1.00  0.00     0.338 C 
ATOM     25  O   UNL A   1      43.943  21.351  25.729  1.00  0.00    -0.246 OA
BRANCH  24  26
ATOM     26  C   UNL A   1      42.385  23.043  26.347  1.00  0.00     0.060 A 
ATOM     27  C   UNL A   1      43.029  24.257  25.467  1.00  0.00     0.016 A 
ATOM     28  C   UNL A   1      41.749  23.249  27.918  1.00  0.00     0.016 A 
ATOM     29  C   UNL A   1      43.211  25.762  26.202  1.00  0.00     0.010 A 
ATOM     30  C   UNL A   1      41.687  24.739  28.778  1.00  0.00     0.010 A 
ATOM     31  C   UNL A   1      42.484  26.156  28.069  1.00  0.00    -0.014 A 
BRANCH  31  32
ATOM     32  C   UNL A   1      42.203  27.452  29.226  1.00  0.00     0.031 A 
ATOM     33  C   UNL A   1      42.907  27.442  30.606  1.00  0.00     0.074 A 
ATOM     34  C   UNL A   1      41.253  28.450  29.264  1.00  0.00     0.049 A 
ATOM     35  N   UNL A   1      42.486  27.990  31.733  1.00  0.00    -0.248 NA
ATOM     36  C   UNL A   1      44.157  26.694  30.768  1.00  0.00     0.031 C 
ATOM     37  C   UNL A   1      40.226  28.514  28.281  1.00  0.00     0.029 A 
ATOM     38  N   UNL A   1      40.812  29.497  30.088  1.00  0.00    -0.354 N 
ATOM     39  C   UNL A   1      43.379  27.620  32.729  1.00  0.00     0.074 A 
ATOM     40  C   UNL A   1      44.334  26.736  32.086  1.00  0.00     0.031 C 
ATOM     41  C   UNL A   1      39.602  29.684  28.200  1.00  0.00     0.029 A 
ATOM     42  C   UNL A   1      39.652  30.116  29.576  1.00  0.00     0.049 A 
ATOM     43  H   UNL A   1      41.258  29.768  30.922  1.00  0.00     0.167 HD
ATOM     44  C   UNL A   1      43.421  28.002  34.037  1.00  0.00     0.037 A 
ATOM     45  C   UNL A   1      38.555  30.715  30.093  1.00  0.00     0.037 A 
ATOM     46  C   UNL A   1      42.535  28.962  34.674  1.00  0.00     0.049 A 
ATOM     47  C   UNL A   1      38.511  30.979  31.541  1.00  0.00     0.074 A 
ATOM     48  C   UNL A   1      42.672  29.547  35.927  1.00  0.00     0.029 A 
ATOM     49  N   UNL A   1      41.359  29.475  34.142  1.00  0.00    -0.354 N 
ATOM     50  N   UNL A   1      39.328  30.537  32.453  1.00  0.00    -0.248 NA
ATOM     51  C   UNL A   1      37.422  31.830  32.032  1.00  0.00     0.031 C 
ATOM     52  C   UNL A   1      41.570  30.373  36.171  1.00  0.00     0.029 A 
ATOM     53  C   UNL A   1      40.773  30.366  35.043  1.00  0.00     0.049 A 
ATOM     54  H   UNL A   1      40.993  29.243  33.259  1.00  0.00     0.167 HD
ATOM     55  C   UNL A   1      38.922  31.144  33.619  1.00  0.00     0.074 A 
ATOM     56  C   UNL A   1      37.729  31.910  33.316  1.00  0.00     0.031 C 
ATOM     57  C   UNL A   1      39.571  31.123  34.803  1.00  0.00     0.037 A 
BRANCH  44  58
ATOM     58  C   UNL A   1      44.522  27.431  34.904  1.00  0.00     0.064 A 
ATOM     59  C   UNL A   1      45.764  28.070  35.037  1.00  0.00     0.173 A 
ATOM     60  C   UNL A   1      44.290  26.295  35.701  1.00  0.00     0.173 A 
ATOM     61  F   UNL A   1      46.039  29.168  34.319  1.00  0.00    -0.203 F 
ATOM     62  C   UNL A   1      46.744  27.572  35.894  1.00  0.00     0.198 A 
ATOM     63  C   UNL A   1      45.258  25.824  36.587  1.00  0.00     0.198 A 
ATOM     64  F   UNL A   1      43.110  25.658  35.645  1.00  0.00    -0.203 F 
ATOM     65  F   UNL A   1      47.939  28.175  35.962  1.00  0.00    -0.200 F 
ATOM     66  C   UNL A   1      46.488  26.456  36.676  1.00  0.00     0.200 A 
ATOM     67  F   UNL A   1      44.996  24.763  37.363  1.00  0.00    -0.200 F 
ATOM     68  F   UNL A   1      47.425  25.991  37.513  1.00  0.00    -0.200 F 
ENDBRANCH  44  58
BRANCH  45  69
ATOM     69  C   UNL A   1      37.305  30.917  29.277  1.00  0.00     0.064 A 
ATOM     70  C   UNL A   1      36.412  29.872  29.005  1.00  0.00     0.173 A 
ATOM     71  C   UNL A   1      36.989  32.184  28.747  1.00  0.00     0.173 A 
ATOM     72  F   UNL A   1      36.679  28.636  29.448  1.00  0.00    -0.203 F 
ATOM     73  C   UNL A   1      35.265  30.080  28.233  1.00  0.00     0.198 A 
ATOM     74  C   UNL A   1      35.828  32.398  28.001  1.00  0.00     0.198 A 
ATOM     75  F   UNL A   1      37.796  33.230  28.985  1.00  0.00    -0.203 F 
ATOM     76  F   UNL A   1      34.453  29.051  27.953  1.00  0.00    -0.200 F 
ATOM     77  C   UNL A   1      34.970  31.342  27.738  1.00  0.00     0.200 A 
ATOM     78  F   UNL A   1      35.543  33.623  27.540  1.00  0.00    -0.200 F 
ATOM     79  F   UNL A   1      33.866  31.540  27.004  1.00  0.00    -0.200 F 
ENDBRANCH  45  69
BRANCH  57  80
ATOM     80  C   UNL A   1      39.087  32.121  35.806  1.00  0.00     0.064 A 
ATOM     81  C   UNL A   1      39.559  33.440  35.854  1.00  0.00     0.173 A 
ATOM     82  C   UNL A   1      38.228  31.690  36.830  1.00  0.00     0.173 A 
ATOM     83  F   UNL A   1      40.431  33.878  34.932  1.00  0.00    -0.203 F 
ATOM     84  C   UNL A   1      39.224  34.277  36.915  1.00  0.00     0.198 A 
ATOM     85  C   UNL A   1      37.867  32.540  37.868  1.00  0.00     0.198 A 
ATOM     86  F   UNL A   1      37.777  30.427  36.846  1.00  0.00    -0.203 F 
ATOM     87  F   UNL A   1      39.764  35.500  36.996  1.00  0.00    -0.200 F 
ATOM     88  C   UNL A   1      38.377  33.827  37.918  1.00  0.00     0.200 A 
ATOM     89  F   UNL A   1      37.054  32.100  38.839  1.00  0.00    -0.200 F 
ATOM     90  F   UNL A   1      38.075  34.626  38.950  1.00  0.00    -0.200 F 
ENDBRANCH  57  80
ENDBRANCH  31  32
ENDBRANCH  24  26
ENDBRANCH  23  24
ENDBRANCH  22  23
ENDBRANCH   1  22
TORSDOF 13
ENDMDL
MODEL 3
REMARK VINA RESULT:     -13.0      2.619      8.389
REMARK SMILES CC(C)N1C(=O)C[C@@H]([N@H+]2CC[C@H](C(=O)OCCOC(=O)c3ccc(-c4c5nc(c(-c6c(F)c(F)c(F)c(F)c6F)c6ccc([nH]6)c(-c6c(F)c(F)c(F)c(F)c6F)c6nc(c(-c7c(F)c(F)c(F)c(F)c7F)c7ccc4[nH]7)C=C6)C=C5)cc3)[C@@H]2C)C1=O
REMARK SMILES IDX 16 1 15 2 13 3 14 4 12 5 9 6 10 7 84 8 11 10 85 11 8 12 4 13
REMARK SMILES IDX 5 14 86 15 6 16 7 17 87 18 2 19 1 20 3 21 17 22 18 23 19 24
REMARK SMILES IDX 20 25 21 26 22 27 83 28 23 29 82 30 24 31 25 32 26 33 76 34
REMARK SMILES IDX 27 35 81 36 75 37 77 38 28 39 80 40 74 41 73 42 29 44 61 45
REMARK SMILES IDX 41 46 60 47 42 48 45 49 59 50 78 51 43 52 44 53 58 55 79 56
REMARK SMILES IDX 46 57 30 58 31 59 39 60 32 61 33 62 37 63 40 64 34 65 35 66
REMARK SMILES IDX 38 67 36 68 62 69 63 70 71 71 64 72 65 73 69 74 72 75 66 76
REMARK SMILES IDX 67 77 70 78 68 79 47 80 48 81 56 82 49 83 50 84 54 85 57 86
REMARK SMILES IDX 51 87 52 88 55 89 53 90
REMARK H PARENT 9 9 77 43 45 54
REMARK Flexibility Score: inf
ROOT
ATOM      1  C   UNL A   1      31.417  27.942  25.496  1.00  0.00     0.274 C 
ENDROOT
BRANCH   1   2
ATOM      2  O   UNL A   1      32.626  27.123  25.580  1.00  0.00    -0.462 OA
BRANCH   2   3
ATOM      3  C   UNL A   1      33.049  26.552  24.408  1.00  0.00     0.315 C 
ATOM      4  O   UNL A   1      34.239  26.454  24.120  1.00  0.00    -0.252 OA
BRANCH   3   5
ATOM      5  C   UNL A   1      31.918  26.188  23.424  1.00  0.00     0.162 C 
ATOM      6  N   UNL A   1      32.410  24.266  22.154  1.00  0.00    -0.321 N 
ATOM      7  C   UNL A   1      32.445  25.312  21.152  1.00  0.00     0.264 C 
ATOM      8  C   UNL A   1      31.486  24.720  23.205  1.00  0.00     0.196 C 
ATOM      9  H   UNL A   1      32.982  23.583  22.652  1.00  0.00     0.349 HD
ATOM     10  C   UNL A   1      32.312  26.602  21.980  1.00  0.00     0.083 C 
ATOM     11  C   UNL A   1      31.063  23.989  24.476  1.00  0.00     0.076 C 
BRANCH   6  12
ATOM     12  C   UNL A   1      33.121  22.950  21.943  1.00  0.00     0.284 C 
ATOM     13  N   UNL A   1      34.251  21.325  24.330  1.00  0.00    -0.275 N 
ATOM     14  C   UNL A   1      32.691  20.432  24.063  1.00  0.00     0.236 C 
ATOM     15  C   UNL A   1      34.616  22.708  23.255  1.00  0.00     0.288 C 
ATOM     16  O   UNL A   1      32.386  19.543  24.861  1.00  0.00    -0.274 OA
ATOM     17  C   UNL A   1      31.810  21.484  22.323  1.00  0.00     0.176 C 
ATOM     18  O   UNL A   1      35.507  23.525  23.469  1.00  0.00    -0.267 OA
BRANCH  13  19
ATOM     19  C   UNL A   1      34.962  21.001  25.583  1.00  0.00     0.087 C 
ATOM     20  C   UNL A   1      36.445  20.751  25.420  1.00  0.00     0.031 C 
ATOM     21  C   UNL A   1      34.678  22.070  26.662  1.00  0.00     0.031 C 
ENDBRANCH  13  19
ENDBRANCH   6  12
ENDBRANCH   3   5
ENDBRANCH   2   3
ENDBRANCH   1   2
BRANCH   1  22
ATOM     22  C   UNL A   1      31.686  29.388  25.035  1.00  0.00     0.275 C 
BRANCH  22  23
ATOM     23  O   UNL A   1      32.780  29.940  25.788  1.00  0.00    -0.458 OA
BRANCH  23  24
ATOM     24  C   UNL A   1      32.514  30.944  26.662  1.00  0.00     0.338 C 
ATOM     25  O   UNL A   1      31.445  31.490  26.863  1.00  0.00    -0.246 OA
BRANCH  24  26
ATOM     26  C   UNL A   1      33.676  31.061  27.578  1.00  0.00     0.060 A 
ATOM     27  C   UNL A   1      34.234  32.591  27.678  1.00  0.00     0.016 A 
ATOM     28  C   UNL A   1      34.579  29.692  28.053  1.00  0.00     0.016 A 
ATOM     29  C   UNL A   1      35.839  32.823  28.135  1.00  0.00     0.010 A 
ATOM     30  C   UNL A   1      36.173  29.729  28.703  1.00  0.00     0.010 A 
ATOM     31  C   UNL A   1      37.031  31.281  28.744  1.00  0.00    -0.014 A 
BRANCH  31  32
ATOM     32  C   UNL A   1      38.594  30.909  29.463  1.00  0.00     0.031 A 
ATOM     33  C   UNL A   1      39.476  29.775  28.884  1.00  0.00     0.074 A 
ATOM     34  C   UNL A   1      39.163  31.294  30.657  1.00  0.00     0.049 A 
ATOM     35  N   UNL A   1      40.373  29.042  29.521  1.00  0.00    -0.248 NA
ATOM     36  C   UNL A   1      39.296  29.368  27.487  1.00  0.00     0.031 C 
ATOM     37  C   UNL A   1      38.433  32.085  31.588  1.00  0.00     0.029 A 
ATOM     38  N   UNL A   1      40.309  31.070  31.435  1.00  0.00    -0.354 N 
ATOM     39  C   UNL A   1      40.821  28.075  28.633  1.00  0.00     0.074 A 
ATOM     40  C   UNL A   1      40.042  28.268  27.423  1.00  0.00     0.031 C 
ATOM     41  C   UNL A   1      39.174  32.688  32.512  1.00  0.00     0.029 A 
ATOM     42  C   UNL A   1      40.234  31.722  32.683  1.00  0.00     0.049 A 
ATOM     43  H   UNL A   1      41.075  30.525  31.143  1.00  0.00     0.167 HD
ATOM     44  C   UNL A   1      41.803  27.143  28.793  1.00  0.00     0.037 A 
ATOM     45  C   UNL A   1      40.677  31.483  33.939  1.00  0.00     0.037 A 
ATOM     46  C   UNL A   1      42.660  26.998  29.957  1.00  0.00     0.049 A 
ATOM     47  C   UNL A   1      41.607  30.363  34.158  1.00  0.00     0.074 A 
ATOM     48  C   UNL A   1      43.806  26.223  30.081  1.00  0.00     0.029 A 
ATOM     49  N   UNL A   1      42.482  27.612  31.191  1.00  0.00    -0.354 N 
ATOM     50  N   UNL A   1      41.933  29.426  33.316  1.00  0.00    -0.248 NA
ATOM     51  C   UNL A   1      42.245  30.273  35.476  1.00  0.00     0.031 C 
ATOM     52  C   UNL A   1      44.295  26.332  31.387  1.00  0.00     0.029 A 
ATOM     53  C   UNL A   1      43.499  27.232  32.067  1.00  0.00     0.049 A 
ATOM     54  H   UNL A   1      41.746  28.226  31.413  1.00  0.00     0.167 HD
ATOM     55  C   UNL A   1      42.902  28.690  33.958  1.00  0.00     0.074 A 
ATOM     56  C   UNL A   1      43.042  29.233  35.295  1.00  0.00     0.031 C 
ATOM     57  C   UNL A   1      43.662  27.715  33.415  1.00  0.00     0.037 A 
BRANCH  44  58
ATOM     58  C   UNL A   1      42.080  26.204  27.639  1.00  0.00     0.064 A 
ATOM     59  C   UNL A   1      43.084  26.468  26.695  1.00  0.00     0.173 A 
ATOM     60  C   UNL A   1      41.412  24.969  27.543  1.00  0.00     0.173 A 
ATOM     61  F   UNL A   1      43.770  27.620  26.745  1.00  0.00    -0.203 F 
ATOM     62  C   UNL A   1      43.377  25.561  25.678  1.00  0.00     0.198 A 
ATOM     63  C   UNL A   1      41.736  24.046  26.549  1.00  0.00     0.198 A 
ATOM     64  F   UNL A   1      40.464  24.641  28.435  1.00  0.00    -0.203 F 
ATOM     65  F   UNL A   1      44.307  25.865  24.762  1.00  0.00    -0.200 F 
ATOM     66  C   UNL A   1      42.711  24.348  25.611  1.00  0.00     0.200 A 
ATOM     67  F   UNL A   1      41.111  22.862  26.504  1.00  0.00    -0.200 F 
ATOM     68  F   UNL A   1      43.009  23.469  24.644  1.00  0.00    -0.200 F 
ENDBRANCH  44  58
BRANCH  45  69
ATOM     69  C   UNL A   1      40.081  32.180  35.134  1.00  0.00     0.064 A 
ATOM     70  C   UNL A   1      39.038  31.621  35.884  1.00  0.00     0.173 A 
ATOM     71  C   UNL A   1      40.558  33.442  35.542  1.00  0.00     0.173 A 
ATOM     72  F   UNL A   1      38.515  30.442  35.522  1.00  0.00    -0.203 F 
ATOM     73  C   UNL A   1      38.491  32.294  36.981  1.00  0.00     0.198 A 
ATOM     74  C   UNL A   1      40.033  34.100  36.656  1.00  0.00     0.198 A 
ATOM     75  F   UNL A   1      41.567  34.024  34.875  1.00  0.00    -0.203 F 
ATOM     76  F   UNL A   1      37.465  31.753  37.653  1.00  0.00    -0.200 F 
ATOM     77  C   UNL A   1      38.993  33.528  37.371  1.00  0.00     0.200 A 
ATOM     78  F   UNL A   1      40.533  35.284  37.034  1.00  0.00    -0.200 F 
ATOM     79  F   UNL A   1      38.471  34.167  38.427  1.00  0.00    -0.200 F 
ENDBRANCH  45  69
BRANCH  57  80
ATOM     80  C   UNL A   1      44.846  27.308  34.232  1.00  0.00     0.064 A 
ATOM     81  C   UNL A   1      46.085  27.958  34.148  1.00  0.00     0.173 A 
ATOM     82  C   UNL A   1      44.762  26.145  35.015  1.00  0.00     0.173 A 
ATOM     83  F   UNL A   1      46.230  29.037  33.363  1.00  0.00    -0.203 F 
ATOM     84  C   UNL A   1      47.208  27.432  34.783  1.00  0.00     0.198 A 
ATOM     85  C   UNL A   1      45.876  25.644  35.676  1.00  0.00     0.198 A 
ATOM     86  F   UNL A   1      43.606  25.470  35.100  1.00  0.00    -0.203 F 
ATOM     87  F   UNL A   1      48.404  28.010  34.609  1.00  0.00    -0.200 F 
ATOM     88  C   UNL A   1      47.101  26.278  35.547  1.00  0.00     0.200 A 
ATOM     89  F   UNL A   1      45.771  24.527  36.409  1.00  0.00    -0.200 F 
ATOM     90  F   UNL A   1      48.187  25.762  36.138  1.00  0.00    -0.200 F 
ENDBRANCH  57  80
ENDBRANCH  31  32
ENDBRANCH  24  26
ENDBRANCH  23  24
ENDBRANCH  22  23
ENDBRANCH   1  22
TORSDOF 13
ENDMDL
