MODEL 1
REMARK VINA RESULT:     -10.5      0.000      0.000
REMARK SMILES O=C(/C=C/c1ccc(C(=O)NC2CC2)cc1)NC1(C(=O)OCCOC(=O)c2ccc(-c3c4nc(c(-c5c(F)c(F)c(F)c(F)c5F)c5ccc([nH]5)c(-c5c(F)c(F)c(F)c(F)c5F)c5nc(c(-c6c(F)c(F)c(F)c(F)c6F)c6ccc3[nH]6)C=C5)C=C4)cc2)CCCC1
REMARK SMILES IDX 21 1 19 2 20 3 18 4 90 5 93 6 91 7 92 8 17 9 1 10 2 11 3 13
REMARK SMILES IDX 4 14 5 15 6 16 16 17 7 18 15 19 8 20 9 21 10 22 11 23 12 25
REMARK SMILES IDX 13 26 14 27 22 28 23 29 24 30 25 31 26 32 27 33 28 34 89 35
REMARK SMILES IDX 29 36 88 37 30 38 31 39 32 40 82 41 33 42 87 43 81 44 83 45
REMARK SMILES IDX 34 46 86 47 80 48 79 49 35 51 67 52 47 53 66 54 48 55 51 56
REMARK SMILES IDX 65 57 84 58 49 59 50 60 64 62 85 63 52 64 36 65 37 66 45 67
REMARK SMILES IDX 38 68 39 69 43 70 46 71 40 72 41 73 44 74 42 75 68 76 69 77
REMARK SMILES IDX 77 78 70 79 71 80 75 81 78 82 72 83 73 84 76 85 74 86 53 87
REMARK SMILES IDX 54 88 62 89 55 90 56 91 60 92 63 93 57 94 58 95 61 96 59 97
REMARK H PARENT 17 12 11 24 83 50 51 61
REMARK Flexibility Score: inf
ROOT
ATOM      1  O   UNL A   1      33.651  34.514  30.603  1.00  0.00    -0.460 OA
ENDROOT
BRANCH   1   2
ATOM      2  C   UNL A   1      34.496  33.634  31.211  1.00  0.00     0.331 C 
ATOM      3  O   UNL A   1      34.413  32.417  31.083  1.00  0.00    -0.249 OA
BRANCH   2   4
ATOM      4  C   UNL A   1      35.559  34.352  32.095  1.00  0.00     0.138 C 
ATOM      5  C   UNL A   1      35.611  33.703  33.486  1.00  0.00     0.040 C 
ATOM      6  C   UNL A   1      35.196  35.811  32.428  1.00  0.00     0.040 C 
ATOM      7  C   UNL A   1      34.478  34.356  34.262  1.00  0.00     0.003 C 
ATOM      8  C   UNL A   1      34.392  35.779  33.728  1.00  0.00     0.003 C 
BRANCH   4   9
ATOM      9  N   UNL A   1      36.849  34.344  31.372  1.00  0.00    -0.337 N 
ATOM     10  O   UNL A   1      38.190  34.920  33.149  1.00  0.00    -0.270 OA
ATOM     11  C   UNL A   1      38.052  34.572  31.983  1.00  0.00     0.244 C 
ATOM     12  H   UNL A   1      36.842  34.168  30.404  1.00  0.00     0.164 HD
BRANCH  11  13
ATOM     13  C   UNL A   1      39.271  34.300  31.184  1.00  0.00     0.072 C 
ATOM     14  C   UNL A   1      40.334  33.539  31.490  1.00  0.00     0.014 C 
BRANCH  14  15
ATOM     15  C   UNL A   1      41.505  33.481  30.598  1.00  0.00    -0.025 A 
ATOM     16  C   UNL A   1      42.072  34.641  30.066  1.00  0.00     0.009 A 
ATOM     17  C   UNL A   1      42.030  32.245  30.200  1.00  0.00     0.009 A 
ATOM     18  C   UNL A   1      43.200  34.563  29.232  1.00  0.00     0.014 A 
ATOM     19  C   UNL A   1      43.117  32.169  29.333  1.00  0.00     0.014 A 
ATOM     20  C   UNL A   1      43.760  33.322  28.897  1.00  0.00     0.039 A 
BRANCH  20  21
ATOM     21  C   UNL A   1      45.016  33.298  28.096  1.00  0.00     0.251 C 
ATOM     22  O   UNL A   1      46.098  33.225  28.676  1.00  0.00    -0.269 OA
ATOM     23  N   UNL A   1      44.995  33.281  26.715  1.00  0.00    -0.349 N 
ATOM     24  H   UNL A   1      45.881  33.223  26.289  1.00  0.00     0.164 HD
BRANCH  23  25
ATOM     25  C   UNL A   1      43.898  33.332  25.811  1.00  0.00     0.082 C 
ATOM     26  C   UNL A   1      43.282  34.648  25.421  1.00  0.00     0.027 C 
ATOM     27  C   UNL A   1      44.007  33.826  24.398  1.00  0.00     0.027 C 
ENDBRANCH  23  25
ENDBRANCH  20  21
ENDBRANCH  14  15
ENDBRANCH  11  13
ENDBRANCH   4   9
ENDBRANCH   2   4
ENDBRANCH   1   2
BRANCH   1  28
ATOM     28  C   UNL A   1      33.971  34.902  29.252  1.00  0.00     0.274 C 
BRANCH  28  29
ATOM     29  C   UNL A   1      33.092  34.160  28.246  1.00  0.00     0.275 C 
BRANCH  29  30
ATOM     30  O   UNL A   1      33.896  33.374  27.347  1.00  0.00    -0.458 OA
BRANCH  30  31
ATOM     31  C   UNL A   1      33.766  32.035  27.466  1.00  0.00     0.338 C 
ATOM     32  O   UNL A   1      32.790  31.348  27.226  1.00  0.00    -0.246 OA
BRANCH  31  33
ATOM     33  C   UNL A   1      35.053  31.462  27.877  1.00  0.00     0.060 A 
ATOM     34  C   UNL A   1      35.099  30.112  28.208  1.00  0.00     0.016 A 
ATOM     35  C   UNL A   1      36.171  32.275  28.065  1.00  0.00     0.016 A 
ATOM     36  C   UNL A   1      36.248  29.586  28.790  1.00  0.00     0.010 A 
ATOM     37  C   UNL A   1      37.341  31.726  28.611  1.00  0.00     0.010 A 
ATOM     38  C   UNL A   1      37.376  30.382  29.021  1.00  0.00    -0.014 A 
BRANCH  38  39
ATOM     39  C   UNL A   1      38.541  29.833  29.778  1.00  0.00     0.031 A 
ATOM     40  C   UNL A   1      38.704  30.183  31.235  1.00  0.00     0.074 A 
ATOM     41  C   UNL A   1      39.414  28.985  29.197  1.00  0.00     0.049 A 
ATOM     42  N   UNL A   1      39.698  29.927  32.046  1.00  0.00    -0.248 NA
ATOM     43  C   UNL A   1      37.602  30.933  31.862  1.00  0.00     0.031 C 
ATOM     44  C   UNL A   1      39.297  28.473  27.833  1.00  0.00     0.029 A 
ATOM     45  N   UNL A   1      40.546  28.369  29.681  1.00  0.00    -0.354 N 
ATOM     46  C   UNL A   1      39.386  30.562  33.242  1.00  0.00     0.074 A 
ATOM     47  C   UNL A   1      38.092  31.183  33.069  1.00  0.00     0.031 C 
ATOM     48  C   UNL A   1      40.266  27.572  27.616  1.00  0.00     0.029 A 
ATOM     49  C   UNL A   1      41.144  27.510  28.782  1.00  0.00     0.049 A 
ATOM     50  H   UNL A   1      40.898  28.527  30.587  1.00  0.00     0.167 HD
ATOM     51  C   UNL A   1      40.130  30.640  34.370  1.00  0.00     0.037 A 
ATOM     52  C   UNL A   1      42.268  26.765  28.891  1.00  0.00     0.037 A 
ATOM     53  C   UNL A   1      41.374  29.943  34.565  1.00  0.00     0.049 A 
ATOM     54  C   UNL A   1      43.052  26.852  30.180  1.00  0.00     0.074 A 
ATOM     55  C   UNL A   1      42.237  29.995  35.645  1.00  0.00     0.029 A 
ATOM     56  N   UNL A   1      41.907  29.029  33.668  1.00  0.00    -0.354 N 
ATOM     57  N   UNL A   1      42.743  27.460  31.301  1.00  0.00    -0.248 NA
ATOM     58  C   UNL A   1      44.343  26.152  30.221  1.00  0.00     0.031 C 
ATOM     59  C   UNL A   1      43.318  29.148  35.380  1.00  0.00     0.029 A 
ATOM     60  C   UNL A   1      43.111  28.545  34.149  1.00  0.00     0.049 A 
ATOM     61  H   UNL A   1      41.491  28.764  32.816  1.00  0.00     0.167 HD
ATOM     62  C   UNL A   1      43.767  27.166  32.193  1.00  0.00     0.074 A 
ATOM     63  C   UNL A   1      44.691  26.300  31.492  1.00  0.00     0.031 C 
ATOM     64  C   UNL A   1      43.951  27.598  33.465  1.00  0.00     0.037 A 
BRANCH  51  65
ATOM     65  C   UNL A   1      39.672  31.581  35.446  1.00  0.00     0.064 A 
ATOM     66  C   UNL A   1      40.169  32.884  35.575  1.00  0.00     0.173 A 
ATOM     67  C   UNL A   1      38.683  31.163  36.353  1.00  0.00     0.173 A 
ATOM     68  F   UNL A   1      41.133  33.324  34.753  1.00  0.00    -0.203 F 
ATOM     69  C   UNL A   1      39.704  33.729  36.582  1.00  0.00     0.198 A 
ATOM     70  C   UNL A   1      38.202  32.018  37.340  1.00  0.00     0.198 A 
ATOM     71  F   UNL A   1      38.174  29.923  36.275  1.00  0.00    -0.203 F 
ATOM     72  F   UNL A   1      40.221  34.959  36.714  1.00  0.00    -0.200 F 
ATOM     73  C   UNL A   1      38.717  33.300  37.457  1.00  0.00     0.200 A 
ATOM     74  F   UNL A   1      37.244  31.600  38.180  1.00  0.00    -0.200 F 
ATOM     75  F   UNL A   1      38.269  34.116  38.420  1.00  0.00    -0.200 F 
ENDBRANCH  51  65
BRANCH  52  76
ATOM     76  C   UNL A   1      42.676  25.821  27.796  1.00  0.00     0.064 A 
ATOM     77  C   UNL A   1      42.166  24.512  27.742  1.00  0.00     0.173 A 
ATOM     78  C   UNL A   1      43.540  26.195  26.756  1.00  0.00     0.173 A 
ATOM     79  F   UNL A   1      41.416  24.039  28.746  1.00  0.00    -0.203 F 
ATOM     80  C   UNL A   1      42.443  23.653  26.681  1.00  0.00     0.198 A 
ATOM     81  C   UNL A   1      43.797  25.346  25.677  1.00  0.00     0.198 A 
ATOM     82  F   UNL A   1      44.118  27.406  26.762  1.00  0.00    -0.203 F 
ATOM     83  F   UNL A   1      41.931  22.414  26.678  1.00  0.00    -0.200 F 
ATOM     84  C   UNL A   1      43.242  24.078  25.636  1.00  0.00     0.200 A 
ATOM     85  F   UNL A   1      44.571  25.768  24.667  1.00  0.00    -0.200 F 
ATOM     86  F   UNL A   1      43.481  23.266  24.598  1.00  0.00    -0.200 F 
ENDBRANCH  52  76
BRANCH  64  87
ATOM     87  C   UNL A   1      45.149  27.083  34.210  1.00  0.00     0.064 A 
ATOM     88  C   UNL A   1      46.378  27.758  34.176  1.00  0.00     0.173 A 
ATOM     89  C   UNL A   1      45.048  25.940  35.018  1.00  0.00     0.173 A 
ATOM     90  F   UNL A   1      46.526  28.852  33.414  1.00  0.00    -0.203 F 
ATOM     91  C   UNL A   1      47.472  27.288  34.896  1.00  0.00     0.198 A 
ATOM     92  C   UNL A   1      46.136  25.490  35.761  1.00  0.00     0.198 A 
ATOM     93  F   UNL A   1      43.891  25.267  35.098  1.00  0.00    -0.203 F 
ATOM     94  F   UNL A   1      48.649  27.922  34.811  1.00  0.00    -0.200 F 
ATOM     95  C   UNL A   1      47.348  26.159  35.693  1.00  0.00     0.200 A 
ATOM     96  F   UNL A   1      46.014  24.409  36.542  1.00  0.00    -0.200 F 
ATOM     97  F   UNL A   1      48.402  25.714  36.392  1.00  0.00    -0.200 F 
ENDBRANCH  64  87
ENDBRANCH  38  39
ENDBRANCH  31  33
ENDBRANCH  30  31
ENDBRANCH  29  30
ENDBRANCH  28  29
ENDBRANCH   1  28
TORSDOF 16
ENDMDL
MODEL 2
REMARK VINA RESULT:     -10.0      5.418     11.744
REMARK SMILES O=C(/C=C/c1ccc(C(=O)NC2CC2)cc1)NC1(C(=O)OCCOC(=O)c2ccc(-c3c4nc(c(-c5c(F)c(F)c(F)c(F)c5F)c5ccc([nH]5)c(-c5c(F)c(F)c(F)c(F)c5F)c5nc(c(-c6c(F)c(F)c(F)c(F)c6F)c6ccc3[nH]6)C=C5)C=C4)cc2)CCCC1
REMARK SMILES IDX 21 1 19 2 20 3 18 4 90 5 93 6 91 7 92 8 17 9 1 10 2 11 3 13
REMARK SMILES IDX 4 14 5 15 6 16 16 17 7 18 15 19 8 20 9 21 10 22 11 23 12 25
REMARK SMILES IDX 13 26 14 27 22 28 23 29 24 30 25 31 26 32 27 33 28 34 89 35
REMARK SMILES IDX 29 36 88 37 30 38 31 39 32 40 82 41 33 42 87 43 81 44 83 45
REMARK SMILES IDX 34 46 86 47 80 48 79 49 35 51 67 52 47 53 66 54 48 55 51 56
REMARK SMILES IDX 65 57 84 58 49 59 50 60 64 62 85 63 52 64 36 65 37 66 45 67
REMARK SMILES IDX 38 68 39 69 43 70 46 71 40 72 41 73 44 74 42 75 68 76 69 77
REMARK SMILES IDX 77 78 70 79 71 80 75 81 78 82 72 83 73 84 76 85 74 86 53 87
REMARK SMILES IDX 54 88 62 89 55 90 56 91 60 92 63 93 57 94 58 95 61 96 59 97
REMARK H PARENT 17 12 11 24 83 50 51 61
REMARK Flexibility Score: inf
ROOT
ATOM      1  O   UNL A   1      35.466  20.996  25.448  1.00  0.00    -0.460 OA
ENDROOT
BRANCH   1   2
ATOM      2  C   UNL A   1      34.786  21.701  24.500  1.00  0.00     0.331 C 
ATOM      3  O   UNL A   1      35.333  22.346  23.612  1.00  0.00    -0.249 OA
BRANCH   2   4
ATOM      4  C   UNL A   1      33.242  21.602  24.687  1.00  0.00     0.138 C 
ATOM      5  C   UNL A   1      32.913  20.657  25.852  1.00  0.00     0.040 C 
ATOM      6  C   UNL A   1      32.523  20.927  23.504  1.00  0.00     0.040 C 
ATOM      7  C   UNL A   1      32.961  19.263  25.247  1.00  0.00     0.003 C 
ATOM      8  C   UNL A   1      32.480  19.430  23.813  1.00  0.00     0.003 C 
BRANCH   4   9
ATOM      9  N   UNL A   1      32.703  22.970  24.842  1.00  0.00    -0.337 N 
ATOM     10  O   UNL A   1      33.627  23.423  26.899  1.00  0.00    -0.270 OA
ATOM     11  C   UNL A   1      32.996  23.775  25.910  1.00  0.00     0.244 C 
ATOM     12  H   UNL A   1      32.103  23.319  24.144  1.00  0.00     0.164 HD
BRANCH  11  13
ATOM     13  C   UNL A   1      32.578  25.194  25.814  1.00  0.00     0.072 C 
ATOM     14  C   UNL A   1      33.313  26.307  25.969  1.00  0.00     0.014 C 
BRANCH  14  15
ATOM     15  C   UNL A   1      32.684  27.639  25.939  1.00  0.00    -0.025 A 
ATOM     16  C   UNL A   1      32.527  28.395  27.103  1.00  0.00     0.009 A 
ATOM     17  C   UNL A   1      32.155  28.146  24.745  1.00  0.00     0.009 A 
ATOM     18  C   UNL A   1      31.941  29.670  27.049  1.00  0.00     0.014 A 
ATOM     19  C   UNL A   1      31.530  29.389  24.704  1.00  0.00     0.014 A 
ATOM     20  C   UNL A   1      31.479  30.197  25.834  1.00  0.00     0.039 A 
BRANCH  20  21
ATOM     21  C   UNL A   1      30.962  31.594  25.812  1.00  0.00     0.251 C 
ATOM     22  O   UNL A   1      31.432  32.422  26.591  1.00  0.00    -0.269 OA
ATOM     23  N   UNL A   1      30.020  32.003  24.889  1.00  0.00    -0.349 N 
ATOM     24  H   UNL A   1      29.780  32.957  24.938  1.00  0.00     0.164 HD
BRANCH  23  25
ATOM     25  C   UNL A   1      29.342  31.267  23.879  1.00  0.00     0.082 C 
ATOM     26  C   UNL A   1      27.850  31.379  23.714  1.00  0.00     0.027 C 
ATOM     27  C   UNL A   1      28.764  31.890  22.641  1.00  0.00     0.027 C 
ENDBRANCH  23  25
ENDBRANCH  20  21
ENDBRANCH  14  15
ENDBRANCH  11  13
ENDBRANCH   4   9
ENDBRANCH   2   4
ENDBRANCH   1   2
BRANCH   1  28
ATOM     28  C   UNL A   1      36.314  19.926  24.987  1.00  0.00     0.274 C 
BRANCH  28  29
ATOM     29  C   UNL A   1      37.741  20.418  24.754  1.00  0.00     0.275 C 
BRANCH  29  30
ATOM     30  O   UNL A   1      38.111  21.399  25.740  1.00  0.00    -0.458 OA
BRANCH  30  31
ATOM     31  C   UNL A   1      39.356  21.275  26.250  1.00  0.00     0.338 C 
ATOM     32  O   UNL A   1      40.095  20.308  26.206  1.00  0.00    -0.246 OA
BRANCH  31  33
ATOM     33  C   UNL A   1      39.765  22.556  26.838  1.00  0.00     0.060 A 
ATOM     34  C   UNL A   1      39.127  23.714  26.405  1.00  0.00     0.016 A 
ATOM     35  C   UNL A   1      40.856  22.630  27.704  1.00  0.00     0.016 A 
ATOM     36  C   UNL A   1      39.624  24.955  26.791  1.00  0.00     0.010 A 
ATOM     37  C   UNL A   1      41.322  23.885  28.122  1.00  0.00     0.010 A 
ATOM     38  C   UNL A   1      40.736  25.065  27.632  1.00  0.00    -0.014 A 
BRANCH  38  39
ATOM     39  C   UNL A   1      41.337  26.403  27.912  1.00  0.00     0.031 A 
ATOM     40  C   UNL A   1      42.698  26.731  27.351  1.00  0.00     0.074 A 
ATOM     41  C   UNL A   1      40.661  27.341  28.608  1.00  0.00     0.049 A 
ATOM     42  N   UNL A   1      43.459  27.772  27.571  1.00  0.00    -0.248 NA
ATOM     43  C   UNL A   1      43.285  25.750  26.423  1.00  0.00     0.031 C 
ATOM     44  C   UNL A   1      39.293  27.190  29.097  1.00  0.00     0.029 A 
ATOM     45  N   UNL A   1      41.008  28.617  28.991  1.00  0.00    -0.354 N 
ATOM     46  C   UNL A   1      44.645  27.526  26.890  1.00  0.00     0.074 A 
ATOM     47  C   UNL A   1      44.492  26.257  26.214  1.00  0.00     0.031 C 
ATOM     48  C   UNL A   1      38.892  28.347  29.646  1.00  0.00     0.029 A 
ATOM     49  C   UNL A   1      40.003  29.296  29.648  1.00  0.00     0.049 A 
ATOM     50  H   UNL A   1      41.892  29.011  28.812  1.00  0.00     0.167 HD
ATOM     51  C   UNL A   1      45.768  28.281  26.859  1.00  0.00     0.037 A 
ATOM     52  C   UNL A   1      39.985  30.536  30.188  1.00  0.00     0.037 A 
ATOM     53  C   UNL A   1      45.880  29.584  27.459  1.00  0.00     0.049 A 
ATOM     54  C   UNL A   1      41.248  31.363  30.102  1.00  0.00     0.074 A 
ATOM     55  C   UNL A   1      46.986  30.411  27.537  1.00  0.00     0.029 A 
ATOM     56  N   UNL A   1      44.825  30.267  28.048  1.00  0.00    -0.354 N 
ATOM     57  N   UNL A   1      42.361  31.113  29.455  1.00  0.00    -0.248 NA
ATOM     58  C   UNL A   1      41.254  32.644  30.821  1.00  0.00     0.031 C 
ATOM     59  C   UNL A   1      46.613  31.576  28.215  1.00  0.00     0.029 A 
ATOM     60  C   UNL A   1      45.266  31.486  28.532  1.00  0.00     0.049 A 
ATOM     61  H   UNL A   1      43.901  29.934  28.112  1.00  0.00     0.167 HD
ATOM     62  C   UNL A   1      43.173  32.226  29.641  1.00  0.00     0.074 A 
ATOM     63  C   UNL A   1      42.409  33.166  30.434  1.00  0.00     0.031 C 
ATOM     64  C   UNL A   1      44.445  32.443  29.225  1.00  0.00     0.037 A 
BRANCH  51  65
ATOM     65  C   UNL A   1      46.997  27.682  26.238  1.00  0.00     0.064 A 
ATOM     66  C   UNL A   1      47.325  27.860  24.888  1.00  0.00     0.173 A 
ATOM     67  C   UNL A   1      47.878  26.933  27.035  1.00  0.00     0.173 A 
ATOM     68  F   UNL A   1      46.505  28.544  24.076  1.00  0.00    -0.203 F 
ATOM     69  C   UNL A   1      48.485  27.298  24.355  1.00  0.00     0.198 A 
ATOM     70  C   UNL A   1      49.048  26.396  26.506  1.00  0.00     0.198 A 
ATOM     71  F   UNL A   1      47.610  26.730  28.334  1.00  0.00    -0.203 F 
ATOM     72  F   UNL A   1      48.762  27.446  23.052  1.00  0.00    -0.200 F 
ATOM     73  C   UNL A   1      49.348  26.574  25.165  1.00  0.00     0.200 A 
ATOM     74  F   UNL A   1      49.882  25.701  27.294  1.00  0.00    -0.200 F 
ATOM     75  F   UNL A   1      50.464  26.039  24.651  1.00  0.00    -0.200 F 
ENDBRANCH  51  65
BRANCH  52  76
ATOM     76  C   UNL A   1      38.726  31.102  30.780  1.00  0.00     0.064 A 
ATOM     77  C   UNL A   1      38.428  30.931  32.143  1.00  0.00     0.173 A 
ATOM     78  C   UNL A   1      37.809  31.857  30.032  1.00  0.00     0.173 A 
ATOM     79  F   UNL A   1      39.194  30.141  32.907  1.00  0.00    -0.203 F 
ATOM     80  C   UNL A   1      37.323  31.535  32.741  1.00  0.00     0.198 A 
ATOM     81  C   UNL A   1      36.717  32.486  30.634  1.00  0.00     0.198 A 
ATOM     82  F   UNL A   1      37.986  32.018  28.713  1.00  0.00    -0.203 F 
ATOM     83  F   UNL A   1      37.085  31.341  34.045  1.00  0.00    -0.200 F 
ATOM     84  C   UNL A   1      36.480  32.331  31.990  1.00  0.00     0.200 A 
ATOM     85  F   UNL A   1      35.905  33.258  29.899  1.00  0.00    -0.200 F 
ATOM     86  F   UNL A   1      35.437  32.941  32.570  1.00  0.00    -0.200 F 
ENDBRANCH  52  76
BRANCH  64  87
ATOM     87  C   UNL A   1      45.067  33.772  29.548  1.00  0.00     0.064 A 
ATOM     88  C   UNL A   1      45.789  33.972  30.734  1.00  0.00     0.173 A 
ATOM     89  C   UNL A   1      44.995  34.833  28.633  1.00  0.00     0.173 A 
ATOM     90  F   UNL A   1      45.882  32.989  31.642  1.00  0.00    -0.203 F 
ATOM     91  C   UNL A   1      46.388  35.198  31.007  1.00  0.00     0.198 A 
ATOM     92  C   UNL A   1      45.621  36.048  28.897  1.00  0.00     0.198 A 
ATOM     93  F   UNL A   1      44.329  34.688  27.479  1.00  0.00    -0.203 F 
ATOM     94  F   UNL A   1      47.033  35.382  32.167  1.00  0.00    -0.200 F 
ATOM     95  C   UNL A   1      46.309  36.232  30.086  1.00  0.00     0.200 A 
ATOM     96  F   UNL A   1      45.558  37.043  28.002  1.00  0.00    -0.200 F 
ATOM     97  F   UNL A   1      46.894  37.410  30.350  1.00  0.00    -0.200 F 
ENDBRANCH  64  87
ENDBRANCH  38  39
ENDBRANCH  31  33
ENDBRANCH  30  31
ENDBRANCH  29  30
ENDBRANCH  28  29
ENDBRANCH   1  28
TORSDOF 16
ENDMDL
MODEL 3
REMARK VINA RESULT:      -9.9      6.196     10.819
REMARK SMILES O=C(/C=C/c1ccc(C(=O)NC2CC2)cc1)NC1(C(=O)OCCOC(=O)c2ccc(-c3c4nc(c(-c5c(F)c(F)c(F)c(F)c5F)c5ccc([nH]5)c(-c5c(F)c(F)c(F)c(F)c5F)c5nc(c(-c6c(F)c(F)c(F)c(F)c6F)c6ccc3[nH]6)C=C5)C=C4)cc2)CCCC1
REMARK SMILES IDX 21 1 19 2 20 3 18 4 90 5 93 6 91 7 92 8 17 9 1 10 2 11 3 13
REMARK SMILES IDX 4 14 5 15 6 16 16 17 7 18 15 19 8 20 9 21 10 22 11 23 12 25
REMARK SMILES IDX 13 26 14 27 22 28 23 29 24 30 25 31 26 32 27 33 28 34 89 35
REMARK SMILES IDX 29 36 88 37 30 38 31 39 32 40 82 41 33 42 87 43 81 44 83 45
REMARK SMILES IDX 34 46 86 47 80 48 79 49 35 51 67 52 47 53 66 54 48 55 51 56
REMARK SMILES IDX 65 57 84 58 49 59 50 60 64 62 85 63 52 64 36 65 37 66 45 67
REMARK SMILES IDX 38 68 39 69 43 70 46 71 40 72 41 73 44 74 42 75 68 76 69 77
REMARK SMILES IDX 77 78 70 79 71 80 75 81 78 82 72 83 73 84 76 85 74 86 53 87
REMARK SMILES IDX 54 88 62 89 55 90 56 91 60 92 63 93 57 94 58 95 61 96 59 97
REMARK H PARENT 17 12 11 24 83 50 51 61
REMARK Flexibility Score: inf
ROOT
ATOM      1  O   UNL A   1      35.029  20.473  25.282  1.00  0.00    -0.460 OA
ENDROOT
BRANCH   1   2
ATOM      2  C   UNL A   1      34.864  19.230  24.747  1.00  0.00     0.331 C 
ATOM      3  O   UNL A   1      35.777  18.422  24.614  1.00  0.00    -0.249 OA
BRANCH   2   4
ATOM      4  C   UNL A   1      33.391  18.966  24.313  1.00  0.00     0.138 C 
ATOM      5  C   UNL A   1      32.651  18.184  25.409  1.00  0.00     0.040 C 
ATOM      6  C   UNL A   1      33.268  18.026  23.100  1.00  0.00     0.040 C 
ATOM      7  C   UNL A   1      33.018  16.730  25.162  1.00  0.00     0.003 C 
ATOM      8  C   UNL A   1      33.174  16.604  23.653  1.00  0.00     0.003 C 
BRANCH   4   9
ATOM      9  N   UNL A   1      32.768  20.262  23.965  1.00  0.00    -0.337 N 
ATOM     10  O   UNL A   1      31.837  20.706  26.021  1.00  0.00    -0.270 OA
ATOM     11  C   UNL A   1      32.098  21.039  24.871  1.00  0.00     0.244 C 
ATOM     12  H   UNL A   1      32.838  20.581  23.037  1.00  0.00     0.164 HD
BRANCH  11  13
ATOM     13  C   UNL A   1      31.737  22.411  24.439  1.00  0.00     0.072 C 
ATOM     14  C   UNL A   1      31.829  22.969  23.221  1.00  0.00     0.014 C 
BRANCH  14  15
ATOM     15  C   UNL A   1      31.516  24.394  23.016  1.00  0.00    -0.025 A 
ATOM     16  C   UNL A   1      30.332  24.955  23.501  1.00  0.00     0.009 A 
ATOM     17  C   UNL A   1      32.369  25.204  22.256  1.00  0.00     0.009 A 
ATOM     18  C   UNL A   1      30.062  26.320  23.310  1.00  0.00     0.014 A 
ATOM     19  C   UNL A   1      32.073  26.544  22.025  1.00  0.00     0.014 A 
ATOM     20  C   UNL A   1      30.959  27.137  22.607  1.00  0.00     0.039 A 
BRANCH  20  21
ATOM     21  C   UNL A   1      30.678  28.597  22.522  1.00  0.00     0.251 C 
ATOM     22  O   UNL A   1      29.902  29.011  21.662  1.00  0.00    -0.269 OA
ATOM     23  N   UNL A   1      31.209  29.492  23.430  1.00  0.00    -0.349 N 
ATOM     24  H   UNL A   1      30.925  30.426  23.304  1.00  0.00     0.164 HD
BRANCH  23  25
ATOM     25  C   UNL A   1      32.100  29.279  24.518  1.00  0.00     0.082 C 
ATOM     26  C   UNL A   1      31.826  29.885  25.868  1.00  0.00     0.027 C 
ATOM     27  C   UNL A   1      31.785  28.397  25.691  1.00  0.00     0.027 C 
ENDBRANCH  23  25
ENDBRANCH  20  21
ENDBRANCH  14  15
ENDBRANCH  11  13
ENDBRANCH   4   9
ENDBRANCH   2   4
ENDBRANCH   1   2
BRANCH   1  28
ATOM     28  C   UNL A   1      35.951  21.356  24.613  1.00  0.00     0.274 C 
BRANCH  28  29
ATOM     29  C   UNL A   1      37.398  20.963  24.907  1.00  0.00     0.275 C 
BRANCH  29  30
ATOM     30  O   UNL A   1      37.884  21.643  26.079  1.00  0.00    -0.458 OA
BRANCH  30  31
ATOM     31  C   UNL A   1      39.200  21.489  26.341  1.00  0.00     0.338 C 
ATOM     32  O   UNL A   1      39.904  20.519  26.122  1.00  0.00    -0.246 OA
BRANCH  31  33
ATOM     33  C   UNL A   1      39.732  22.742  26.890  1.00  0.00     0.060 A 
ATOM     34  C   UNL A   1      39.149  23.939  26.486  1.00  0.00     0.016 A 
ATOM     35  C   UNL A   1      40.876  22.745  27.688  1.00  0.00     0.016 A 
ATOM     36  C   UNL A   1      39.753  25.145  26.828  1.00  0.00     0.010 A 
ATOM     37  C   UNL A   1      41.452  23.967  28.065  1.00  0.00     0.010 A 
ATOM     38  C   UNL A   1      40.919  25.182  27.600  1.00  0.00    -0.014 A 
BRANCH  38  39
ATOM     39  C   UNL A   1      41.627  26.477  27.830  1.00  0.00     0.031 A 
ATOM     40  C   UNL A   1      40.990  27.516  28.718  1.00  0.00     0.074 A 
ATOM     41  C   UNL A   1      42.848  26.710  27.306  1.00  0.00     0.049 A 
ATOM     42  N   UNL A   1      41.359  28.749  28.952  1.00  0.00    -0.248 NA
ATOM     43  C   UNL A   1      39.766  27.117  29.432  1.00  0.00     0.031 C 
ATOM     44  C   UNL A   1      43.621  25.739  26.534  1.00  0.00     0.029 A 
ATOM     45  N   UNL A   1      43.674  27.809  27.371  1.00  0.00    -0.354 N 
ATOM     46  C   UNL A   1      40.368  29.296  29.758  1.00  0.00     0.074 A 
ATOM     47  C   UNL A   1      39.399  28.253  30.008  1.00  0.00     0.031 C 
ATOM     48  C   UNL A   1      44.829  26.255  26.262  1.00  0.00     0.029 A 
ATOM     49  C   UNL A   1      44.890  27.633  26.745  1.00  0.00     0.049 A 
ATOM     50  H   UNL A   1      43.420  28.646  27.824  1.00  0.00     0.167 HD
ATOM     51  C   UNL A   1      40.267  30.565  30.219  1.00  0.00     0.037 A 
ATOM     52  C   UNL A   1      45.928  28.485  26.581  1.00  0.00     0.037 A 
ATOM     53  C   UNL A   1      41.280  31.571  30.042  1.00  0.00     0.049 A 
ATOM     54  C   UNL A   1      45.790  29.882  27.142  1.00  0.00     0.074 A 
ATOM     55  C   UNL A   1      41.256  32.902  30.419  1.00  0.00     0.029 A 
ATOM     56  N   UNL A   1      42.523  31.337  29.472  1.00  0.00    -0.354 N 
ATOM     57  N   UNL A   1      44.844  30.383  27.900  1.00  0.00    -0.248 NA
ATOM     58  C   UNL A   1      46.864  30.834  26.826  1.00  0.00     0.031 C 
ATOM     59  C   UNL A   1      42.467  33.485  30.033  1.00  0.00     0.029 A 
ATOM     60  C   UNL A   1      43.257  32.510  29.445  1.00  0.00     0.049 A 
ATOM     61  H   UNL A   1      42.837  30.466  29.136  1.00  0.00     0.167 HD
ATOM     62  C   UNL A   1      45.236  31.683  28.197  1.00  0.00     0.074 A 
ATOM     63  C   UNL A   1      46.523  31.881  27.563  1.00  0.00     0.031 C 
ATOM     64  C   UNL A   1      44.582  32.641  28.900  1.00  0.00     0.037 A 
BRANCH  51  65
ATOM     65  C   UNL A   1      38.980  30.968  30.879  1.00  0.00     0.064 A 
ATOM     66  C   UNL A   1      38.803  30.951  32.268  1.00  0.00     0.173 A 
ATOM     67  C   UNL A   1      37.907  31.410  30.086  1.00  0.00     0.173 A 
ATOM     68  F   UNL A   1      39.785  30.512  33.070  1.00  0.00    -0.203 F 
ATOM     69  C   UNL A   1      37.595  31.348  32.839  1.00  0.00     0.198 A 
ATOM     70  C   UNL A   1      36.711  31.831  30.661  1.00  0.00     0.198 A 
ATOM     71  F   UNL A   1      38.023  31.444  28.749  1.00  0.00    -0.203 F 
ATOM     72  F   UNL A   1      37.431  31.286  34.168  1.00  0.00    -0.200 F 
ATOM     73  C   UNL A   1      36.554  31.794  32.037  1.00  0.00     0.200 A 
ATOM     74  F   UNL A   1      35.711  32.266  29.882  1.00  0.00    -0.200 F 
ATOM     75  F   UNL A   1      35.396  32.180  32.589  1.00  0.00    -0.200 F 
ENDBRANCH  51  65
BRANCH  52  76
ATOM     76  C   UNL A   1      47.204  28.031  25.934  1.00  0.00     0.064 A 
ATOM     77  C   UNL A   1      48.332  27.708  26.708  1.00  0.00     0.173 A 
ATOM     78  C   UNL A   1      47.333  27.863  24.546  1.00  0.00     0.173 A 
ATOM     79  F   UNL A   1      48.332  27.933  28.028  1.00  0.00    -0.203 F 
ATOM     80  C   UNL A   1      49.492  27.182  26.142  1.00  0.00     0.198 A 
ATOM     81  C   UNL A   1      48.484  27.310  23.980  1.00  0.00     0.198 A 
ATOM     82  F   UNL A   1      46.325  28.205  23.730  1.00  0.00    -0.203 F 
ATOM     83  F   UNL A   1      50.539  26.889  26.926  1.00  0.00    -0.200 F 
ATOM     84  C   UNL A   1      49.560  26.962  24.779  1.00  0.00     0.200 A 
ATOM     85  F   UNL A   1      48.539  27.099  22.658  1.00  0.00    -0.200 F 
ATOM     86  F   UNL A   1      50.661  26.424  24.237  1.00  0.00    -0.200 F 
ENDBRANCH  52  76
BRANCH  64  87
ATOM     87  C   UNL A   1      45.273  33.960  29.090  1.00  0.00     0.064 A 
ATOM     88  C   UNL A   1      46.059  34.218  30.222  1.00  0.00     0.173 A 
ATOM     89  C   UNL A   1      45.202  34.950  28.098  1.00  0.00     0.173 A 
ATOM     90  F   UNL A   1      46.154  33.305  31.200  1.00  0.00    -0.203 F 
ATOM     91  C   UNL A   1      46.721  35.434  30.372  1.00  0.00     0.198 A 
ATOM     92  C   UNL A   1      45.890  36.153  28.237  1.00  0.00     0.198 A 
ATOM     93  F   UNL A   1      44.476  34.748  26.989  1.00  0.00    -0.203 F 
ATOM     94  F   UNL A   1      47.427  35.677  31.484  1.00  0.00    -0.200 F 
ATOM     95  C   UNL A   1      46.641  36.397  29.377  1.00  0.00     0.200 A 
ATOM     96  F   UNL A   1      45.825  37.078  27.270  1.00  0.00    -0.200 F 
ATOM     97  F   UNL A   1      47.286  37.563  29.520  1.00  0.00    -0.200 F 
ENDBRANCH  64  87
ENDBRANCH  38  39
ENDBRANCH  31  33
ENDBRANCH  30  31
ENDBRANCH  29  30
ENDBRANCH  28  29
ENDBRANCH   1  28
TORSDOF 16
ENDMDL
