MODEL 1
REMARK VINA RESULT:     -12.1      0.000      0.000
REMARK SMILES CC(C)C[NH2+][C@@H](CC(=O)Nc1cccc(Cl)c1)C(=O)OCCOC(=O)c1ccc(-c2c3nc(c(-c4c(F)c(F)c(F)c(F)c4F)c4ccc([nH]4)c(-c4c(F)c(F)c(F)c(F)c4F)c4nc(c(-c5c(F)c(F)c(F)c(F)c5F)c5ccc2[nH]5)C=C4)C=C3)cc1
REMARK SMILES IDX 21 1 20 2 18 3 19 4 6 5 5 6 4 9 2 10 1 11 3 12 7 13 8 14
REMARK SMILES IDX 9 15 10 16 11 18 12 19 17 20 13 21 15 22 14 23 16 24 22 25
REMARK SMILES IDX 23 26 24 27 25 28 26 29 27 30 88 31 28 32 87 33 29 34 30 35
REMARK SMILES IDX 31 36 81 37 32 38 86 39 80 40 82 41 33 42 85 43 79 44 78 45
REMARK SMILES IDX 34 47 66 48 46 49 65 50 47 51 50 52 64 53 83 54 48 55 49 56
REMARK SMILES IDX 63 58 84 59 51 60 35 61 36 62 44 63 37 64 38 65 42 66 45 67
REMARK SMILES IDX 39 68 40 69 43 70 41 71 67 72 68 73 76 74 69 75 70 76 74 77
REMARK SMILES IDX 77 78 71 79 72 80 75 81 73 82 52 83 53 84 61 85 54 86 55 87
REMARK SMILES IDX 59 88 62 89 56 90 57 91 60 92 58 93
REMARK H PARENT 5 7 5 8 10 17 82 46 50 57
REMARK Flexibility Score: inf
ROOT
ATOM      1  C   UNL A   1      35.366  21.141  25.578  1.00  0.00     0.274 C 
ENDROOT
BRANCH   1   2
ATOM      2  O   UNL A   1      35.332  22.484  26.101  1.00  0.00    -0.458 OA
BRANCH   2   3
ATOM      3  C   UNL A   1      34.229  22.824  26.829  1.00  0.00     0.365 C 
ATOM      4  O   UNL A   1      33.860  22.252  27.848  1.00  0.00    -0.245 OA
BRANCH   3   5
ATOM      5  C   UNL A   1      33.483  24.028  26.217  1.00  0.00     0.302 C 
BRANCH   5   6
ATOM      6  N   UNL A   1      34.360  24.795  25.329  1.00  0.00    -0.334 N 
ATOM      7  H   UNL A   1      34.429  25.735  25.716  1.00  0.00     0.347 HD
ATOM      8  H   UNL A   1      35.221  24.248  25.304  1.00  0.00     0.347 HD
BRANCH   6   9
ATOM      9  C   UNL A   1      33.998  24.935  23.931  1.00  0.00     0.264 C 
BRANCH   9  10
ATOM     10  C   UNL A   1      33.341  26.425  23.198  1.00  0.00     0.038 C 
ATOM     11  C   UNL A   1      34.157  28.449  23.070  1.00  0.00     0.013 C 
ATOM     12  C   UNL A   1      32.606  25.458  21.911  1.00  0.00     0.013 C 
ENDBRANCH   9  10
ENDBRANCH   6   9
ENDBRANCH   5   6
BRANCH   5  13
ATOM     13  C   UNL A   1      32.119  23.589  25.702  1.00  0.00     0.177 C 
BRANCH  13  14
ATOM     14  C   UNL A   1      30.943  23.981  26.563  1.00  0.00     0.231 C 
ATOM     15  O   UNL A   1      30.505  23.185  27.400  1.00  0.00    -0.274 OA
ATOM     16  N   UNL A   1      30.372  25.212  26.481  1.00  0.00    -0.326 N 
ATOM     17  H   UNL A   1      29.657  25.388  27.135  1.00  0.00     0.169 HD
BRANCH  16  18
ATOM     18  C   UNL A   1      30.652  26.266  25.604  1.00  0.00     0.042 A 
ATOM     19  C   UNL A   1      29.679  26.413  24.083  1.00  0.00     0.026 A 
ATOM     20  C   UNL A   1      31.565  27.685  26.234  1.00  0.00     0.046 A 
ATOM     21  C   UNL A   1      29.573  27.990  23.214  1.00  0.00     0.004 A 
ATOM     22  C   UNL A   1      31.414  29.268  25.392  1.00  0.00     0.043 A 
ATOM     23  C   UNL A   1      30.485  29.408  23.840  1.00  0.00     0.020 A 
ATOM     24  Cl  UNL A   1      32.021  30.694  26.150  1.00  0.00    -0.084 Cl
ENDBRANCH  16  18
ENDBRANCH  13  14
ENDBRANCH   5  13
ENDBRANCH   3   5
ENDBRANCH   2   3
ENDBRANCH   1   2
BRANCH   1  25
ATOM     25  C   UNL A   1      36.756  20.768  25.056  1.00  0.00     0.275 C 
BRANCH  25  26
ATOM     26  O   UNL A   1      37.694  21.844  25.240  1.00  0.00    -0.458 OA
BRANCH  26  27
ATOM     27  C   UNL A   1      38.797  21.497  25.941  1.00  0.00     0.338 C 
ATOM     28  O   UNL A   1      39.360  20.414  25.945  1.00  0.00    -0.246 OA
BRANCH  27  29
ATOM     29  C   UNL A   1      39.375  22.665  26.614  1.00  0.00     0.060 A 
ATOM     30  C   UNL A   1      38.910  23.913  26.207  1.00  0.00     0.016 A 
ATOM     31  C   UNL A   1      40.452  22.567  27.492  1.00  0.00     0.016 A 
ATOM     32  C   UNL A   1      39.550  25.070  26.604  1.00  0.00     0.010 A 
ATOM     33  C   UNL A   1      41.070  23.742  27.941  1.00  0.00     0.010 A 
ATOM     34  C   UNL A   1      40.639  24.999  27.476  1.00  0.00    -0.014 A 
BRANCH  34  35
ATOM     35  C   UNL A   1      41.316  26.265  27.836  1.00  0.00     0.031 A 
ATOM     36  C   UNL A   1      42.717  26.532  27.371  1.00  0.00     0.074 A 
ATOM     37  C   UNL A   1      40.619  27.213  28.491  1.00  0.00     0.049 A 
ATOM     38  N   UNL A   1      43.464  27.590  27.561  1.00  0.00    -0.248 NA
ATOM     39  C   UNL A   1      43.367  25.470  26.590  1.00  0.00     0.031 C 
ATOM     40  C   UNL A   1      39.231  27.077  28.941  1.00  0.00     0.029 A 
ATOM     41  N   UNL A   1      40.969  28.482  28.872  1.00  0.00    -0.354 N 
ATOM     42  C   UNL A   1      44.675  27.314  26.942  1.00  0.00     0.074 A 
ATOM     43  C   UNL A   1      44.577  25.977  26.396  1.00  0.00     0.031 C 
ATOM     44  C   UNL A   1      38.839  28.227  29.507  1.00  0.00     0.029 A 
ATOM     45  C   UNL A   1      39.963  29.155  29.518  1.00  0.00     0.049 A 
ATOM     46  H   UNL A   1      41.856  28.872  28.697  1.00  0.00     0.167 HD
ATOM     47  C   UNL A   1      45.766  28.111  26.837  1.00  0.00     0.037 A 
ATOM     48  C   UNL A   1      39.958  30.377  30.081  1.00  0.00     0.037 A 
ATOM     49  C   UNL A   1      45.845  29.444  27.378  1.00  0.00     0.049 A 
ATOM     50  C   UNL A   1      41.205  31.214  30.001  1.00  0.00     0.074 A 
ATOM     51  C   UNL A   1      46.901  30.338  27.325  1.00  0.00     0.029 A 
ATOM     52  N   UNL A   1      44.825  30.077  28.078  1.00  0.00    -0.354 N 
ATOM     53  N   UNL A   1      42.349  30.945  29.417  1.00  0.00    -0.248 NA
ATOM     54  C   UNL A   1      41.157  32.528  30.654  1.00  0.00     0.031 C 
ATOM     55  C   UNL A   1      46.545  31.482  28.047  1.00  0.00     0.029 A 
ATOM     56  C   UNL A   1      45.238  31.336  28.485  1.00  0.00     0.049 A 
ATOM     57  H   UNL A   1      43.939  29.687  28.259  1.00  0.00     0.167 HD
ATOM     58  C   UNL A   1      43.146  32.065  29.607  1.00  0.00     0.074 A 
ATOM     59  C   UNL A   1      42.344  33.025  30.338  1.00  0.00     0.031 C 
ATOM     60  C   UNL A   1      44.426  32.280  29.212  1.00  0.00     0.037 A 
BRANCH  47  61
ATOM     61  C   UNL A   1      46.977  27.545  26.148  1.00  0.00     0.064 A 
ATOM     62  C   UNL A   1      47.184  27.685  24.767  1.00  0.00     0.173 A 
ATOM     63  C   UNL A   1      47.961  26.874  26.890  1.00  0.00     0.173 A 
ATOM     64  F   UNL A   1      46.269  28.305  24.006  1.00  0.00    -0.203 F 
ATOM     65  C   UNL A   1      48.312  27.148  24.152  1.00  0.00     0.198 A 
ATOM     66  C   UNL A   1      49.105  26.369  26.278  1.00  0.00     0.198 A 
ATOM     67  F   UNL A   1      47.819  26.713  28.214  1.00  0.00    -0.203 F 
ATOM     68  F   UNL A   1      48.460  27.245  22.823  1.00  0.00    -0.200 F 
ATOM     69  C   UNL A   1      49.276  26.497  24.908  1.00  0.00     0.200 A 
ATOM     70  F   UNL A   1      50.042  25.754  27.014  1.00  0.00    -0.200 F 
ATOM     71  F   UNL A   1      50.364  25.988  24.316  1.00  0.00    -0.200 F 
ENDBRANCH  47  61
BRANCH  48  72
ATOM     72  C   UNL A   1      38.742  30.870  30.781  1.00  0.00     0.064 A 
ATOM     73  C   UNL A   1      38.602  30.747  32.170  1.00  0.00     0.173 A 
ATOM     74  C   UNL A   1      37.687  31.464  30.071  1.00  0.00     0.173 A 
ATOM     75  F   UNL A   1      39.573  30.167  32.892  1.00  0.00    -0.203 F 
ATOM     76  C   UNL A   1      37.443  31.172  32.818  1.00  0.00     0.198 A 
ATOM     77  C   UNL A   1      36.547  31.925  30.724  1.00  0.00     0.198 A 
ATOM     78  F   UNL A   1      37.771  31.610  28.740  1.00  0.00    -0.203 F 
ATOM     79  F   UNL A   1      37.311  30.988  34.138  1.00  0.00    -0.200 F 
ATOM     80  C   UNL A   1      36.420  31.767  32.094  1.00  0.00     0.200 A 
ATOM     81  F   UNL A   1      35.569  32.515  30.022  1.00  0.00    -0.200 F 
ATOM     82  F   UNL A   1      35.308  32.179  32.718  1.00  0.00    -0.200 F 
ENDBRANCH  48  72
BRANCH  60  83
ATOM     83  C   UNL A   1      45.015  33.629  29.523  1.00  0.00     0.064 A 
ATOM     84  C   UNL A   1      45.720  33.878  30.710  1.00  0.00     0.173 A 
ATOM     85  C   UNL A   1      44.866  34.690  28.616  1.00  0.00     0.173 A 
ATOM     86  F   UNL A   1      45.882  32.902  31.617  1.00  0.00    -0.203 F 
ATOM     87  C   UNL A   1      46.207  35.150  31.001  1.00  0.00     0.198 A 
ATOM     88  C   UNL A   1      45.391  35.950  28.892  1.00  0.00     0.198 A 
ATOM     89  F   UNL A   1      44.211  34.507  27.461  1.00  0.00    -0.203 F 
ATOM     90  F   UNL A   1      46.808  35.382  32.177  1.00  0.00    -0.200 F 
ATOM     91  C   UNL A   1      46.047  36.182  30.090  1.00  0.00     0.200 A 
ATOM     92  F   UNL A   1      45.252  36.941  28.001  1.00  0.00    -0.200 F 
ATOM     93  F   UNL A   1      46.513  37.407  30.374  1.00  0.00    -0.200 F 
ENDBRANCH  60  83
ENDBRANCH  34  35
ENDBRANCH  27  29
ENDBRANCH  26  27
ENDBRANCH  25  26
ENDBRANCH   1  25
TORSDOF 17
ENDMDL
MODEL 2
REMARK VINA RESULT:     -11.7      4.527      9.679
REMARK SMILES CC(C)C[NH2+][C@@H](CC(=O)Nc1cccc(Cl)c1)C(=O)OCCOC(=O)c1ccc(-c2c3nc(c(-c4c(F)c(F)c(F)c(F)c4F)c4ccc([nH]4)c(-c4c(F)c(F)c(F)c(F)c4F)c4nc(c(-c5c(F)c(F)c(F)c(F)c5F)c5ccc2[nH]5)C=C4)C=C3)cc1
REMARK SMILES IDX 21 1 20 2 18 3 19 4 6 5 5 6 4 9 2 10 1 11 3 12 7 13 8 14
REMARK SMILES IDX 9 15 10 16 11 18 12 19 17 20 13 21 15 22 14 23 16 24 22 25
REMARK SMILES IDX 23 26 24 27 25 28 26 29 27 30 88 31 28 32 87 33 29 34 30 35
REMARK SMILES IDX 31 36 81 37 32 38 86 39 80 40 82 41 33 42 85 43 79 44 78 45
REMARK SMILES IDX 34 47 66 48 46 49 65 50 47 51 50 52 64 53 83 54 48 55 49 56
REMARK SMILES IDX 63 58 84 59 51 60 35 61 36 62 44 63 37 64 38 65 42 66 45 67
REMARK SMILES IDX 39 68 40 69 43 70 41 71 67 72 68 73 76 74 69 75 70 76 74 77
REMARK SMILES IDX 77 78 71 79 72 80 75 81 73 82 52 83 53 84 61 85 54 86 55 87
REMARK SMILES IDX 59 88 62 89 56 90 57 91 60 92 58 93
REMARK H PARENT 5 7 5 8 10 17 82 46 50 57
REMARK Flexibility Score: inf
ROOT
ATOM      1  C   UNL A   1      31.776  29.085  25.720  1.00  0.00     0.274 C 
ENDROOT
BRANCH   1   2
ATOM      2  O   UNL A   1      30.867  29.088  24.601  1.00  0.00    -0.458 OA
BRANCH   2   3
ATOM      3  C   UNL A   1      30.573  27.872  24.054  1.00  0.00     0.365 C 
ATOM      4  O   UNL A   1      30.275  26.870  24.695  1.00  0.00    -0.245 OA
BRANCH   3   5
ATOM      5  C   UNL A   1      30.662  27.896  22.514  1.00  0.00     0.302 C 
BRANCH   5   6
ATOM      6  N   UNL A   1      30.851  29.261  22.019  1.00  0.00    -0.334 N 
ATOM      7  H   UNL A   1      31.399  29.760  22.719  1.00  0.00     0.347 HD
ATOM      8  H   UNL A   1      31.287  29.132  21.105  1.00  0.00     0.347 HD
BRANCH   6   9
ATOM      9  C   UNL A   1      29.683  30.074  21.733  1.00  0.00     0.264 C 
BRANCH   9  10
ATOM     10  C   UNL A   1      28.916  31.190  22.897  1.00  0.00     0.038 C 
ATOM     11  C   UNL A   1      28.942  33.372  23.031  1.00  0.00     0.013 C 
ATOM     12  C   UNL A   1      27.524  30.103  23.008  1.00  0.00     0.013 C 
ENDBRANCH   9  10
ENDBRANCH   6   9
ENDBRANCH   5   6
BRANCH   5  13
ATOM     13  C   UNL A   1      31.603  26.801  22.029  1.00  0.00     0.177 C 
BRANCH  13  14
ATOM     14  C   UNL A   1      33.023  26.895  22.533  1.00  0.00     0.231 C 
ATOM     15  O   UNL A   1      33.717  27.870  22.231  1.00  0.00    -0.274 OA
ATOM     16  N   UNL A   1      33.555  25.954  23.358  1.00  0.00    -0.326 N 
ATOM     17  H   UNL A   1      34.464  26.146  23.684  1.00  0.00     0.169 HD
BRANCH  16  18
ATOM     18  C   UNL A   1      33.000  24.751  23.812  1.00  0.00     0.042 A 
ATOM     19  C   UNL A   1      32.855  23.368  22.652  1.00  0.00     0.026 A 
ATOM     20  C   UNL A   1      32.938  24.454  25.587  1.00  0.00     0.046 A 
ATOM     21  C   UNL A   1      32.699  21.676  23.261  1.00  0.00     0.004 A 
ATOM     22  C   UNL A   1      32.835  22.760  26.188  1.00  0.00     0.043 A 
ATOM     23  C   UNL A   1      32.636  21.377  25.032  1.00  0.00     0.020 A 
ATOM     24  Cl  UNL A   1      33.088  22.438  27.864  1.00  0.00    -0.084 Cl
ENDBRANCH  16  18
ENDBRANCH  13  14
ENDBRANCH   5  13
ENDBRANCH   3   5
ENDBRANCH   2   3
ENDBRANCH   1   2
BRANCH   1  25
ATOM     25  C   UNL A   1      32.366  30.473  25.978  1.00  0.00     0.275 C 
BRANCH  25  26
ATOM     26  O   UNL A   1      32.845  30.599  27.329  1.00  0.00    -0.458 OA
BRANCH  26  27
ATOM     27  C   UNL A   1      33.589  31.706  27.547  1.00  0.00     0.338 C 
ATOM     28  O   UNL A   1      33.209  32.867  27.535  1.00  0.00    -0.246 OA
BRANCH  27  29
ATOM     29  C   UNL A   1      34.943  31.348  27.980  1.00  0.00     0.060 A 
ATOM     30  C   UNL A   1      35.127  30.045  28.436  1.00  0.00     0.016 A 
ATOM     31  C   UNL A   1      35.966  32.286  28.100  1.00  0.00     0.016 A 
ATOM     32  C   UNL A   1      36.293  29.679  29.080  1.00  0.00     0.010 A 
ATOM     33  C   UNL A   1      37.171  31.903  28.704  1.00  0.00     0.010 A 
ATOM     34  C   UNL A   1      37.329  30.604  29.222  1.00  0.00    -0.014 A 
BRANCH  34  35
ATOM     35  C   UNL A   1      38.540  30.173  29.958  1.00  0.00     0.031 A 
ATOM     36  C   UNL A   1      38.766  30.624  31.370  1.00  0.00     0.074 A 
ATOM     37  C   UNL A   1      39.374  29.290  29.378  1.00  0.00     0.049 A 
ATOM     38  N   UNL A   1      39.747  30.331  32.185  1.00  0.00    -0.248 NA
ATOM     39  C   UNL A   1      37.755  31.523  31.947  1.00  0.00     0.031 C 
ATOM     40  C   UNL A   1      39.216  28.744  28.028  1.00  0.00     0.029 A 
ATOM     41  N   UNL A   1      40.503  28.676  29.855  1.00  0.00    -0.354 N 
ATOM     42  C   UNL A   1      39.485  31.024  33.358  1.00  0.00     0.074 A 
ATOM     43  C   UNL A   1      38.268  31.776  33.143  1.00  0.00     0.031 C 
ATOM     44  C   UNL A   1      40.192  27.855  27.797  1.00  0.00     0.029 A 
ATOM     45  C   UNL A   1      41.078  27.815  28.954  1.00  0.00     0.049 A 
ATOM     46  H   UNL A   1      40.864  28.837  30.757  1.00  0.00     0.167 HD
ATOM     47  C   UNL A   1      40.196  31.023  34.511  1.00  0.00     0.037 A 
ATOM     48  C   UNL A   1      42.210  27.094  29.044  1.00  0.00     0.037 A 
ATOM     49  C   UNL A   1      41.402  30.260  34.714  1.00  0.00     0.049 A 
ATOM     50  C   UNL A   1      43.011  27.162  30.315  1.00  0.00     0.074 A 
ATOM     51  C   UNL A   1      42.198  30.185  35.845  1.00  0.00     0.029 A 
ATOM     52  N   UNL A   1      41.990  29.440  33.760  1.00  0.00    -0.354 N 
ATOM     53  N   UNL A   1      42.759  27.823  31.420  1.00  0.00    -0.248 NA
ATOM     54  C   UNL A   1      44.252  26.379  30.352  1.00  0.00     0.031 C 
ATOM     55  C   UNL A   1      43.300  29.374  35.552  1.00  0.00     0.029 A 
ATOM     56  C   UNL A   1      43.152  28.879  34.267  1.00  0.00     0.049 A 
ATOM     57  H   UNL A   1      41.634  29.282  32.856  1.00  0.00     0.167 HD
ATOM     58  C   UNL A   1      43.792  27.513  32.294  1.00  0.00     0.074 A 
ATOM     59  C   UNL A   1      44.659  26.585  31.596  1.00  0.00     0.031 C 
ATOM     60  C   UNL A   1      44.004  27.955  33.558  1.00  0.00     0.037 A 
BRANCH  47  61
ATOM     61  C   UNL A   1      39.713  31.908  35.628  1.00  0.00     0.064 A 
ATOM     62  C   UNL A   1      40.216  33.203  35.826  1.00  0.00     0.173 A 
ATOM     63  C   UNL A   1      38.708  31.458  36.498  1.00  0.00     0.173 A 
ATOM     64  F   UNL A   1      41.187  33.679  35.032  1.00  0.00    -0.203 F 
ATOM     65  C   UNL A   1      39.754  34.001  36.871  1.00  0.00     0.198 A 
ATOM     66  C   UNL A   1      38.224  32.270  37.520  1.00  0.00     0.198 A 
ATOM     67  F   UNL A   1      38.187  30.230  36.355  1.00  0.00    -0.203 F 
ATOM     68  F   UNL A   1      40.289  35.212  37.074  1.00  0.00    -0.200 F 
ATOM     69  C   UNL A   1      38.753  33.537  37.712  1.00  0.00     0.200 A 
ATOM     70  F   UNL A   1      37.245  31.826  38.322  1.00  0.00    -0.200 F 
ATOM     71  F   UNL A   1      38.305  34.308  38.711  1.00  0.00    -0.200 F 
ENDBRANCH  47  61
BRANCH  48  72
ATOM     72  C   UNL A   1      42.659  26.265  27.894  1.00  0.00     0.064 A 
ATOM     73  C   UNL A   1      43.536  26.774  26.928  1.00  0.00     0.173 A 
ATOM     74  C   UNL A   1      42.206  24.946  27.731  1.00  0.00     0.173 A 
ATOM     75  F   UNL A   1      43.982  28.036  27.027  1.00  0.00    -0.203 F 
ATOM     76  C   UNL A   1      43.922  26.009  25.829  1.00  0.00     0.198 A 
ATOM     77  C   UNL A   1      42.622  24.169  26.653  1.00  0.00     0.198 A 
ATOM     78  F   UNL A   1      41.367  24.408  28.627  1.00  0.00    -0.203 F 
ATOM     79  F   UNL A   1      44.715  26.540  24.890  1.00  0.00    -0.200 F 
ATOM     80  C   UNL A   1      43.469  24.704  25.697  1.00  0.00     0.200 A 
ATOM     81  F   UNL A   1      42.196  22.903  26.540  1.00  0.00    -0.200 F 
ATOM     82  F   UNL A   1      43.843  23.967  24.642  1.00  0.00    -0.200 F 
ENDBRANCH  48  72
BRANCH  60  83
ATOM     83  C   UNL A   1      45.199  27.396  34.282  1.00  0.00     0.064 A 
ATOM     84  C   UNL A   1      46.456  28.018  34.234  1.00  0.00     0.173 A 
ATOM     85  C   UNL A   1      45.080  26.216  35.033  1.00  0.00     0.173 A 
ATOM     86  F   UNL A   1      46.628  29.142  33.523  1.00  0.00    -0.203 F 
ATOM     87  C   UNL A   1      47.560  27.450  34.867  1.00  0.00     0.198 A 
ATOM     88  C   UNL A   1      46.176  25.675  35.698  1.00  0.00     0.198 A 
ATOM     89  F   UNL A   1      43.900  25.585  35.122  1.00  0.00    -0.203 F 
ATOM     90  F   UNL A   1      48.767  28.019  34.741  1.00  0.00    -0.200 F 
ATOM     91  C   UNL A   1      47.418  26.283  35.601  1.00  0.00     0.200 A 
ATOM     92  F   UNL A   1      46.033  24.558  36.424  1.00  0.00    -0.200 F 
ATOM     93  F   UNL A   1      48.482  25.737  36.206  1.00  0.00    -0.200 F 
ENDBRANCH  60  83
ENDBRANCH  34  35
ENDBRANCH  27  29
ENDBRANCH  26  27
ENDBRANCH  25  26
ENDBRANCH   1  25
TORSDOF 17
ENDMDL
MODEL 3
REMARK VINA RESULT:     -11.7      4.553      9.785
REMARK SMILES CC(C)C[NH2+][C@@H](CC(=O)Nc1cccc(Cl)c1)C(=O)OCCOC(=O)c1ccc(-c2c3nc(c(-c4c(F)c(F)c(F)c(F)c4F)c4ccc([nH]4)c(-c4c(F)c(F)c(F)c(F)c4F)c4nc(c(-c5c(F)c(F)c(F)c(F)c5F)c5ccc2[nH]5)C=C4)C=C3)cc1
REMARK SMILES IDX 21 1 20 2 18 3 19 4 6 5 5 6 4 9 2 10 1 11 3 12 7 13 8 14
REMARK SMILES IDX 9 15 10 16 11 18 12 19 17 20 13 21 15 22 14 23 16 24 22 25
REMARK SMILES IDX 23 26 24 27 25 28 26 29 27 30 88 31 28 32 87 33 29 34 30 35
REMARK SMILES IDX 31 36 81 37 32 38 86 39 80 40 82 41 33 42 85 43 79 44 78 45
REMARK SMILES IDX 34 47 66 48 46 49 65 50 47 51 50 52 64 53 83 54 48 55 49 56
REMARK SMILES IDX 63 58 84 59 51 60 35 61 36 62 44 63 37 64 38 65 42 66 45 67
REMARK SMILES IDX 39 68 40 69 43 70 41 71 67 72 68 73 76 74 69 75 70 76 74 77
REMARK SMILES IDX 77 78 71 79 72 80 75 81 73 82 52 83 53 84 61 85 54 86 55 87
REMARK SMILES IDX 59 88 62 89 56 90 57 91 60 92 58 93
REMARK H PARENT 5 7 5 8 10 17 82 46 50 57
REMARK Flexibility Score: inf
ROOT
ATOM      1  C   UNL A   1      31.832  29.502  25.503  1.00  0.00     0.274 C 
ENDROOT
BRANCH   1   2
ATOM      2  O   UNL A   1      30.715  29.321  24.609  1.00  0.00    -0.458 OA
BRANCH   2   3
ATOM      3  C   UNL A   1      30.562  28.076  24.072  1.00  0.00     0.365 C 
ATOM      4  O   UNL A   1      30.398  27.049  24.721  1.00  0.00    -0.245 OA
BRANCH   3   5
ATOM      5  C   UNL A   1      30.623  28.102  22.531  1.00  0.00     0.302 C 
BRANCH   5   6
ATOM      6  N   UNL A   1      30.722  29.475  22.031  1.00  0.00    -0.334 N 
ATOM      7  H   UNL A   1      31.150  30.032  22.769  1.00  0.00     0.347 HD
ATOM      8  H   UNL A   1      31.252  29.382  21.164  1.00  0.00     0.347 HD
BRANCH   6   9
ATOM      9  C   UNL A   1      29.511  30.165  21.625  1.00  0.00     0.264 C 
BRANCH   9  10
ATOM     10  C   UNL A   1      27.967  30.115  22.520  1.00  0.00     0.038 C 
ATOM     11  C   UNL A   1      26.921  28.464  23.498  1.00  0.00     0.013 C 
ATOM     12  C   UNL A   1      28.295  31.734  23.157  1.00  0.00     0.013 C 
ENDBRANCH   9  10
ENDBRANCH   6   9
ENDBRANCH   5   6
BRANCH   5  13
ATOM     13  C   UNL A   1      31.620  27.065  22.031  1.00  0.00     0.177 C 
BRANCH  13  14
ATOM     14  C   UNL A   1      33.040  27.244  22.509  1.00  0.00     0.231 C 
ATOM     15  O   UNL A   1      33.663  28.266  22.205  1.00  0.00    -0.274 OA
ATOM     16  N   UNL A   1      33.648  26.331  23.312  1.00  0.00    -0.326 N 
ATOM     17  H   UNL A   1      34.549  26.579  23.623  1.00  0.00     0.169 HD
BRANCH  16  18
ATOM     18  C   UNL A   1      33.181  25.091  23.762  1.00  0.00     0.042 A 
ATOM     19  C   UNL A   1      32.929  23.766  22.554  1.00  0.00     0.026 A 
ATOM     20  C   UNL A   1      33.341  24.701  25.513  1.00  0.00     0.046 A 
ATOM     21  C   UNL A   1      32.889  22.041  23.083  1.00  0.00     0.004 A 
ATOM     22  C   UNL A   1      33.352  22.976  26.029  1.00  0.00     0.043 A 
ATOM     23  C   UNL A   1      33.048  21.648  24.831  1.00  0.00     0.020 A 
ATOM     24  Cl  UNL A   1      33.814  22.575  27.642  1.00  0.00    -0.084 Cl
ENDBRANCH  16  18
ENDBRANCH  13  14
ENDBRANCH   5  13
ENDBRANCH   3   5
ENDBRANCH   2   3
ENDBRANCH   1   2
BRANCH   1  25
ATOM     25  C   UNL A   1      31.819  30.885  26.158  1.00  0.00     0.275 C 
BRANCH  25  26
ATOM     26  O   UNL A   1      32.609  30.905  27.361  1.00  0.00    -0.458 OA
BRANCH  26  27
ATOM     27  C   UNL A   1      33.423  31.979  27.466  1.00  0.00     0.338 C 
ATOM     28  O   UNL A   1      33.116  33.155  27.345  1.00  0.00    -0.246 OA
BRANCH  27  29
ATOM     29  C   UNL A   1      34.759  31.578  27.919  1.00  0.00     0.060 A 
ATOM     30  C   UNL A   1      34.908  30.254  28.323  1.00  0.00     0.016 A 
ATOM     31  C   UNL A   1      35.793  32.492  28.107  1.00  0.00     0.016 A 
ATOM     32  C   UNL A   1      36.050  29.840  28.982  1.00  0.00     0.010 A 
ATOM     33  C   UNL A   1      36.975  32.062  28.726  1.00  0.00     0.010 A 
ATOM     34  C   UNL A   1      37.097  30.740  29.192  1.00  0.00    -0.014 A 
BRANCH  34  35
ATOM     35  C   UNL A   1      38.279  30.257  29.941  1.00  0.00     0.031 A 
ATOM     36  C   UNL A   1      38.489  30.668  31.368  1.00  0.00     0.074 A 
ATOM     37  C   UNL A   1      39.098  29.362  29.358  1.00  0.00     0.049 A 
ATOM     38  N   UNL A   1      39.445  30.328  32.195  1.00  0.00    -0.248 NA
ATOM     39  C   UNL A   1      37.494  31.584  31.945  1.00  0.00     0.031 C 
ATOM     40  C   UNL A   1      38.952  28.852  27.992  1.00  0.00     0.029 A 
ATOM     41  N   UNL A   1      40.199  28.704  29.843  1.00  0.00    -0.354 N 
ATOM     42  C   UNL A   1      39.180  31.002  33.379  1.00  0.00     0.074 A 
ATOM     43  C   UNL A   1      37.990  31.795  33.157  1.00  0.00     0.031 C 
ATOM     44  C   UNL A   1      39.906  27.940  27.760  1.00  0.00     0.029 A 
ATOM     45  C   UNL A   1      40.767  27.848  28.934  1.00  0.00     0.049 A 
ATOM     46  H   UNL A   1      40.546  28.834  30.755  1.00  0.00     0.167 HD
ATOM     47  C   UNL A   1      39.867  30.954  34.545  1.00  0.00     0.037 A 
ATOM     48  C   UNL A   1      41.875  27.091  29.029  1.00  0.00     0.037 A 
ATOM     49  C   UNL A   1      41.045  30.151  34.754  1.00  0.00     0.049 A 
ATOM     50  C   UNL A   1      42.651  27.106  30.316  1.00  0.00     0.074 A 
ATOM     51  C   UNL A   1      41.816  30.026  35.898  1.00  0.00     0.029 A 
ATOM     52  N   UNL A   1      41.628  29.335  33.793  1.00  0.00    -0.354 N 
ATOM     53  N   UNL A   1      42.397  27.749  31.431  1.00  0.00    -0.248 NA
ATOM     54  C   UNL A   1      43.868  26.286  30.360  1.00  0.00     0.031 C 
ATOM     55  C   UNL A   1      42.899  29.190  35.608  1.00  0.00     0.029 A 
ATOM     56  C   UNL A   1      42.763  28.728  34.309  1.00  0.00     0.049 A 
ATOM     57  H   UNL A   1      41.286  29.208  32.878  1.00  0.00     0.167 HD
ATOM     58  C   UNL A   1      43.403  27.389  32.317  1.00  0.00     0.074 A 
ATOM     59  C   UNL A   1      44.255  26.451  31.616  1.00  0.00     0.031 C 
ATOM     60  C   UNL A   1      43.602  27.796  33.596  1.00  0.00     0.037 A 
BRANCH  47  61
ATOM     61  C   UNL A   1      39.387  31.826  35.672  1.00  0.00     0.064 A 
ATOM     62  C   UNL A   1      38.425  31.391  36.597  1.00  0.00     0.173 A 
ATOM     63  C   UNL A   1      39.921  33.113  35.844  1.00  0.00     0.173 A 
ATOM     64  F   UNL A   1      37.871  30.175  36.473  1.00  0.00    -0.203 F 
ATOM     65  C   UNL A   1      37.994  32.220  37.630  1.00  0.00     0.198 A 
ATOM     66  C   UNL A   1      39.513  33.927  36.897  1.00  0.00     0.198 A 
ATOM     67  F   UNL A   1      40.845  33.582  34.992  1.00  0.00    -0.203 F 
ATOM     68  F   UNL A   1      37.034  31.803  38.467  1.00  0.00    -0.200 F 
ATOM     69  C   UNL A   1      38.544  33.484  37.784  1.00  0.00     0.200 A 
ATOM     70  F   UNL A   1      40.058  35.142  37.053  1.00  0.00    -0.200 F 
ATOM     71  F   UNL A   1      38.134  34.278  38.782  1.00  0.00    -0.200 F 
ENDBRANCH  47  61
BRANCH  48  72
ATOM     72  C   UNL A   1      42.322  26.275  27.868  1.00  0.00     0.064 A 
ATOM     73  C   UNL A   1      43.284  26.754  26.969  1.00  0.00     0.173 A 
ATOM     74  C   UNL A   1      41.785  25.001  27.628  1.00  0.00     0.173 A 
ATOM     75  F   UNL A   1      43.813  27.976  27.142  1.00  0.00    -0.203 F 
ATOM     76  C   UNL A   1      43.670  26.005  25.860  1.00  0.00     0.198 A 
ATOM     77  C   UNL A   1      42.200  24.236  26.541  1.00  0.00     0.198 A 
ATOM     78  F   UNL A   1      40.864  24.492  28.460  1.00  0.00    -0.203 F 
ATOM     79  F   UNL A   1      44.547  26.512  24.983  1.00  0.00    -0.200 F 
ATOM     80  C   UNL A   1      43.132  24.743  25.651  1.00  0.00     0.200 A 
ATOM     81  F   UNL A   1      41.691  23.010  26.355  1.00  0.00    -0.200 F 
ATOM     82  F   UNL A   1      43.507  24.021  24.586  1.00  0.00    -0.200 F 
ENDBRANCH  48  72
BRANCH  60  83
ATOM     83  C   UNL A   1      44.764  27.185  34.329  1.00  0.00     0.064 A 
ATOM     84  C   UNL A   1      44.648  25.977  35.034  1.00  0.00     0.173 A 
ATOM     85  C   UNL A   1      46.015  27.824  34.327  1.00  0.00     0.173 A 
ATOM     86  F   UNL A   1      43.474  25.331  35.079  1.00  0.00    -0.203 F 
ATOM     87  C   UNL A   1      45.725  25.462  35.752  1.00  0.00     0.198 A 
ATOM     88  C   UNL A   1      47.099  27.283  35.011  1.00  0.00     0.198 A 
ATOM     89  F   UNL A   1      46.186  28.975  33.661  1.00  0.00    -0.203 F 
ATOM     90  F   UNL A   1      45.567  24.349  36.483  1.00  0.00    -0.200 F 
ATOM     91  C   UNL A   1      46.949  26.111  35.736  1.00  0.00     0.200 A 
ATOM     92  F   UNL A   1      48.287  27.902  34.978  1.00  0.00    -0.200 F 
ATOM     93  F   UNL A   1      47.982  25.614  36.431  1.00  0.00    -0.200 F 
ENDBRANCH  60  83
ENDBRANCH  34  35
ENDBRANCH  27  29
ENDBRANCH  26  27
ENDBRANCH  25  26
ENDBRANCH   1  25
TORSDOF 17
ENDMDL
