MODEL 1
REMARK VINA RESULT:     -11.8      0.000      0.000
REMARK SMILES CC[NH2+][C@]1(C(=O)OCCOC(=O)c2ccc(-c3c4nc(c(-c5c(F)c(F)c(F)c(F)c5F)c5ccc([nH]5)c(-c5c(F)c(F)c(F)c(F)c5F)c5nc(c(-c6c(F)c(F)c(F)c(F)c6F)c6ccc3[nH]6)C=C5)C=C4)cc2)CC[C@@H]([N@H+]2C[C@@H](C)O[C@@H](C)C2)C1
REMARK SMILES IDX 8 1 7 2 5 3 6 4 4 5 76 6 87 7 77 8 78 9 3 10 2 13 1 14 79 15
REMARK SMILES IDX 80 16 86 17 81 19 84 20 82 21 83 22 85 23 9 24 10 25 11 26
REMARK SMILES IDX 12 27 13 28 14 29 75 30 15 31 74 32 16 33 17 34 18 35 68 36
REMARK SMILES IDX 19 37 73 38 67 39 69 40 20 41 72 42 66 43 65 44 21 46 53 47
REMARK SMILES IDX 33 48 52 49 34 50 37 51 51 52 70 53 35 54 36 55 50 57 71 58
REMARK SMILES IDX 38 59 22 60 23 61 31 62 24 63 25 64 29 65 32 66 26 67 27 68
REMARK SMILES IDX 30 69 28 70 54 71 55 72 63 73 56 74 57 75 61 76 64 77 58 78
REMARK SMILES IDX 59 79 62 80 60 81 39 82 40 83 48 84 41 85 42 86 46 87 49 88
REMARK SMILES IDX 43 89 44 90 47 91 45 92
REMARK H PARENT 3 11 3 12 79 18 69 45 37 56
REMARK Flexibility Score: inf
ROOT
ATOM      1  C   UNL A   1      31.566  28.659  27.505  1.00  0.00     0.274 C 
ENDROOT
BRANCH   1   2
ATOM      2  O   UNL A   1      32.237  27.445  27.113  1.00  0.00    -0.457 OA
BRANCH   2   3
ATOM      3  C   UNL A   1      31.539  26.559  26.347  1.00  0.00     0.368 C 
ATOM      4  O   UNL A   1      30.316  26.467  26.373  1.00  0.00    -0.245 OA
BRANCH   3   5
ATOM      5  C   UNL A   1      32.485  25.690  25.442  1.00  0.00     0.200 C 
ATOM      6  C   UNL A   1      33.969  25.952  25.765  1.00  0.00     0.087 C 
ATOM      7  C   UNL A   1      32.365  24.195  25.768  1.00  0.00     0.146 C 
ATOM      8  C   UNL A   1      34.719  24.704  25.317  1.00  0.00     0.072 C 
ATOM      9  C   UNL A   1      33.728  23.542  25.493  1.00  0.00     0.191 C 
BRANCH   5  10
ATOM     10  N   UNL A   1      32.267  26.009  24.006  1.00  0.00    -0.332 N 
ATOM     11  H   UNL A   1      32.938  25.476  23.455  1.00  0.00     0.347 HD
ATOM     12  H   UNL A   1      31.298  25.766  23.799  1.00  0.00     0.347 HD
BRANCH  10  13
ATOM     13  C   UNL A   1      32.420  27.424  23.668  1.00  0.00     0.257 C 
ATOM     14  C   UNL A   1      33.505  27.575  22.614  1.00  0.00     0.071 C 
ENDBRANCH  10  13
ENDBRANCH   5  10
BRANCH   9  15
ATOM     15  N   UNL A   1      34.160  22.452  26.380  1.00  0.00    -0.328 N 
ATOM     16  C   UNL A   1      33.414  21.189  26.346  1.00  0.00     0.294 C 
ATOM     17  C   UNL A   1      35.599  22.167  26.320  1.00  0.00     0.294 C 
ATOM     18  H   UNL A   1      33.920  22.874  27.277  1.00  0.00     0.348 HD
ATOM     19  C   UNL A   1      33.885  20.101  25.350  1.00  0.00     0.170 C 
ATOM     20  C   UNL A   1      36.068  21.118  25.270  1.00  0.00     0.170 C 
ATOM     21  C   UNL A   1      32.755  19.724  24.397  1.00  0.00     0.045 C 
ATOM     22  O   UNL A   1      34.998  20.494  24.547  1.00  0.00    -0.364 OA
ATOM     23  C   UNL A   1      37.004  21.724  24.217  1.00  0.00     0.045 C 
ENDBRANCH   9  15
ENDBRANCH   3   5
ENDBRANCH   2   3
ENDBRANCH   1   2
BRANCH   1  24
ATOM     24  C   UNL A   1      31.776  29.773  26.481  1.00  0.00     0.275 C 
BRANCH  24  25
ATOM     25  O   UNL A   1      33.167  30.122  26.396  1.00  0.00    -0.458 OA
BRANCH  25  26
ATOM     26  C   UNL A   1      33.523  31.214  27.103  1.00  0.00     0.338 C 
ATOM     27  O   UNL A   1      32.854  32.211  27.340  1.00  0.00    -0.246 OA
BRANCH  26  28
ATOM     28  C   UNL A   1      34.846  30.989  27.688  1.00  0.00     0.060 A 
ATOM     29  C   UNL A   1      35.204  29.683  28.024  1.00  0.00     0.016 A 
ATOM     30  C   UNL A   1      35.696  32.055  27.973  1.00  0.00     0.016 A 
ATOM     31  C   UNL A   1      36.391  29.422  28.688  1.00  0.00     0.010 A 
ATOM     32  C   UNL A   1      36.905  31.795  28.617  1.00  0.00     0.010 A 
ATOM     33  C   UNL A   1      37.245  30.482  28.992  1.00  0.00    -0.014 A 
BRANCH  33  34
ATOM     34  C   UNL A   1      38.470  30.234  29.776  1.00  0.00     0.031 A 
ATOM     35  C   UNL A   1      39.520  29.336  29.202  1.00  0.00     0.074 A 
ATOM     36  C   UNL A   1      38.622  30.801  30.984  1.00  0.00     0.049 A 
ATOM     37  N   UNL A   1      40.548  28.783  29.789  1.00  0.00    -0.248 NA
ATOM     38  C   UNL A   1      39.390  29.013  27.772  1.00  0.00     0.031 C 
ATOM     39  C   UNL A   1      37.705  31.770  31.586  1.00  0.00     0.029 A 
ATOM     40  N   UNL A   1      39.597  30.625  31.929  1.00  0.00    -0.354 N 
ATOM     41  C   UNL A   1      41.162  28.013  28.813  1.00  0.00     0.074 A 
ATOM     42  C   UNL A   1      40.398  28.171  27.594  1.00  0.00     0.031 C 
ATOM     43  C   UNL A   1      38.149  32.086  32.813  1.00  0.00     0.029 A 
ATOM     44  C   UNL A   1      39.339  31.291  33.102  1.00  0.00     0.049 A 
ATOM     45  H   UNL A   1      40.402  30.079  31.783  1.00  0.00     0.167 HD
ATOM     46  C   UNL A   1      42.263  27.236  28.939  1.00  0.00     0.037 A 
ATOM     47  C   UNL A   1      39.965  31.215  34.291  1.00  0.00     0.037 A 
ATOM     48  C   UNL A   1      43.011  27.109  30.160  1.00  0.00     0.049 A 
ATOM     49  C   UNL A   1      41.138  30.284  34.430  1.00  0.00     0.074 A 
ATOM     50  C   UNL A   1      44.125  26.330  30.418  1.00  0.00     0.029 A 
ATOM     51  N   UNL A   1      42.716  27.791  31.334  1.00  0.00    -0.354 N 
ATOM     52  N   UNL A   1      41.687  29.506  33.528  1.00  0.00    -0.248 NA
ATOM     53  C   UNL A   1      41.771  30.209  35.752  1.00  0.00     0.031 C 
ATOM     54  C   UNL A   1      44.485  26.518  31.757  1.00  0.00     0.029 A 
ATOM     55  C   UNL A   1      43.623  27.447  32.320  1.00  0.00     0.049 A 
ATOM     56  H   UNL A   1      41.972  28.426  31.446  1.00  0.00     0.167 HD
ATOM     57  C   UNL A   1      42.748  28.875  34.162  1.00  0.00     0.074 A 
ATOM     58  C   UNL A   1      42.766  29.361  35.526  1.00  0.00     0.031 C 
ATOM     59  C   UNL A   1      43.630  27.976  33.660  1.00  0.00     0.037 A 
BRANCH  46  60
ATOM     60  C   UNL A   1      42.686  26.436  27.744  1.00  0.00     0.064 A 
ATOM     61  C   UNL A   1      43.657  26.902  26.846  1.00  0.00     0.173 A 
ATOM     62  C   UNL A   1      42.118  25.175  27.504  1.00  0.00     0.173 A 
ATOM     63  F   UNL A   1      44.215  28.109  27.022  1.00  0.00    -0.203 F 
ATOM     64  C   UNL A   1      44.029  26.143  25.739  1.00  0.00     0.198 A 
ATOM     65  C   UNL A   1      42.512  24.408  26.410  1.00  0.00     0.198 A 
ATOM     66  F   UNL A   1      41.183  24.684  28.331  1.00  0.00    -0.203 F 
ATOM     67  F   UNL A   1      44.927  26.626  24.869  1.00  0.00    -0.200 F 
ATOM     68  C   UNL A   1      43.461  24.896  25.526  1.00  0.00     0.200 A 
ATOM     69  F   UNL A   1      41.966  23.200  26.210  1.00  0.00    -0.200 F 
ATOM     70  F   UNL A   1      43.824  24.166  24.461  1.00  0.00    -0.200 F 
ENDBRANCH  46  60
BRANCH  47  71
ATOM     71  C   UNL A   1      39.467  32.008  35.443  1.00  0.00     0.064 A 
ATOM     72  C   UNL A   1      39.883  33.332  35.638  1.00  0.00     0.173 A 
ATOM     73  C   UNL A   1      38.566  31.464  36.370  1.00  0.00     0.173 A 
ATOM     74  F   UNL A   1      40.761  33.888  34.792  1.00  0.00    -0.203 F 
ATOM     75  C   UNL A   1      39.427  34.076  36.724  1.00  0.00     0.198 A 
ATOM     76  C   UNL A   1      38.090  32.218  37.441  1.00  0.00     0.198 A 
ATOM     77  F   UNL A   1      38.138  30.200  36.231  1.00  0.00    -0.203 F 
ATOM     78  F   UNL A   1      39.874  35.325  36.911  1.00  0.00    -0.200 F 
ATOM     79  C   UNL A   1      38.525  33.521  37.621  1.00  0.00     0.200 A 
ATOM     80  F   UNL A   1      37.210  31.681  38.297  1.00  0.00    -0.200 F 
ATOM     81  F   UNL A   1      38.086  34.240  38.663  1.00  0.00    -0.200 F 
ENDBRANCH  47  71
BRANCH  59  82
ATOM     82  C   UNL A   1      44.728  27.514  34.569  1.00  0.00     0.064 A 
ATOM     83  C   UNL A   1      45.930  28.224  34.693  1.00  0.00     0.173 A 
ATOM     84  C   UNL A   1      44.540  26.383  35.377  1.00  0.00     0.173 A 
ATOM     85  F   UNL A   1      46.158  29.304  33.930  1.00  0.00    -0.203 F 
ATOM     86  C   UNL A   1      46.912  27.809  35.587  1.00  0.00     0.198 A 
ATOM     87  C   UNL A   1      45.513  25.986  36.286  1.00  0.00     0.198 A 
ATOM     88  F   UNL A   1      43.402  25.676  35.296  1.00  0.00    -0.203 F 
ATOM     89  F   UNL A   1      48.068  28.482  35.669  1.00  0.00    -0.200 F 
ATOM     90  C   UNL A   1      46.700  26.696  36.389  1.00  0.00     0.200 A 
ATOM     91  F   UNL A   1      45.302  24.918  37.069  1.00  0.00    -0.200 F 
ATOM     92  F   UNL A   1      47.642  26.307  37.259  1.00  0.00    -0.200 F 
ENDBRANCH  59  82
ENDBRANCH  33  34
ENDBRANCH  26  28
ENDBRANCH  25  26
ENDBRANCH  24  25
ENDBRANCH   1  24
TORSDOF 14
ENDMDL
MODEL 2
REMARK VINA RESULT:     -11.8      1.143      2.301
REMARK SMILES CC[NH2+][C@]1(C(=O)OCCOC(=O)c2ccc(-c3c4nc(c(-c5c(F)c(F)c(F)c(F)c5F)c5ccc([nH]5)c(-c5c(F)c(F)c(F)c(F)c5F)c5nc(c(-c6c(F)c(F)c(F)c(F)c6F)c6ccc3[nH]6)C=C5)C=C4)cc2)CC[C@@H]([N@H+]2C[C@@H](C)O[C@@H](C)C2)C1
REMARK SMILES IDX 8 1 7 2 5 3 6 4 4 5 76 6 87 7 77 8 78 9 3 10 2 13 1 14 79 15
REMARK SMILES IDX 80 16 86 17 81 19 84 20 82 21 83 22 85 23 9 24 10 25 11 26
REMARK SMILES IDX 12 27 13 28 14 29 75 30 15 31 74 32 16 33 17 34 18 35 68 36
REMARK SMILES IDX 19 37 73 38 67 39 69 40 20 41 72 42 66 43 65 44 21 46 53 47
REMARK SMILES IDX 33 48 52 49 34 50 37 51 51 52 70 53 35 54 36 55 50 57 71 58
REMARK SMILES IDX 38 59 22 60 23 61 31 62 24 63 25 64 29 65 32 66 26 67 27 68
REMARK SMILES IDX 30 69 28 70 54 71 55 72 63 73 56 74 57 75 61 76 64 77 58 78
REMARK SMILES IDX 59 79 62 80 60 81 39 82 40 83 48 84 41 85 42 86 46 87 49 88
REMARK SMILES IDX 43 89 44 90 47 91 45 92
REMARK H PARENT 3 11 3 12 79 18 69 45 37 56
REMARK Flexibility Score: inf
ROOT
ATOM      1  C   UNL A   1      31.776  28.960  27.448  1.00  0.00     0.274 C 
ENDROOT
BRANCH   1   2
ATOM      2  O   UNL A   1      32.388  27.920  26.659  1.00  0.00    -0.457 OA
BRANCH   2   3
ATOM      3  C   UNL A   1      31.562  27.077  25.977  1.00  0.00     0.368 C 
ATOM      4  O   UNL A   1      30.622  26.489  26.502  1.00  0.00    -0.245 OA
BRANCH   3   5
ATOM      5  C   UNL A   1      31.960  26.960  24.462  1.00  0.00     0.200 C 
ATOM      6  C   UNL A   1      33.416  26.479  24.298  1.00  0.00     0.087 C 
ATOM      7  C   UNL A   1      31.190  25.835  23.758  1.00  0.00     0.146 C 
ATOM      8  C   UNL A   1      33.491  25.845  22.916  1.00  0.00     0.072 C 
ATOM      9  C   UNL A   1      32.090  25.270  22.649  1.00  0.00     0.191 C 
BRANCH   5  10
ATOM     10  N   UNL A   1      31.838  28.282  23.790  1.00  0.00    -0.332 N 
ATOM     11  H   UNL A   1      32.424  28.950  24.291  1.00  0.00     0.347 HD
ATOM     12  H   UNL A   1      32.129  28.143  22.822  1.00  0.00     0.347 HD
BRANCH  10  13
ATOM     13  C   UNL A   1      30.478  28.815  23.741  1.00  0.00     0.257 C 
ATOM     14  C   UNL A   1      30.180  29.308  22.334  1.00  0.00     0.071 C 
ENDBRANCH  10  13
ENDBRANCH   5  10
BRANCH   9  15
ATOM     15  N   UNL A   1      32.023  23.827  22.377  1.00  0.00    -0.328 N 
ATOM     16  C   UNL A   1      33.278  23.103  22.147  1.00  0.00     0.294 C 
ATOM     17  C   UNL A   1      31.197  23.076  23.331  1.00  0.00     0.294 C 
ATOM     18  H   UNL A   1      31.568  23.860  21.465  1.00  0.00     0.348 HD
ATOM     19  C   UNL A   1      33.989  22.487  23.376  1.00  0.00     0.170 C 
ATOM     20  C   UNL A   1      31.911  22.517  24.595  1.00  0.00     0.170 C 
ATOM     21  C   UNL A   1      35.407  23.036  23.504  1.00  0.00     0.045 C 
ATOM     22  O   UNL A   1      33.328  22.740  24.615  1.00  0.00    -0.364 OA
ATOM     23  C   UNL A   1      31.361  23.121  25.893  1.00  0.00     0.045 C 
ENDBRANCH   9  15
ENDBRANCH   3   5
ENDBRANCH   2   3
ENDBRANCH   1   2
BRANCH   1  24
ATOM     24  C   UNL A   1      31.840  30.313  26.742  1.00  0.00     0.275 C 
BRANCH  24  25
ATOM     25  O   UNL A   1      33.206  30.717  26.552  1.00  0.00    -0.458 OA
BRANCH  25  26
ATOM     26  C   UNL A   1      33.608  31.743  27.329  1.00  0.00     0.338 C 
ATOM     27  O   UNL A   1      32.988  32.756  27.622  1.00  0.00    -0.246 OA
BRANCH  26  28
ATOM     28  C   UNL A   1      34.911  31.414  27.910  1.00  0.00     0.060 A 
ATOM     29  C   UNL A   1      35.114  30.115  28.378  1.00  0.00     0.016 A 
ATOM     30  C   UNL A   1      35.895  32.387  28.063  1.00  0.00     0.016 A 
ATOM     31  C   UNL A   1      36.281  29.776  29.044  1.00  0.00     0.010 A 
ATOM     32  C   UNL A   1      37.082  32.044  28.709  1.00  0.00     0.010 A 
ATOM     33  C   UNL A   1      37.269  30.745  29.217  1.00  0.00    -0.014 A 
BRANCH  33  34
ATOM     34  C   UNL A   1      38.478  30.427  29.999  1.00  0.00     0.031 A 
ATOM     35  C   UNL A   1      39.486  29.488  29.415  1.00  0.00     0.074 A 
ATOM     36  C   UNL A   1      38.653  30.967  31.216  1.00  0.00     0.049 A 
ATOM     37  N   UNL A   1      40.484  28.877  29.995  1.00  0.00    -0.248 NA
ATOM     38  C   UNL A   1      39.345  29.193  27.979  1.00  0.00     0.031 C 
ATOM     39  C   UNL A   1      37.781  31.969  31.831  1.00  0.00     0.029 A 
ATOM     40  N   UNL A   1      39.616  30.730  32.162  1.00  0.00    -0.354 N 
ATOM     41  C   UNL A   1      41.064  28.093  29.009  1.00  0.00     0.074 A 
ATOM     42  C   UNL A   1      40.311  28.306  27.791  1.00  0.00     0.031 C 
ATOM     43  C   UNL A   1      38.236  32.245  33.064  1.00  0.00     0.029 A 
ATOM     44  C   UNL A   1      39.386  31.389  33.344  1.00  0.00     0.049 A 
ATOM     45  H   UNL A   1      40.394  30.148  32.009  1.00  0.00     0.167 HD
ATOM     46  C   UNL A   1      42.126  27.263  29.126  1.00  0.00     0.037 A 
ATOM     47  C   UNL A   1      40.003  31.265  34.533  1.00  0.00     0.037 A 
ATOM     48  C   UNL A   1      42.863  27.081  30.347  1.00  0.00     0.049 A 
ATOM     49  C   UNL A   1      41.130  30.277  34.660  1.00  0.00     0.074 A 
ATOM     50  C   UNL A   1      43.937  26.246  30.595  1.00  0.00     0.029 A 
ATOM     51  N   UNL A   1      42.597  27.759  31.530  1.00  0.00    -0.354 N 
ATOM     52  N   UNL A   1      41.644  29.487  33.748  1.00  0.00    -0.248 NA
ATOM     53  C   UNL A   1      41.754  30.151  35.983  1.00  0.00     0.031 C 
ATOM     54  C   UNL A   1      44.301  26.396  31.938  1.00  0.00     0.029 A 
ATOM     55  C   UNL A   1      43.483  27.357  32.514  1.00  0.00     0.049 A 
ATOM     56  H   UNL A   1      41.884  28.427  31.650  1.00  0.00     0.167 HD
ATOM     57  C   UNL A   1      42.671  28.796  34.374  1.00  0.00     0.074 A 
ATOM     58  C   UNL A   1      42.708  29.260  35.746  1.00  0.00     0.031 C 
ATOM     59  C   UNL A   1      43.511  27.864  33.861  1.00  0.00     0.037 A 
BRANCH  46  60
ATOM     60  C   UNL A   1      42.514  26.461  27.920  1.00  0.00     0.064 A 
ATOM     61  C   UNL A   1      43.474  26.917  27.006  1.00  0.00     0.173 A 
ATOM     62  C   UNL A   1      41.922  25.211  27.685  1.00  0.00     0.173 A 
ATOM     63  F   UNL A   1      44.054  28.115  27.176  1.00  0.00    -0.203 F 
ATOM     64  C   UNL A   1      43.814  26.157  25.888  1.00  0.00     0.198 A 
ATOM     65  C   UNL A   1      42.283  24.443  26.581  1.00  0.00     0.198 A 
ATOM     66  F   UNL A   1      40.996  24.730  28.528  1.00  0.00    -0.203 F 
ATOM     67  F   UNL A   1      44.702  26.631  25.003  1.00  0.00    -0.200 F 
ATOM     68  C   UNL A   1      43.223  24.920  25.681  1.00  0.00     0.200 A 
ATOM     69  F   UNL A   1      41.716  23.244  26.386  1.00  0.00    -0.200 F 
ATOM     70  F   UNL A   1      43.554  24.189  24.607  1.00  0.00    -0.200 F 
ENDBRANCH  46  60
BRANCH  47  71
ATOM     71  C   UNL A   1      39.541  32.064  35.696  1.00  0.00     0.064 A 
ATOM     72  C   UNL A   1      38.545  31.576  36.553  1.00  0.00     0.173 A 
ATOM     73  C   UNL A   1      40.083  33.326  35.978  1.00  0.00     0.173 A 
ATOM     74  F   UNL A   1      37.979  30.385  36.311  1.00  0.00    -0.203 F 
ATOM     75  C   UNL A   1      38.100  32.327  37.638  1.00  0.00     0.198 A 
ATOM     76  C   UNL A   1      39.657  34.064  37.080  1.00  0.00     0.198 A 
ATOM     77  F   UNL A   1      41.038  33.840  35.188  1.00  0.00    -0.203 F 
ATOM     78  F   UNL A   1      37.116  31.856  38.417  1.00  0.00    -0.200 F 
ATOM     79  C   UNL A   1      38.661  33.568  37.906  1.00  0.00     0.200 A 
ATOM     80  F   UNL A   1      40.209  35.257  37.340  1.00  0.00    -0.200 F 
ATOM     81  F   UNL A   1      38.234  34.287  38.952  1.00  0.00    -0.200 F 
ENDBRANCH  47  71
BRANCH  59  82
ATOM     82  C   UNL A   1      44.582  27.336  34.766  1.00  0.00     0.064 A 
ATOM     83  C   UNL A   1      44.400  26.171  35.523  1.00  0.00     0.173 A 
ATOM     84  C   UNL A   1      45.832  27.972  34.819  1.00  0.00     0.173 A 
ATOM     85  F   UNL A   1      43.218  25.538  35.513  1.00  0.00    -0.203 F 
ATOM     86  C   UNL A   1      45.430  25.666  36.311  1.00  0.00     0.198 A 
ATOM     87  C   UNL A   1      46.865  27.452  35.589  1.00  0.00     0.198 A 
ATOM     88  F   UNL A   1      46.053  29.088  34.107  1.00  0.00    -0.203 F 
ATOM     89  F   UNL A   1      45.228  24.568  37.052  1.00  0.00    -0.200 F 
ATOM     90  C   UNL A   1      46.663  26.302  36.337  1.00  0.00     0.200 A 
ATOM     91  F   UNL A   1      48.061  28.059  35.603  1.00  0.00    -0.200 F 
ATOM     92  F   UNL A   1      47.658  25.806  37.086  1.00  0.00    -0.200 F 
ENDBRANCH  59  82
ENDBRANCH  33  34
ENDBRANCH  26  28
ENDBRANCH  25  26
ENDBRANCH  24  25
ENDBRANCH   1  24
TORSDOF 14
ENDMDL
MODEL 3
REMARK VINA RESULT:     -11.8      0.686      1.619
REMARK SMILES CC[NH2+][C@]1(C(=O)OCCOC(=O)c2ccc(-c3c4nc(c(-c5c(F)c(F)c(F)c(F)c5F)c5ccc([nH]5)c(-c5c(F)c(F)c(F)c(F)c5F)c5nc(c(-c6c(F)c(F)c(F)c(F)c6F)c6ccc3[nH]6)C=C5)C=C4)cc2)CC[C@@H]([N@H+]2C[C@@H](C)O[C@@H](C)C2)C1
REMARK SMILES IDX 8 1 7 2 5 3 6 4 4 5 76 6 87 7 77 8 78 9 3 10 2 13 1 14 79 15
REMARK SMILES IDX 80 16 86 17 81 19 84 20 82 21 83 22 85 23 9 24 10 25 11 26
REMARK SMILES IDX 12 27 13 28 14 29 75 30 15 31 74 32 16 33 17 34 18 35 68 36
REMARK SMILES IDX 19 37 73 38 67 39 69 40 20 41 72 42 66 43 65 44 21 46 53 47
REMARK SMILES IDX 33 48 52 49 34 50 37 51 51 52 70 53 35 54 36 55 50 57 71 58
REMARK SMILES IDX 38 59 22 60 23 61 31 62 24 63 25 64 29 65 32 66 26 67 27 68
REMARK SMILES IDX 30 69 28 70 54 71 55 72 63 73 56 74 57 75 61 76 64 77 58 78
REMARK SMILES IDX 59 79 62 80 60 81 39 82 40 83 48 84 41 85 42 86 46 87 49 88
REMARK SMILES IDX 43 89 44 90 47 91 45 92
REMARK H PARENT 3 11 3 12 79 18 69 45 37 56
REMARK Flexibility Score: inf
ROOT
ATOM      1  C   UNL A   1      31.731  28.337  27.257  1.00  0.00     0.274 C 
ENDROOT
BRANCH   1   2
ATOM      2  O   UNL A   1      32.616  27.303  26.782  1.00  0.00    -0.457 OA
BRANCH   2   3
ATOM      3  C   UNL A   1      32.049  26.152  26.321  1.00  0.00     0.368 C 
ATOM      4  O   UNL A   1      31.068  25.632  26.843  1.00  0.00    -0.245 OA
BRANCH   3   5
ATOM      5  C   UNL A   1      32.798  25.591  25.059  1.00  0.00     0.200 C 
ATOM      6  C   UNL A   1      34.296  25.366  25.348  1.00  0.00     0.087 C 
ATOM      7  C   UNL A   1      32.341  24.167  24.715  1.00  0.00     0.146 C 
ATOM      8  C   UNL A   1      34.759  24.315  24.348  1.00  0.00     0.072 C 
ATOM      9  C   UNL A   1      33.530  23.431  24.080  1.00  0.00     0.191 C 
BRANCH   5  10
ATOM     10  N   UNL A   1      32.691  26.546  23.924  1.00  0.00    -0.332 N 
ATOM     11  H   UNL A   1      32.599  27.487  24.307  1.00  0.00     0.347 HD
ATOM     12  H   UNL A   1      33.534  26.425  23.362  1.00  0.00     0.347 HD
BRANCH  10  13
ATOM     13  C   UNL A   1      31.559  26.304  23.031  1.00  0.00     0.257 C 
ATOM     14  C   UNL A   1      32.077  25.943  21.648  1.00  0.00     0.071 C 
ENDBRANCH  10  13
ENDBRANCH   5  10
BRANCH   9  15
ATOM     15  N   UNL A   1      33.688  21.999  24.371  1.00  0.00    -0.328 N 
ATOM     16  C   UNL A   1      35.043  21.439  24.401  1.00  0.00     0.294 C 
ATOM     17  C   UNL A   1      32.948  21.544  25.556  1.00  0.00     0.294 C 
ATOM     18  H   UNL A   1      33.265  21.619  23.524  1.00  0.00     0.348 HD
ATOM     19  C   UNL A   1      35.794  21.442  25.755  1.00  0.00     0.170 C 
ATOM     20  C   UNL A   1      33.692  21.613  26.921  1.00  0.00     0.170 C 
ATOM     21  C   UNL A   1      37.109  22.206  25.635  1.00  0.00     0.045 C 
ATOM     22  O   UNL A   1      35.058  22.039  26.823  1.00  0.00    -0.364 OA
ATOM     23  C   UNL A   1      33.013  22.569  27.909  1.00  0.00     0.045 C 
ENDBRANCH   9  15
ENDBRANCH   3   5
ENDBRANCH   2   3
ENDBRANCH   1   2
BRANCH   1  24
ATOM     24  C   UNL A   1      31.775  29.571  26.359  1.00  0.00     0.275 C 
BRANCH  24  25
ATOM     25  O   UNL A   1      33.123  30.050  26.226  1.00  0.00    -0.458 OA
BRANCH  25  26
ATOM     26  C   UNL A   1      33.427  31.115  26.995  1.00  0.00     0.338 C 
ATOM     27  O   UNL A   1      32.716  32.071  27.275  1.00  0.00    -0.246 OA
BRANCH  26  28
ATOM     28  C   UNL A   1      34.750  30.910  27.587  1.00  0.00     0.060 A 
ATOM     29  C   UNL A   1      35.122  29.610  27.935  1.00  0.00     0.016 A 
ATOM     30  C   UNL A   1      35.586  31.988  27.865  1.00  0.00     0.016 A 
ATOM     31  C   UNL A   1      36.310  29.369  28.605  1.00  0.00     0.010 A 
ATOM     32  C   UNL A   1      36.796  31.747  28.515  1.00  0.00     0.010 A 
ATOM     33  C   UNL A   1      37.151  30.441  28.903  1.00  0.00    -0.014 A 
BRANCH  33  34
ATOM     34  C   UNL A   1      38.375  30.214  29.692  1.00  0.00     0.031 A 
ATOM     35  C   UNL A   1      39.435  29.318  29.133  1.00  0.00     0.074 A 
ATOM     36  C   UNL A   1      38.518  30.797  30.894  1.00  0.00     0.049 A 
ATOM     37  N   UNL A   1      40.466  28.782  29.729  1.00  0.00    -0.248 NA
ATOM     38  C   UNL A   1      39.312  28.976  27.706  1.00  0.00     0.031 C 
ATOM     39  C   UNL A   1      37.591  31.765  31.482  1.00  0.00     0.029 A 
ATOM     40  N   UNL A   1      39.493  30.642  31.844  1.00  0.00    -0.354 N 
ATOM     41  C   UNL A   1      41.090  28.005  28.765  1.00  0.00     0.074 A 
ATOM     42  C   UNL A   1      40.327  28.141  27.542  1.00  0.00     0.031 C 
ATOM     43  C   UNL A   1      38.029  32.100  32.706  1.00  0.00     0.029 A 
ATOM     44  C   UNL A   1      39.225  31.319  33.008  1.00  0.00     0.049 A 
ATOM     45  H   UNL A   1      40.303  30.100  31.707  1.00  0.00     0.167 HD
ATOM     46  C   UNL A   1      42.197  27.240  28.903  1.00  0.00     0.037 A 
ATOM     47  C   UNL A   1      39.849  31.263  34.200  1.00  0.00     0.037 A 
ATOM     48  C   UNL A   1      42.943  27.134  30.128  1.00  0.00     0.049 A 
ATOM     49  C   UNL A   1      41.030  30.345  34.353  1.00  0.00     0.074 A 
ATOM     50  C   UNL A   1      44.063  26.369  30.397  1.00  0.00     0.029 A 
ATOM     51  N   UNL A   1      42.638  27.828  31.292  1.00  0.00    -0.354 N 
ATOM     52  N   UNL A   1      41.588  29.560  33.463  1.00  0.00    -0.248 NA
ATOM     53  C   UNL A   1      41.660  30.291  35.678  1.00  0.00     0.031 C 
ATOM     54  C   UNL A   1      44.418  26.576  31.735  1.00  0.00     0.029 A 
ATOM     55  C   UNL A   1      43.546  27.505  32.285  1.00  0.00     0.049 A 
ATOM     56  H   UNL A   1      41.888  28.457  31.394  1.00  0.00     0.167 HD
ATOM     57  C   UNL A   1      42.653  28.947  34.106  1.00  0.00     0.074 A 
ATOM     58  C   UNL A   1      42.663  29.450  35.465  1.00  0.00     0.031 C 
ATOM     59  C   UNL A   1      43.544  28.050  33.618  1.00  0.00     0.037 A 
BRANCH  46  60
ATOM     60  C   UNL A   1      42.631  26.429  27.719  1.00  0.00     0.064 A 
ATOM     61  C   UNL A   1      42.100  25.158  27.458  1.00  0.00     0.173 A 
ATOM     62  C   UNL A   1      43.583  26.940  26.825  1.00  0.00     0.173 A 
ATOM     63  F   UNL A   1      41.201  24.616  28.295  1.00  0.00    -0.203 F 
ATOM     64  C   UNL A   1      42.523  24.418  26.356  1.00  0.00     0.198 A 
ATOM     65  C   UNL A   1      43.984  26.209  25.709  1.00  0.00     0.198 A 
ATOM     66  F   UNL A   1      44.124  28.151  27.029  1.00  0.00    -0.203 F 
ATOM     67  F   UNL A   1      42.035  23.187  26.150  1.00  0.00    -0.200 F 
ATOM     68  C   UNL A   1      43.459  24.948  25.480  1.00  0.00     0.200 A 
ATOM     69  F   UNL A   1      44.884  26.726  24.860  1.00  0.00    -0.200 F 
ATOM     70  F   UNL A   1      43.862  24.236  24.417  1.00  0.00    -0.200 F 
ENDBRANCH  46  60
BRANCH  47  71
ATOM     71  C   UNL A   1      39.341  32.066  35.340  1.00  0.00     0.064 A 
ATOM     72  C   UNL A   1      39.684  33.417  35.478  1.00  0.00     0.173 A 
ATOM     73  C   UNL A   1      38.502  31.503  36.314  1.00  0.00     0.173 A 
ATOM     74  F   UNL A   1      40.502  33.993  34.587  1.00  0.00    -0.203 F 
ATOM     75  C   UNL A   1      39.219  34.171  36.553  1.00  0.00     0.198 A 
ATOM     76  C   UNL A   1      38.015  32.265  37.374  1.00  0.00     0.198 A 
ATOM     77  F   UNL A   1      38.144  30.213  36.229  1.00  0.00    -0.203 F 
ATOM     78  F   UNL A   1      39.597  35.450  36.685  1.00  0.00    -0.200 F 
ATOM     79  C   UNL A   1      38.379  33.597  37.497  1.00  0.00     0.200 A 
ATOM     80  F   UNL A   1      37.195  31.709  38.276  1.00  0.00    -0.200 F 
ATOM     81  F   UNL A   1      37.930  34.324  38.528  1.00  0.00    -0.200 F 
ENDBRANCH  47  71
BRANCH  59  82
ATOM     82  C   UNL A   1      44.644  27.609  34.536  1.00  0.00     0.064 A 
ATOM     83  C   UNL A   1      45.842  28.328  34.649  1.00  0.00     0.173 A 
ATOM     84  C   UNL A   1      44.461  26.491  35.362  1.00  0.00     0.173 A 
ATOM     85  F   UNL A   1      46.065  29.396  33.869  1.00  0.00    -0.203 F 
ATOM     86  C   UNL A   1      46.825  27.933  35.551  1.00  0.00     0.198 A 
ATOM     87  C   UNL A   1      45.436  26.113  36.278  1.00  0.00     0.198 A 
ATOM     88  F   UNL A   1      43.328  25.776  35.291  1.00  0.00    -0.203 F 
ATOM     89  F   UNL A   1      47.977  28.613  35.623  1.00  0.00    -0.200 F 
ATOM     90  C   UNL A   1      46.618  26.832  36.370  1.00  0.00     0.200 A 
ATOM     91  F   UNL A   1      45.230  25.057  37.078  1.00  0.00    -0.200 F 
ATOM     92  F   UNL A   1      47.561  26.462  37.247  1.00  0.00    -0.200 F 
ENDBRANCH  59  82
ENDBRANCH  33  34
ENDBRANCH  26  28
ENDBRANCH  25  26
ENDBRANCH  24  25
ENDBRANCH   1  24
TORSDOF 14
ENDMDL
