MODEL 1
REMARK VINA RESULT:     -12.3      0.000      0.000
REMARK SMILES O=C(Nc1c(F)cc(F)cc1F)N[C@H]1C=C[C@H](C(=O)OCCOC(=O)c2ccc(-c3c4nc(c(-c5c(F)c(F)c(F)c(F)c5F)c5ccc([nH]5)c(-c5c(F)c(F)c(F)c(F)c5F)c5nc(c(-c6c(F)c(F)c(F)c(F)c6F)c6ccc3[nH]6)C=C5)C=C4)cc2)C1
REMARK SMILES IDX 21 1 20 2 18 3 19 4 17 5 14 6 15 7 89 8 16 9 13 10 1 11 2 12
REMARK SMILES IDX 3 13 4 16 5 17 11 18 6 19 7 20 10 21 12 22 8 23 9 24 22 25
REMARK SMILES IDX 23 26 24 27 25 28 26 29 27 30 88 31 28 32 87 33 29 34 30 35
REMARK SMILES IDX 31 36 81 37 32 38 86 39 80 40 82 41 33 42 85 43 79 44 78 45
REMARK SMILES IDX 34 47 66 48 46 49 65 50 47 51 50 52 64 53 83 54 48 55 49 56
REMARK SMILES IDX 63 58 84 59 51 60 35 61 36 62 44 63 37 64 38 65 42 66 45 67
REMARK SMILES IDX 39 68 40 69 43 70 41 71 67 72 68 73 76 74 69 75 70 76 74 77
REMARK SMILES IDX 77 78 71 79 72 80 75 81 73 82 52 83 53 84 61 85 54 86 55 87
REMARK SMILES IDX 59 88 62 89 56 90 57 91 60 92 58 93
REMARK H PARENT 3 14 13 15 82 46 50 57
REMARK Flexibility Score: inf
ROOT
ATOM      1  C   UNL A   1      44.482  21.495  25.260  1.00  0.00     0.274 C 
ENDROOT
BRANCH   1   2
ATOM      2  O   UNL A   1      43.337  21.329  26.119  1.00  0.00    -0.462 OA
BRANCH   2   3
ATOM      3  C   UNL A   1      42.564  20.231  25.880  1.00  0.00     0.312 C 
ATOM      4  O   UNL A   1      42.778  19.401  25.006  1.00  0.00    -0.252 OA
BRANCH   3   5
ATOM      5  C   UNL A   1      41.410  20.158  26.875  1.00  0.00     0.124 C 
ATOM      6  C   UNL A   1      39.741  21.831  26.262  1.00  0.00     0.107 C 
ATOM      7  C   UNL A   1      40.459  22.212  27.516  1.00  0.00    -0.006 C 
ATOM      8  C   UNL A   1      40.060  20.336  26.163  1.00  0.00     0.048 C 
ATOM      9  C   UNL A   1      41.396  21.310  27.837  1.00  0.00    -0.014 C 
BRANCH   6  10
ATOM     10  N   UNL A   1      38.324  22.039  26.394  1.00  0.00    -0.332 N 
ATOM     11  O   UNL A   1      38.447  24.297  26.263  1.00  0.00    -0.248 OA
ATOM     12  C   UNL A   1      37.775  23.266  26.267  1.00  0.00     0.319 C 
ATOM     13  N   UNL A   1      36.447  23.383  26.029  1.00  0.00    -0.303 N 
ATOM     14  H   UNL A   1      36.161  24.324  25.965  1.00  0.00     0.172 HD
ATOM     15  H   UNL A   1      37.741  21.268  26.578  1.00  0.00     0.165 HD
BRANCH  13  16
ATOM     16  C   UNL A   1      35.375  22.486  25.849  1.00  0.00     0.115 A 
ATOM     17  C   UNL A   1      34.420  22.108  26.795  1.00  0.00     0.152 A 
ATOM     18  C   UNL A   1      35.277  21.908  24.573  1.00  0.00     0.152 A 
ATOM     19  F   UNL A   1      34.383  22.659  28.015  1.00  0.00    -0.204 F 
ATOM     20  C   UNL A   1      33.436  21.166  26.497  1.00  0.00     0.081 A 
ATOM     21  C   UNL A   1      34.310  20.959  24.259  1.00  0.00     0.081 A 
ATOM     22  F   UNL A   1      36.165  22.252  23.625  1.00  0.00    -0.204 F 
ATOM     23  C   UNL A   1      33.397  20.593  25.234  1.00  0.00     0.129 A 
ATOM     24  F   UNL A   1      32.462  19.678  24.953  1.00  0.00    -0.207 F 
ENDBRANCH  13  16
ENDBRANCH   6  10
ENDBRANCH   3   5
ENDBRANCH   2   3
ENDBRANCH   1   2
BRANCH   1  25
ATOM     25  C   UNL A   1      44.218  22.557  24.191  1.00  0.00     0.275 C 
BRANCH  25  26
ATOM     26  O   UNL A   1      43.486  23.672  24.734  1.00  0.00    -0.458 OA
BRANCH  26  27
ATOM     27  C   UNL A   1      44.243  24.720  25.134  1.00  0.00     0.338 C 
ATOM     28  O   UNL A   1      45.270  25.135  24.626  1.00  0.00    -0.246 OA
BRANCH  27  29
ATOM     29  C   UNL A   1      43.552  25.439  26.215  1.00  0.00     0.060 A 
ATOM     30  C   UNL A   1      43.886  26.780  26.402  1.00  0.00     0.016 A 
ATOM     31  C   UNL A   1      42.670  24.800  27.087  1.00  0.00     0.016 A 
ATOM     32  C   UNL A   1      43.332  27.503  27.454  1.00  0.00     0.010 A 
ATOM     33  C   UNL A   1      42.120  25.524  28.153  1.00  0.00     0.010 A 
ATOM     34  C   UNL A   1      42.455  26.877  28.348  1.00  0.00    -0.014 A 
BRANCH  34  35
ATOM     35  C   UNL A   1      41.967  27.627  29.533  1.00  0.00     0.031 A 
ATOM     36  C   UNL A   1      40.711  28.444  29.430  1.00  0.00     0.074 A 
ATOM     37  C   UNL A   1      42.601  27.523  30.715  1.00  0.00     0.049 A 
ATOM     38  N   UNL A   1      40.156  29.230  30.318  1.00  0.00    -0.248 NA
ATOM     39  C   UNL A   1      39.975  28.357  28.159  1.00  0.00     0.031 C 
ATOM     40  C   UNL A   1      43.778  26.697  30.971  1.00  0.00     0.029 A 
ATOM     41  N   UNL A   1      42.331  28.110  31.927  1.00  0.00    -0.354 N 
ATOM     42  C   UNL A   1      39.023  29.749  29.707  1.00  0.00     0.074 A 
ATOM     43  C   UNL A   1      38.970  29.195  28.372  1.00  0.00     0.031 C 
ATOM     44  C   UNL A   1      44.121  26.814  32.264  1.00  0.00     0.029 A 
ATOM     45  C   UNL A   1      43.222  27.765  32.914  1.00  0.00     0.049 A 
ATOM     46  H   UNL A   1      41.572  28.718  32.075  1.00  0.00     0.167 HD
ATOM     47  C   UNL A   1      38.108  30.606  30.220  1.00  0.00     0.037 A 
ATOM     48  C   UNL A   1      43.317  28.190  34.190  1.00  0.00     0.037 A 
ATOM     49  C   UNL A   1      38.147  31.139  31.555  1.00  0.00     0.049 A 
ATOM     50  C   UNL A   1      42.335  29.203  34.710  1.00  0.00     0.074 A 
ATOM     51  C   UNL A   1      37.275  32.033  32.154  1.00  0.00     0.029 A 
ATOM     52  N   UNL A   1      39.107  30.821  32.503  1.00  0.00    -0.354 N 
ATOM     53  N   UNL A   1      41.301  29.737  34.109  1.00  0.00    -0.248 NA
ATOM     54  C   UNL A   1      42.544  29.688  36.083  1.00  0.00     0.031 C 
ATOM     55  C   UNL A   1      37.725  32.280  33.455  1.00  0.00     0.029 A 
ATOM     56  C   UNL A   1      38.856  31.511  33.679  1.00  0.00     0.049 A 
ATOM     57  H   UNL A   1      39.856  30.199  32.362  1.00  0.00     0.167 HD
ATOM     58  C   UNL A   1      40.732  30.610  35.026  1.00  0.00     0.074 A 
ATOM     59  C   UNL A   1      41.525  30.523  36.234  1.00  0.00     0.031 C 
ATOM     60  C   UNL A   1      39.652  31.414  34.875  1.00  0.00     0.037 A 
BRANCH  47  61
ATOM     61  C   UNL A   1      36.995  31.049  29.318  1.00  0.00     0.064 A 
ATOM     62  C   UNL A   1      36.983  32.352  28.798  1.00  0.00     0.173 A 
ATOM     63  C   UNL A   1      35.921  30.204  29.005  1.00  0.00     0.173 A 
ATOM     64  F   UNL A   1      37.986  33.199  29.072  1.00  0.00    -0.203 F 
ATOM     65  C   UNL A   1      35.930  32.795  28.003  1.00  0.00     0.198 A 
ATOM     66  C   UNL A   1      34.881  30.644  28.190  1.00  0.00     0.198 A 
ATOM     67  F   UNL A   1      35.896  28.945  29.467  1.00  0.00    -0.203 F 
ATOM     68  F   UNL A   1      35.929  34.051  27.535  1.00  0.00    -0.200 F 
ATOM     69  C   UNL A   1      34.882  31.940  27.697  1.00  0.00     0.200 A 
ATOM     70  F   UNL A   1      33.880  29.809  27.875  1.00  0.00    -0.200 F 
ATOM     71  F   UNL A   1      33.877  32.364  26.919  1.00  0.00    -0.200 F 
ENDBRANCH  47  61
BRANCH  48  72
ATOM     72  C   UNL A   1      44.405  27.669  35.056  1.00  0.00     0.064 A 
ATOM     73  C   UNL A   1      45.656  28.300  35.110  1.00  0.00     0.173 A 
ATOM     74  C   UNL A   1      44.216  26.522  35.839  1.00  0.00     0.173 A 
ATOM     75  F   UNL A   1      45.882  29.406  34.387  1.00  0.00    -0.203 F 
ATOM     76  C   UNL A   1      46.686  27.790  35.897  1.00  0.00     0.198 A 
ATOM     77  C   UNL A   1      45.240  26.027  36.646  1.00  0.00     0.198 A 
ATOM     78  F   UNL A   1      43.027  25.903  35.845  1.00  0.00    -0.203 F 
ATOM     79  F   UNL A   1      47.880  28.398  35.911  1.00  0.00    -0.200 F 
ATOM     80  C   UNL A   1      46.476  26.656  36.667  1.00  0.00     0.200 A 
ATOM     81  F   UNL A   1      45.025  24.949  37.411  1.00  0.00    -0.200 F 
ATOM     82  F   UNL A   1      47.462  26.175  37.437  1.00  0.00    -0.200 F 
ENDBRANCH  48  72
BRANCH  60  83
ATOM     83  C   UNL A   1      39.247  32.260  36.046  1.00  0.00     0.064 A 
ATOM     84  C   UNL A   1      39.822  33.523  36.245  1.00  0.00     0.173 A 
ATOM     85  C   UNL A   1      38.347  31.785  37.011  1.00  0.00     0.173 A 
ATOM     86  F   UNL A   1      40.693  34.017  35.352  1.00  0.00    -0.203 F 
ATOM     87  C   UNL A   1      39.519  34.277  37.374  1.00  0.00     0.198 A 
ATOM     88  C   UNL A   1      38.030  32.552  38.129  1.00  0.00     0.198 A 
ATOM     89  F   UNL A   1      37.763  30.587  36.858  1.00  0.00    -0.203 F 
ATOM     90  F   UNL A   1      40.101  35.471  37.559  1.00  0.00    -0.200 F 
ATOM     91  C   UNL A   1      38.622  33.792  38.314  1.00  0.00     0.200 A 
ATOM     92  F   UNL A   1      37.147  32.091  39.027  1.00  0.00    -0.200 F 
ATOM     93  F   UNL A   1      38.326  34.523  39.400  1.00  0.00    -0.200 F 
ENDBRANCH  60  83
ENDBRANCH  34  35
ENDBRANCH  27  29
ENDBRANCH  26  27
ENDBRANCH  25  26
ENDBRANCH   1  25
TORSDOF 13
ENDMDL
MODEL 2
REMARK VINA RESULT:     -12.2      3.656      8.674
REMARK SMILES O=C(Nc1c(F)cc(F)cc1F)N[C@H]1C=C[C@H](C(=O)OCCOC(=O)c2ccc(-c3c4nc(c(-c5c(F)c(F)c(F)c(F)c5F)c5ccc([nH]5)c(-c5c(F)c(F)c(F)c(F)c5F)c5nc(c(-c6c(F)c(F)c(F)c(F)c6F)c6ccc3[nH]6)C=C5)C=C4)cc2)C1
REMARK SMILES IDX 21 1 20 2 18 3 19 4 17 5 14 6 15 7 89 8 16 9 13 10 1 11 2 12
REMARK SMILES IDX 3 13 4 16 5 17 11 18 6 19 7 20 10 21 12 22 8 23 9 24 22 25
REMARK SMILES IDX 23 26 24 27 25 28 26 29 27 30 88 31 28 32 87 33 29 34 30 35
REMARK SMILES IDX 31 36 81 37 32 38 86 39 80 40 82 41 33 42 85 43 79 44 78 45
REMARK SMILES IDX 34 47 66 48 46 49 65 50 47 51 50 52 64 53 83 54 48 55 49 56
REMARK SMILES IDX 63 58 84 59 51 60 35 61 36 62 44 63 37 64 38 65 42 66 45 67
REMARK SMILES IDX 39 68 40 69 43 70 41 71 67 72 68 73 76 74 69 75 70 76 74 77
REMARK SMILES IDX 77 78 71 79 72 80 75 81 73 82 52 83 53 84 61 85 54 86 55 87
REMARK SMILES IDX 59 88 62 89 56 90 57 91 60 92 58 93
REMARK H PARENT 3 14 13 15 82 46 50 57
REMARK Flexibility Score: inf
ROOT
ATOM      1  C   UNL A   1      31.052  29.794  24.581  1.00  0.00     0.274 C 
ENDROOT
BRANCH   1   2
ATOM      2  O   UNL A   1      30.517  28.550  24.087  1.00  0.00    -0.462 OA
BRANCH   2   3
ATOM      3  C   UNL A   1      30.637  28.339  22.746  1.00  0.00     0.312 C 
ATOM      4  O   UNL A   1      30.164  29.061  21.878  1.00  0.00    -0.252 OA
BRANCH   3   5
ATOM      5  C   UNL A   1      31.473  27.093  22.469  1.00  0.00     0.124 C 
ATOM      6  C   UNL A   1      32.523  26.376  24.552  1.00  0.00     0.107 C 
ATOM      7  C   UNL A   1      33.528  26.947  23.605  1.00  0.00    -0.006 C 
ATOM      8  C   UNL A   1      31.346  26.081  23.618  1.00  0.00     0.048 C 
ATOM      9  C   UNL A   1      32.949  27.368  22.473  1.00  0.00    -0.014 C 
BRANCH   6  10
ATOM     10  N   UNL A   1      33.009  25.164  25.154  1.00  0.00    -0.332 N 
ATOM     11  O   UNL A   1      31.524  25.186  26.864  1.00  0.00    -0.248 OA
ATOM     12  C   UNL A   1      32.387  24.600  26.211  1.00  0.00     0.319 C 
ATOM     13  N   UNL A   1      32.632  23.303  26.517  1.00  0.00    -0.303 N 
ATOM     14  H   UNL A   1      32.130  23.006  27.311  1.00  0.00     0.172 HD
ATOM     15  H   UNL A   1      33.814  24.734  24.784  1.00  0.00     0.165 HD
BRANCH  13  16
ATOM     16  C   UNL A   1      33.430  22.275  25.975  1.00  0.00     0.115 A 
ATOM     17  C   UNL A   1      33.002  21.188  25.210  1.00  0.00     0.152 A 
ATOM     18  C   UNL A   1      34.804  22.364  26.251  1.00  0.00     0.152 A 
ATOM     19  F   UNL A   1      31.725  21.055  24.830  1.00  0.00    -0.204 F 
ATOM     20  C   UNL A   1      33.896  20.210  24.775  1.00  0.00     0.081 A 
ATOM     21  C   UNL A   1      35.710  21.395  25.836  1.00  0.00     0.081 A 
ATOM     22  F   UNL A   1      35.263  23.401  26.971  1.00  0.00    -0.204 F 
ATOM     23  C   UNL A   1      35.241  20.319  25.102  1.00  0.00     0.129 A 
ATOM     24  F   UNL A   1      36.096  19.371  24.697  1.00  0.00    -0.207 F 
ENDBRANCH  13  16
ENDBRANCH   6  10
ENDBRANCH   3   5
ENDBRANCH   2   3
ENDBRANCH   1   2
BRANCH   1  25
ATOM     25  C   UNL A   1      31.767  29.592  25.919  1.00  0.00     0.275 C 
BRANCH  25  26
ATOM     26  O   UNL A   1      33.063  30.221  25.917  1.00  0.00    -0.458 OA
BRANCH  26  27
ATOM     27  C   UNL A   1      33.263  31.134  26.895  1.00  0.00     0.338 C 
ATOM     28  O   UNL A   1      32.476  31.967  27.310  1.00  0.00    -0.246 OA
BRANCH  27  29
ATOM     29  C   UNL A   1      34.557  30.880  27.544  1.00  0.00     0.060 A 
ATOM     30  C   UNL A   1      34.825  29.569  27.937  1.00  0.00     0.016 A 
ATOM     31  C   UNL A   1      35.451  31.907  27.849  1.00  0.00     0.016 A 
ATOM     32  C   UNL A   1      35.995  29.265  28.626  1.00  0.00     0.010 A 
ATOM     33  C   UNL A   1      36.624  31.605  28.554  1.00  0.00     0.010 A 
ATOM     34  C   UNL A   1      36.898  30.284  28.954  1.00  0.00    -0.014 A 
BRANCH  34  35
ATOM     35  C   UNL A   1      38.081  29.964  29.793  1.00  0.00     0.031 A 
ATOM     36  C   UNL A   1      39.171  29.092  29.240  1.00  0.00     0.074 A 
ATOM     37  C   UNL A   1      38.217  30.508  31.017  1.00  0.00     0.049 A 
ATOM     38  N   UNL A   1      40.246  28.633  29.829  1.00  0.00    -0.248 NA
ATOM     39  C   UNL A   1      39.038  28.690  27.831  1.00  0.00     0.031 C 
ATOM     40  C   UNL A   1      37.275  31.438  31.635  1.00  0.00     0.029 A 
ATOM     41  N   UNL A   1      39.212  30.364  31.952  1.00  0.00    -0.354 N 
ATOM     42  C   UNL A   1      40.904  27.870  28.874  1.00  0.00     0.074 A 
ATOM     43  C   UNL A   1      40.106  27.922  27.668  1.00  0.00     0.031 C 
ATOM     44  C   UNL A   1      37.744  31.796  32.842  1.00  0.00     0.029 A 
ATOM     45  C   UNL A   1      38.990  31.080  33.103  1.00  0.00     0.049 A 
ATOM     46  H   UNL A   1      40.007  29.802  31.812  1.00  0.00     0.167 HD
ATOM     47  C   UNL A   1      42.070  27.193  28.994  1.00  0.00     0.037 A 
ATOM     48  C   UNL A   1      39.699  31.130  34.248  1.00  0.00     0.037 A 
ATOM     49  C   UNL A   1      42.876  27.159  30.185  1.00  0.00     0.049 A 
ATOM     50  C   UNL A   1      40.950  30.306  34.384  1.00  0.00     0.074 A 
ATOM     51  C   UNL A   1      44.062  26.480  30.406  1.00  0.00     0.029 A 
ATOM     52  N   UNL A   1      42.581  27.840  31.356  1.00  0.00    -0.354 N 
ATOM     53  N   UNL A   1      41.535  29.538  33.498  1.00  0.00    -0.248 NA
ATOM     54  C   UNL A   1      41.631  30.340  35.687  1.00  0.00     0.031 C 
ATOM     55  C   UNL A   1      44.470  26.726  31.721  1.00  0.00     0.029 A 
ATOM     56  C   UNL A   1      43.557  27.589  32.307  1.00  0.00     0.049 A 
ATOM     57  H   UNL A   1      41.795  28.417  31.492  1.00  0.00     0.167 HD
ATOM     58  C   UNL A   1      42.652  29.006  34.127  1.00  0.00     0.074 A 
ATOM     59  C   UNL A   1      42.676  29.552  35.469  1.00  0.00     0.031 C 
ATOM     60  C   UNL A   1      43.571  28.139  33.637  1.00  0.00     0.037 A 
BRANCH  47  61
ATOM     61  C   UNL A   1      42.535  26.402  27.808  1.00  0.00     0.064 A 
ATOM     62  C   UNL A   1      43.440  26.964  26.894  1.00  0.00     0.173 A 
ATOM     63  C   UNL A   1      42.053  25.111  27.549  1.00  0.00     0.173 A 
ATOM     64  F   UNL A   1      43.926  28.197  27.096  1.00  0.00    -0.203 F 
ATOM     65  C   UNL A   1      43.839  26.263  25.760  1.00  0.00     0.198 A 
ATOM     66  C   UNL A   1      42.473  24.404  26.425  1.00  0.00     0.198 A 
ATOM     67  F   UNL A   1      41.197  24.527  28.401  1.00  0.00    -0.203 F 
ATOM     68  F   UNL A   1      44.688  26.828  24.890  1.00  0.00    -0.200 F 
ATOM     69  C   UNL A   1      43.358  24.983  25.528  1.00  0.00     0.200 A 
ATOM     70  F   UNL A   1      42.026  23.158  26.214  1.00  0.00    -0.200 F 
ATOM     71  F   UNL A   1      43.756  24.305  24.443  1.00  0.00    -0.200 F 
ENDBRANCH  47  61
BRANCH  48  72
ATOM     72  C   UNL A   1      39.223  31.980  35.369  1.00  0.00     0.064 A 
ATOM     73  C   UNL A   1      38.418  31.453  36.389  1.00  0.00     0.173 A 
ATOM     74  C   UNL A   1      39.555  33.340  35.434  1.00  0.00     0.173 A 
ATOM     75  F   UNL A   1      38.081  30.156  36.377  1.00  0.00    -0.203 F 
ATOM     76  C   UNL A   1      37.944  32.261  37.421  1.00  0.00     0.198 A 
ATOM     77  C   UNL A   1      39.101  34.141  36.480  1.00  0.00     0.198 A 
ATOM     78  F   UNL A   1      40.349  33.881  34.498  1.00  0.00    -0.203 F 
ATOM     79  F   UNL A   1      37.155  31.738  38.370  1.00  0.00    -0.200 F 
ATOM     80  C   UNL A   1      38.288  33.603  37.467  1.00  0.00     0.200 A 
ATOM     81  F   UNL A   1      39.460  35.430  36.538  1.00  0.00    -0.200 F 
ATOM     82  F   UNL A   1      37.845  34.376  38.468  1.00  0.00    -0.200 F 
ENDBRANCH  48  72
BRANCH  60  83
ATOM     83  C   UNL A   1      44.693  27.731  34.544  1.00  0.00     0.064 A 
ATOM     84  C   UNL A   1      45.896  28.451  34.558  1.00  0.00     0.173 A 
ATOM     85  C   UNL A   1      44.604  26.581  35.343  1.00  0.00     0.173 A 
ATOM     86  F   UNL A   1      46.031  29.554  33.806  1.00  0.00    -0.203 F 
ATOM     87  C   UNL A   1      46.974  28.029  35.330  1.00  0.00     0.198 A 
ATOM     88  C   UNL A   1      45.677  26.174  36.130  1.00  0.00     0.198 A 
ATOM     89  F   UNL A   1      43.469  25.866  35.372  1.00  0.00    -0.203 F 
ATOM     90  F   UNL A   1      48.124  28.717  35.307  1.00  0.00    -0.200 F 
ATOM     91  C   UNL A   1      46.863  26.893  36.117  1.00  0.00     0.200 A 
ATOM     92  F   UNL A   1      45.562  25.087  36.906  1.00  0.00    -0.200 F 
ATOM     93  F   UNL A   1      47.901  26.490  36.865  1.00  0.00    -0.200 F 
ENDBRANCH  60  83
ENDBRANCH  34  35
ENDBRANCH  27  29
ENDBRANCH  26  27
ENDBRANCH  25  26
ENDBRANCH   1  25
TORSDOF 13
ENDMDL
MODEL 3
REMARK VINA RESULT:     -12.2      3.472      8.574
REMARK SMILES O=C(Nc1c(F)cc(F)cc1F)N[C@H]1C=C[C@H](C(=O)OCCOC(=O)c2ccc(-c3c4nc(c(-c5c(F)c(F)c(F)c(F)c5F)c5ccc([nH]5)c(-c5c(F)c(F)c(F)c(F)c5F)c5nc(c(-c6c(F)c(F)c(F)c(F)c6F)c6ccc3[nH]6)C=C5)C=C4)cc2)C1
REMARK SMILES IDX 21 1 20 2 18 3 19 4 17 5 14 6 15 7 89 8 16 9 13 10 1 11 2 12
REMARK SMILES IDX 3 13 4 16 5 17 11 18 6 19 7 20 10 21 12 22 8 23 9 24 22 25
REMARK SMILES IDX 23 26 24 27 25 28 26 29 27 30 88 31 28 32 87 33 29 34 30 35
REMARK SMILES IDX 31 36 81 37 32 38 86 39 80 40 82 41 33 42 85 43 79 44 78 45
REMARK SMILES IDX 34 47 66 48 46 49 65 50 47 51 50 52 64 53 83 54 48 55 49 56
REMARK SMILES IDX 63 58 84 59 51 60 35 61 36 62 44 63 37 64 38 65 42 66 45 67
REMARK SMILES IDX 39 68 40 69 43 70 41 71 67 72 68 73 76 74 69 75 70 76 74 77
REMARK SMILES IDX 77 78 71 79 72 80 75 81 73 82 52 83 53 84 61 85 54 86 55 87
REMARK SMILES IDX 59 88 62 89 56 90 57 91 60 92 58 93
REMARK H PARENT 3 14 13 15 82 46 50 57
REMARK Flexibility Score: inf
ROOT
ATOM      1  C   UNL A   1      31.195  29.713  24.440  1.00  0.00     0.274 C 
ENDROOT
BRANCH   1   2
ATOM      2  O   UNL A   1      30.392  28.549  24.156  1.00  0.00    -0.462 OA
BRANCH   2   3
ATOM      3  C   UNL A   1      30.355  28.152  22.852  1.00  0.00     0.312 C 
ATOM      4  O   UNL A   1      30.036  28.866  21.911  1.00  0.00    -0.252 OA
BRANCH   3   5
ATOM      5  C   UNL A   1      30.800  26.699  22.720  1.00  0.00     0.124 C 
ATOM      6  C   UNL A   1      33.086  26.501  23.550  1.00  0.00     0.107 C 
ATOM      7  C   UNL A   1      33.032  26.350  22.064  1.00  0.00    -0.006 C 
ATOM      8  C   UNL A   1      31.625  26.263  23.941  1.00  0.00     0.048 C 
ATOM      9  C   UNL A   1      31.782  26.489  21.604  1.00  0.00    -0.014 C 
BRANCH   6  10
ATOM     10  N   UNL A   1      33.937  25.502  24.139  1.00  0.00    -0.332 N 
ATOM     11  O   UNL A   1      34.123  26.559  26.134  1.00  0.00    -0.248 OA
ATOM     12  C   UNL A   1      34.298  25.558  25.440  1.00  0.00     0.319 C 
ATOM     13  N   UNL A   1      34.774  24.447  26.050  1.00  0.00    -0.303 N 
ATOM     14  H   UNL A   1      35.011  24.612  26.992  1.00  0.00     0.172 HD
ATOM     15  H   UNL A   1      34.263  24.759  23.582  1.00  0.00     0.165 HD
BRANCH  13  16
ATOM     16  C   UNL A   1      35.012  23.112  25.665  1.00  0.00     0.115 A 
ATOM     17  C   UNL A   1      34.059  22.132  25.381  1.00  0.00     0.152 A 
ATOM     18  C   UNL A   1      36.363  22.739  25.571  1.00  0.00     0.152 A 
ATOM     19  F   UNL A   1      32.749  22.408  25.368  1.00  0.00    -0.204 F 
ATOM     20  C   UNL A   1      34.433  20.828  25.058  1.00  0.00     0.081 A 
ATOM     21  C   UNL A   1      36.756  21.442  25.261  1.00  0.00     0.081 A 
ATOM     22  F   UNL A   1      37.315  23.653  25.822  1.00  0.00    -0.204 F 
ATOM     23  C   UNL A   1      35.779  20.494  25.011  1.00  0.00     0.129 A 
ATOM     24  F   UNL A   1      36.136  19.238  24.716  1.00  0.00    -0.207 F 
ENDBRANCH  13  16
ENDBRANCH   6  10
ENDBRANCH   3   5
ENDBRANCH   2   3
ENDBRANCH   1   2
BRANCH   1  25
ATOM     25  C   UNL A   1      31.744  29.666  25.867  1.00  0.00     0.275 C 
BRANCH  25  26
ATOM     26  O   UNL A   1      33.092  30.172  25.924  1.00  0.00    -0.458 OA
BRANCH  26  27
ATOM     27  C   UNL A   1      33.310  31.133  26.851  1.00  0.00     0.338 C 
ATOM     28  O   UNL A   1      32.538  32.001  27.222  1.00  0.00    -0.246 OA
BRANCH  27  29
ATOM     29  C   UNL A   1      34.601  30.892  27.511  1.00  0.00     0.060 A 
ATOM     30  C   UNL A   1      34.898  29.577  27.868  1.00  0.00     0.016 A 
ATOM     31  C   UNL A   1      35.463  31.933  27.859  1.00  0.00     0.016 A 
ATOM     32  C   UNL A   1      36.066  29.284  28.565  1.00  0.00     0.010 A 
ATOM     33  C   UNL A   1      36.634  31.640  28.571  1.00  0.00     0.010 A 
ATOM     34  C   UNL A   1      36.938  30.314  28.936  1.00  0.00    -0.014 A 
BRANCH  34  35
ATOM     35  C   UNL A   1      38.117  30.000  29.782  1.00  0.00     0.031 A 
ATOM     36  C   UNL A   1      39.213  29.131  29.236  1.00  0.00     0.074 A 
ATOM     37  C   UNL A   1      38.244  30.546  31.005  1.00  0.00     0.049 A 
ATOM     38  N   UNL A   1      40.286  28.676  29.832  1.00  0.00    -0.248 NA
ATOM     39  C   UNL A   1      39.089  28.726  27.827  1.00  0.00     0.031 C 
ATOM     40  C   UNL A   1      37.295  31.474  31.617  1.00  0.00     0.029 A 
ATOM     41  N   UNL A   1      39.234  30.407  31.946  1.00  0.00    -0.354 N 
ATOM     42  C   UNL A   1      40.952  27.914  28.881  1.00  0.00     0.074 A 
ATOM     43  C   UNL A   1      40.160  27.962  27.670  1.00  0.00     0.031 C 
ATOM     44  C   UNL A   1      37.757  31.835  32.826  1.00  0.00     0.029 A 
ATOM     45  C   UNL A   1      39.004  31.124  33.095  1.00  0.00     0.049 A 
ATOM     46  H   UNL A   1      40.032  29.847  31.811  1.00  0.00     0.167 HD
ATOM     47  C   UNL A   1      42.120  27.241  29.008  1.00  0.00     0.037 A 
ATOM     48  C   UNL A   1      39.707  31.178  34.244  1.00  0.00     0.037 A 
ATOM     49  C   UNL A   1      42.919  27.212  30.204  1.00  0.00     0.049 A 
ATOM     50  C   UNL A   1      40.959  30.359  34.388  1.00  0.00     0.074 A 
ATOM     51  C   UNL A   1      44.106  26.538  30.432  1.00  0.00     0.029 A 
ATOM     52  N   UNL A   1      42.616  27.894  31.372  1.00  0.00    -0.354 N 
ATOM     53  N   UNL A   1      41.551  29.591  33.506  1.00  0.00    -0.248 NA
ATOM     54  C   UNL A   1      41.633  30.397  35.695  1.00  0.00     0.031 C 
ATOM     55  C   UNL A   1      44.506  26.787  31.749  1.00  0.00     0.029 A 
ATOM     56  C   UNL A   1      43.587  27.647  32.329  1.00  0.00     0.049 A 
ATOM     57  H   UNL A   1      41.827  28.468  31.503  1.00  0.00     0.167 HD
ATOM     58  C   UNL A   1      42.667  29.064  34.142  1.00  0.00     0.074 A 
ATOM     59  C   UNL A   1      42.681  29.612  35.483  1.00  0.00     0.031 C 
ATOM     60  C   UNL A   1      43.591  28.199  33.658  1.00  0.00     0.037 A 
BRANCH  47  61
ATOM     61  C   UNL A   1      42.594  26.450  27.826  1.00  0.00     0.064 A 
ATOM     62  C   UNL A   1      43.462  27.031  26.889  1.00  0.00     0.173 A 
ATOM     63  C   UNL A   1      42.156  25.139  27.595  1.00  0.00     0.173 A 
ATOM     64  F   UNL A   1      43.905  28.285  27.064  1.00  0.00    -0.203 F 
ATOM     65  C   UNL A   1      43.868  26.329  25.758  1.00  0.00     0.198 A 
ATOM     66  C   UNL A   1      42.583  24.431  26.474  1.00  0.00     0.198 A 
ATOM     67  F   UNL A   1      41.336  24.536  28.470  1.00  0.00    -0.203 F 
ATOM     68  F   UNL A   1      44.680  26.911  24.865  1.00  0.00    -0.200 F 
ATOM     69  C   UNL A   1      43.431  25.029  25.553  1.00  0.00     0.200 A 
ATOM     70  F   UNL A   1      42.179  23.166  26.288  1.00  0.00    -0.200 F 
ATOM     71  F   UNL A   1      43.835  24.349  24.471  1.00  0.00    -0.200 F 
ENDBRANCH  47  61
BRANCH  48  72
ATOM     72  C   UNL A   1      39.221  32.029  35.360  1.00  0.00     0.064 A 
ATOM     73  C   UNL A   1      39.561  33.387  35.440  1.00  0.00     0.173 A 
ATOM     74  C   UNL A   1      38.417  31.495  36.376  1.00  0.00     0.173 A 
ATOM     75  F   UNL A   1      40.319  33.947  34.487  1.00  0.00    -0.203 F 
ATOM     76  C   UNL A   1      39.133  34.175  36.506  1.00  0.00     0.198 A 
ATOM     77  C   UNL A   1      37.969  32.289  37.430  1.00  0.00     0.198 A 
ATOM     78  F   UNL A   1      38.040  30.209  36.326  1.00  0.00    -0.203 F 
ATOM     79  F   UNL A   1      39.493  35.464  36.571  1.00  0.00    -0.200 F 
ATOM     80  C   UNL A   1      38.335  33.626  37.499  1.00  0.00     0.200 A 
ATOM     81  F   UNL A   1      37.174  31.764  38.371  1.00  0.00    -0.200 F 
ATOM     82  F   UNL A   1      37.910  34.387  38.516  1.00  0.00    -0.200 F 
ENDBRANCH  48  72
BRANCH  60  83
ATOM     83  C   UNL A   1      44.710  27.796  34.572  1.00  0.00     0.064 A 
ATOM     84  C   UNL A   1      45.909  28.523  34.594  1.00  0.00     0.173 A 
ATOM     85  C   UNL A   1      44.621  26.646  35.370  1.00  0.00     0.173 A 
ATOM     86  F   UNL A   1      46.044  29.627  33.843  1.00  0.00    -0.203 F 
ATOM     87  C   UNL A   1      46.984  28.106  35.373  1.00  0.00     0.198 A 
ATOM     88  C   UNL A   1      45.692  26.244  36.164  1.00  0.00     0.198 A 
ATOM     89  F   UNL A   1      43.490  25.925  35.391  1.00  0.00    -0.203 F 
ATOM     90  F   UNL A   1      48.131  28.800  35.357  1.00  0.00    -0.200 F 
ATOM     91  C   UNL A   1      46.874  26.968  36.158  1.00  0.00     0.200 A 
ATOM     92  F   UNL A   1      45.577  25.156  36.939  1.00  0.00    -0.200 F 
ATOM     93  F   UNL A   1      47.909  26.571  36.913  1.00  0.00    -0.200 F 
ENDBRANCH  60  83
ENDBRANCH  34  35
ENDBRANCH  27  29
ENDBRANCH  26  27
ENDBRANCH  25  26
ENDBRANCH   1  25
TORSDOF 13
ENDMDL
