MODEL 1
REMARK VINA RESULT:     -11.1      0.000      0.000
REMARK SMILES C[C@H](C(=O)OCCOC(=O)c1ccc(-c2c3nc(c(-c4c(F)c(F)c(F)c(F)c4F)c4ccc([nH]4)c(-c4c(F)c(F)c(F)c(F)c4F)c4nc(c(-c5c(F)c(F)c(F)c(F)c5F)c5ccc2[nH]5)C=C4)C=C3)cc1)[C@H](C)[NH+]1CC[NH+](CCO)CC1
REMARK SMILES IDX 5 1 3 2 4 3 2 4 1 5 74 6 75 7 76 8 77 9 84 10 78 12 83 13
REMARK SMILES IDX 79 14 80 16 81 17 82 18 6 20 7 21 8 22 9 23 10 24 11 25
REMARK SMILES IDX 12 26 73 27 13 28 72 29 14 30 15 31 16 32 66 33 17 34 71 35
REMARK SMILES IDX 65 36 67 37 18 38 70 39 64 40 63 41 19 43 51 44 31 45 50 46
REMARK SMILES IDX 32 47 35 48 49 49 68 50 33 51 34 52 48 54 69 55 36 56 20 57
REMARK SMILES IDX 21 58 29 59 22 60 23 61 27 62 30 63 24 64 25 65 28 66 26 67
REMARK SMILES IDX 52 68 53 69 61 70 54 71 55 72 59 73 62 74 56 75 57 76 60 77
REMARK SMILES IDX 58 78 37 79 38 80 46 81 39 82 40 83 44 84 47 85 41 86 42 87
REMARK SMILES IDX 45 88 43 89
REMARK H PARENT 76 11 79 15 82 19 67 42 35 53
REMARK Flexibility Score: inf
ROOT
ATOM      1  O   UNL A   1      31.145  27.316  27.134  1.00  0.00    -0.462 OA
ENDROOT
BRANCH   1   2
ATOM      2  C   UNL A   1      31.846  26.596  26.233  1.00  0.00     0.314 C 
ATOM      3  O   UNL A   1      33.065  26.462  26.255  1.00  0.00    -0.252 OA
BRANCH   2   4
ATOM      4  C   UNL A   1      30.972  25.934  25.171  1.00  0.00     0.154 C 
ATOM      5  C   UNL A   1      30.142  26.868  24.289  1.00  0.00     0.026 C 
BRANCH   4   6
ATOM      6  C   UNL A   1      31.683  24.765  24.423  1.00  0.00     0.195 C 
ATOM      7  C   UNL A   1      30.645  24.074  23.507  1.00  0.00     0.076 C 
BRANCH   6   8
ATOM      8  N   UNL A   1      32.621  23.828  25.068  1.00  0.00    -0.323 N 
ATOM      9  C   UNL A   1      32.146  22.868  26.064  1.00  0.00     0.324 C 
ATOM     10  C   UNL A   1      33.713  23.230  24.301  1.00  0.00     0.324 C 
ATOM     11  H   UNL A   1      33.016  24.615  25.582  1.00  0.00     0.348 HD
ATOM     12  C   UNL A   1      31.774  21.470  25.512  1.00  0.00     0.324 C 
ATOM     13  C   UNL A   1      33.360  21.877  23.659  1.00  0.00     0.324 C 
ATOM     14  N   UNL A   1      32.687  20.895  24.519  1.00  0.00    -0.324 N 
ATOM     15  H   UNL A   1      32.053  20.424  23.875  1.00  0.00     0.348 HD
BRANCH  14  16
ATOM     16  C   UNL A   1      33.517  19.783  24.985  1.00  0.00     0.291 C 
BRANCH  16  17
ATOM     17  C   UNL A   1      32.848  18.410  25.151  1.00  0.00     0.217 C 
BRANCH  17  18
ATOM     18  O   UNL A   1      32.557  18.118  26.514  1.00  0.00    -0.391 OA
ATOM     19  H   UNL A   1      32.141  18.890  26.928  1.00  0.00     0.210 HD
ENDBRANCH  17  18
ENDBRANCH  16  17
ENDBRANCH  14  16
ENDBRANCH   6   8
ENDBRANCH   4   6
ENDBRANCH   2   4
ENDBRANCH   1   2
BRANCH   1  20
ATOM     20  C   UNL A   1      31.691  28.584  27.566  1.00  0.00     0.274 C 
BRANCH  20  21
ATOM     21  C   UNL A   1      31.764  29.537  26.375  1.00  0.00     0.275 C 
BRANCH  21  22
ATOM     22  O   UNL A   1      33.118  30.007  26.257  1.00  0.00    -0.458 OA
BRANCH  22  23
ATOM     23  C   UNL A   1      33.402  31.119  26.968  1.00  0.00     0.338 C 
ATOM     24  O   UNL A   1      32.674  32.056  27.240  1.00  0.00    -0.246 OA
BRANCH  23  25
ATOM     25  C   UNL A   1      34.721  30.928  27.579  1.00  0.00     0.060 A 
ATOM     26  C   UNL A   1      35.076  29.626  27.920  1.00  0.00     0.016 A 
ATOM     27  C   UNL A   1      35.549  31.997  27.897  1.00  0.00     0.016 A 
ATOM     28  C   UNL A   1      36.213  29.379  28.670  1.00  0.00     0.010 A 
ATOM     29  C   UNL A   1      36.746  31.740  28.573  1.00  0.00     0.010 A 
ATOM     30  C   UNL A   1      37.072  30.433  28.986  1.00  0.00    -0.014 A 
BRANCH  30  31
ATOM     31  C   UNL A   1      38.292  30.160  29.778  1.00  0.00     0.031 A 
ATOM     32  C   UNL A   1      39.374  29.302  29.195  1.00  0.00     0.074 A 
ATOM     33  C   UNL A   1      38.439  30.714  30.997  1.00  0.00     0.049 A 
ATOM     34  N   UNL A   1      40.419  28.776  29.779  1.00  0.00    -0.248 NA
ATOM     35  C   UNL A   1      39.261  28.987  27.762  1.00  0.00     0.031 C 
ATOM     36  C   UNL A   1      37.494  31.640  31.625  1.00  0.00     0.029 A 
ATOM     37  N   UNL A   1      39.441  30.583  31.924  1.00  0.00    -0.354 N 
ATOM     38  C   UNL A   1      41.058  28.025  28.802  1.00  0.00     0.074 A 
ATOM     39  C   UNL A   1      40.288  28.169  27.583  1.00  0.00     0.031 C 
ATOM     40  C   UNL A   1      37.969  32.006  32.825  1.00  0.00     0.029 A 
ATOM     41  C   UNL A   1      39.199  31.271  33.087  1.00  0.00     0.049 A 
ATOM     42  H   UNL A   1      40.252  30.047  31.771  1.00  0.00     0.167 HD
ATOM     43  C   UNL A   1      42.179  27.278  28.923  1.00  0.00     0.037 A 
ATOM     44  C   UNL A   1      39.867  31.263  34.256  1.00  0.00     0.037 A 
ATOM     45  C   UNL A   1      42.946  27.178  30.138  1.00  0.00     0.049 A 
ATOM     46  C   UNL A   1      41.078  30.384  34.383  1.00  0.00     0.074 A 
ATOM     47  C   UNL A   1      44.082  26.431  30.388  1.00  0.00     0.029 A 
ATOM     48  N   UNL A   1      42.652  27.867  31.308  1.00  0.00    -0.354 N 
ATOM     49  N   UNL A   1      41.631  29.605  33.485  1.00  0.00    -0.248 NA
ATOM     50  C   UNL A   1      41.745  30.363  35.691  1.00  0.00     0.031 C 
ATOM     51  C   UNL A   1      44.459  26.644  31.720  1.00  0.00     0.029 A 
ATOM     52  C   UNL A   1      43.582  27.557  32.286  1.00  0.00     0.049 A 
ATOM     53  H   UNL A   1      41.895  28.486  31.424  1.00  0.00     0.167 HD
ATOM     54  C   UNL A   1      42.714  29.008  34.112  1.00  0.00     0.074 A 
ATOM     55  C   UNL A   1      42.752  29.533  35.463  1.00  0.00     0.031 C 
ATOM     56  C   UNL A   1      43.593  28.101  33.620  1.00  0.00     0.037 A 
BRANCH  43  57
ATOM     57  C   UNL A   1      42.606  26.473  27.732  1.00  0.00     0.064 A 
ATOM     58  C   UNL A   1      42.094  25.193  27.476  1.00  0.00     0.173 A 
ATOM     59  C   UNL A   1      43.544  26.996  26.829  1.00  0.00     0.173 A 
ATOM     60  F   UNL A   1      41.211  24.638  28.320  1.00  0.00    -0.203 F 
ATOM     61  C   UNL A   1      42.523  24.457  26.374  1.00  0.00     0.198 A 
ATOM     62  C   UNL A   1      43.952  26.269  25.714  1.00  0.00     0.198 A 
ATOM     63  F   UNL A   1      44.067  28.216  27.028  1.00  0.00    -0.203 F 
ATOM     64  F   UNL A   1      42.057  23.216  26.176  1.00  0.00    -0.200 F 
ATOM     65  C   UNL A   1      43.448  24.997  25.491  1.00  0.00     0.200 A 
ATOM     66  F   UNL A   1      44.839  26.796  24.859  1.00  0.00    -0.200 F 
ATOM     67  F   UNL A   1      43.859  24.287  24.431  1.00  0.00    -0.200 F 
ENDBRANCH  43  57
BRANCH  44  68
ATOM     68  C   UNL A   1      39.364  32.066  35.401  1.00  0.00     0.064 A 
ATOM     69  C   UNL A   1      39.707  33.417  35.543  1.00  0.00     0.173 A 
ATOM     70  C   UNL A   1      38.518  31.503  36.369  1.00  0.00     0.173 A 
ATOM     71  F   UNL A   1      40.533  33.995  34.659  1.00  0.00    -0.203 F 
ATOM     72  C   UNL A   1      39.228  34.172  36.613  1.00  0.00     0.198 A 
ATOM     73  C   UNL A   1      38.014  32.266  37.420  1.00  0.00     0.198 A 
ATOM     74  F   UNL A   1      38.160  30.214  36.280  1.00  0.00    -0.203 F 
ATOM     75  F   UNL A   1      39.600  35.452  36.747  1.00  0.00    -0.200 F 
ATOM     76  C   UNL A   1      38.375  33.598  37.544  1.00  0.00     0.200 A 
ATOM     77  F   UNL A   1      37.179  31.711  38.308  1.00  0.00    -0.200 F 
ATOM     78  F   UNL A   1      37.906  34.328  38.566  1.00  0.00    -0.200 F 
ENDBRANCH  44  68
BRANCH  56  79
ATOM     79  C   UNL A   1      44.682  27.647  34.543  1.00  0.00     0.064 A 
ATOM     80  C   UNL A   1      45.893  28.344  34.645  1.00  0.00     0.173 A 
ATOM     81  C   UNL A   1      44.495  26.520  35.357  1.00  0.00     0.173 A 
ATOM     82  F   UNL A   1      46.123  29.416  33.872  1.00  0.00    -0.203 F 
ATOM     83  C   UNL A   1      46.890  27.916  35.517  1.00  0.00     0.198 A 
ATOM     84  C   UNL A   1      45.483  26.110  36.245  1.00  0.00     0.198 A 
ATOM     85  F   UNL A   1      43.349  25.824  35.296  1.00  0.00    -0.203 F 
ATOM     86  F   UNL A   1      48.058  28.570  35.569  1.00  0.00    -0.200 F 
ATOM     87  C   UNL A   1      46.682  26.804  36.320  1.00  0.00     0.200 A 
ATOM     88  F   UNL A   1      45.277  25.042  37.028  1.00  0.00    -0.200 F 
ATOM     89  F   UNL A   1      47.642  26.396  37.162  1.00  0.00    -0.200 F 
ENDBRANCH  56  79
ENDBRANCH  30  31
ENDBRANCH  23  25
ENDBRANCH  22  23
ENDBRANCH  21  22
ENDBRANCH  20  21
ENDBRANCH   1  20
TORSDOF 16
ENDMDL
MODEL 2
REMARK VINA RESULT:     -10.9      4.501      9.642
REMARK SMILES C[C@H](C(=O)OCCOC(=O)c1ccc(-c2c3nc(c(-c4c(F)c(F)c(F)c(F)c4F)c4ccc([nH]4)c(-c4c(F)c(F)c(F)c(F)c4F)c4nc(c(-c5c(F)c(F)c(F)c(F)c5F)c5ccc2[nH]5)C=C4)C=C3)cc1)[C@H](C)[NH+]1CC[NH+](CCO)CC1
REMARK SMILES IDX 5 1 3 2 4 3 2 4 1 5 74 6 75 7 76 8 77 9 84 10 78 12 83 13
REMARK SMILES IDX 79 14 80 16 81 17 82 18 6 20 7 21 8 22 9 23 10 24 11 25
REMARK SMILES IDX 12 26 73 27 13 28 72 29 14 30 15 31 16 32 66 33 17 34 71 35
REMARK SMILES IDX 65 36 67 37 18 38 70 39 64 40 63 41 19 43 51 44 31 45 50 46
REMARK SMILES IDX 32 47 35 48 49 49 68 50 33 51 34 52 48 54 69 55 36 56 20 57
REMARK SMILES IDX 21 58 29 59 22 60 23 61 27 62 30 63 24 64 25 65 28 66 26 67
REMARK SMILES IDX 52 68 53 69 61 70 54 71 55 72 59 73 62 74 56 75 57 76 60 77
REMARK SMILES IDX 58 78 37 79 38 80 46 81 39 82 40 83 44 84 47 85 41 86 42 87
REMARK SMILES IDX 45 88 43 89
REMARK H PARENT 76 11 79 15 82 19 67 42 35 53
REMARK Flexibility Score: inf
ROOT
ATOM      1  O   UNL A   1      35.493  23.198  24.264  1.00  0.00    -0.462 OA
ENDROOT
BRANCH   1   2
ATOM      2  C   UNL A   1      34.397  23.331  23.487  1.00  0.00     0.314 C 
ATOM      3  O   UNL A   1      34.360  23.996  22.456  1.00  0.00    -0.252 OA
BRANCH   2   4
ATOM      4  C   UNL A   1      33.188  22.555  24.001  1.00  0.00     0.154 C 
ATOM      5  C   UNL A   1      31.814  23.168  23.722  1.00  0.00     0.026 C 
BRANCH   4   6
ATOM      6  C   UNL A   1      33.293  21.017  23.770  1.00  0.00     0.195 C 
ATOM      7  C   UNL A   1      32.163  20.594  22.801  1.00  0.00     0.076 C 
BRANCH   6   8
ATOM      8  N   UNL A   1      33.547  20.041  24.845  1.00  0.00    -0.323 N 
ATOM      9  C   UNL A   1      32.455  19.232  25.388  1.00  0.00     0.324 C 
ATOM     10  C   UNL A   1      34.782  19.258  24.857  1.00  0.00     0.324 C 
ATOM     11  H   UNL A   1      33.684  20.821  25.488  1.00  0.00     0.348 HD
ATOM     12  C   UNL A   1      32.272  17.842  24.732  1.00  0.00     0.324 C 
ATOM     13  C   UNL A   1      34.671  17.903  24.138  1.00  0.00     0.324 C 
ATOM     14  N   UNL A   1      33.495  17.083  24.456  1.00  0.00    -0.324 N 
ATOM     15  H   UNL A   1      33.285  16.631  23.566  1.00  0.00     0.348 HD
BRANCH  14  16
ATOM     16  C   UNL A   1      33.739  15.929  25.324  1.00  0.00     0.291 C 
BRANCH  16  17
ATOM     17  C   UNL A   1      32.635  14.866  25.430  1.00  0.00     0.217 C 
BRANCH  17  18
ATOM     18  O   UNL A   1      33.162  13.575  25.720  1.00  0.00    -0.391 OA
ATOM     19  H   UNL A   1      32.442  12.985  25.992  1.00  0.00     0.210 HD
ENDBRANCH  17  18
ENDBRANCH  16  17
ENDBRANCH  14  16
ENDBRANCH   6   8
ENDBRANCH   4   6
ENDBRANCH   2   4
ENDBRANCH   1   2
BRANCH   1  20
ATOM     20  C   UNL A   1      36.715  22.736  23.646  1.00  0.00     0.274 C 
BRANCH  20  21
ATOM     21  C   UNL A   1      37.274  21.559  24.443  1.00  0.00     0.275 C 
BRANCH  21  22
ATOM     22  O   UNL A   1      37.688  22.045  25.732  1.00  0.00    -0.458 OA
BRANCH  22  23
ATOM     23  C   UNL A   1      38.920  21.653  26.122  1.00  0.00     0.338 C 
ATOM     24  O   UNL A   1      39.484  20.595  25.914  1.00  0.00    -0.246 OA
BRANCH  23  25
ATOM     25  C   UNL A   1      39.599  22.826  26.680  1.00  0.00     0.060 A 
ATOM     26  C   UNL A   1      39.217  24.071  26.188  1.00  0.00     0.016 A 
ATOM     27  C   UNL A   1      40.645  22.712  27.587  1.00  0.00     0.016 A 
ATOM     28  C   UNL A   1      39.934  25.208  26.516  1.00  0.00     0.010 A 
ATOM     29  C   UNL A   1      41.311  23.872  27.993  1.00  0.00     0.010 A 
ATOM     30  C   UNL A   1      40.976  25.124  27.440  1.00  0.00    -0.014 A 
BRANCH  30  31
ATOM     31  C   UNL A   1      41.731  26.346  27.795  1.00  0.00     0.031 A 
ATOM     32  C   UNL A   1      41.085  27.389  28.658  1.00  0.00     0.074 A 
ATOM     33  C   UNL A   1      43.001  26.497  27.375  1.00  0.00     0.049 A 
ATOM     34  N   UNL A   1      41.479  28.607  28.922  1.00  0.00    -0.248 NA
ATOM     35  C   UNL A   1      39.819  27.010  29.307  1.00  0.00     0.031 C 
ATOM     36  C   UNL A   1      43.763  25.507  26.610  1.00  0.00     0.029 A 
ATOM     37  N   UNL A   1      43.879  27.538  27.535  1.00  0.00    -0.354 N 
ATOM     38  C   UNL A   1      40.488  29.158  29.720  1.00  0.00     0.074 A 
ATOM     39  C   UNL A   1      39.475  28.140  29.906  1.00  0.00     0.031 C 
ATOM     40  C   UNL A   1      44.996  25.980  26.382  1.00  0.00     0.029 A 
ATOM     41  C   UNL A   1      45.081  27.338  26.903  1.00  0.00     0.049 A 
ATOM     42  H   UNL A   1      43.668  28.349  28.052  1.00  0.00     0.167 HD
ATOM     43  C   UNL A   1      40.432  30.407  30.238  1.00  0.00     0.037 A 
ATOM     44  C   UNL A   1      46.114  28.181  26.714  1.00  0.00     0.037 A 
ATOM     45  C   UNL A   1      41.468  31.391  30.066  1.00  0.00     0.049 A 
ATOM     46  C   UNL A   1      46.005  29.579  27.251  1.00  0.00     0.074 A 
ATOM     47  C   UNL A   1      41.509  32.696  30.519  1.00  0.00     0.029 A 
ATOM     48  N   UNL A   1      42.661  31.162  29.391  1.00  0.00    -0.354 N 
ATOM     49  N   UNL A   1      45.028  30.129  27.931  1.00  0.00    -0.248 NA
ATOM     50  C   UNL A   1      47.130  30.483  26.977  1.00  0.00     0.031 C 
ATOM     51  C   UNL A   1      42.714  33.268  30.092  1.00  0.00     0.029 A 
ATOM     52  C   UNL A   1      43.442  32.306  29.410  1.00  0.00     0.049 A 
ATOM     53  H   UNL A   1      42.913  30.313  28.964  1.00  0.00     0.167 HD
ATOM     54  C   UNL A   1      45.420  31.436  28.175  1.00  0.00     0.074 A 
ATOM     55  C   UNL A   1      46.736  31.591  27.587  1.00  0.00     0.031 C 
ATOM     56  C   UNL A   1      44.750  32.424  28.818  1.00  0.00     0.037 A 
BRANCH  43  57
ATOM     57  C   UNL A   1      39.190  30.790  30.986  1.00  0.00     0.064 A 
ATOM     58  C   UNL A   1      39.079  30.635  32.376  1.00  0.00     0.173 A 
ATOM     59  C   UNL A   1      38.091  31.327  30.298  1.00  0.00     0.173 A 
ATOM     60  F   UNL A   1      40.094  30.107  33.078  1.00  0.00    -0.203 F 
ATOM     61  C   UNL A   1      37.907  30.979  33.044  1.00  0.00     0.198 A 
ATOM     62  C   UNL A   1      36.929  31.694  30.972  1.00  0.00     0.198 A 
ATOM     63  F   UNL A   1      38.143  31.495  28.968  1.00  0.00    -0.203 F 
ATOM     64  F   UNL A   1      37.806  30.776  34.366  1.00  0.00    -0.200 F 
ATOM     65  C   UNL A   1      36.835  31.512  32.343  1.00  0.00     0.200 A 
ATOM     66  F   UNL A   1      35.898  32.215  30.294  1.00  0.00    -0.200 F 
ATOM     67  F   UNL A   1      35.707  31.842  32.989  1.00  0.00    -0.200 F 
ENDBRANCH  43  57
BRANCH  44  68
ATOM     68  C   UNL A   1      47.300  27.737  25.935  1.00  0.00     0.064 A 
ATOM     69  C   UNL A   1      47.301  27.776  24.535  1.00  0.00     0.173 A 
ATOM     70  C   UNL A   1      48.462  27.280  26.576  1.00  0.00     0.173 A 
ATOM     71  F   UNL A   1      46.206  28.182  23.875  1.00  0.00    -0.203 F 
ATOM     72  C   UNL A   1      48.417  27.369  23.805  1.00  0.00     0.198 A 
ATOM     73  C   UNL A   1      49.587  26.903  25.848  1.00  0.00     0.198 A 
ATOM     74  F   UNL A   1      48.512  27.223  27.915  1.00  0.00    -0.203 F 
ATOM     75  F   UNL A   1      48.380  27.380  22.466  1.00  0.00    -0.200 F 
ATOM     76  C   UNL A   1      49.561  26.942  24.462  1.00  0.00     0.200 A 
ATOM     77  F   UNL A   1      50.695  26.506  26.487  1.00  0.00    -0.200 F 
ATOM     78  F   UNL A   1      50.638  26.560  23.760  1.00  0.00    -0.200 F 
ENDBRANCH  44  68
BRANCH  56  79
ATOM     79  C   UNL A   1      45.447  33.744  28.939  1.00  0.00     0.064 A 
ATOM     80  C   UNL A   1      45.270  34.755  27.984  1.00  0.00     0.173 A 
ATOM     81  C   UNL A   1      46.275  34.010  30.039  1.00  0.00     0.173 A 
ATOM     82  F   UNL A   1      44.502  34.539  26.906  1.00  0.00    -0.203 F 
ATOM     83  C   UNL A   1      45.916  35.981  28.117  1.00  0.00     0.198 A 
ATOM     84  C   UNL A   1      46.899  35.244  30.182  1.00  0.00     0.198 A 
ATOM     85  F   UNL A   1      46.471  33.072  30.979  1.00  0.00    -0.203 F 
ATOM     86  F   UNL A   1      45.769  36.920  27.173  1.00  0.00    -0.200 F 
ATOM     87  C   UNL A   1      46.724  36.227  29.217  1.00  0.00     0.200 A 
ATOM     88  F   UNL A   1      47.672  35.484  31.250  1.00  0.00    -0.200 F 
ATOM     89  F   UNL A   1      47.342  37.409  29.345  1.00  0.00    -0.200 F 
ENDBRANCH  56  79
ENDBRANCH  30  31
ENDBRANCH  23  25
ENDBRANCH  22  23
ENDBRANCH  21  22
ENDBRANCH  20  21
ENDBRANCH   1  20
TORSDOF 16
ENDMDL
MODEL 3
REMARK VINA RESULT:     -10.9      2.940      8.995
REMARK SMILES C[C@H](C(=O)OCCOC(=O)c1ccc(-c2c3nc(c(-c4c(F)c(F)c(F)c(F)c4F)c4ccc([nH]4)c(-c4c(F)c(F)c(F)c(F)c4F)c4nc(c(-c5c(F)c(F)c(F)c(F)c5F)c5ccc2[nH]5)C=C4)C=C3)cc1)[C@H](C)[NH+]1CC[NH+](CCO)CC1
REMARK SMILES IDX 5 1 3 2 4 3 2 4 1 5 74 6 75 7 76 8 77 9 84 10 78 12 83 13
REMARK SMILES IDX 79 14 80 16 81 17 82 18 6 20 7 21 8 22 9 23 10 24 11 25
REMARK SMILES IDX 12 26 73 27 13 28 72 29 14 30 15 31 16 32 66 33 17 34 71 35
REMARK SMILES IDX 65 36 67 37 18 38 70 39 64 40 63 41 19 43 51 44 31 45 50 46
REMARK SMILES IDX 32 47 35 48 49 49 68 50 33 51 34 52 48 54 69 55 36 56 20 57
REMARK SMILES IDX 21 58 29 59 22 60 23 61 27 62 30 63 24 64 25 65 28 66 26 67
REMARK SMILES IDX 52 68 53 69 61 70 54 71 55 72 59 73 62 74 56 75 57 76 60 77
REMARK SMILES IDX 58 78 37 79 38 80 46 81 39 82 40 83 44 84 47 85 41 86 42 87
REMARK SMILES IDX 45 88 43 89
REMARK H PARENT 76 11 79 15 82 19 67 42 35 53
REMARK Flexibility Score: inf
ROOT
ATOM      1  O   UNL A   1      33.532  33.943  28.639  1.00  0.00    -0.462 OA
ENDROOT
BRANCH   1   2
ATOM      2  C   UNL A   1      34.217  32.872  29.093  1.00  0.00     0.314 C 
ATOM      3  O   UNL A   1      34.188  32.477  30.254  1.00  0.00    -0.252 OA
BRANCH   2   4
ATOM      4  C   UNL A   1      35.034  32.170  28.013  1.00  0.00     0.154 C 
ATOM      5  C   UNL A   1      36.538  32.451  28.003  1.00  0.00     0.026 C 
BRANCH   4   6
ATOM      6  C   UNL A   1      34.632  30.679  27.801  1.00  0.00     0.195 C 
ATOM      7  C   UNL A   1      35.878  29.799  28.059  1.00  0.00     0.076 C 
BRANCH   6   8
ATOM      8  N   UNL A   1      33.794  30.206  26.683  1.00  0.00    -0.323 N 
ATOM      9  C   UNL A   1      34.182  29.025  25.911  1.00  0.00     0.324 C 
ATOM     10  C   UNL A   1      32.336  30.268  26.773  1.00  0.00     0.324 C 
ATOM     11  H   UNL A   1      34.093  31.020  26.146  1.00  0.00     0.348 HD
ATOM     12  C   UNL A   1      33.569  27.687  26.395  1.00  0.00     0.324 C 
ATOM     13  C   UNL A   1      31.688  28.990  27.332  1.00  0.00     0.324 C 
ATOM     14  N   UNL A   1      32.153  27.715  26.770  1.00  0.00    -0.324 N 
ATOM     15  H   UNL A   1      32.118  27.086  27.571  1.00  0.00     0.348 HD
BRANCH  14  16
ATOM     16  C   UNL A   1      31.234  27.059  25.837  1.00  0.00     0.291 C 
BRANCH  16  17
ATOM     17  C   UNL A   1      30.933  25.569  26.058  1.00  0.00     0.217 C 
BRANCH  17  18
ATOM     18  O   UNL A   1      29.563  25.342  26.377  1.00  0.00    -0.391 OA
ATOM     19  H   UNL A   1      29.190  26.138  26.785  1.00  0.00     0.210 HD
ENDBRANCH  17  18
ENDBRANCH  16  17
ENDBRANCH  14  16
ENDBRANCH   6   8
ENDBRANCH   4   6
ENDBRANCH   2   4
ENDBRANCH   1   2
BRANCH   1  20
ATOM     20  C   UNL A   1      34.003  35.260  29.008  1.00  0.00     0.274 C 
BRANCH  20  21
ATOM     21  C   UNL A   1      32.872  36.033  29.683  1.00  0.00     0.275 C 
BRANCH  21  22
ATOM     22  O   UNL A   1      32.473  35.309  30.860  1.00  0.00    -0.458 OA
BRANCH  22  23
ATOM     23  C   UNL A   1      32.804  35.895  32.031  1.00  0.00     0.338 C 
ATOM     24  O   UNL A   1      32.225  36.783  32.629  1.00  0.00    -0.246 OA
BRANCH  23  25
ATOM     25  C   UNL A   1      33.902  35.121  32.617  1.00  0.00     0.060 A 
ATOM     26  C   UNL A   1      35.185  35.648  32.490  1.00  0.00     0.016 A 
ATOM     27  C   UNL A   1      33.702  33.870  33.188  1.00  0.00     0.016 A 
ATOM     28  C   UNL A   1      36.293  34.897  32.841  1.00  0.00     0.010 A 
ATOM     29  C   UNL A   1      34.815  33.149  33.630  1.00  0.00     0.010 A 
ATOM     30  C   UNL A   1      36.118  33.646  33.435  1.00  0.00    -0.014 A 
BRANCH  30  31
ATOM     31  C   UNL A   1      37.308  32.853  33.818  1.00  0.00     0.031 A 
ATOM     32  C   UNL A   1      37.937  33.069  35.162  1.00  0.00     0.074 A 
ATOM     33  C   UNL A   1      37.793  31.921  32.977  1.00  0.00     0.049 A 
ATOM     34  N   UNL A   1      39.084  32.638  35.619  1.00  0.00    -0.248 NA
ATOM     35  C   UNL A   1      37.174  33.886  36.120  1.00  0.00     0.031 C 
ATOM     36  C   UNL A   1      37.206  31.560  31.684  1.00  0.00     0.029 A 
ATOM     37  N   UNL A   1      38.887  31.102  33.084  1.00  0.00    -0.354 N 
ATOM     38  C   UNL A   1      39.206  33.174  36.893  1.00  0.00     0.074 A 
ATOM     39  C   UNL A   1      38.013  33.956  37.143  1.00  0.00     0.031 C 
ATOM     40  C   UNL A   1      37.936  30.583  31.127  1.00  0.00     0.029 A 
ATOM     41  C   UNL A   1      39.088  30.315  31.977  1.00  0.00     0.049 A 
ATOM     42  H   UNL A   1      39.471  31.080  33.876  1.00  0.00     0.167 HD
ATOM     43  C   UNL A   1      40.231  33.029  37.764  1.00  0.00     0.037 A 
ATOM     44  C   UNL A   1      40.120  29.511  31.659  1.00  0.00     0.037 A 
ATOM     45  C   UNL A   1      41.392  32.218  37.505  1.00  0.00     0.049 A 
ATOM     46  C   UNL A   1      41.271  29.409  32.618  1.00  0.00     0.074 A 
ATOM     47  C   UNL A   1      42.506  32.017  38.299  1.00  0.00     0.029 A 
ATOM     48  N   UNL A   1      41.576  31.458  36.356  1.00  0.00    -0.354 N 
ATOM     49  N   UNL A   1      41.427  29.985  33.785  1.00  0.00    -0.248 NA
ATOM     50  C   UNL A   1      42.400  28.563  32.208  1.00  0.00     0.031 C 
ATOM     51  C   UNL A   1      43.379  31.160  37.618  1.00  0.00     0.029 A 
ATOM     52  C   UNL A   1      42.789  30.793  36.418  1.00  0.00     0.049 A 
ATOM     53  H   UNL A   1      40.938  31.400  35.610  1.00  0.00     0.167 HD
ATOM     54  C   UNL A   1      42.663  29.569  34.255  1.00  0.00     0.074 A 
ATOM     55  C   UNL A   1      43.207  28.672  33.254  1.00  0.00     0.031 C 
ATOM     56  C   UNL A   1      43.298  29.903  35.405  1.00  0.00     0.037 A 
BRANCH  43  57
ATOM     57  C   UNL A   1      40.164  33.804  39.046  1.00  0.00     0.064 A 
ATOM     58  C   UNL A   1      39.493  33.317  40.177  1.00  0.00     0.173 A 
ATOM     59  C   UNL A   1      40.788  35.057  39.144  1.00  0.00     0.173 A 
ATOM     60  F   UNL A   1      38.863  32.133  40.129  1.00  0.00    -0.203 F 
ATOM     61  C   UNL A   1      39.427  34.066  41.349  1.00  0.00     0.198 A 
ATOM     62  C   UNL A   1      40.743  35.793  40.325  1.00  0.00     0.198 A 
ATOM     63  F   UNL A   1      41.442  35.570  38.091  1.00  0.00    -0.203 F 
ATOM     64  F   UNL A   1      38.739  33.602  42.402  1.00  0.00    -0.200 F 
ATOM     65  C   UNL A   1      40.056  35.301  41.424  1.00  0.00     0.200 A 
ATOM     66  F   UNL A   1      41.356  36.982  40.397  1.00  0.00    -0.200 F 
ATOM     67  F   UNL A   1      39.991  36.021  42.553  1.00  0.00    -0.200 F 
ENDBRANCH  43  57
BRANCH  44  68
ATOM     68  C   UNL A   1      40.128  28.797  30.355  1.00  0.00     0.064 A 
ATOM     69  C   UNL A   1      39.503  27.553  30.207  1.00  0.00     0.173 A 
ATOM     70  C   UNL A   1      40.747  29.353  29.225  1.00  0.00     0.173 A 
ATOM     71  F   UNL A   1      38.918  26.967  31.264  1.00  0.00    -0.203 F 
ATOM     72  C   UNL A   1      39.502  26.888  28.982  1.00  0.00     0.198 A 
ATOM     73  C   UNL A   1      40.719  28.704  27.993  1.00  0.00     0.198 A 
ATOM     74  F   UNL A   1      41.360  30.543  29.312  1.00  0.00    -0.203 F 
ATOM     75  F   UNL A   1      38.930  25.681  28.877  1.00  0.00    -0.200 F 
ATOM     76  C   UNL A   1      40.102  27.469  27.875  1.00  0.00     0.200 A 
ATOM     77  F   UNL A   1      41.287  29.276  26.923  1.00  0.00    -0.200 F 
ATOM     78  F   UNL A   1      40.092  26.834  26.694  1.00  0.00    -0.200 F 
ENDBRANCH  44  68
BRANCH  56  79
ATOM     79  C   UNL A   1      44.634  29.272  35.647  1.00  0.00     0.064 A 
ATOM     80  C   UNL A   1      45.819  29.871  35.195  1.00  0.00     0.173 A 
ATOM     81  C   UNL A   1      44.731  28.072  36.365  1.00  0.00     0.173 A 
ATOM     82  F   UNL A   1      45.773  31.010  34.488  1.00  0.00    -0.203 F 
ATOM     83  C   UNL A   1      47.054  29.277  35.438  1.00  0.00     0.198 A 
ATOM     84  C   UNL A   1      45.968  27.495  36.628  1.00  0.00     0.198 A 
ATOM     85  F   UNL A   1      43.624  27.465  36.819  1.00  0.00    -0.203 F 
ATOM     86  F   UNL A   1      48.172  29.842  34.962  1.00  0.00    -0.200 F 
ATOM     87  C   UNL A   1      47.129  28.094  36.158  1.00  0.00     0.200 A 
ATOM     88  F   UNL A   1      46.040  26.357  37.331  1.00  0.00    -0.200 F 
ATOM     89  F   UNL A   1      48.320  27.526  36.395  1.00  0.00    -0.200 F 
ENDBRANCH  56  79
ENDBRANCH  30  31
ENDBRANCH  23  25
ENDBRANCH  22  23
ENDBRANCH  21  22
ENDBRANCH  20  21
ENDBRANCH   1  20
TORSDOF 16
ENDMDL
