MODEL 1
REMARK VINA RESULT:     -13.0      0.000      0.000
REMARK SMILES CS(=O)(=O)c1ccc(/C=C(/C(=O)OCCOC(=O)c2ccc(-c3c4nc(c(-c5c(F)c(F)c(F)c(F)c5F)c5ccc([nH]5)c(-c5c(F)c(F)c(F)c(F)c5F)c5nc(c(-c6c(F)c(F)c(F)c(F)c6F)c6ccc3[nH]6)C=C5)C=C4)cc2)c2ccc(F)cc2)cc1
REMARK SMILES IDX 14 1 13 2 11 3 12 4 10 5 9 6 8 7 5 8 6 9 90 10 7 11 89 12
REMARK SMILES IDX 2 13 1 14 3 15 4 16 82 17 83 18 88 19 84 20 87 21 85 22
REMARK SMILES IDX 86 23 15 24 16 25 17 26 18 27 19 28 20 29 81 30 21 31 80 32
REMARK SMILES IDX 22 33 23 34 24 35 74 36 25 37 79 38 73 39 75 40 26 41 78 42
REMARK SMILES IDX 72 43 71 44 27 46 59 47 39 48 58 49 40 50 43 51 57 52 76 53
REMARK SMILES IDX 41 54 42 55 56 57 77 58 44 59 28 60 29 61 37 62 30 63 31 64
REMARK SMILES IDX 35 65 38 66 32 67 33 68 36 69 34 70 60 71 61 72 69 73 62 74
REMARK SMILES IDX 63 75 67 76 70 77 64 78 65 79 68 80 66 81 45 82 46 83 54 84
REMARK SMILES IDX 47 85 48 86 52 87 55 88 49 89 50 90 53 91 51 92
REMARK H PARENT 75 45 43 56
REMARK Flexibility Score: inf
ROOT
ATOM      1  C   UNL A   1      32.278  27.973  24.766  1.00  0.00     0.275 C 
ENDROOT
BRANCH   1   2
ATOM      2  O   UNL A   1      33.474  27.172  24.633  1.00  0.00    -0.458 OA
BRANCH   2   3
ATOM      3  C   UNL A   1      33.536  26.379  23.532  1.00  0.00     0.338 C 
ATOM      4  O   UNL A   1      33.651  26.776  22.380  1.00  0.00    -0.246 OA
BRANCH   3   5
ATOM      5  C   UNL A   1      33.484  24.922  23.878  1.00  0.00     0.067 C 
ATOM      6  C   UNL A   1      32.309  24.253  23.834  1.00  0.00     0.024 C 
BRANCH   6   7
ATOM      7  C   UNL A   1      32.166  22.785  23.911  1.00  0.00    -0.025 A 
ATOM      8  C   UNL A   1      32.328  19.993  23.914  1.00  0.00     0.067 A 
ATOM      9  C   UNL A   1      32.339  20.684  25.124  1.00  0.00     0.021 A 
ATOM     10  C   UNL A   1      32.163  20.674  22.707  1.00  0.00     0.021 A 
ATOM     11  C   UNL A   1      32.218  22.075  25.119  1.00  0.00     0.009 A 
ATOM     12  C   UNL A   1      32.080  22.069  22.709  1.00  0.00     0.009 A 
BRANCH   8  13
ATOM     13  S   UNL A   1      32.630  18.244  23.893  1.00  0.00     0.175 S 
ATOM     14  C   UNL A   1      34.356  18.112  24.268  1.00  0.00     0.163 C 
ATOM     15  O   UNL A   1      32.436  17.775  22.535  1.00  0.00    -0.224 OA
ATOM     16  O   UNL A   1      31.879  17.671  24.995  1.00  0.00    -0.224 OA
ENDBRANCH   8  13
ENDBRANCH   6   7
BRANCH   5  17
ATOM     17  C   UNL A   1      34.764  24.228  24.149  1.00  0.00    -0.011 A 
ATOM     18  C   UNL A   1      35.295  24.243  25.451  1.00  0.00     0.012 A 
ATOM     19  C   UNL A   1      35.420  23.493  23.154  1.00  0.00     0.012 A 
ATOM     20  C   UNL A   1      36.452  23.523  25.756  1.00  0.00     0.040 A 
ATOM     21  C   UNL A   1      36.581  22.777  23.459  1.00  0.00     0.040 A 
ATOM     22  C   UNL A   1      37.084  22.798  24.756  1.00  0.00     0.123 A 
ATOM     23  F   UNL A   1      38.194  22.108  25.046  1.00  0.00    -0.207 F 
ENDBRANCH   5  17
ENDBRANCH   3   5
ENDBRANCH   2   3
ENDBRANCH   1   2
BRANCH   1  24
ATOM     24  C   UNL A   1      32.638  29.425  25.074  1.00  0.00     0.275 C 
BRANCH  24  25
ATOM     25  O   UNL A   1      32.515  29.653  26.488  1.00  0.00    -0.458 OA
BRANCH  25  26
ATOM     26  C   UNL A   1      33.059  30.800  26.955  1.00  0.00     0.338 C 
ATOM     27  O   UNL A   1      32.517  31.884  27.074  1.00  0.00    -0.246 OA
BRANCH  26  28
ATOM     28  C   UNL A   1      34.449  30.557  27.383  1.00  0.00     0.060 A 
ATOM     29  C   UNL A   1      34.894  29.252  27.543  1.00  0.00     0.016 A 
ATOM     30  C   UNL A   1      35.255  31.619  27.798  1.00  0.00     0.016 A 
ATOM     31  C   UNL A   1      36.074  29.003  28.242  1.00  0.00     0.010 A 
ATOM     32  C   UNL A   1      36.493  31.362  28.407  1.00  0.00     0.010 A 
ATOM     33  C   UNL A   1      36.889  30.046  28.705  1.00  0.00    -0.014 A 
BRANCH  33  34
ATOM     34  C   UNL A   1      38.072  29.743  29.573  1.00  0.00     0.031 A 
ATOM     35  C   UNL A   1      39.236  28.939  29.034  1.00  0.00     0.074 A 
ATOM     36  C   UNL A   1      38.179  30.264  30.815  1.00  0.00     0.049 A 
ATOM     37  N   UNL A   1      40.287  28.471  29.665  1.00  0.00    -0.248 NA
ATOM     38  C   UNL A   1      39.217  28.614  27.599  1.00  0.00     0.031 C 
ATOM     39  C   UNL A   1      37.189  31.124  31.463  1.00  0.00     0.029 A 
ATOM     40  N   UNL A   1      39.194  30.183  31.739  1.00  0.00    -0.354 N 
ATOM     41  C   UNL A   1      41.009  27.745  28.724  1.00  0.00     0.074 A 
ATOM     42  C   UNL A   1      40.282  27.835  27.477  1.00  0.00     0.031 C 
ATOM     43  C   UNL A   1      37.682  31.567  32.627  1.00  0.00     0.029 A 
ATOM     44  C   UNL A   1      38.968  30.925  32.874  1.00  0.00     0.049 A 
ATOM     45  H   UNL A   1      40.007  29.643  31.602  1.00  0.00     0.167 HD
ATOM     46  C   UNL A   1      42.169  27.061  28.883  1.00  0.00     0.037 A 
ATOM     47  C   UNL A   1      39.685  31.048  34.008  1.00  0.00     0.037 A 
ATOM     48  C   UNL A   1      42.941  27.025  30.098  1.00  0.00     0.049 A 
ATOM     49  C   UNL A   1      40.948  30.251  34.174  1.00  0.00     0.074 A 
ATOM     50  C   UNL A   1      44.119  26.342  30.354  1.00  0.00     0.029 A 
ATOM     51  N   UNL A   1      42.630  27.726  31.253  1.00  0.00    -0.354 N 
ATOM     52  N   UNL A   1      41.555  29.469  33.316  1.00  0.00    -0.248 NA
ATOM     53  C   UNL A   1      41.605  30.324  35.488  1.00  0.00     0.031 C 
ATOM     54  C   UNL A   1      44.503  26.604  31.674  1.00  0.00     0.029 A 
ATOM     55  C   UNL A   1      43.588  27.483  32.227  1.00  0.00     0.049 A 
ATOM     56  H   UNL A   1      41.846  28.310  31.365  1.00  0.00     0.167 HD
ATOM     57  C   UNL A   1      42.659  28.957  33.984  1.00  0.00     0.074 A 
ATOM     58  C   UNL A   1      42.661  29.544  35.307  1.00  0.00     0.031 C 
ATOM     59  C   UNL A   1      43.580  28.066  33.543  1.00  0.00     0.037 A 
BRANCH  46  60
ATOM     60  C   UNL A   1      42.661  26.249  27.719  1.00  0.00     0.064 A 
ATOM     61  C   UNL A   1      42.188  24.957  27.456  1.00  0.00     0.173 A 
ATOM     62  C   UNL A   1      43.598  26.799  26.829  1.00  0.00     0.173 A 
ATOM     63  F   UNL A   1      41.304  24.380  28.285  1.00  0.00    -0.203 F 
ATOM     64  C   UNL A   1      42.649  24.236  26.357  1.00  0.00     0.198 A 
ATOM     65  C   UNL A   1      44.037  26.087  25.717  1.00  0.00     0.198 A 
ATOM     66  F   UNL A   1      44.080  28.036  27.033  1.00  0.00    -0.203 F 
ATOM     67  F   UNL A   1      42.214  22.986  26.147  1.00  0.00    -0.200 F 
ATOM     68  C   UNL A   1      43.567  24.803  25.485  1.00  0.00     0.200 A 
ATOM     69  F   UNL A   1      44.916  26.641  24.871  1.00  0.00    -0.200 F 
ATOM     70  F   UNL A   1      44.005  24.110  24.426  1.00  0.00    -0.200 F 
ENDBRANCH  46  60
BRANCH  47  71
ATOM     71  C   UNL A   1      39.190  31.916  35.111  1.00  0.00     0.064 A 
ATOM     72  C   UNL A   1      38.444  31.385  36.172  1.00  0.00     0.173 A 
ATOM     73  C   UNL A   1      39.441  33.297  35.119  1.00  0.00     0.173 A 
ATOM     74  F   UNL A   1      38.144  30.078  36.192  1.00  0.00    -0.203 F 
ATOM     75  C   UNL A   1      37.960  32.202  37.192  1.00  0.00     0.198 A 
ATOM     76  C   UNL A   1      38.990  34.106  36.157  1.00  0.00     0.198 A 
ATOM     77  F   UNL A   1      40.139  33.859  34.121  1.00  0.00    -0.203 F 
ATOM     78  F   UNL A   1      37.205  31.679  38.167  1.00  0.00    -0.200 F 
ATOM     79  C   UNL A   1      38.244  33.561  37.189  1.00  0.00     0.200 A 
ATOM     80  F   UNL A   1      39.277  35.415  36.155  1.00  0.00    -0.200 F 
ATOM     81  F   UNL A   1      37.786  34.345  38.174  1.00  0.00    -0.200 F 
ENDBRANCH  47  71
BRANCH  59  82
ATOM     82  C   UNL A   1      44.669  27.681  34.500  1.00  0.00     0.064 A 
ATOM     83  C   UNL A   1      44.495  26.639  35.424  1.00  0.00     0.173 A 
ATOM     84  C   UNL A   1      45.899  28.353  34.491  1.00  0.00     0.173 A 
ATOM     85  F   UNL A   1      43.331  25.977  35.484  1.00  0.00    -0.203 F 
ATOM     86  C   UNL A   1      45.504  26.306  36.325  1.00  0.00     0.198 A 
ATOM     87  C   UNL A   1      46.915  28.000  35.375  1.00  0.00     0.198 A 
ATOM     88  F   UNL A   1      46.117  29.353  33.623  1.00  0.00    -0.203 F 
ATOM     89  F   UNL A   1      45.295  25.344  37.235  1.00  0.00    -0.200 F 
ATOM     90  C   UNL A   1      46.712  26.984  36.298  1.00  0.00     0.200 A 
ATOM     91  F   UNL A   1      48.087  28.649  35.343  1.00  0.00    -0.200 F 
ATOM     92  F   UNL A   1      47.681  26.664  37.168  1.00  0.00    -0.200 F 
ENDBRANCH  59  82
ENDBRANCH  33  34
ENDBRANCH  26  28
ENDBRANCH  25  26
ENDBRANCH  24  25
ENDBRANCH   1  24
TORSDOF 14
ENDMDL
MODEL 2
REMARK VINA RESULT:     -12.8      4.520      9.635
REMARK SMILES CS(=O)(=O)c1ccc(/C=C(/C(=O)OCCOC(=O)c2ccc(-c3c4nc(c(-c5c(F)c(F)c(F)c(F)c5F)c5ccc([nH]5)c(-c5c(F)c(F)c(F)c(F)c5F)c5nc(c(-c6c(F)c(F)c(F)c(F)c6F)c6ccc3[nH]6)C=C5)C=C4)cc2)c2ccc(F)cc2)cc1
REMARK SMILES IDX 14 1 13 2 11 3 12 4 10 5 9 6 8 7 5 8 6 9 90 10 7 11 89 12
REMARK SMILES IDX 2 13 1 14 3 15 4 16 82 17 83 18 88 19 84 20 87 21 85 22
REMARK SMILES IDX 86 23 15 24 16 25 17 26 18 27 19 28 20 29 81 30 21 31 80 32
REMARK SMILES IDX 22 33 23 34 24 35 74 36 25 37 79 38 73 39 75 40 26 41 78 42
REMARK SMILES IDX 72 43 71 44 27 46 59 47 39 48 58 49 40 50 43 51 57 52 76 53
REMARK SMILES IDX 41 54 42 55 56 57 77 58 44 59 28 60 29 61 37 62 30 63 31 64
REMARK SMILES IDX 35 65 38 66 32 67 33 68 36 69 34 70 60 71 61 72 69 73 62 74
REMARK SMILES IDX 63 75 67 76 70 77 64 78 65 79 68 80 66 81 45 82 46 83 54 84
REMARK SMILES IDX 47 85 48 86 52 87 55 88 49 89 50 90 53 91 51 92
REMARK H PARENT 75 45 43 56
REMARK Flexibility Score: inf
ROOT
ATOM      1  C   UNL A   1      34.658  22.413  25.127  1.00  0.00     0.275 C 
ENDROOT
BRANCH   1   2
ATOM      2  O   UNL A   1      34.407  23.703  25.727  1.00  0.00    -0.458 OA
BRANCH   2   3
ATOM      3  C   UNL A   1      33.130  23.930  26.131  1.00  0.00     0.338 C 
ATOM      4  O   UNL A   1      32.530  23.281  26.978  1.00  0.00    -0.246 OA
BRANCH   3   5
ATOM      5  C   UNL A   1      32.518  25.112  25.444  1.00  0.00     0.067 C 
ATOM      6  C   UNL A   1      31.771  24.940  24.329  1.00  0.00     0.024 C 
BRANCH   6   7
ATOM      7  C   UNL A   1      30.923  25.979  23.708  1.00  0.00    -0.025 A 
ATOM      8  C   UNL A   1      29.337  28.150  22.940  1.00  0.00     0.067 A 
ATOM      9  C   UNL A   1      30.653  28.065  22.488  1.00  0.00     0.021 A 
ATOM     10  C   UNL A   1      28.782  27.127  23.710  1.00  0.00     0.021 A 
ATOM     11  C   UNL A   1      31.427  26.959  22.842  1.00  0.00     0.009 A 
ATOM     12  C   UNL A   1      29.577  26.043  24.091  1.00  0.00     0.009 A 
BRANCH   8  13
ATOM     13  S   UNL A   1      28.389  29.616  22.624  1.00  0.00     0.175 S 
ATOM     14  C   UNL A   1      29.153  30.840  23.652  1.00  0.00     0.163 C 
ATOM     15  O   UNL A   1      27.046  29.394  23.125  1.00  0.00    -0.224 OA
ATOM     16  O   UNL A   1      28.617  29.978  21.237  1.00  0.00    -0.224 OA
ENDBRANCH   8  13
ENDBRANCH   6   7
BRANCH   5  17
ATOM     17  C   UNL A   1      32.662  26.438  26.086  1.00  0.00    -0.011 A 
ATOM     18  C   UNL A   1      33.798  27.219  25.813  1.00  0.00     0.012 A 
ATOM     19  C   UNL A   1      31.653  26.966  26.903  1.00  0.00     0.012 A 
ATOM     20  C   UNL A   1      33.918  28.509  26.333  1.00  0.00     0.040 A 
ATOM     21  C   UNL A   1      31.777  28.255  27.428  1.00  0.00     0.040 A 
ATOM     22  C   UNL A   1      32.905  29.014  27.137  1.00  0.00     0.123 A 
ATOM     23  F   UNL A   1      33.019  30.250  27.637  1.00  0.00    -0.207 F 
ENDBRANCH   5  17
ENDBRANCH   3   5
ENDBRANCH   2   3
ENDBRANCH   1   2
BRANCH   1  24
ATOM     24  C   UNL A   1      35.835  21.723  25.814  1.00  0.00     0.275 C 
BRANCH  24  25
ATOM     25  O   UNL A   1      37.056  22.101  25.153  1.00  0.00    -0.458 OA
BRANCH  25  26
ATOM     26  C   UNL A   1      38.203  21.707  25.752  1.00  0.00     0.338 C 
ATOM     27  O   UNL A   1      38.736  20.614  25.689  1.00  0.00    -0.246 OA
BRANCH  26  28
ATOM     28  C   UNL A   1      38.798  22.839  26.487  1.00  0.00     0.060 A 
ATOM     29  C   UNL A   1      38.211  24.094  26.397  1.00  0.00     0.016 A 
ATOM     30  C   UNL A   1      40.035  22.697  27.118  1.00  0.00     0.016 A 
ATOM     31  C   UNL A   1      38.920  25.221  26.808  1.00  0.00     0.010 A 
ATOM     32  C   UNL A   1      40.696  23.827  27.626  1.00  0.00     0.010 A 
ATOM     33  C   UNL A   1      40.180  25.117  27.413  1.00  0.00    -0.014 A 
BRANCH  33  34
ATOM     34  C   UNL A   1      40.972  26.355  27.711  1.00  0.00     0.031 A 
ATOM     35  C   UNL A   1      40.392  27.446  28.586  1.00  0.00     0.074 A 
ATOM     36  C   UNL A   1      42.252  26.482  27.299  1.00  0.00     0.049 A 
ATOM     37  N   UNL A   1      40.870  28.638  28.855  1.00  0.00    -0.248 NA
ATOM     38  C   UNL A   1      39.105  27.165  29.242  1.00  0.00     0.031 C 
ATOM     39  C   UNL A   1      42.993  25.494  26.515  1.00  0.00     0.029 A 
ATOM     40  N   UNL A   1      43.173  27.479  27.522  1.00  0.00    -0.354 N 
ATOM     41  C   UNL A   1      39.916  29.266  29.648  1.00  0.00     0.074 A 
ATOM     42  C   UNL A   1      38.831  28.324  29.823  1.00  0.00     0.031 C 
ATOM     43  C   UNL A   1      44.270  25.884  26.406  1.00  0.00     0.029 A 
ATOM     44  C   UNL A   1      44.415  27.208  27.000  1.00  0.00     0.049 A 
ATOM     45  H   UNL A   1      42.962  28.308  28.008  1.00  0.00     0.167 HD
ATOM     46  C   UNL A   1      39.936  30.513  30.180  1.00  0.00     0.037 A 
ATOM     47  C   UNL A   1      45.538  27.951  26.958  1.00  0.00     0.037 A 
ATOM     48  C   UNL A   1      41.040  31.432  30.076  1.00  0.00     0.049 A 
ATOM     49  C   UNL A   1      45.524  29.345  27.521  1.00  0.00     0.074 A 
ATOM     50  C   UNL A   1      41.139  32.723  30.568  1.00  0.00     0.029 A 
ATOM     51  N   UNL A   1      42.250  31.146  29.465  1.00  0.00    -0.354 N 
ATOM     52  N   UNL A   1      44.569  29.970  28.162  1.00  0.00    -0.248 NA
ATOM     53  C   UNL A   1      46.738  30.150  27.317  1.00  0.00     0.031 C 
ATOM     54  C   UNL A   1      42.398  33.230  30.226  1.00  0.00     0.029 A 
ATOM     55  C   UNL A   1      43.098  32.240  29.558  1.00  0.00     0.049 A 
ATOM     56  H   UNL A   1      42.476  30.293  29.029  1.00  0.00     0.167 HD
ATOM     57  C   UNL A   1      45.062  31.239  28.435  1.00  0.00     0.074 A 
ATOM     58  C   UNL A   1      46.415  31.283  27.923  1.00  0.00     0.031 C 
ATOM     59  C   UNL A   1      44.441  32.280  29.041  1.00  0.00     0.037 A 
BRANCH  46  60
ATOM     60  C   UNL A   1      38.700  30.984  30.892  1.00  0.00     0.064 A 
ATOM     61  C   UNL A   1      37.589  31.490  30.204  1.00  0.00     0.173 A 
ATOM     62  C   UNL A   1      38.619  30.887  32.290  1.00  0.00     0.173 A 
ATOM     63  F   UNL A   1      37.622  31.618  28.869  1.00  0.00    -0.203 F 
ATOM     64  C   UNL A   1      36.450  31.901  30.891  1.00  0.00     0.198 A 
ATOM     65  C   UNL A   1      37.469  31.273  32.972  1.00  0.00     0.198 A 
ATOM     66  F   UNL A   1      39.654  30.404  32.996  1.00  0.00    -0.203 F 
ATOM     67  F   UNL A   1      35.414  32.421  30.218  1.00  0.00    -0.200 F 
ATOM     68  C   UNL A   1      36.387  31.786  32.273  1.00  0.00     0.200 A 
ATOM     69  F   UNL A   1      37.408  31.151  34.305  1.00  0.00    -0.200 F 
ATOM     70  F   UNL A   1      35.287  32.177  32.931  1.00  0.00    -0.200 F 
ENDBRANCH  46  60
BRANCH  47  71
ATOM     71  C   UNL A   1      46.761  27.417  26.298  1.00  0.00     0.064 A 
ATOM     72  C   UNL A   1      47.755  26.761  27.035  1.00  0.00     0.173 A 
ATOM     73  C   UNL A   1      46.966  27.567  24.917  1.00  0.00     0.173 A 
ATOM     74  F   UNL A   1      47.626  26.626  28.363  1.00  0.00    -0.203 F 
ATOM     75  C   UNL A   1      48.911  26.283  26.419  1.00  0.00     0.198 A 
ATOM     76  C   UNL A   1      48.102  27.057  24.297  1.00  0.00     0.198 A 
ATOM     77  F   UNL A   1      46.051  28.199  24.167  1.00  0.00    -0.203 F 
ATOM     78  F   UNL A   1      49.871  25.706  27.154  1.00  0.00    -0.200 F 
ATOM     79  C   UNL A   1      49.078  26.422  25.048  1.00  0.00     0.200 A 
ATOM     80  F   UNL A   1      48.252  27.183  22.971  1.00  0.00    -0.200 F 
ATOM     81  F   UNL A   1      50.185  25.955  24.455  1.00  0.00    -0.200 F 
ENDBRANCH  47  71
BRANCH  59  82
ATOM     82  C   UNL A   1      45.226  33.550  29.190  1.00  0.00     0.064 A 
ATOM     83  C   UNL A   1      46.037  33.780  30.311  1.00  0.00     0.173 A 
ATOM     84  C   UNL A   1      45.172  34.543  28.201  1.00  0.00     0.173 A 
ATOM     85  F   UNL A   1      46.108  32.868  31.292  1.00  0.00    -0.203 F 
ATOM     86  C   UNL A   1      46.742  34.973  30.452  1.00  0.00     0.198 A 
ATOM     87  C   UNL A   1      45.899  35.723  28.333  1.00  0.00     0.198 A 
ATOM     88  F   UNL A   1      44.416  34.369  27.108  1.00  0.00    -0.203 F 
ATOM     89  F   UNL A   1      47.467  35.194  31.557  1.00  0.00    -0.200 F 
ATOM     90  C   UNL A   1      46.675  35.941  29.462  1.00  0.00     0.200 A 
ATOM     91  F   UNL A   1      45.842  36.655  27.371  1.00  0.00    -0.200 F 
ATOM     92  F   UNL A   1      47.351  37.090  29.600  1.00  0.00    -0.200 F 
ENDBRANCH  59  82
ENDBRANCH  33  34
ENDBRANCH  26  28
ENDBRANCH  25  26
ENDBRANCH  24  25
ENDBRANCH   1  24
TORSDOF 14
ENDMDL
MODEL 3
REMARK VINA RESULT:     -12.8      0.364      1.970
REMARK SMILES CS(=O)(=O)c1ccc(/C=C(/C(=O)OCCOC(=O)c2ccc(-c3c4nc(c(-c5c(F)c(F)c(F)c(F)c5F)c5ccc([nH]5)c(-c5c(F)c(F)c(F)c(F)c5F)c5nc(c(-c6c(F)c(F)c(F)c(F)c6F)c6ccc3[nH]6)C=C5)C=C4)cc2)c2ccc(F)cc2)cc1
REMARK SMILES IDX 14 1 13 2 11 3 12 4 10 5 9 6 8 7 5 8 6 9 90 10 7 11 89 12
REMARK SMILES IDX 2 13 1 14 3 15 4 16 82 17 83 18 88 19 84 20 87 21 85 22
REMARK SMILES IDX 86 23 15 24 16 25 17 26 18 27 19 28 20 29 81 30 21 31 80 32
REMARK SMILES IDX 22 33 23 34 24 35 74 36 25 37 79 38 73 39 75 40 26 41 78 42
REMARK SMILES IDX 72 43 71 44 27 46 59 47 39 48 58 49 40 50 43 51 57 52 76 53
REMARK SMILES IDX 41 54 42 55 56 57 77 58 44 59 28 60 29 61 37 62 30 63 31 64
REMARK SMILES IDX 35 65 38 66 32 67 33 68 36 69 34 70 60 71 61 72 69 73 62 74
REMARK SMILES IDX 63 75 67 76 70 77 64 78 65 79 68 80 66 81 45 82 46 83 54 84
REMARK SMILES IDX 47 85 48 86 52 87 55 88 49 89 50 90 53 91 51 92
REMARK H PARENT 75 45 43 56
REMARK Flexibility Score: inf
ROOT
ATOM      1  C   UNL A   1      32.162  28.072  25.567  1.00  0.00     0.275 C 
ENDROOT
BRANCH   1   2
ATOM      2  O   UNL A   1      33.286  27.165  25.523  1.00  0.00    -0.458 OA
BRANCH   2   3
ATOM      3  C   UNL A   1      33.469  26.505  24.350  1.00  0.00     0.338 C 
ATOM      4  O   UNL A   1      33.658  27.034  23.263  1.00  0.00    -0.246 OA
BRANCH   3   5
ATOM      5  C   UNL A   1      33.453  25.017  24.526  1.00  0.00     0.067 C 
ATOM      6  C   UNL A   1      32.280  24.343  24.512  1.00  0.00     0.024 C 
BRANCH   6   7
ATOM      7  C   UNL A   1      32.148  22.874  24.429  1.00  0.00    -0.025 A 
ATOM      8  C   UNL A   1      32.334  20.099  24.143  1.00  0.00     0.067 A 
ATOM      9  C   UNL A   1      32.305  20.658  25.419  1.00  0.00     0.021 A 
ATOM     10  C   UNL A   1      32.197  20.903  23.010  1.00  0.00     0.021 A 
ATOM     11  C   UNL A   1      32.172  22.041  25.556  1.00  0.00     0.009 A 
ATOM     12  C   UNL A   1      32.102  22.289  23.157  1.00  0.00     0.009 A 
BRANCH   8  13
ATOM     13  S   UNL A   1      32.652  18.364  23.946  1.00  0.00     0.175 S 
ATOM     14  C   UNL A   1      34.381  18.211  24.299  1.00  0.00     0.163 C 
ATOM     15  O   UNL A   1      32.455  18.031  22.549  1.00  0.00    -0.224 OA
ATOM     16  O   UNL A   1      31.912  17.676  24.989  1.00  0.00    -0.224 OA
ENDBRANCH   8  13
ENDBRANCH   6   7
BRANCH   5  17
ATOM     17  C   UNL A   1      34.753  24.314  24.598  1.00  0.00    -0.011 A 
ATOM     18  C   UNL A   1      35.386  24.154  25.843  1.00  0.00     0.012 A 
ATOM     19  C   UNL A   1      35.332  23.735  23.460  1.00  0.00     0.012 A 
ATOM     20  C   UNL A   1      36.566  23.418  25.953  1.00  0.00     0.040 A 
ATOM     21  C   UNL A   1      36.518  23.003  23.571  1.00  0.00     0.040 A 
ATOM     22  C   UNL A   1      37.122  22.850  24.814  1.00  0.00     0.123 A 
ATOM     23  F   UNL A   1      38.254  22.145  24.918  1.00  0.00    -0.207 F 
ENDBRANCH   5  17
ENDBRANCH   3   5
ENDBRANCH   2   3
ENDBRANCH   1   2
BRANCH   1  24
ATOM     24  C   UNL A   1      32.644  29.521  25.589  1.00  0.00     0.275 C 
BRANCH  24  25
ATOM     25  O   UNL A   1      32.429  30.072  26.900  1.00  0.00    -0.458 OA
BRANCH  25  26
ATOM     26  C   UNL A   1      33.080  31.225  27.175  1.00  0.00     0.338 C 
ATOM     27  O   UNL A   1      32.626  32.355  27.163  1.00  0.00    -0.246 OA
BRANCH  26  28
ATOM     28  C   UNL A   1      34.471  30.934  27.570  1.00  0.00     0.060 A 
ATOM     29  C   UNL A   1      34.865  29.615  27.754  1.00  0.00     0.016 A 
ATOM     30  C   UNL A   1      35.333  31.970  27.931  1.00  0.00     0.016 A 
ATOM     31  C   UNL A   1      36.053  29.335  28.426  1.00  0.00     0.010 A 
ATOM     32  C   UNL A   1      36.576  31.677  28.512  1.00  0.00     0.010 A 
ATOM     33  C   UNL A   1      36.924  30.354  28.835  1.00  0.00    -0.014 A 
BRANCH  33  34
ATOM     34  C   UNL A   1      38.119  30.023  29.678  1.00  0.00     0.031 A 
ATOM     35  C   UNL A   1      39.272  29.230  29.100  1.00  0.00     0.074 A 
ATOM     36  C   UNL A   1      38.246  30.509  30.932  1.00  0.00     0.049 A 
ATOM     37  N   UNL A   1      40.330  28.741  29.703  1.00  0.00    -0.248 NA
ATOM     38  C   UNL A   1      39.232  28.944  27.658  1.00  0.00     0.031 C 
ATOM     39  C   UNL A   1      37.268  31.354  31.618  1.00  0.00     0.029 A 
ATOM     40  N   UNL A   1      39.274  30.400  31.839  1.00  0.00    -0.354 N 
ATOM     41  C   UNL A   1      41.036  28.039  28.733  1.00  0.00     0.074 A 
ATOM     42  C   UNL A   1      40.292  28.166  27.499  1.00  0.00     0.031 C 
ATOM     43  C   UNL A   1      37.779  31.763  32.786  1.00  0.00     0.029 A 
ATOM     44  C   UNL A   1      39.067  31.111  32.997  1.00  0.00     0.049 A 
ATOM     45  H   UNL A   1      40.082  29.861  31.675  1.00  0.00     0.167 HD
ATOM     46  C   UNL A   1      42.196  27.348  28.856  1.00  0.00     0.037 A 
ATOM     47  C   UNL A   1      39.800  31.201  34.123  1.00  0.00     0.037 A 
ATOM     48  C   UNL A   1      42.985  27.275  30.059  1.00  0.00     0.049 A 
ATOM     49  C   UNL A   1      41.063  30.395  34.250  1.00  0.00     0.074 A 
ATOM     50  C   UNL A   1      44.164  26.582  30.279  1.00  0.00     0.029 A 
ATOM     51  N   UNL A   1      42.694  27.946  31.236  1.00  0.00    -0.354 N 
ATOM     52  N   UNL A   1      41.654  29.636  33.362  1.00  0.00    -0.248 NA
ATOM     53  C   UNL A   1      41.738  30.430  35.555  1.00  0.00     0.031 C 
ATOM     54  C   UNL A   1      44.568  26.807  31.600  1.00  0.00     0.029 A 
ATOM     55  C   UNL A   1      43.664  27.674  32.189  1.00  0.00     0.049 A 
ATOM     56  H   UNL A   1      41.913  28.529  31.376  1.00  0.00     0.167 HD
ATOM     57  C   UNL A   1      42.766  29.102  33.999  1.00  0.00     0.074 A 
ATOM     58  C   UNL A   1      42.789  29.652  35.338  1.00  0.00     0.031 C 
ATOM     59  C   UNL A   1      43.677  28.220  33.521  1.00  0.00     0.037 A 
BRANCH  46  60
ATOM     60  C   UNL A   1      42.669  26.566  27.664  1.00  0.00     0.064 A 
ATOM     61  C   UNL A   1      43.640  27.060  26.783  1.00  0.00     0.173 A 
ATOM     62  C   UNL A   1      42.163  25.278  27.427  1.00  0.00     0.173 A 
ATOM     63  F   UNL A   1      44.144  28.292  26.956  1.00  0.00    -0.203 F 
ATOM     64  C   UNL A   1      44.072  26.303  25.697  1.00  0.00     0.198 A 
ATOM     65  C   UNL A   1      42.616  24.513  26.357  1.00  0.00     0.198 A 
ATOM     66  F   UNL A   1      41.235  24.755  28.245  1.00  0.00    -0.203 F 
ATOM     67  F   UNL A   1      44.971  26.811  24.843  1.00  0.00    -0.200 F 
ATOM     68  C   UNL A   1      43.566  25.028  25.488  1.00  0.00     0.200 A 
ATOM     69  F   UNL A   1      42.133  23.278  26.164  1.00  0.00    -0.200 F 
ATOM     70  F   UNL A   1      43.988  24.299  24.446  1.00  0.00    -0.200 F 
ENDBRANCH  46  60
BRANCH  47  71
ATOM     71  C   UNL A   1      39.324  32.039  35.257  1.00  0.00     0.064 A 
ATOM     72  C   UNL A   1      39.691  33.387  35.366  1.00  0.00     0.173 A 
ATOM     73  C   UNL A   1      38.505  31.504  36.263  1.00  0.00     0.173 A 
ATOM     74  F   UNL A   1      40.504  33.937  34.452  1.00  0.00    -0.203 F 
ATOM     75  C   UNL A   1      39.265  34.165  36.442  1.00  0.00     0.198 A 
ATOM     76  C   UNL A   1      38.048  32.291  37.317  1.00  0.00     0.198 A 
ATOM     77  F   UNL A   1      38.134  30.216  36.214  1.00  0.00    -0.203 F 
ATOM     78  F   UNL A   1      39.672  35.436  36.550  1.00  0.00    -0.200 F 
ATOM     79  C   UNL A   1      38.434  33.619  37.410  1.00  0.00     0.200 A 
ATOM     80  F   UNL A   1      37.237  31.761  38.242  1.00  0.00    -0.200 F 
ATOM     81  F   UNL A   1      38.018  34.368  38.439  1.00  0.00    -0.200 F 
ENDBRANCH  47  71
BRANCH  59  82
ATOM     82  C   UNL A   1      44.778  27.805  34.452  1.00  0.00     0.064 A 
ATOM     83  C   UNL A   1      45.977  28.531  34.534  1.00  0.00     0.173 A 
ATOM     84  C   UNL A   1      44.634  26.678  35.273  1.00  0.00     0.173 A 
ATOM     85  F   UNL A   1      46.170  29.606  33.757  1.00  0.00    -0.203 F 
ATOM     86  C   UNL A   1      47.003  28.123  35.383  1.00  0.00     0.198 A 
ATOM     87  C   UNL A   1      45.652  26.288  36.140  1.00  0.00     0.198 A 
ATOM     88  F   UNL A   1      43.506  25.953  35.235  1.00  0.00    -0.203 F 
ATOM     89  F   UNL A   1      48.160  28.800  35.405  1.00  0.00    -0.200 F 
ATOM     90  C   UNL A   1      46.839  27.005  36.186  1.00  0.00     0.200 A 
ATOM     91  F   UNL A   1      45.489  25.213  36.923  1.00  0.00    -0.200 F 
ATOM     92  F   UNL A   1      47.829  26.612  37.000  1.00  0.00    -0.200 F 
ENDBRANCH  59  82
ENDBRANCH  33  34
ENDBRANCH  26  28
ENDBRANCH  25  26
ENDBRANCH  24  25
ENDBRANCH   1  24
TORSDOF 14
ENDMDL
