MODEL 1
REMARK VINA RESULT:     -14.0      0.000      0.000
REMARK SMILES Cc1ccc(C(=O)OCCOC(=O)c2ccc(-c3c4nc(c(-c5c(F)c(F)c(F)c(F)c5F)c5ccc([nH]5)c(-c5c(F)c(F)c(F)c(F)c5F)c5nc(c(-c6c(F)c(F)c(F)c(F)c6F)c6ccc3[nH]6)C=C5)C=C4)cc2)cc1NC(=O)Cc1ccc2ccccc2c1
REMARK SMILES IDX 9 1 8 2 6 3 7 4 5 5 1 6 2 7 3 8 78 9 4 10 77 11 79 12 80 13
REMARK SMILES IDX 81 15 82 16 83 17 84 18 92 19 85 20 91 21 86 22 90 23 87 24
REMARK SMILES IDX 89 25 88 26 10 27 11 28 12 29 13 30 14 31 15 32 76 33 16 34
REMARK SMILES IDX 75 35 17 36 18 37 19 38 69 39 20 40 74 41 68 42 70 43 21 44
REMARK SMILES IDX 73 45 67 46 66 47 22 49 54 50 34 51 53 52 35 53 38 54 52 55
REMARK SMILES IDX 71 56 36 57 37 58 51 60 72 61 39 62 23 63 24 64 32 65 25 66
REMARK SMILES IDX 26 67 30 68 33 69 27 70 28 71 31 72 29 73 55 74 56 75 64 76
REMARK SMILES IDX 57 77 58 78 62 79 65 80 59 81 60 82 63 83 61 84 40 85 41 86
REMARK SMILES IDX 49 87 42 88 43 89 47 90 50 91 44 92 45 93 48 94 46 95
REMARK H PARENT 79 14 70 48 38 59
REMARK Flexibility Score: inf
ROOT
ATOM      1  C   UNL A   1      32.825  30.044  27.086  1.00  0.00     0.275 C 
ENDROOT
BRANCH   1   2
ATOM      2  O   UNL A   1      32.060  28.853  26.827  1.00  0.00    -0.458 OA
BRANCH   2   3
ATOM      3  C   UNL A   1      31.732  28.738  25.519  1.00  0.00     0.338 C 
ATOM      4  O   UNL A   1      31.849  29.618  24.672  1.00  0.00    -0.246 OA
BRANCH   3   5
ATOM      5  C   UNL A   1      30.964  27.533  25.169  1.00  0.00     0.062 A 
ATOM      6  C   UNL A   1      30.590  23.579  23.535  1.00  0.00     0.046 C 
ATOM      7  C   UNL A   1      30.722  24.993  24.029  1.00  0.00    -0.027 A 
ATOM      8  C   UNL A   1      30.546  25.195  25.423  1.00  0.00     0.006 A 
ATOM      9  C   UNL A   1      31.041  26.095  23.217  1.00  0.00     0.044 A 
ATOM     10  C   UNL A   1      30.742  26.453  26.005  1.00  0.00     0.016 A 
ATOM     11  C   UNL A   1      30.944  27.351  23.794  1.00  0.00     0.042 A 
BRANCH   9  12
ATOM     12  N   UNL A   1      31.535  25.950  21.892  1.00  0.00    -0.326 N 
ATOM     13  C   UNL A   1      32.837  25.787  21.414  1.00  0.00     0.228 C 
ATOM     14  H   UNL A   1      30.841  25.969  21.193  1.00  0.00     0.169 HD
ATOM     15  O   UNL A   1      32.997  25.684  20.196  1.00  0.00    -0.274 OA
BRANCH  13  16
ATOM     16  C   UNL A   1      33.983  25.712  22.406  1.00  0.00     0.135 C 
BRANCH  16  17
ATOM     17  C   UNL A   1      34.237  24.542  23.326  1.00  0.00    -0.038 A 
ATOM     18  C   UNL A   1      34.212  23.252  22.766  1.00  0.00     0.005 A 
ATOM     19  C   UNL A   1      34.160  24.665  24.715  1.00  0.00     0.013 A 
ATOM     20  C   UNL A   1      34.164  22.112  23.564  1.00  0.00     0.009 A 
ATOM     21  C   UNL A   1      34.017  23.527  25.529  1.00  0.00    -0.018 A 
ATOM     22  C   UNL A   1      34.049  22.236  24.949  1.00  0.00    -0.018 A 
ATOM     23  C   UNL A   1      33.769  23.645  26.903  1.00  0.00     0.009 A 
ATOM     24  C   UNL A   1      33.901  21.103  25.761  1.00  0.00     0.009 A 
ATOM     25  C   UNL A   1      33.553  22.510  27.689  1.00  0.00     0.001 A 
ATOM     26  C   UNL A   1      33.640  21.241  27.123  1.00  0.00     0.001 A 
ENDBRANCH  16  17
ENDBRANCH  13  16
ENDBRANCH   9  12
ENDBRANCH   3   5
ENDBRANCH   2   3
ENDBRANCH   1   2
BRANCH   1  27
ATOM     27  C   UNL A   1      34.323  29.792  27.293  1.00  0.00     0.275 C 
BRANCH  27  28
ATOM     28  O   UNL A   1      35.033  30.429  28.393  1.00  0.00    -0.458 OA
BRANCH  28  29
ATOM     29  C   UNL A   1      36.269  30.970  28.351  1.00  0.00     0.338 C 
ATOM     30  O   UNL A   1      36.468  32.159  28.116  1.00  0.00    -0.246 OA
BRANCH  29  31
ATOM     31  C   UNL A   1      37.393  30.056  28.581  1.00  0.00     0.060 A 
ATOM     32  C   UNL A   1      37.302  29.128  29.634  1.00  0.00     0.016 A 
ATOM     33  C   UNL A   1      38.458  30.042  27.686  1.00  0.00     0.016 A 
ATOM     34  C   UNL A   1      38.238  28.115  29.747  1.00  0.00     0.010 A 
ATOM     35  C   UNL A   1      39.303  28.968  27.700  1.00  0.00     0.010 A 
ATOM     36  C   UNL A   1      39.230  28.063  28.776  1.00  0.00    -0.014 A 
BRANCH  36  37
ATOM     37  C   UNL A   1      40.501  27.415  29.013  1.00  0.00     0.031 A 
ATOM     38  C   UNL A   1      40.718  26.032  28.581  1.00  0.00     0.074 A 
ATOM     39  C   UNL A   1      41.393  28.369  29.368  1.00  0.00     0.049 A 
ATOM     40  N   UNL A   1      41.642  25.261  29.028  1.00  0.00    -0.248 NA
ATOM     41  C   UNL A   1      39.846  25.348  27.627  1.00  0.00     0.031 C 
ATOM     42  C   UNL A   1      42.834  28.464  29.278  1.00  0.00     0.029 A 
ATOM     43  N   UNL A   1      41.030  29.579  30.006  1.00  0.00    -0.354 N 
ATOM     44  C   UNL A   1      41.765  24.233  28.109  1.00  0.00     0.074 A 
ATOM     45  C   UNL A   1      40.506  24.203  27.413  1.00  0.00     0.031 C 
ATOM     46  C   UNL A   1      43.247  29.441  30.115  1.00  0.00     0.029 A 
ATOM     47  C   UNL A   1      42.079  29.907  30.860  1.00  0.00     0.049 A 
ATOM     48  H   UNL A   1      40.199  30.088  29.872  1.00  0.00     0.167 HD
ATOM     49  C   UNL A   1      43.017  23.745  27.860  1.00  0.00     0.037 A 
ATOM     50  C   UNL A   1      41.852  29.733  32.198  1.00  0.00     0.037 A 
ATOM     51  C   UNL A   1      43.975  24.477  28.692  1.00  0.00     0.049 A 
ATOM     52  C   UNL A   1      42.683  28.575  32.687  1.00  0.00     0.074 A 
ATOM     53  C   UNL A   1      44.769  25.575  28.403  1.00  0.00     0.029 A 
ATOM     54  N   UNL A   1      43.880  24.409  30.078  1.00  0.00    -0.354 N 
ATOM     55  N   UNL A   1      42.916  27.490  31.997  1.00  0.00    -0.248 NA
ATOM     56  C   UNL A   1      43.422  28.634  33.941  1.00  0.00     0.031 C 
ATOM     57  C   UNL A   1      45.098  26.207  29.629  1.00  0.00     0.029 A 
ATOM     58  C   UNL A   1      44.473  25.518  30.655  1.00  0.00     0.049 A 
ATOM     59  H   UNL A   1      43.452  23.677  30.577  1.00  0.00     0.167 HD
ATOM     60  C   UNL A   1      43.901  26.777  32.627  1.00  0.00     0.074 A 
ATOM     61  C   UNL A   1      44.154  27.512  33.856  1.00  0.00     0.031 C 
ATOM     62  C   UNL A   1      44.507  25.672  32.096  1.00  0.00     0.037 A 
BRANCH  49  63
ATOM     63  C   UNL A   1      43.449  22.939  26.646  1.00  0.00     0.064 A 
ATOM     64  C   UNL A   1      43.207  21.544  26.598  1.00  0.00     0.173 A 
ATOM     65  C   UNL A   1      44.111  23.450  25.513  1.00  0.00     0.173 A 
ATOM     66  F   UNL A   1      42.499  20.919  27.547  1.00  0.00    -0.203 F 
ATOM     67  C   UNL A   1      43.673  20.723  25.567  1.00  0.00     0.198 A 
ATOM     68  C   UNL A   1      44.595  22.624  24.486  1.00  0.00     0.198 A 
ATOM     69  F   UNL A   1      44.271  24.764  25.332  1.00  0.00    -0.203 F 
ATOM     70  F   UNL A   1      43.427  19.405  25.605  1.00  0.00    -0.200 F 
ATOM     71  C   UNL A   1      44.386  21.260  24.519  1.00  0.00     0.200 A 
ATOM     72  F   UNL A   1      45.261  23.163  23.455  1.00  0.00    -0.200 F 
ATOM     73  F   UNL A   1      44.843  20.472  23.536  1.00  0.00    -0.200 F 
ENDBRANCH  49  63
BRANCH  50  74
ATOM     74  C   UNL A   1      40.442  30.051  32.622  1.00  0.00     0.064 A 
ATOM     75  C   UNL A   1      39.982  31.385  32.493  1.00  0.00     0.173 A 
ATOM     76  C   UNL A   1      39.467  29.078  32.876  1.00  0.00     0.173 A 
ATOM     77  F   UNL A   1      40.856  32.375  32.251  1.00  0.00    -0.203 F 
ATOM     78  C   UNL A   1      38.623  31.708  32.507  1.00  0.00     0.198 A 
ATOM     79  C   UNL A   1      38.103  29.409  32.912  1.00  0.00     0.198 A 
ATOM     80  F   UNL A   1      39.808  27.790  33.009  1.00  0.00    -0.203 F 
ATOM     81  F   UNL A   1      38.232  32.966  32.258  1.00  0.00    -0.200 F 
ATOM     82  C   UNL A   1      37.682  30.716  32.706  1.00  0.00     0.200 A 
ATOM     83  F   UNL A   1      37.183  28.443  33.055  1.00  0.00    -0.200 F 
ATOM     84  F   UNL A   1      36.373  31.000  32.637  1.00  0.00    -0.200 F 
ENDBRANCH  50  74
BRANCH  62  85
ATOM     85  C   UNL A   1      45.308  24.679  32.890  1.00  0.00     0.064 A 
ATOM     86  C   UNL A   1      46.595  24.954  33.375  1.00  0.00     0.173 A 
ATOM     87  C   UNL A   1      44.720  23.475  33.347  1.00  0.00     0.173 A 
ATOM     88  F   UNL A   1      47.201  26.122  33.128  1.00  0.00    -0.203 F 
ATOM     89  C   UNL A   1      47.279  24.053  34.187  1.00  0.00     0.198 A 
ATOM     90  C   UNL A   1      45.373  22.619  34.226  1.00  0.00     0.198 A 
ATOM     91  F   UNL A   1      43.480  23.108  32.989  1.00  0.00    -0.203 F 
ATOM     92  F   UNL A   1      48.532  24.330  34.570  1.00  0.00    -0.200 F 
ATOM     93  C   UNL A   1      46.663  22.895  34.625  1.00  0.00     0.200 A 
ATOM     94  F   UNL A   1      44.735  21.540  34.698  1.00  0.00    -0.200 F 
ATOM     95  F   UNL A   1      47.306  22.057  35.448  1.00  0.00    -0.200 F 
ENDBRANCH  62  85
ENDBRANCH  36  37
ENDBRANCH  29  31
ENDBRANCH  28  29
ENDBRANCH  27  28
ENDBRANCH   1  27
TORSDOF 14
ENDMDL
MODEL 2
REMARK VINA RESULT:     -13.9      1.468      2.963
REMARK SMILES Cc1ccc(C(=O)OCCOC(=O)c2ccc(-c3c4nc(c(-c5c(F)c(F)c(F)c(F)c5F)c5ccc([nH]5)c(-c5c(F)c(F)c(F)c(F)c5F)c5nc(c(-c6c(F)c(F)c(F)c(F)c6F)c6ccc3[nH]6)C=C5)C=C4)cc2)cc1NC(=O)Cc1ccc2ccccc2c1
REMARK SMILES IDX 9 1 8 2 6 3 7 4 5 5 1 6 2 7 3 8 78 9 4 10 77 11 79 12 80 13
REMARK SMILES IDX 81 15 82 16 83 17 84 18 92 19 85 20 91 21 86 22 90 23 87 24
REMARK SMILES IDX 89 25 88 26 10 27 11 28 12 29 13 30 14 31 15 32 76 33 16 34
REMARK SMILES IDX 75 35 17 36 18 37 19 38 69 39 20 40 74 41 68 42 70 43 21 44
REMARK SMILES IDX 73 45 67 46 66 47 22 49 54 50 34 51 53 52 35 53 38 54 52 55
REMARK SMILES IDX 71 56 36 57 37 58 51 60 72 61 39 62 23 63 24 64 32 65 25 66
REMARK SMILES IDX 26 67 30 68 33 69 27 70 28 71 31 72 29 73 55 74 56 75 64 76
REMARK SMILES IDX 57 77 58 78 62 79 65 80 59 81 60 82 63 83 61 84 40 85 41 86
REMARK SMILES IDX 49 87 42 88 43 89 47 90 50 91 44 92 45 93 48 94 46 95
REMARK H PARENT 79 14 70 48 38 59
REMARK Flexibility Score: inf
ROOT
ATOM      1  C   UNL A   1      32.958  28.065  26.637  1.00  0.00     0.275 C 
ENDROOT
BRANCH   1   2
ATOM      2  O   UNL A   1      32.880  27.066  25.605  1.00  0.00    -0.458 OA
BRANCH   2   3
ATOM      3  C   UNL A   1      32.617  25.838  26.110  1.00  0.00     0.338 C 
ATOM      4  O   UNL A   1      31.606  25.520  26.729  1.00  0.00    -0.246 OA
BRANCH   3   5
ATOM      5  C   UNL A   1      33.753  24.902  26.104  1.00  0.00     0.062 A 
ATOM      6  C   UNL A   1      35.862  21.462  24.634  1.00  0.00     0.046 C 
ATOM      7  C   UNL A   1      35.073  22.614  25.190  1.00  0.00    -0.027 A 
ATOM      8  C   UNL A   1      35.614  23.910  24.984  1.00  0.00     0.006 A 
ATOM      9  C   UNL A   1      33.839  22.491  25.853  1.00  0.00     0.044 A 
ATOM     10  C   UNL A   1      34.918  25.060  25.374  1.00  0.00     0.016 A 
ATOM     11  C   UNL A   1      33.335  23.629  26.463  1.00  0.00     0.042 A 
BRANCH   9  12
ATOM     12  N   UNL A   1      33.077  21.291  25.832  1.00  0.00    -0.326 N 
ATOM     13  C   UNL A   1      32.502  20.591  24.769  1.00  0.00     0.228 C 
ATOM     14  H   UNL A   1      32.929  20.885  26.717  1.00  0.00     0.169 HD
ATOM     15  O   UNL A   1      31.880  19.559  25.025  1.00  0.00    -0.274 OA
BRANCH  13  16
ATOM     16  C   UNL A   1      32.695  21.108  23.355  1.00  0.00     0.135 C 
BRANCH  16  17
ATOM     17  C   UNL A   1      32.255  22.472  22.880  1.00  0.00    -0.038 A 
ATOM     18  C   UNL A   1      33.192  23.257  22.184  1.00  0.00     0.005 A 
ATOM     19  C   UNL A   1      31.110  23.095  23.382  1.00  0.00     0.013 A 
ATOM     20  C   UNL A   1      32.976  24.612  21.947  1.00  0.00     0.009 A 
ATOM     21  C   UNL A   1      30.922  24.481  23.232  1.00  0.00    -0.018 A 
ATOM     22  C   UNL A   1      31.851  25.241  22.481  1.00  0.00    -0.018 A 
ATOM     23  C   UNL A   1      29.868  25.144  23.874  1.00  0.00     0.009 A 
ATOM     24  C   UNL A   1      31.665  26.623  22.337  1.00  0.00     0.009 A 
ATOM     25  C   UNL A   1      29.735  26.531  23.780  1.00  0.00     0.001 A 
ATOM     26  C   UNL A   1      30.619  27.267  22.995  1.00  0.00     0.001 A 
ENDBRANCH  16  17
ENDBRANCH  13  16
ENDBRANCH   9  12
ENDBRANCH   3   5
ENDBRANCH   2   3
ENDBRANCH   1   2
BRANCH   1  27
ATOM     27  C   UNL A   1      34.231  28.920  26.583  1.00  0.00     0.275 C 
BRANCH  27  28
ATOM     28  O   UNL A   1      35.048  29.101  27.774  1.00  0.00    -0.458 OA
BRANCH  28  29
ATOM     29  C   UNL A   1      36.060  29.979  27.934  1.00  0.00     0.338 C 
ATOM     30  O   UNL A   1      35.912  31.193  27.817  1.00  0.00    -0.246 OA
BRANCH  29  31
ATOM     31  C   UNL A   1      37.379  29.413  28.235  1.00  0.00     0.060 A 
ATOM     32  C   UNL A   1      38.449  29.699  27.368  1.00  0.00     0.016 A 
ATOM     33  C   UNL A   1      37.570  28.717  29.425  1.00  0.00     0.016 A 
ATOM     34  C   UNL A   1      39.743  29.366  27.730  1.00  0.00     0.010 A 
ATOM     35  C   UNL A   1      38.850  28.513  29.858  1.00  0.00     0.010 A 
ATOM     36  C   UNL A   1      39.914  28.768  28.972  1.00  0.00    -0.014 A 
BRANCH  36  37
ATOM     37  C   UNL A   1      41.066  27.947  29.275  1.00  0.00     0.031 A 
ATOM     38  C   UNL A   1      41.138  26.567  28.789  1.00  0.00     0.074 A 
ATOM     39  C   UNL A   1      42.040  28.757  29.751  1.00  0.00     0.049 A 
ATOM     40  N   UNL A   1      41.912  25.661  29.267  1.00  0.00    -0.248 NA
ATOM     41  C   UNL A   1      40.270  26.046  27.733  1.00  0.00     0.031 C 
ATOM     42  C   UNL A   1      43.482  28.663  29.782  1.00  0.00     0.029 A 
ATOM     43  N   UNL A   1      41.782  29.976  30.422  1.00  0.00    -0.354 N 
ATOM     44  C   UNL A   1      41.980  24.666  28.307  1.00  0.00     0.074 A 
ATOM     45  C   UNL A   1      40.792  24.833  27.511  1.00  0.00     0.031 C 
ATOM     46  C   UNL A   1      43.945  29.540  30.700  1.00  0.00     0.029 A 
ATOM     47  C   UNL A   1      42.787  30.126  31.373  1.00  0.00     0.049 A 
ATOM     48  H   UNL A   1      41.039  30.597  30.249  1.00  0.00     0.167 HD
ATOM     49  C   UNL A   1      43.175  24.026  28.133  1.00  0.00     0.037 A 
ATOM     50  C   UNL A   1      42.424  29.927  32.677  1.00  0.00     0.037 A 
ATOM     51  C   UNL A   1      44.144  24.588  29.077  1.00  0.00     0.049 A 
ATOM     52  C   UNL A   1      43.054  28.648  33.169  1.00  0.00     0.074 A 
ATOM     53  C   UNL A   1      45.096  25.581  28.911  1.00  0.00     0.029 A 
ATOM     54  N   UNL A   1      43.922  24.475  30.445  1.00  0.00    -0.354 N 
ATOM     55  N   UNL A   1      43.203  27.572  32.442  1.00  0.00    -0.248 NA
ATOM     56  C   UNL A   1      43.683  28.555  34.479  1.00  0.00     0.031 C 
ATOM     57  C   UNL A   1      45.397  26.111  30.192  1.00  0.00     0.029 A 
ATOM     58  C   UNL A   1      44.602  25.468  31.126  1.00  0.00     0.049 A 
ATOM     59  H   UNL A   1      43.361  23.785  30.869  1.00  0.00     0.167 HD
ATOM     60  C   UNL A   1      44.029  26.708  33.110  1.00  0.00     0.074 A 
ATOM     61  C   UNL A   1      44.268  27.350  34.394  1.00  0.00     0.031 C 
ATOM     62  C   UNL A   1      44.530  25.556  32.572  1.00  0.00     0.037 A 
BRANCH  49  63
ATOM     63  C   UNL A   1      43.602  23.222  26.916  1.00  0.00     0.064 A 
ATOM     64  C   UNL A   1      43.189  21.874  26.776  1.00  0.00     0.173 A 
ATOM     65  C   UNL A   1      44.418  23.688  25.867  1.00  0.00     0.173 A 
ATOM     66  F   UNL A   1      42.330  21.308  27.632  1.00  0.00    -0.203 F 
ATOM     67  C   UNL A   1      43.633  21.043  25.743  1.00  0.00     0.198 A 
ATOM     68  C   UNL A   1      44.878  22.850  24.839  1.00  0.00     0.198 A 
ATOM     69  F   UNL A   1      44.759  24.977  25.769  1.00  0.00    -0.203 F 
ATOM     70  F   UNL A   1      43.218  19.769  25.692  1.00  0.00    -0.200 F 
ATOM     71  C   UNL A   1      44.495  21.525  24.784  1.00  0.00     0.200 A 
ATOM     72  F   UNL A   1      45.693  23.339  23.894  1.00  0.00    -0.200 F 
ATOM     73  F   UNL A   1      44.930  20.725  23.800  1.00  0.00    -0.200 F 
ENDBRANCH  49  63
BRANCH  50  74
ATOM     74  C   UNL A   1      41.036  30.412  33.004  1.00  0.00     0.064 A 
ATOM     75  C   UNL A   1      40.789  31.807  33.000  1.00  0.00     0.173 A 
ATOM     76  C   UNL A   1      39.910  29.580  33.041  1.00  0.00     0.173 A 
ATOM     77  F   UNL A   1      41.819  32.670  32.968  1.00  0.00    -0.203 F 
ATOM     78  C   UNL A   1      39.498  32.334  32.928  1.00  0.00     0.198 A 
ATOM     79  C   UNL A   1      38.612  30.114  32.990  1.00  0.00     0.198 A 
ATOM     80  F   UNL A   1      40.045  28.248  33.042  1.00  0.00    -0.203 F 
ATOM     81  F   UNL A   1      39.322  33.658  32.803  1.00  0.00    -0.200 F 
ATOM     82  C   UNL A   1      38.409  31.485  32.911  1.00  0.00     0.200 A 
ATOM     83  F   UNL A   1      37.553  29.293  32.923  1.00  0.00    -0.200 F 
ATOM     84  F   UNL A   1      37.170  31.975  32.755  1.00  0.00    -0.200 F 
ENDBRANCH  50  74
BRANCH  62  85
ATOM     85  C   UNL A   1      45.125  24.432  33.372  1.00  0.00     0.064 A 
ATOM     86  C   UNL A   1      44.428  23.249  33.658  1.00  0.00     0.173 A 
ATOM     87  C   UNL A   1      46.498  24.438  33.719  1.00  0.00     0.173 A 
ATOM     88  F   UNL A   1      43.163  23.067  33.255  1.00  0.00    -0.203 F 
ATOM     89  C   UNL A   1      45.033  22.184  34.320  1.00  0.00     0.198 A 
ATOM     90  C   UNL A   1      47.120  23.340  34.303  1.00  0.00     0.198 A 
ATOM     91  F   UNL A   1      47.290  25.491  33.468  1.00  0.00    -0.203 F 
ATOM     92  F   UNL A   1      44.307  21.103  34.631  1.00  0.00    -0.200 F 
ATOM     93  C   UNL A   1      46.381  22.223  34.628  1.00  0.00     0.200 A 
ATOM     94  F   UNL A   1      48.440  23.367  34.526  1.00  0.00    -0.200 F 
ATOM     95  F   UNL A   1      46.970  21.175  35.217  1.00  0.00    -0.200 F 
ENDBRANCH  62  85
ENDBRANCH  36  37
ENDBRANCH  29  31
ENDBRANCH  28  29
ENDBRANCH  27  28
ENDBRANCH   1  27
TORSDOF 14
ENDMDL
MODEL 3
REMARK VINA RESULT:     -13.9      3.823      9.778
REMARK SMILES Cc1ccc(C(=O)OCCOC(=O)c2ccc(-c3c4nc(c(-c5c(F)c(F)c(F)c(F)c5F)c5ccc([nH]5)c(-c5c(F)c(F)c(F)c(F)c5F)c5nc(c(-c6c(F)c(F)c(F)c(F)c6F)c6ccc3[nH]6)C=C5)C=C4)cc2)cc1NC(=O)Cc1ccc2ccccc2c1
REMARK SMILES IDX 9 1 8 2 6 3 7 4 5 5 1 6 2 7 3 8 78 9 4 10 77 11 79 12 80 13
REMARK SMILES IDX 81 15 82 16 83 17 84 18 92 19 85 20 91 21 86 22 90 23 87 24
REMARK SMILES IDX 89 25 88 26 10 27 11 28 12 29 13 30 14 31 15 32 76 33 16 34
REMARK SMILES IDX 75 35 17 36 18 37 19 38 69 39 20 40 74 41 68 42 70 43 21 44
REMARK SMILES IDX 73 45 67 46 66 47 22 49 54 50 34 51 53 52 35 53 38 54 52 55
REMARK SMILES IDX 71 56 36 57 37 58 51 60 72 61 39 62 23 63 24 64 32 65 25 66
REMARK SMILES IDX 26 67 30 68 33 69 27 70 28 71 31 72 29 73 55 74 56 75 64 76
REMARK SMILES IDX 57 77 58 78 62 79 65 80 59 81 60 82 63 83 61 84 40 85 41 86
REMARK SMILES IDX 49 87 42 88 43 89 47 90 50 91 44 92 45 93 48 94 46 95
REMARK H PARENT 79 14 70 48 38 59
REMARK Flexibility Score: inf
ROOT
ATOM      1  C   UNL A   1      37.280  22.167  25.249  1.00  0.00     0.275 C 
ENDROOT
BRANCH   1   2
ATOM      2  O   UNL A   1      36.212  22.484  24.339  1.00  0.00    -0.458 OA
BRANCH   2   3
ATOM      3  C   UNL A   1      35.141  21.676  24.516  1.00  0.00     0.338 C 
ATOM      4  O   UNL A   1      35.153  20.585  25.078  1.00  0.00    -0.246 OA
BRANCH   3   5
ATOM      5  C   UNL A   1      33.937  22.056  23.760  1.00  0.00     0.062 A 
ATOM      6  C   UNL A   1      30.345  24.341  23.190  1.00  0.00     0.046 C 
ATOM      7  C   UNL A   1      31.561  23.494  23.445  1.00  0.00    -0.027 A 
ATOM      8  C   UNL A   1      32.665  23.694  22.576  1.00  0.00     0.006 A 
ATOM      9  C   UNL A   1      31.680  22.564  24.493  1.00  0.00     0.044 A 
ATOM     10  C   UNL A   1      33.881  23.031  22.779  1.00  0.00     0.016 A 
ATOM     11  C   UNL A   1      32.792  21.737  24.476  1.00  0.00     0.042 A 
BRANCH   9  12
ATOM     12  N   UNL A   1      30.768  22.519  25.581  1.00  0.00    -0.326 N 
ATOM     13  C   UNL A   1      30.748  23.221  26.788  1.00  0.00     0.228 C 
ATOM     14  H   UNL A   1      30.025  21.883  25.465  1.00  0.00     0.169 HD
ATOM     15  O   UNL A   1      29.830  22.991  27.576  1.00  0.00    -0.274 OA
BRANCH  13  16
ATOM     16  C   UNL A   1      31.830  24.251  27.060  1.00  0.00     0.135 C 
BRANCH  16  17
ATOM     17  C   UNL A   1      31.942  25.576  26.346  1.00  0.00    -0.038 A 
ATOM     18  C   UNL A   1      30.774  26.350  26.216  1.00  0.00     0.005 A 
ATOM     19  C   UNL A   1      33.041  25.892  25.545  1.00  0.00     0.013 A 
ATOM     20  C   UNL A   1      30.716  27.441  25.352  1.00  0.00     0.009 A 
ATOM     21  C   UNL A   1      32.965  26.932  24.600  1.00  0.00    -0.018 A 
ATOM     22  C   UNL A   1      31.801  27.732  24.524  1.00  0.00    -0.018 A 
ATOM     23  C   UNL A   1      33.997  27.149  23.676  1.00  0.00     0.009 A 
ATOM     24  C   UNL A   1      31.725  28.765  23.579  1.00  0.00     0.009 A 
ATOM     25  C   UNL A   1      33.878  28.135  22.694  1.00  0.00     0.001 A 
ATOM     26  C   UNL A   1      32.754  28.955  22.659  1.00  0.00     0.001 A 
ENDBRANCH  16  17
ENDBRANCH  13  16
ENDBRANCH   9  12
ENDBRANCH   3   5
ENDBRANCH   2   3
ENDBRANCH   1   2
BRANCH   1  27
ATOM     27  C   UNL A   1      37.967  23.395  25.859  1.00  0.00     0.275 C 
BRANCH  27  28
ATOM     28  O   UNL A   1      38.969  23.237  26.903  1.00  0.00    -0.458 OA
BRANCH  28  29
ATOM     29  C   UNL A   1      40.158  23.869  26.984  1.00  0.00     0.338 C 
ATOM     30  O   UNL A   1      41.222  23.325  26.700  1.00  0.00    -0.246 OA
BRANCH  29  31
ATOM     31  C   UNL A   1      40.133  25.257  27.458  1.00  0.00     0.060 A 
ATOM     32  C   UNL A   1      40.393  26.288  26.537  1.00  0.00     0.016 A 
ATOM     33  C   UNL A   1      39.734  25.528  28.763  1.00  0.00     0.016 A 
ATOM     34  C   UNL A   1      40.168  27.607  26.891  1.00  0.00     0.010 A 
ATOM     35  C   UNL A   1      39.372  26.808  29.077  1.00  0.00     0.010 A 
ATOM     36  C   UNL A   1      39.668  27.839  28.166  1.00  0.00    -0.014 A 
BRANCH  36  37
ATOM     37  C   UNL A   1      39.841  29.109  28.837  1.00  0.00     0.031 A 
ATOM     38  C   UNL A   1      38.791  30.129  28.772  1.00  0.00     0.074 A 
ATOM     39  C   UNL A   1      40.896  28.994  29.678  1.00  0.00     0.049 A 
ATOM     40  N   UNL A   1      38.965  31.377  29.019  1.00  0.00    -0.248 NA
ATOM     41  C   UNL A   1      37.423  29.839  28.343  1.00  0.00     0.031 C 
ATOM     42  C   UNL A   1      41.273  29.675  30.896  1.00  0.00     0.029 A 
ATOM     43  N   UNL A   1      41.970  28.099  29.463  1.00  0.00    -0.354 N 
ATOM     44  C   UNL A   1      37.705  31.904  29.248  1.00  0.00     0.074 A 
ATOM     45  C   UNL A   1      36.798  30.996  28.597  1.00  0.00     0.031 C 
ATOM     46  C   UNL A   1      42.587  29.450  31.118  1.00  0.00     0.029 A 
ATOM     47  C   UNL A   1      43.110  28.719  29.965  1.00  0.00     0.049 A 
ATOM     48  H   UNL A   1      41.921  27.211  29.042  1.00  0.00     0.167 HD
ATOM     49  C   UNL A   1      37.582  32.871  30.206  1.00  0.00     0.037 A 
ATOM     50  C   UNL A   1      43.999  29.198  29.042  1.00  0.00     0.037 A 
ATOM     51  C   UNL A   1      38.904  33.128  30.781  1.00  0.00     0.049 A 
ATOM     52  C   UNL A   1      43.965  30.704  29.066  1.00  0.00     0.074 A 
ATOM     53  C   UNL A   1      39.507  32.623  31.922  1.00  0.00     0.029 A 
ATOM     54  N   UNL A   1      39.927  33.613  29.972  1.00  0.00    -0.354 N 
ATOM     55  N   UNL A   1      42.883  31.416  29.245  1.00  0.00    -0.248 NA
ATOM     56  C   UNL A   1      45.183  31.502  29.028  1.00  0.00     0.031 C 
ATOM     57  C   UNL A   1      40.911  32.751  31.763  1.00  0.00     0.029 A 
ATOM     58  C   UNL A   1      41.159  33.295  30.513  1.00  0.00     0.049 A 
ATOM     59  H   UNL A   1      39.792  34.113  29.135  1.00  0.00     0.167 HD
ATOM     60  C   UNL A   1      43.250  32.716  29.466  1.00  0.00     0.074 A 
ATOM     61  C   UNL A   1      44.692  32.725  29.280  1.00  0.00     0.031 C 
ATOM     62  C   UNL A   1      42.384  33.701  29.852  1.00  0.00     0.037 A 
BRANCH  49  63
ATOM     63  C   UNL A   1      36.299  33.294  30.903  1.00  0.00     0.064 A 
ATOM     64  C   UNL A   1      35.383  34.152  30.245  1.00  0.00     0.173 A 
ATOM     65  C   UNL A   1      35.909  32.921  32.204  1.00  0.00     0.173 A 
ATOM     66  F   UNL A   1      35.554  34.517  28.969  1.00  0.00    -0.203 F 
ATOM     67  C   UNL A   1      34.242  34.669  30.865  1.00  0.00     0.198 A 
ATOM     68  C   UNL A   1      34.773  33.454  32.833  1.00  0.00     0.198 A 
ATOM     69  F   UNL A   1      36.580  31.995  32.896  1.00  0.00    -0.203 F 
ATOM     70  F   UNL A   1      33.436  35.497  30.184  1.00  0.00    -0.200 F 
ATOM     71  C   UNL A   1      33.946  34.337  32.167  1.00  0.00     0.200 A 
ATOM     72  F   UNL A   1      34.478  33.098  34.091  1.00  0.00    -0.200 F 
ATOM     73  F   UNL A   1      32.858  34.842  32.765  1.00  0.00    -0.200 F 
ENDBRANCH  49  63
BRANCH  50  74
ATOM     74  C   UNL A   1      44.123  28.335  27.813  1.00  0.00     0.064 A 
ATOM     75  C   UNL A   1      44.698  27.048  27.945  1.00  0.00     0.173 A 
ATOM     76  C   UNL A   1      43.463  28.602  26.606  1.00  0.00     0.173 A 
ATOM     77  F   UNL A   1      45.350  26.718  29.072  1.00  0.00    -0.203 F 
ATOM     78  C   UNL A   1      44.531  26.054  26.977  1.00  0.00     0.198 A 
ATOM     79  C   UNL A   1      43.314  27.607  25.626  1.00  0.00     0.198 A 
ATOM     80  F   UNL A   1      42.884  29.790  26.393  1.00  0.00    -0.203 F 
ATOM     81  F   UNL A   1      44.990  24.815  27.204  1.00  0.00    -0.200 F 
ATOM     82  C   UNL A   1      43.828  26.333  25.821  1.00  0.00     0.200 A 
ATOM     83  F   UNL A   1      42.591  27.856  24.524  1.00  0.00    -0.200 F 
ATOM     84  F   UNL A   1      43.587  25.364  24.926  1.00  0.00    -0.200 F 
ENDBRANCH  50  74
BRANCH  62  85
ATOM     85  C   UNL A   1      42.672  35.173  29.752  1.00  0.00     0.064 A 
ATOM     86  C   UNL A   1      43.425  35.868  30.709  1.00  0.00     0.173 A 
ATOM     87  C   UNL A   1      42.350  35.894  28.576  1.00  0.00     0.173 A 
ATOM     88  F   UNL A   1      43.909  35.256  31.798  1.00  0.00    -0.203 F 
ATOM     89  C   UNL A   1      43.757  37.210  30.545  1.00  0.00     0.198 A 
ATOM     90  C   UNL A   1      42.757  37.209  28.380  1.00  0.00     0.198 A 
ATOM     91  F   UNL A   1      41.665  35.339  27.566  1.00  0.00    -0.203 F 
ATOM     92  F   UNL A   1      44.419  37.849  31.519  1.00  0.00    -0.200 F 
ATOM     93  C   UNL A   1      43.437  37.875  29.375  1.00  0.00     0.200 A 
ATOM     94  F   UNL A   1      42.503  37.814  27.212  1.00  0.00    -0.200 F 
ATOM     95  F   UNL A   1      43.806  39.151  29.201  1.00  0.00    -0.200 F 
ENDBRANCH  62  85
ENDBRANCH  36  37
ENDBRANCH  29  31
ENDBRANCH  28  29
ENDBRANCH  27  28
ENDBRANCH   1  27
TORSDOF 14
ENDMDL
