MODEL 1
REMARK VINA RESULT:     -12.9      0.000      0.000
REMARK SMILES Cc1c(C(=O)OCCOC(=O)c2ccc(-c3c4nc(c(-c5c(F)c(F)c(F)c(F)c5F)c5ccc([nH]5)c(-c5c(F)c(F)c(F)c(F)c5F)c5nc(c(-c6c(F)c(F)c(F)c(F)c6F)c6ccc3[nH]6)C=C5)C=C4)cc2)sc2ncnc(NCc3cn4c(n3)SCC4)c12
REMARK SMILES IDX 7 1 6 2 4 3 5 4 3 5 1 6 2 7 91 8 75 9 76 10 80 11 77 12
REMARK SMILES IDX 79 13 78 14 81 15 82 17 83 18 84 19 87 20 85 21 86 22 90 23
REMARK SMILES IDX 88 24 89 25 8 26 9 27 10 28 11 29 12 30 13 31 74 32 14 33
REMARK SMILES IDX 73 34 15 35 16 36 17 37 67 38 18 39 72 40 66 41 68 42 19 43
REMARK SMILES IDX 71 44 65 45 64 46 20 48 52 49 32 50 51 51 33 52 36 53 50 54
REMARK SMILES IDX 69 55 34 56 35 57 49 59 70 60 37 61 21 62 22 63 30 64 23 65
REMARK SMILES IDX 24 66 28 67 31 68 25 69 26 70 29 71 27 72 53 73 54 74 62 75
REMARK SMILES IDX 55 76 56 77 60 78 63 79 57 80 58 81 61 82 59 83 38 84 39 85
REMARK SMILES IDX 47 86 40 87 41 88 45 89 48 90 42 91 43 92 46 93 44 94
REMARK H PARENT 81 16 68 47 36 58
REMARK Flexibility Score: inf
ROOT
ATOM      1  C   UNL A   1      37.401  21.803  24.801  1.00  0.00     0.275 C 
ENDROOT
BRANCH   1   2
ATOM      2  O   UNL A   1      36.226  22.265  25.492  1.00  0.00    -0.458 OA
BRANCH   2   3
ATOM      3  C   UNL A   1      35.071  21.566  25.262  1.00  0.00     0.348 C 
ATOM      4  O   UNL A   1      35.042  20.352  25.079  1.00  0.00    -0.245 OA
BRANCH   3   5
ATOM      5  C   UNL A   1      33.889  22.422  25.341  1.00  0.00     0.118 A 
ATOM      6  C   UNL A   1      34.031  23.429  23.026  1.00  0.00     0.047 C 
ATOM      7  C   UNL A   1      33.411  23.322  24.380  1.00  0.00    -0.012 A 
ATOM      8  C   UNL A   1      32.255  24.091  24.854  1.00  0.00     0.058 A 
ATOM      9  S   UNL A   1      32.899  22.390  26.721  1.00  0.00    -0.108 S 
ATOM     10  C   UNL A   1      31.895  23.615  26.116  1.00  0.00     0.129 A 
ATOM     11  C   UNL A   1      31.433  25.152  24.370  1.00  0.00     0.138 A 
ATOM     12  N   UNL A   1      30.878  24.021  26.890  1.00  0.00    -0.225 NA
ATOM     13  N   UNL A   1      30.392  25.556  25.145  1.00  0.00    -0.219 NA
ATOM     14  C   UNL A   1      30.172  24.991  26.333  1.00  0.00     0.225 A 
BRANCH  11  15
ATOM     15  N   UNL A   1      31.480  25.929  23.252  1.00  0.00    -0.364 N 
ATOM     16  H   UNL A   1      31.058  25.488  22.480  1.00  0.00     0.162 HD
BRANCH  15  17
ATOM     17  C   UNL A   1      31.991  27.231  22.915  1.00  0.00     0.172 C 
BRANCH  17  18
ATOM     18  C   UNL A   1      31.012  28.369  22.959  1.00  0.00     0.079 A 
ATOM     19  C   UNL A   1      30.847  29.332  23.952  1.00  0.00     0.113 A 
ATOM     20  N   UNL A   1      30.114  28.576  21.916  1.00  0.00    -0.226 NA
ATOM     21  N   UNL A   1      29.837  30.103  23.496  1.00  0.00    -0.325 N 
ATOM     22  C   UNL A   1      29.437  29.623  22.294  1.00  0.00     0.168 A 
ATOM     23  C   UNL A   1      29.112  31.229  24.035  1.00  0.00     0.135 C 
ATOM     24  S   UNL A   1      28.065  30.445  21.676  1.00  0.00    -0.086 SA
ATOM     25  C   UNL A   1      27.761  31.232  23.317  1.00  0.00     0.100 C 
ENDBRANCH  17  18
ENDBRANCH  15  17
ENDBRANCH  11  15
ENDBRANCH   3   5
ENDBRANCH   2   3
ENDBRANCH   1   2
BRANCH   1  26
ATOM     26  C   UNL A   1      38.596  21.631  25.739  1.00  0.00     0.275 C 
BRANCH  26  27
ATOM     27  O   UNL A   1      38.912  22.820  26.472  1.00  0.00    -0.458 OA
BRANCH  27  28
ATOM     28  C   UNL A   1      40.175  22.836  26.943  1.00  0.00     0.338 C 
ATOM     29  O   UNL A   1      40.803  21.902  27.416  1.00  0.00    -0.246 OA
BRANCH  28  30
ATOM     30  C   UNL A   1      40.687  24.200  27.035  1.00  0.00     0.060 A 
ATOM     31  C   UNL A   1      41.682  24.426  27.988  1.00  0.00     0.016 A 
ATOM     32  C   UNL A   1      39.956  25.248  26.464  1.00  0.00     0.016 A 
ATOM     33  C   UNL A   1      41.841  25.694  28.494  1.00  0.00     0.010 A 
ATOM     34  C   UNL A   1      40.123  26.522  26.969  1.00  0.00     0.010 A 
ATOM     35  C   UNL A   1      41.009  26.714  28.034  1.00  0.00    -0.014 A 
BRANCH  35  36
ATOM     36  C   UNL A   1      41.117  28.005  28.698  1.00  0.00     0.031 A 
ATOM     37  C   UNL A   1      42.274  28.835  28.259  1.00  0.00     0.074 A 
ATOM     38  C   UNL A   1      40.157  28.407  29.554  1.00  0.00     0.049 A 
ATOM     39  N   UNL A   1      43.088  29.537  28.982  1.00  0.00    -0.248 NA
ATOM     40  C   UNL A   1      42.614  28.818  26.824  1.00  0.00     0.031 C 
ATOM     41  C   UNL A   1      38.892  27.720  29.850  1.00  0.00     0.029 A 
ATOM     42  N   UNL A   1      40.034  29.582  30.237  1.00  0.00    -0.354 N 
ATOM     43  C   UNL A   1      43.955  30.157  28.082  1.00  0.00     0.074 A 
ATOM     44  C   UNL A   1      43.683  29.609  26.781  1.00  0.00     0.031 C 
ATOM     45  C   UNL A   1      38.037  28.595  30.419  1.00  0.00     0.029 A 
ATOM     46  C   UNL A   1      38.731  29.852  30.633  1.00  0.00     0.049 A 
ATOM     47  H   UNL A   1      40.793  30.178  30.429  1.00  0.00     0.167 HD
ATOM     48  C   UNL A   1      44.717  31.230  28.425  1.00  0.00     0.037 A 
ATOM     49  C   UNL A   1      38.240  31.060  30.994  1.00  0.00     0.037 A 
ATOM     50  C   UNL A   1      44.847  31.386  29.844  1.00  0.00     0.049 A 
ATOM     51  C   UNL A   1      39.383  31.908  31.412  1.00  0.00     0.074 A 
ATOM     52  C   UNL A   1      45.737  31.004  30.820  1.00  0.00     0.029 A 
ATOM     53  N   UNL A   1      43.722  31.839  30.469  1.00  0.00    -0.354 N 
ATOM     54  N   UNL A   1      40.122  31.666  32.459  1.00  0.00    -0.248 NA
ATOM     55  C   UNL A   1      39.924  32.894  30.480  1.00  0.00     0.031 C 
ATOM     56  C   UNL A   1      45.027  31.071  32.057  1.00  0.00     0.029 A 
ATOM     57  C   UNL A   1      43.742  31.541  31.806  1.00  0.00     0.049 A 
ATOM     58  H   UNL A   1      42.989  32.318  30.018  1.00  0.00     0.167 HD
ATOM     59  C   UNL A   1      41.369  32.146  32.116  1.00  0.00     0.074 A 
ATOM     60  C   UNL A   1      41.148  33.045  30.992  1.00  0.00     0.031 C 
ATOM     61  C   UNL A   1      42.506  31.533  32.552  1.00  0.00     0.037 A 
BRANCH  48  62
ATOM     62  C   UNL A   1      45.006  32.368  27.482  1.00  0.00     0.064 A 
ATOM     63  C   UNL A   1      46.270  32.487  26.879  1.00  0.00     0.173 A 
ATOM     64  C   UNL A   1      44.175  33.507  27.404  1.00  0.00     0.173 A 
ATOM     65  F   UNL A   1      47.151  31.478  26.934  1.00  0.00    -0.203 F 
ATOM     66  C   UNL A   1      46.681  33.676  26.268  1.00  0.00     0.198 A 
ATOM     67  C   UNL A   1      44.568  34.672  26.749  1.00  0.00     0.198 A 
ATOM     68  F   UNL A   1      43.004  33.569  28.053  1.00  0.00    -0.203 F 
ATOM     69  F   UNL A   1      47.929  33.784  25.792  1.00  0.00    -0.200 F 
ATOM     70  C   UNL A   1      45.830  34.766  26.202  1.00  0.00     0.200 A 
ATOM     71  F   UNL A   1      43.739  35.726  26.723  1.00  0.00    -0.200 F 
ATOM     72  F   UNL A   1      46.239  35.919  25.658  1.00  0.00    -0.200 F 
ENDBRANCH  48  62
BRANCH  49  73
ATOM     73  C   UNL A   1      36.899  31.620  30.691  1.00  0.00     0.064 A 
ATOM     74  C   UNL A   1      36.001  31.918  31.730  1.00  0.00     0.173 A 
ATOM     75  C   UNL A   1      36.574  32.135  29.420  1.00  0.00     0.173 A 
ATOM     76  F   UNL A   1      36.251  31.497  32.978  1.00  0.00    -0.203 F 
ATOM     77  C   UNL A   1      34.874  32.718  31.519  1.00  0.00     0.198 A 
ATOM     78  C   UNL A   1      35.440  32.920  29.207  1.00  0.00     0.198 A 
ATOM     79  F   UNL A   1      37.396  31.975  28.374  1.00  0.00    -0.203 F 
ATOM     80  F   UNL A   1      34.088  33.048  32.553  1.00  0.00    -0.200 F 
ATOM     81  C   UNL A   1      34.602  33.229  30.261  1.00  0.00     0.200 A 
ATOM     82  F   UNL A   1      35.206  33.430  27.990  1.00  0.00    -0.200 F 
ATOM     83  F   UNL A   1      33.560  34.050  30.072  1.00  0.00    -0.200 F 
ENDBRANCH  49  73
BRANCH  61  84
ATOM     84  C   UNL A   1      42.397  30.659  33.762  1.00  0.00     0.064 A 
ATOM     85  C   UNL A   1      42.433  31.136  35.082  1.00  0.00     0.173 A 
ATOM     86  C   UNL A   1      42.194  29.286  33.580  1.00  0.00     0.173 A 
ATOM     87  F   UNL A   1      42.518  32.447  35.337  1.00  0.00    -0.203 F 
ATOM     88  C   UNL A   1      42.337  30.268  36.167  1.00  0.00     0.198 A 
ATOM     89  C   UNL A   1      42.054  28.425  34.664  1.00  0.00     0.198 A 
ATOM     90  F   UNL A   1      42.095  28.779  32.340  1.00  0.00    -0.203 F 
ATOM     91  F   UNL A   1      42.405  30.747  37.418  1.00  0.00    -0.200 F 
ATOM     92  C   UNL A   1      42.143  28.913  35.957  1.00  0.00     0.200 A 
ATOM     93  F   UNL A   1      41.811  27.125  34.455  1.00  0.00    -0.200 F 
ATOM     94  F   UNL A   1      42.014  28.082  37.000  1.00  0.00    -0.200 F 
ENDBRANCH  61  84
ENDBRANCH  35  36
ENDBRANCH  28  30
ENDBRANCH  27  28
ENDBRANCH  26  27
ENDBRANCH   1  26
TORSDOF 14
ENDMDL
MODEL 2
REMARK VINA RESULT:     -12.5      2.013      2.314
REMARK SMILES Cc1c(C(=O)OCCOC(=O)c2ccc(-c3c4nc(c(-c5c(F)c(F)c(F)c(F)c5F)c5ccc([nH]5)c(-c5c(F)c(F)c(F)c(F)c5F)c5nc(c(-c6c(F)c(F)c(F)c(F)c6F)c6ccc3[nH]6)C=C5)C=C4)cc2)sc2ncnc(NCc3cn4c(n3)SCC4)c12
REMARK SMILES IDX 7 1 6 2 4 3 5 4 3 5 1 6 2 7 91 8 75 9 76 10 80 11 77 12
REMARK SMILES IDX 79 13 78 14 81 15 82 17 83 18 84 19 87 20 85 21 86 22 90 23
REMARK SMILES IDX 88 24 89 25 8 26 9 27 10 28 11 29 12 30 13 31 74 32 14 33
REMARK SMILES IDX 73 34 15 35 16 36 17 37 67 38 18 39 72 40 66 41 68 42 19 43
REMARK SMILES IDX 71 44 65 45 64 46 20 48 52 49 32 50 51 51 33 52 36 53 50 54
REMARK SMILES IDX 69 55 34 56 35 57 49 59 70 60 37 61 21 62 22 63 30 64 23 65
REMARK SMILES IDX 24 66 28 67 31 68 25 69 26 70 29 71 27 72 53 73 54 74 62 75
REMARK SMILES IDX 55 76 56 77 60 78 63 79 57 80 58 81 61 82 59 83 38 84 39 85
REMARK SMILES IDX 47 86 40 87 41 88 45 89 48 90 42 91 43 92 46 93 44 94
REMARK H PARENT 81 16 68 47 36 58
REMARK Flexibility Score: inf
ROOT
ATOM      1  C   UNL A   1      36.683  21.751  25.694  1.00  0.00     0.275 C 
ENDROOT
BRANCH   1   2
ATOM      2  O   UNL A   1      36.222  21.538  24.347  1.00  0.00    -0.458 OA
BRANCH   2   3
ATOM      3  C   UNL A   1      35.508  22.559  23.780  1.00  0.00     0.348 C 
ATOM      4  O   UNL A   1      35.882  23.174  22.785  1.00  0.00    -0.245 OA
BRANCH   3   5
ATOM      5  C   UNL A   1      34.226  22.768  24.450  1.00  0.00     0.118 A 
ATOM      6  C   UNL A   1      34.391  25.273  24.751  1.00  0.00     0.047 C 
ATOM      7  C   UNL A   1      33.703  23.964  24.957  1.00  0.00    -0.012 A 
ATOM      8  C   UNL A   1      32.432  23.769  25.664  1.00  0.00     0.058 A 
ATOM      9  S   UNL A   1      33.159  21.466  24.685  1.00  0.00    -0.108 S 
ATOM     10  C   UNL A   1      32.053  22.432  25.530  1.00  0.00     0.129 A 
ATOM     11  C   UNL A   1      31.518  24.566  26.414  1.00  0.00     0.138 A 
ATOM     12  N   UNL A   1      30.945  21.840  26.000  1.00  0.00    -0.225 NA
ATOM     13  N   UNL A   1      30.387  23.973  26.879  1.00  0.00    -0.219 NA
ATOM     14  C   UNL A   1      30.162  22.678  26.659  1.00  0.00     0.225 A 
BRANCH  11  15
ATOM     15  N   UNL A   1      31.541  25.864  26.832  1.00  0.00    -0.364 N 
ATOM     16  H   UNL A   1      31.659  25.933  27.807  1.00  0.00     0.162 HD
BRANCH  15  17
ATOM     17  C   UNL A   1      31.434  27.156  26.209  1.00  0.00     0.172 C 
BRANCH  17  18
ATOM     18  C   UNL A   1      32.364  28.223  26.713  1.00  0.00     0.079 A 
ATOM     19  C   UNL A   1      32.074  29.548  27.027  1.00  0.00     0.113 A 
ATOM     20  N   UNL A   1      33.711  27.948  26.932  1.00  0.00    -0.226 NA
ATOM     21  N   UNL A   1      33.259  30.059  27.421  1.00  0.00    -0.325 N 
ATOM     22  C   UNL A   1      34.195  29.082  27.351  1.00  0.00     0.168 A 
ATOM     23  C   UNL A   1      33.703  31.374  27.820  1.00  0.00     0.135 C 
ATOM     24  S   UNL A   1      35.773  29.650  27.703  1.00  0.00    -0.086 SA
ATOM     25  C   UNL A   1      35.209  31.400  27.554  1.00  0.00     0.100 C 
ENDBRANCH  17  18
ENDBRANCH  15  17
ENDBRANCH  11  15
ENDBRANCH   3   5
ENDBRANCH   2   3
ENDBRANCH   1   2
BRANCH   1  26
ATOM     26  C   UNL A   1      38.182  22.043  25.756  1.00  0.00     0.275 C 
BRANCH  26  27
ATOM     27  O   UNL A   1      38.511  23.108  26.654  1.00  0.00    -0.458 OA
BRANCH  27  28
ATOM     28  C   UNL A   1      39.792  23.074  27.076  1.00  0.00     0.338 C 
ATOM     29  O   UNL A   1      40.407  22.110  27.505  1.00  0.00    -0.246 OA
BRANCH  28  30
ATOM     30  C   UNL A   1      40.352  24.418  27.174  1.00  0.00     0.060 A 
ATOM     31  C   UNL A   1      41.522  24.549  27.924  1.00  0.00     0.016 A 
ATOM     32  C   UNL A   1      39.553  25.520  26.848  1.00  0.00     0.016 A 
ATOM     33  C   UNL A   1      41.815  25.767  28.489  1.00  0.00     0.010 A 
ATOM     34  C   UNL A   1      39.854  26.744  27.411  1.00  0.00     0.010 A 
ATOM     35  C   UNL A   1      40.939  26.833  28.290  1.00  0.00    -0.014 A 
BRANCH  35  36
ATOM     36  C   UNL A   1      41.214  28.061  29.021  1.00  0.00     0.031 A 
ATOM     37  C   UNL A   1      42.353  28.861  28.489  1.00  0.00     0.074 A 
ATOM     38  C   UNL A   1      40.402  28.446  30.027  1.00  0.00     0.049 A 
ATOM     39  N   UNL A   1      43.298  29.459  29.142  1.00  0.00    -0.248 NA
ATOM     40  C   UNL A   1      42.499  28.937  27.023  1.00  0.00     0.031 C 
ATOM     41  C   UNL A   1      39.147  27.805  30.443  1.00  0.00     0.029 A 
ATOM     42  N   UNL A   1      40.444  29.568  30.800  1.00  0.00    -0.354 N 
ATOM     43  C   UNL A   1      44.076  30.102  28.177  1.00  0.00     0.074 A 
ATOM     44  C   UNL A   1      43.601  29.671  26.891  1.00  0.00     0.031 C 
ATOM     45  C   UNL A   1      38.431  28.677  31.183  1.00  0.00     0.029 A 
ATOM     46  C   UNL A   1      39.225  29.875  31.388  1.00  0.00     0.049 A 
ATOM     47  H   UNL A   1      41.258  30.107  30.929  1.00  0.00     0.167 HD
ATOM     48  C   UNL A   1      44.943  31.103  28.488  1.00  0.00     0.037 A 
ATOM     49  C   UNL A   1      38.863  31.076  31.895  1.00  0.00     0.037 A 
ATOM     50  C   UNL A   1      45.267  31.140  29.883  1.00  0.00     0.049 A 
ATOM     51  C   UNL A   1      40.101  31.827  32.213  1.00  0.00     0.074 A 
ATOM     52  C   UNL A   1      46.252  30.637  30.700  1.00  0.00     0.029 A 
ATOM     53  N   UNL A   1      44.265  31.603  30.686  1.00  0.00    -0.354 N 
ATOM     54  N   UNL A   1      40.955  31.466  33.130  1.00  0.00    -0.248 NA
ATOM     55  C   UNL A   1      40.576  32.852  31.287  1.00  0.00     0.031 C 
ATOM     56  C   UNL A   1      45.718  30.645  32.024  1.00  0.00     0.029 A 
ATOM     57  C   UNL A   1      44.442  31.201  31.983  1.00  0.00     0.049 A 
ATOM     58  H   UNL A   1      43.511  32.153  30.373  1.00  0.00     0.167 HD
ATOM     59  C   UNL A   1      42.174  31.904  32.655  1.00  0.00     0.074 A 
ATOM     60  C   UNL A   1      41.864  32.898  31.637  1.00  0.00     0.031 C 
ATOM     61  C   UNL A   1      43.318  31.200  32.888  1.00  0.00     0.037 A 
BRANCH  48  62
ATOM     62  C   UNL A   1      45.175  32.293  27.597  1.00  0.00     0.064 A 
ATOM     63  C   UNL A   1      46.409  32.461  26.943  1.00  0.00     0.173 A 
ATOM     64  C   UNL A   1      44.331  33.425  27.620  1.00  0.00     0.173 A 
ATOM     65  F   UNL A   1      47.301  31.460  26.901  1.00  0.00    -0.203 F 
ATOM     66  C   UNL A   1      46.779  33.686  26.379  1.00  0.00     0.198 A 
ATOM     67  C   UNL A   1      44.681  34.629  27.012  1.00  0.00     0.198 A 
ATOM     68  F   UNL A   1      43.191  33.437  28.326  1.00  0.00    -0.203 F 
ATOM     69  F   UNL A   1      48.002  33.835  25.851  1.00  0.00    -0.200 F 
ATOM     70  C   UNL A   1      45.915  34.768  26.413  1.00  0.00     0.200 A 
ATOM     71  F   UNL A   1      43.842  35.672  27.083  1.00  0.00    -0.200 F 
ATOM     72  F   UNL A   1      46.287  35.954  25.915  1.00  0.00    -0.200 F 
ENDBRANCH  48  62
BRANCH  49  73
ATOM     73  C   UNL A   1      37.531  31.727  31.818  1.00  0.00     0.064 A 
ATOM     74  C   UNL A   1      36.777  31.946  32.983  1.00  0.00     0.173 A 
ATOM     75  C   UNL A   1      37.094  32.398  30.658  1.00  0.00     0.173 A 
ATOM     76  F   UNL A   1      37.143  31.376  34.140  1.00  0.00    -0.203 F 
ATOM     77  C   UNL A   1      35.682  32.817  32.997  1.00  0.00     0.198 A 
ATOM     78  C   UNL A   1      35.991  33.253  30.669  1.00  0.00     0.198 A 
ATOM     79  F   UNL A   1      37.780  32.320  29.510  1.00  0.00    -0.203 F 
ATOM     80  F   UNL A   1      35.040  33.063  34.146  1.00  0.00    -0.200 F 
ATOM     81  C   UNL A   1      35.299  33.479  31.842  1.00  0.00     0.200 A 
ATOM     82  F   UNL A   1      35.651  33.908  29.550  1.00  0.00    -0.200 F 
ATOM     83  F   UNL A   1      34.293  34.364  31.870  1.00  0.00    -0.200 F 
ENDBRANCH  49  73
BRANCH  61  84
ATOM     84  C   UNL A   1      43.314  30.242  34.038  1.00  0.00     0.064 A 
ATOM     85  C   UNL A   1      43.564  30.610  35.369  1.00  0.00     0.173 A 
ATOM     86  C   UNL A   1      42.994  28.901  33.791  1.00  0.00     0.173 A 
ATOM     87  F   UNL A   1      43.773  31.889  35.701  1.00  0.00    -0.203 F 
ATOM     88  C   UNL A   1      43.556  29.667  36.394  1.00  0.00     0.198 A 
ATOM     89  C   UNL A   1      42.943  27.968  34.821  1.00  0.00     0.198 A 
ATOM     90  F   UNL A   1      42.691  28.500  32.545  1.00  0.00    -0.203 F 
ATOM     91  F   UNL A   1      43.827  30.040  37.654  1.00  0.00    -0.200 F 
ATOM     92  C   UNL A   1      43.241  28.347  36.120  1.00  0.00     0.200 A 
ATOM     93  F   UNL A   1      42.584  26.705  34.558  1.00  0.00    -0.200 F 
ATOM     94  F   UNL A   1      43.199  27.445  37.110  1.00  0.00    -0.200 F 
ENDBRANCH  61  84
ENDBRANCH  35  36
ENDBRANCH  28  30
ENDBRANCH  27  28
ENDBRANCH  26  27
ENDBRANCH   1  26
TORSDOF 14
ENDMDL
MODEL 3
REMARK VINA RESULT:     -12.5      3.743      9.194
REMARK SMILES Cc1c(C(=O)OCCOC(=O)c2ccc(-c3c4nc(c(-c5c(F)c(F)c(F)c(F)c5F)c5ccc([nH]5)c(-c5c(F)c(F)c(F)c(F)c5F)c5nc(c(-c6c(F)c(F)c(F)c(F)c6F)c6ccc3[nH]6)C=C5)C=C4)cc2)sc2ncnc(NCc3cn4c(n3)SCC4)c12
REMARK SMILES IDX 7 1 6 2 4 3 5 4 3 5 1 6 2 7 91 8 75 9 76 10 80 11 77 12
REMARK SMILES IDX 79 13 78 14 81 15 82 17 83 18 84 19 87 20 85 21 86 22 90 23
REMARK SMILES IDX 88 24 89 25 8 26 9 27 10 28 11 29 12 30 13 31 74 32 14 33
REMARK SMILES IDX 73 34 15 35 16 36 17 37 67 38 18 39 72 40 66 41 68 42 19 43
REMARK SMILES IDX 71 44 65 45 64 46 20 48 52 49 32 50 51 51 33 52 36 53 50 54
REMARK SMILES IDX 69 55 34 56 35 57 49 59 70 60 37 61 21 62 22 63 30 64 23 65
REMARK SMILES IDX 24 66 28 67 31 68 25 69 26 70 29 71 27 72 53 73 54 74 62 75
REMARK SMILES IDX 55 76 56 77 60 78 63 79 57 80 58 81 61 82 59 83 38 84 39 85
REMARK SMILES IDX 47 86 40 87 41 88 45 89 48 90 42 91 43 92 46 93 44 94
REMARK H PARENT 81 16 68 47 36 58
REMARK Flexibility Score: inf
ROOT
ATOM      1  C   UNL A   1      32.345  29.920  26.228  1.00  0.00     0.275 C 
ENDROOT
BRANCH   1   2
ATOM      2  O   UNL A   1      33.150  28.996  25.473  1.00  0.00    -0.458 OA
BRANCH   2   3
ATOM      3  C   UNL A   1      32.485  28.203  24.576  1.00  0.00     0.348 C 
ATOM      4  O   UNL A   1      32.276  28.530  23.410  1.00  0.00    -0.245 OA
BRANCH   3   5
ATOM      5  C   UNL A   1      32.133  26.905  25.148  1.00  0.00     0.118 A 
ATOM      6  C   UNL A   1      34.397  25.801  24.935  1.00  0.00     0.047 C 
ATOM      7  C   UNL A   1      32.945  25.772  25.280  1.00  0.00    -0.012 A 
ATOM      8  C   UNL A   1      32.214  24.612  25.804  1.00  0.00     0.058 A 
ATOM      9  S   UNL A   1      30.573  26.637  25.768  1.00  0.00    -0.108 S 
ATOM     10  C   UNL A   1      30.917  25.016  26.125  1.00  0.00     0.129 A 
ATOM     11  C   UNL A   1      32.483  23.237  26.066  1.00  0.00     0.138 A 
ATOM     12  N   UNL A   1      29.933  24.276  26.657  1.00  0.00    -0.225 NA
ATOM     13  N   UNL A   1      31.493  22.488  26.620  1.00  0.00    -0.219 NA
ATOM     14  C   UNL A   1      30.301  23.026  26.879  1.00  0.00     0.225 A 
BRANCH  11  15
ATOM     15  N   UNL A   1      33.565  22.439  25.838  1.00  0.00    -0.364 N 
ATOM     16  H   UNL A   1      34.145  22.371  26.631  1.00  0.00     0.162 HD
BRANCH  15  17
ATOM     17  C   UNL A   1      34.075  21.674  24.732  1.00  0.00     0.172 C 
BRANCH  17  18
ATOM     18  C   UNL A   1      33.803  20.198  24.755  1.00  0.00     0.079 A 
ATOM     19  C   UNL A   1      32.581  19.543  24.892  1.00  0.00     0.113 A 
ATOM     20  N   UNL A   1      34.842  19.280  24.625  1.00  0.00    -0.226 NA
ATOM     21  N   UNL A   1      32.904  18.234  24.854  1.00  0.00    -0.325 N 
ATOM     22  C   UNL A   1      34.244  18.124  24.694  1.00  0.00     0.168 A 
ATOM     23  C   UNL A   1      32.152  17.009  25.001  1.00  0.00     0.135 C 
ATOM     24  S   UNL A   1      34.790  16.500  24.765  1.00  0.00    -0.086 SA
ATOM     25  C   UNL A   1      33.165  15.953  25.447  1.00  0.00     0.100 C 
ENDBRANCH  17  18
ENDBRANCH  15  17
ENDBRANCH  11  15
ENDBRANCH   3   5
ENDBRANCH   2   3
ENDBRANCH   1   2
BRANCH   1  26
ATOM     26  C   UNL A   1      33.178  30.759  27.195  1.00  0.00     0.275 C 
BRANCH  26  27
ATOM     27  O   UNL A   1      34.587  30.546  27.056  1.00  0.00    -0.458 OA
BRANCH  27  28
ATOM     28  C   UNL A   1      35.332  31.433  27.747  1.00  0.00     0.338 C 
ATOM     29  O   UNL A   1      35.342  32.648  27.626  1.00  0.00    -0.246 OA
BRANCH  28  30
ATOM     30  C   UNL A   1      36.340  30.757  28.558  1.00  0.00     0.060 A 
ATOM     31  C   UNL A   1      37.356  31.560  29.080  1.00  0.00     0.016 A 
ATOM     32  C   UNL A   1      36.459  29.364  28.486  1.00  0.00     0.016 A 
ATOM     33  C   UNL A   1      38.565  30.984  29.387  1.00  0.00     0.010 A 
ATOM     34  C   UNL A   1      37.672  28.788  28.802  1.00  0.00     0.010 A 
ATOM     35  C   UNL A   1      38.737  29.616  29.173  1.00  0.00    -0.014 A 
BRANCH  35  36
ATOM     36  C   UNL A   1      40.073  29.077  29.378  1.00  0.00     0.031 A 
ATOM     37  C   UNL A   1      40.454  28.881  30.805  1.00  0.00     0.074 A 
ATOM     38  C   UNL A   1      40.820  28.704  28.319  1.00  0.00     0.049 A 
ATOM     39  N   UNL A   1      41.577  29.155  31.388  1.00  0.00    -0.248 NA
ATOM     40  C   UNL A   1      39.410  28.382  31.721  1.00  0.00     0.031 C 
ATOM     41  C   UNL A   1      40.404  28.674  26.910  1.00  0.00     0.029 A 
ATOM     42  N   UNL A   1      42.060  28.136  28.285  1.00  0.00    -0.354 N 
ATOM     43  C   UNL A   1      41.428  28.735  32.711  1.00  0.00     0.074 A 
ATOM     44  C   UNL A   1      40.052  28.359  32.887  1.00  0.00     0.031 C 
ATOM     45  C   UNL A   1      41.250  27.884  26.217  1.00  0.00     0.029 A 
ATOM     46  C   UNL A   1      42.319  27.457  27.101  1.00  0.00     0.049 A 
ATOM     47  H   UNL A   1      42.706  28.201  29.024  1.00  0.00     0.167 HD
ATOM     48  C   UNL A   1      42.490  28.537  33.537  1.00  0.00     0.037 A 
ATOM     49  C   UNL A   1      43.276  26.520  26.912  1.00  0.00     0.037 A 
ATOM     50  C   UNL A   1      43.684  29.173  33.065  1.00  0.00     0.049 A 
ATOM     51  C   UNL A   1      44.315  26.715  27.952  1.00  0.00     0.074 A 
ATOM     52  C   UNL A   1      44.327  30.374  33.258  1.00  0.00     0.029 A 
ATOM     53  N   UNL A   1      44.262  28.567  31.988  1.00  0.00    -0.354 N 
ATOM     54  N   UNL A   1      45.075  27.772  28.031  1.00  0.00    -0.248 NA
ATOM     55  C   UNL A   1      44.320  25.853  29.131  1.00  0.00     0.031 C 
ATOM     56  C   UNL A   1      45.191  30.550  32.136  1.00  0.00     0.029 A 
ATOM     57  C   UNL A   1      45.089  29.428  31.318  1.00  0.00     0.049 A 
ATOM     58  H   UNL A   1      44.104  27.632  31.725  1.00  0.00     0.167 HD
ATOM     59  C   UNL A   1      45.321  27.916  29.381  1.00  0.00     0.074 A 
ATOM     60  C   UNL A   1      45.002  26.627  29.978  1.00  0.00     0.031 C 
ATOM     61  C   UNL A   1      45.449  29.150  29.948  1.00  0.00     0.037 A 
BRANCH  48  62
ATOM     62  C   UNL A   1      42.542  27.430  34.556  1.00  0.00     0.064 A 
ATOM     63  C   UNL A   1      43.024  26.158  34.199  1.00  0.00     0.173 A 
ATOM     64  C   UNL A   1      41.843  27.504  35.781  1.00  0.00     0.173 A 
ATOM     65  F   UNL A   1      43.664  25.972  33.036  1.00  0.00    -0.203 F 
ATOM     66  C   UNL A   1      42.793  25.035  35.002  1.00  0.00     0.198 A 
ATOM     67  C   UNL A   1      41.660  26.394  36.602  1.00  0.00     0.198 A 
ATOM     68  F   UNL A   1      41.220  28.625  36.168  1.00  0.00    -0.203 F 
ATOM     69  F   UNL A   1      43.181  23.824  34.580  1.00  0.00    -0.200 F 
ATOM     70  C   UNL A   1      42.113  25.154  36.201  1.00  0.00     0.200 A 
ATOM     71  F   UNL A   1      40.973  26.525  37.746  1.00  0.00    -0.200 F 
ATOM     72  F   UNL A   1      41.851  24.074  36.947  1.00  0.00    -0.200 F 
ENDBRANCH  48  62
BRANCH  49  73
ATOM     73  C   UNL A   1      43.183  25.283  26.098  1.00  0.00     0.064 A 
ATOM     74  C   UNL A   1      44.212  24.939  25.205  1.00  0.00     0.173 A 
ATOM     75  C   UNL A   1      42.237  24.275  26.376  1.00  0.00     0.173 A 
ATOM     76  F   UNL A   1      45.174  25.825  24.911  1.00  0.00    -0.203 F 
ATOM     77  C   UNL A   1      44.313  23.654  24.660  1.00  0.00     0.198 A 
ATOM     78  C   UNL A   1      42.329  23.000  25.819  1.00  0.00     0.198 A 
ATOM     79  F   UNL A   1      41.257  24.469  27.269  1.00  0.00    -0.203 F 
ATOM     80  F   UNL A   1      45.354  23.342  23.878  1.00  0.00    -0.200 F 
ATOM     81  C   UNL A   1      43.379  22.683  24.978  1.00  0.00     0.200 A 
ATOM     82  F   UNL A   1      41.433  22.062  26.159  1.00  0.00    -0.200 F 
ATOM     83  F   UNL A   1      43.512  21.434  24.510  1.00  0.00    -0.200 F 
ENDBRANCH  49  73
BRANCH  61  84
ATOM     84  C   UNL A   1      45.795  30.291  29.043  1.00  0.00     0.064 A 
ATOM     85  C   UNL A   1      47.101  30.596  28.627  1.00  0.00     0.173 A 
ATOM     86  C   UNL A   1      44.757  31.079  28.533  1.00  0.00     0.173 A 
ATOM     87  F   UNL A   1      48.134  29.826  28.987  1.00  0.00    -0.203 F 
ATOM     88  C   UNL A   1      47.359  31.680  27.792  1.00  0.00     0.198 A 
ATOM     89  C   UNL A   1      45.011  32.135  27.663  1.00  0.00     0.198 A 
ATOM     90  F   UNL A   1      43.482  30.801  28.851  1.00  0.00    -0.203 F 
ATOM     91  F   UNL A   1      48.619  31.967  27.433  1.00  0.00    -0.200 F 
ATOM     92  C   UNL A   1      46.312  32.446  27.306  1.00  0.00     0.200 A 
ATOM     93  F   UNL A   1      43.991  32.838  27.153  1.00  0.00    -0.200 F 
ATOM     94  F   UNL A   1      46.556  33.468  26.473  1.00  0.00    -0.200 F 
ENDBRANCH  61  84
ENDBRANCH  35  36
ENDBRANCH  28  30
ENDBRANCH  27  28
ENDBRANCH  26  27
ENDBRANCH   1  26
TORSDOF 14
ENDMDL
