MODEL 1
REMARK VINA RESULT:     -12.9      0.000      0.000
REMARK SMILES CCOC(=O)C1=NN(c2ccc(C)cc2[N+](=O)[O-])[C@H](C(=O)OCCOC(=O)c2ccc(-c3c4nc(c(-c5c(F)c(F)c(F)c(F)c5F)c5ccc([nH]5)c(-c5c(F)c(F)c(F)c(F)c5F)c5nc(c(-c6c(F)c(F)c(F)c(F)c6F)c6ccc3[nH]6)C=C5)C=C4)cc2)C1
REMARK SMILES IDX 23 1 22 2 20 3 21 4 19 5 6 6 7 7 91 8 8 9 4 10 5 11 3 12
REMARK SMILES IDX 2 13 1 14 9 15 10 16 15 17 11 18 14 19 12 20 13 21 16 22
REMARK SMILES IDX 17 23 18 24 24 25 25 26 26 27 27 28 28 29 29 30 90 31 30 32
REMARK SMILES IDX 89 33 31 34 32 35 33 36 83 37 34 38 88 39 82 40 84 41 35 42
REMARK SMILES IDX 87 43 81 44 80 45 36 47 68 48 48 49 67 50 49 51 52 52 66 53
REMARK SMILES IDX 85 54 50 55 51 56 65 58 86 59 53 60 37 61 38 62 46 63 39 64
REMARK SMILES IDX 40 65 44 66 47 67 41 68 42 69 45 70 43 71 69 72 70 73 78 74
REMARK SMILES IDX 71 75 72 76 76 77 79 78 73 79 74 80 77 81 75 82 54 83 55 84
REMARK SMILES IDX 63 85 56 86 57 87 61 88 64 89 58 90 59 91 62 92 60 93
REMARK H PARENT 84 46 52 57
REMARK Flexibility Score: inf
ROOT
ATOM      1  C   UNL A   1      34.178  27.913  26.222  1.00  0.00     0.274 C 
ENDROOT
BRANCH   1   2
ATOM      2  O   UNL A   1      33.165  26.908  25.985  1.00  0.00    -0.460 OA
BRANCH   2   3
ATOM      3  C   UNL A   1      31.957  27.246  25.499  1.00  0.00     0.331 C 
ATOM      4  O   UNL A   1      30.932  27.240  26.168  1.00  0.00    -0.250 OA
BRANCH   3   5
ATOM      5  C   UNL A   1      31.933  27.736  24.061  1.00  0.00     0.224 C 
ATOM      6  C   UNL A   1      30.211  28.776  22.951  1.00  0.00     0.148 C 
ATOM      7  N   UNL A   1      30.027  27.518  22.668  1.00  0.00    -0.169 NA
ATOM      8  C   UNL A   1      31.411  29.130  23.774  1.00  0.00     0.105 C 
ATOM      9  N   UNL A   1      31.048  26.873  23.274  1.00  0.00    -0.243 N 
BRANCH   6  10
ATOM     10  C   UNL A   1      29.286  29.883  22.532  1.00  0.00     0.354 C 
ATOM     11  O   UNL A   1      28.754  29.895  21.438  1.00  0.00    -0.245 OA
BRANCH  10  12
ATOM     12  O   UNL A   1      29.074  30.711  23.576  1.00  0.00    -0.461 OA
BRANCH  12  13
ATOM     13  C   UNL A   1      28.122  31.763  23.338  1.00  0.00     0.230 C 
ATOM     14  C   UNL A   1      28.826  33.049  22.946  1.00  0.00     0.049 C 
ENDBRANCH  12  13
ENDBRANCH  10  12
ENDBRANCH   6  10
BRANCH   9  15
ATOM     15  C   UNL A   1      31.260  25.493  23.242  1.00  0.00     0.138 A 
ATOM     16  C   UNL A   1      30.651  24.691  24.225  1.00  0.00     0.035 A 
ATOM     17  C   UNL A   1      32.272  24.893  22.485  1.00  0.00     0.294 A 
ATOM     18  C   UNL A   1      31.168  23.436  24.568  1.00  0.00     0.006 A 
ATOM     19  C   UNL A   1      32.759  23.605  22.772  1.00  0.00     0.091 A 
ATOM     20  C   UNL A   1      32.255  22.903  23.872  1.00  0.00    -0.044 A 
ATOM     21  C   UNL A   1      32.858  21.595  24.294  1.00  0.00     0.044 C 
BRANCH  17  22
ATOM     22  N   UNL A   1      32.902  25.620  21.398  1.00  0.00     0.065 N 
ATOM     23  O   UNL A   1      33.924  26.263  21.676  1.00  0.00    -0.258 OA
ATOM     24  O   UNL A   1      32.344  25.613  20.289  1.00  0.00    -0.258 OA
ENDBRANCH  17  22
ENDBRANCH   9  15
ENDBRANCH   3   5
ENDBRANCH   2   3
ENDBRANCH   1   2
BRANCH   1  25
ATOM     25  C   UNL A   1      34.060  29.091  27.238  1.00  0.00     0.275 C 
BRANCH  25  26
ATOM     26  O   UNL A   1      35.050  30.128  27.580  1.00  0.00    -0.458 OA
BRANCH  26  27
ATOM     27  C   UNL A   1      35.988  30.269  28.554  1.00  0.00     0.338 C 
ATOM     28  O   UNL A   1      35.906  31.034  29.487  1.00  0.00    -0.246 OA
BRANCH  27  29
ATOM     29  C   UNL A   1      37.180  29.453  28.343  1.00  0.00     0.060 A 
ATOM     30  C   UNL A   1      38.056  29.708  27.273  1.00  0.00     0.016 A 
ATOM     31  C   UNL A   1      37.473  28.564  29.362  1.00  0.00     0.016 A 
ATOM     32  C   UNL A   1      39.339  29.175  27.316  1.00  0.00     0.010 A 
ATOM     33  C   UNL A   1      38.762  28.126  29.458  1.00  0.00     0.010 A 
ATOM     34  C   UNL A   1      39.688  28.418  28.437  1.00  0.00    -0.014 A 
BRANCH  34  35
ATOM     35  C   UNL A   1      40.874  27.588  28.510  1.00  0.00     0.031 A 
ATOM     36  C   UNL A   1      40.904  26.164  28.155  1.00  0.00     0.074 A 
ATOM     37  C   UNL A   1      41.948  28.321  28.877  1.00  0.00     0.049 A 
ATOM     38  N   UNL A   1      41.618  25.301  28.793  1.00  0.00    -0.248 NA
ATOM     39  C   UNL A   1      40.110  25.561  27.081  1.00  0.00     0.031 C 
ATOM     40  C   UNL A   1      43.362  28.031  28.835  1.00  0.00     0.029 A 
ATOM     41  N   UNL A   1      41.872  29.579  29.503  1.00  0.00    -0.354 N 
ATOM     42  C   UNL A   1      41.654  24.163  28.018  1.00  0.00     0.074 A 
ATOM     43  C   UNL A   1      40.572  24.300  27.070  1.00  0.00     0.031 C 
ATOM     44  C   UNL A   1      43.994  28.906  29.643  1.00  0.00     0.029 A 
ATOM     45  C   UNL A   1      42.972  29.684  30.341  1.00  0.00     0.049 A 
ATOM     46  H   UNL A   1      41.171  30.257  29.372  1.00  0.00     0.167 HD
ATOM     47  C   UNL A   1      42.745  23.347  28.075  1.00  0.00     0.037 A 
ATOM     48  C   UNL A   1      42.757  29.716  31.688  1.00  0.00     0.037 A 
ATOM     49  C   UNL A   1      43.769  23.945  28.919  1.00  0.00     0.049 A 
ATOM     50  C   UNL A   1      43.416  28.534  32.327  1.00  0.00     0.074 A 
ATOM     51  C   UNL A   1      44.805  24.798  28.576  1.00  0.00     0.029 A 
ATOM     52  N   UNL A   1      43.591  24.060  30.292  1.00  0.00    -0.354 N 
ATOM     53  N   UNL A   1      43.400  27.332  31.824  1.00  0.00    -0.248 NA
ATOM     54  C   UNL A   1      44.221  28.663  33.531  1.00  0.00     0.031 C 
ATOM     55  C   UNL A   1      45.250  25.442  29.747  1.00  0.00     0.029 A 
ATOM     56  C   UNL A   1      44.478  24.990  30.802  1.00  0.00     0.049 A 
ATOM     57  H   UNL A   1      42.932  23.556  30.823  1.00  0.00     0.167 HD
ATOM     58  C   UNL A   1      44.248  26.552  32.567  1.00  0.00     0.074 A 
ATOM     59  C   UNL A   1      44.713  27.420  33.636  1.00  0.00     0.031 C 
ATOM     60  C   UNL A   1      44.576  25.274  32.219  1.00  0.00     0.037 A 
BRANCH  47  61
ATOM     61  C   UNL A   1      43.038  22.256  27.076  1.00  0.00     0.064 A 
ATOM     62  C   UNL A   1      42.346  21.024  27.107  1.00  0.00     0.173 A 
ATOM     63  C   UNL A   1      43.988  22.386  26.047  1.00  0.00     0.173 A 
ATOM     64  F   UNL A   1      41.392  20.774  28.011  1.00  0.00    -0.203 F 
ATOM     65  C   UNL A   1      42.616  19.984  26.218  1.00  0.00     0.198 A 
ATOM     66  C   UNL A   1      44.268  21.335  25.162  1.00  0.00     0.198 A 
ATOM     67  F   UNL A   1      44.655  23.539  25.877  1.00  0.00    -0.203 F 
ATOM     68  F   UNL A   1      41.935  18.834  26.316  1.00  0.00    -0.200 F 
ATOM     69  C   UNL A   1      43.586  20.133  25.252  1.00  0.00     0.200 A 
ATOM     70  F   UNL A   1      45.208  21.490  24.217  1.00  0.00    -0.200 F 
ATOM     71  F   UNL A   1      43.859  19.127  24.411  1.00  0.00    -0.200 F 
ENDBRANCH  47  61
BRANCH  48  72
ATOM     72  C   UNL A   1      41.427  30.265  32.105  1.00  0.00     0.064 A 
ATOM     73  C   UNL A   1      41.180  31.647  31.966  1.00  0.00     0.173 A 
ATOM     74  C   UNL A   1      40.316  29.450  32.364  1.00  0.00     0.173 A 
ATOM     75  F   UNL A   1      42.197  32.485  31.705  1.00  0.00    -0.203 F 
ATOM     76  C   UNL A   1      39.887  32.174  32.004  1.00  0.00     0.198 A 
ATOM     77  C   UNL A   1      39.022  29.981  32.412  1.00  0.00     0.198 A 
ATOM     78  F   UNL A   1      40.459  28.124  32.495  1.00  0.00    -0.203 F 
ATOM     79  F   UNL A   1      39.691  33.481  31.780  1.00  0.00    -0.200 F 
ATOM     80  C   UNL A   1      38.807  31.337  32.213  1.00  0.00     0.200 A 
ATOM     81  F   UNL A   1      37.970  29.164  32.574  1.00  0.00    -0.200 F 
ATOM     82  F   UNL A   1      37.558  31.823  32.183  1.00  0.00    -0.200 F 
ENDBRANCH  48  72
BRANCH  60  83
ATOM     83  C   UNL A   1      45.234  24.260  33.116  1.00  0.00     0.064 A 
ATOM     84  C   UNL A   1      46.532  24.407  33.625  1.00  0.00     0.173 A 
ATOM     85  C   UNL A   1      44.505  23.151  33.615  1.00  0.00     0.173 A 
ATOM     86  F   UNL A   1      47.273  25.491  33.356  1.00  0.00    -0.203 F 
ATOM     87  C   UNL A   1      47.098  23.467  34.485  1.00  0.00     0.198 A 
ATOM     88  C   UNL A   1      45.049  22.254  34.529  1.00  0.00     0.198 A 
ATOM     89  F   UNL A   1      43.232  22.920  33.266  1.00  0.00    -0.203 F 
ATOM     90  F   UNL A   1      48.365  23.623  34.891  1.00  0.00    -0.200 F 
ATOM     91  C   UNL A   1      46.355  22.397  34.944  1.00  0.00     0.200 A 
ATOM     92  F   UNL A   1      44.290  21.263  35.016  1.00  0.00    -0.200 F 
ATOM     93  F   UNL A   1      46.887  21.522  35.806  1.00  0.00    -0.200 F 
ENDBRANCH  60  83
ENDBRANCH  34  35
ENDBRANCH  27  29
ENDBRANCH  26  27
ENDBRANCH  25  26
ENDBRANCH   1  25
TORSDOF 16
ENDMDL
MODEL 2
REMARK VINA RESULT:     -12.9      4.293     10.213
REMARK SMILES CCOC(=O)C1=NN(c2ccc(C)cc2[N+](=O)[O-])[C@H](C(=O)OCCOC(=O)c2ccc(-c3c4nc(c(-c5c(F)c(F)c(F)c(F)c5F)c5ccc([nH]5)c(-c5c(F)c(F)c(F)c(F)c5F)c5nc(c(-c6c(F)c(F)c(F)c(F)c6F)c6ccc3[nH]6)C=C5)C=C4)cc2)C1
REMARK SMILES IDX 23 1 22 2 20 3 21 4 19 5 6 6 7 7 91 8 8 9 4 10 5 11 3 12
REMARK SMILES IDX 2 13 1 14 9 15 10 16 15 17 11 18 14 19 12 20 13 21 16 22
REMARK SMILES IDX 17 23 18 24 24 25 25 26 26 27 27 28 28 29 29 30 90 31 30 32
REMARK SMILES IDX 89 33 31 34 32 35 33 36 83 37 34 38 88 39 82 40 84 41 35 42
REMARK SMILES IDX 87 43 81 44 80 45 36 47 68 48 48 49 67 50 49 51 52 52 66 53
REMARK SMILES IDX 85 54 50 55 51 56 65 58 86 59 53 60 37 61 38 62 46 63 39 64
REMARK SMILES IDX 40 65 44 66 47 67 41 68 42 69 45 70 43 71 69 72 70 73 78 74
REMARK SMILES IDX 71 75 72 76 76 77 79 78 73 79 74 80 77 81 75 82 54 83 55 84
REMARK SMILES IDX 63 85 56 86 57 87 61 88 64 89 58 90 59 91 62 92 60 93
REMARK H PARENT 84 46 52 57
REMARK Flexibility Score: inf
ROOT
ATOM      1  C   UNL A   1      35.836  24.090  25.769  1.00  0.00     0.274 C 
ENDROOT
BRANCH   1   2
ATOM      2  O   UNL A   1      34.861  24.114  24.702  1.00  0.00    -0.460 OA
BRANCH   2   3
ATOM      3  C   UNL A   1      34.269  22.982  24.280  1.00  0.00     0.331 C 
ATOM      4  O   UNL A   1      34.317  22.582  23.125  1.00  0.00    -0.250 OA
BRANCH   3   5
ATOM      5  C   UNL A   1      33.590  22.149  25.355  1.00  0.00     0.224 C 
ATOM      6  C   UNL A   1      32.887  19.966  25.216  1.00  0.00     0.148 C 
ATOM      7  N   UNL A   1      31.825  20.640  24.877  1.00  0.00    -0.169 NA
ATOM      8  C   UNL A   1      34.099  20.747  25.621  1.00  0.00     0.105 C 
ATOM      9  N   UNL A   1      32.188  21.937  24.984  1.00  0.00    -0.243 N 
BRANCH   6  10
ATOM     10  C   UNL A   1      32.981  18.466  25.199  1.00  0.00     0.354 C 
ATOM     11  O   UNL A   1      32.321  17.775  25.951  1.00  0.00    -0.245 OA
BRANCH  10  12
ATOM     12  O   UNL A   1      33.768  18.077  24.175  1.00  0.00    -0.461 OA
BRANCH  12  13
ATOM     13  C   UNL A   1      33.128  17.239  23.197  1.00  0.00     0.230 C 
ATOM     14  C   UNL A   1      32.484  18.076  22.108  1.00  0.00     0.049 C 
ENDBRANCH  12  13
ENDBRANCH  10  12
ENDBRANCH   6  10
BRANCH   9  15
ATOM     15  C   UNL A   1      31.360  23.029  24.716  1.00  0.00     0.138 A 
ATOM     16  C   UNL A   1      31.244  23.481  23.388  1.00  0.00     0.035 A 
ATOM     17  C   UNL A   1      30.878  23.885  25.712  1.00  0.00     0.294 A 
ATOM     18  C   UNL A   1      30.862  24.796  23.094  1.00  0.00     0.006 A 
ATOM     19  C   UNL A   1      30.427  25.187  25.427  1.00  0.00     0.091 A 
ATOM     20  C   UNL A   1      30.492  25.672  24.117  1.00  0.00    -0.044 A 
ATOM     21  C   UNL A   1      30.162  27.103  23.807  1.00  0.00     0.044 C 
BRANCH  17  22
ATOM     22  N   UNL A   1      30.887  23.468  27.103  1.00  0.00     0.065 N 
ATOM     23  O   UNL A   1      29.845  22.957  27.538  1.00  0.00    -0.258 OA
ATOM     24  O   UNL A   1      31.897  23.714  27.780  1.00  0.00    -0.258 OA
ENDBRANCH  17  22
ENDBRANCH   9  15
ENDBRANCH   3   5
ENDBRANCH   2   3
ENDBRANCH   1   2
BRANCH   1  25
ATOM     25  C   UNL A   1      37.370  23.871  25.586  1.00  0.00     0.275 C 
BRANCH  25  26
ATOM     26  O   UNL A   1      38.364  23.385  26.560  1.00  0.00    -0.458 OA
BRANCH  26  27
ATOM     27  C   UNL A   1      39.657  23.696  26.841  1.00  0.00     0.338 C 
ATOM     28  O   UNL A   1      40.594  22.941  26.710  1.00  0.00    -0.246 OA
BRANCH  27  29
ATOM     29  C   UNL A   1      39.831  25.032  27.401  1.00  0.00     0.060 A 
ATOM     30  C   UNL A   1      40.238  26.111  26.596  1.00  0.00     0.016 A 
ATOM     31  C   UNL A   1      39.388  25.188  28.702  1.00  0.00     0.016 A 
ATOM     32  C   UNL A   1      40.036  27.406  27.060  1.00  0.00     0.010 A 
ATOM     33  C   UNL A   1      39.093  26.455  29.115  1.00  0.00     0.010 A 
ATOM     34  C   UNL A   1      39.425  27.559  28.305  1.00  0.00    -0.014 A 
BRANCH  34  35
ATOM     35  C   UNL A   1      39.385  28.812  29.034  1.00  0.00     0.031 A 
ATOM     36  C   UNL A   1      38.362  29.847  28.834  1.00  0.00     0.074 A 
ATOM     37  C   UNL A   1      40.368  28.859  29.959  1.00  0.00     0.049 A 
ATOM     38  N   UNL A   1      38.624  31.107  28.891  1.00  0.00    -0.248 NA
ATOM     39  C   UNL A   1      36.958  29.573  28.513  1.00  0.00     0.031 C 
ATOM     40  C   UNL A   1      40.582  29.742  31.082  1.00  0.00     0.029 A 
ATOM     41  N   UNL A   1      41.507  28.034  29.945  1.00  0.00    -0.354 N 
ATOM     42  C   UNL A   1      37.416  31.763  28.974  1.00  0.00     0.074 A 
ATOM     43  C   UNL A   1      36.420  30.803  28.557  1.00  0.00     0.031 C 
ATOM     44  C   UNL A   1      41.869  29.624  31.468  1.00  0.00     0.029 A 
ATOM     45  C   UNL A   1      42.548  28.768  30.497  1.00  0.00     0.049 A 
ATOM     46  H   UNL A   1      41.559  27.111  29.608  1.00  0.00     0.167 HD
ATOM     47  C   UNL A   1      37.343  32.954  29.635  1.00  0.00     0.037 A 
ATOM     48  C   UNL A   1      43.585  29.126  29.687  1.00  0.00     0.037 A 
ATOM     49  C   UNL A   1      38.624  33.257  30.255  1.00  0.00     0.049 A 
ATOM     50  C   UNL A   1      43.667  30.618  29.608  1.00  0.00     0.074 A 
ATOM     51  C   UNL A   1      39.089  32.933  31.519  1.00  0.00     0.029 A 
ATOM     52  N   UNL A   1      39.738  33.574  29.487  1.00  0.00    -0.354 N 
ATOM     53  N   UNL A   1      42.628  31.399  29.502  1.00  0.00    -0.248 NA
ATOM     54  C   UNL A   1      44.929  31.325  29.746  1.00  0.00     0.031 C 
ATOM     55  C   UNL A   1      40.493  33.044  31.514  1.00  0.00     0.029 A 
ATOM     56  C   UNL A   1      40.886  33.425  30.243  1.00  0.00     0.049 A 
ATOM     57  H   UNL A   1      39.714  33.862  28.546  1.00  0.00     0.167 HD
ATOM     58  C   UNL A   1      43.057  32.694  29.644  1.00  0.00     0.074 A 
ATOM     59  C   UNL A   1      44.502  32.597  29.764  1.00  0.00     0.031 C 
ATOM     60  C   UNL A   1      42.201  33.751  29.731  1.00  0.00     0.037 A 
BRANCH  47  61
ATOM     61  C   UNL A   1      36.052  33.611  30.054  1.00  0.00     0.064 A 
ATOM     62  C   UNL A   1      35.184  34.198  29.105  1.00  0.00     0.173 A 
ATOM     63  C   UNL A   1      35.614  33.672  31.388  1.00  0.00     0.173 A 
ATOM     64  F   UNL A   1      35.458  34.186  27.795  1.00  0.00    -0.203 F 
ATOM     65  C   UNL A   1      34.000  34.841  29.462  1.00  0.00     0.198 A 
ATOM     66  C   UNL A   1      34.429  34.330  31.748  1.00  0.00     0.198 A 
ATOM     67  F   UNL A   1      36.322  33.085  32.366  1.00  0.00    -0.203 F 
ATOM     68  F   UNL A   1      33.232  35.394  28.512  1.00  0.00    -0.200 F 
ATOM     69  C   UNL A   1      33.627  34.920  30.786  1.00  0.00     0.200 A 
ATOM     70  F   UNL A   1      34.066  34.395  33.038  1.00  0.00    -0.200 F 
ATOM     71  F   UNL A   1      32.498  35.555  31.131  1.00  0.00    -0.200 F 
ENDBRANCH  47  61
BRANCH  48  72
ATOM     72  C   UNL A   1      43.831  28.208  28.528  1.00  0.00     0.064 A 
ATOM     73  C   UNL A   1      43.244  28.506  27.280  1.00  0.00     0.173 A 
ATOM     74  C   UNL A   1      44.832  27.226  28.535  1.00  0.00     0.173 A 
ATOM     75  F   UNL A   1      42.288  29.446  27.198  1.00  0.00    -0.203 F 
ATOM     76  C   UNL A   1      43.689  27.915  26.095  1.00  0.00     0.198 A 
ATOM     77  C   UNL A   1      45.268  26.627  27.348  1.00  0.00     0.198 A 
ATOM     78  F   UNL A   1      45.452  26.893  29.676  1.00  0.00    -0.203 F 
ATOM     79  F   UNL A   1      43.162  28.291  24.921  1.00  0.00    -0.200 F 
ATOM     80  C   UNL A   1      44.711  26.985  26.129  1.00  0.00     0.200 A 
ATOM     81  F   UNL A   1      46.288  25.755  27.377  1.00  0.00    -0.200 F 
ATOM     82  F   UNL A   1      45.190  26.462  24.991  1.00  0.00    -0.200 F 
ENDBRANCH  48  72
BRANCH  60  83
ATOM     83  C   UNL A   1      42.576  35.201  29.576  1.00  0.00     0.064 A 
ATOM     84  C   UNL A   1      43.369  35.896  30.501  1.00  0.00     0.173 A 
ATOM     85  C   UNL A   1      42.259  35.911  28.391  1.00  0.00     0.173 A 
ATOM     86  F   UNL A   1      43.868  35.294  31.589  1.00  0.00    -0.203 F 
ATOM     87  C   UNL A   1      43.731  37.228  30.307  1.00  0.00     0.198 A 
ATOM     88  C   UNL A   1      42.682  37.218  28.170  1.00  0.00     0.198 A 
ATOM     89  F   UNL A   1      41.561  35.353  27.391  1.00  0.00    -0.203 F 
ATOM     90  F   UNL A   1      44.435  37.864  31.253  1.00  0.00    -0.200 F 
ATOM     91  C   UNL A   1      43.396  37.886  29.140  1.00  0.00     0.200 A 
ATOM     92  F   UNL A   1      42.407  37.814  27.002  1.00  0.00    -0.200 F 
ATOM     93  F   UNL A   1      43.785  39.151  28.939  1.00  0.00    -0.200 F 
ENDBRANCH  60  83
ENDBRANCH  34  35
ENDBRANCH  27  29
ENDBRANCH  26  27
ENDBRANCH  25  26
ENDBRANCH   1  25
TORSDOF 16
ENDMDL
MODEL 3
REMARK VINA RESULT:     -12.7      0.715      2.044
REMARK SMILES CCOC(=O)C1=NN(c2ccc(C)cc2[N+](=O)[O-])[C@H](C(=O)OCCOC(=O)c2ccc(-c3c4nc(c(-c5c(F)c(F)c(F)c(F)c5F)c5ccc([nH]5)c(-c5c(F)c(F)c(F)c(F)c5F)c5nc(c(-c6c(F)c(F)c(F)c(F)c6F)c6ccc3[nH]6)C=C5)C=C4)cc2)C1
REMARK SMILES IDX 23 1 22 2 20 3 21 4 19 5 6 6 7 7 91 8 8 9 4 10 5 11 3 12
REMARK SMILES IDX 2 13 1 14 9 15 10 16 15 17 11 18 14 19 12 20 13 21 16 22
REMARK SMILES IDX 17 23 18 24 24 25 25 26 26 27 27 28 28 29 29 30 90 31 30 32
REMARK SMILES IDX 89 33 31 34 32 35 33 36 83 37 34 38 88 39 82 40 84 41 35 42
REMARK SMILES IDX 87 43 81 44 80 45 36 47 68 48 48 49 67 50 49 51 52 52 66 53
REMARK SMILES IDX 85 54 50 55 51 56 65 58 86 59 53 60 37 61 38 62 46 63 39 64
REMARK SMILES IDX 40 65 44 66 47 67 41 68 42 69 45 70 43 71 69 72 70 73 78 74
REMARK SMILES IDX 71 75 72 76 76 77 79 78 73 79 74 80 77 81 75 82 54 83 55 84
REMARK SMILES IDX 63 85 56 86 57 87 61 88 64 89 58 90 59 91 62 92 60 93
REMARK H PARENT 84 46 52 57
REMARK Flexibility Score: inf
ROOT
ATOM      1  C   UNL A   1      33.339  28.236  27.164  1.00  0.00     0.274 C 
ENDROOT
BRANCH   1   2
ATOM      2  O   UNL A   1      32.978  27.223  26.197  1.00  0.00    -0.460 OA
BRANCH   2   3
ATOM      3  C   UNL A   1      31.818  27.295  25.521  1.00  0.00     0.331 C 
ATOM      4  O   UNL A   1      30.728  27.039  26.015  1.00  0.00    -0.250 OA
BRANCH   3   5
ATOM      5  C   UNL A   1      31.913  27.811  24.094  1.00  0.00     0.224 C 
ATOM      6  C   UNL A   1      30.260  28.787  22.833  1.00  0.00     0.148 C 
ATOM      7  N   UNL A   1      30.168  27.528  22.514  1.00  0.00    -0.169 NA
ATOM      8  C   UNL A   1      31.353  29.183  23.776  1.00  0.00     0.105 C 
ATOM      9  N   UNL A   1      31.155  26.921  23.210  1.00  0.00    -0.243 N 
BRANCH   6  10
ATOM     10  C   UNL A   1      29.326  29.856  22.338  1.00  0.00     0.354 C 
ATOM     11  O   UNL A   1      28.854  29.827  21.218  1.00  0.00    -0.245 OA
BRANCH  10  12
ATOM     12  O   UNL A   1      29.034  30.700  23.349  1.00  0.00    -0.461 OA
BRANCH  12  13
ATOM     13  C   UNL A   1      28.124  31.763  23.014  1.00  0.00     0.230 C 
ATOM     14  C   UNL A   1      28.831  33.105  23.037  1.00  0.00     0.049 C 
ENDBRANCH  12  13
ENDBRANCH  10  12
ENDBRANCH   6  10
BRANCH   9  15
ATOM     15  C   UNL A   1      31.438  25.554  23.180  1.00  0.00     0.138 A 
ATOM     16  C   UNL A   1      30.767  24.703  24.078  1.00  0.00     0.035 A 
ATOM     17  C   UNL A   1      32.555  25.019  22.529  1.00  0.00     0.294 A 
ATOM     18  C   UNL A   1      31.306  23.468  24.456  1.00  0.00     0.006 A 
ATOM     19  C   UNL A   1      33.072  23.751  22.848  1.00  0.00     0.091 A 
ATOM     20  C   UNL A   1      32.488  23.002  23.874  1.00  0.00    -0.044 A 
ATOM     21  C   UNL A   1      33.106  21.716  24.340  1.00  0.00     0.044 C 
BRANCH  17  22
ATOM     22  N   UNL A   1      33.262  25.799  21.529  1.00  0.00     0.065 N 
ATOM     23  O   UNL A   1      34.079  26.633  21.947  1.00  0.00    -0.258 OA
ATOM     24  O   UNL A   1      32.957  25.637  20.338  1.00  0.00    -0.258 OA
ENDBRANCH  17  22
ENDBRANCH   9  15
ENDBRANCH   3   5
ENDBRANCH   2   3
ENDBRANCH   1   2
BRANCH   1  25
ATOM     25  C   UNL A   1      33.858  29.667  26.820  1.00  0.00     0.275 C 
BRANCH  25  26
ATOM     26  O   UNL A   1      35.077  30.351  27.285  1.00  0.00    -0.458 OA
BRANCH  26  27
ATOM     27  C   UNL A   1      35.838  30.288  28.411  1.00  0.00     0.338 C 
ATOM     28  O   UNL A   1      35.568  30.827  29.459  1.00  0.00    -0.246 OA
BRANCH  27  29
ATOM     29  C   UNL A   1      37.087  29.554  28.234  1.00  0.00     0.060 A 
ATOM     30  C   UNL A   1      37.980  29.877  27.195  1.00  0.00     0.016 A 
ATOM     31  C   UNL A   1      37.405  28.676  29.255  1.00  0.00     0.016 A 
ATOM     32  C   UNL A   1      39.293  29.429  27.277  1.00  0.00     0.010 A 
ATOM     33  C   UNL A   1      38.717  28.323  29.390  1.00  0.00     0.010 A 
ATOM     34  C   UNL A   1      39.654  28.686  28.403  1.00  0.00    -0.014 A 
BRANCH  34  35
ATOM     35  C   UNL A   1      40.890  27.936  28.510  1.00  0.00     0.031 A 
ATOM     36  C   UNL A   1      41.057  26.557  28.035  1.00  0.00     0.074 A 
ATOM     37  C   UNL A   1      41.870  28.702  29.036  1.00  0.00     0.049 A 
ATOM     38  N   UNL A   1      41.779  25.688  28.656  1.00  0.00    -0.248 NA
ATOM     39  C   UNL A   1      40.404  26.005  26.844  1.00  0.00     0.031 C 
ATOM     40  C   UNL A   1      43.301  28.514  29.095  1.00  0.00     0.029 A 
ATOM     41  N   UNL A   1      41.647  29.887  29.760  1.00  0.00    -0.354 N 
ATOM     42  C   UNL A   1      41.966  24.633  27.790  1.00  0.00     0.074 A 
ATOM     43  C   UNL A   1      40.960  24.785  26.764  1.00  0.00     0.031 C 
ATOM     44  C   UNL A   1      43.795  29.350  30.031  1.00  0.00     0.029 A 
ATOM     45  C   UNL A   1      42.662  29.987  30.700  1.00  0.00     0.049 A 
ATOM     46  H   UNL A   1      40.909  30.525  29.627  1.00  0.00     0.167 HD
ATOM     47  C   UNL A   1      43.108  23.892  27.873  1.00  0.00     0.037 A 
ATOM     48  C   UNL A   1      42.333  29.877  32.019  1.00  0.00     0.037 A 
ATOM     49  C   UNL A   1      44.009  24.475  28.855  1.00  0.00     0.049 A 
ATOM     50  C   UNL A   1      43.024  28.688  32.609  1.00  0.00     0.074 A 
ATOM     51  C   UNL A   1      45.002  25.425  28.684  1.00  0.00     0.029 A 
ATOM     52  N   UNL A   1      43.708  24.448  30.212  1.00  0.00    -0.354 N 
ATOM     53  N   UNL A   1      43.142  27.540  32.002  1.00  0.00    -0.248 NA
ATOM     54  C   UNL A   1      43.713  28.757  33.887  1.00  0.00     0.031 C 
ATOM     55  C   UNL A   1      45.298  25.985  29.942  1.00  0.00     0.029 A 
ATOM     56  C   UNL A   1      44.477  25.384  30.880  1.00  0.00     0.049 A 
ATOM     57  H   UNL A   1      43.048  23.853  30.634  1.00  0.00     0.167 HD
ATOM     58  C   UNL A   1      43.982  26.753  32.748  1.00  0.00     0.074 A 
ATOM     59  C   UNL A   1      44.288  27.545  33.926  1.00  0.00     0.031 C 
ATOM     60  C   UNL A   1      44.434  25.539  32.319  1.00  0.00     0.037 A 
BRANCH  47  61
ATOM     61  C   UNL A   1      43.566  22.923  26.812  1.00  0.00     0.064 A 
ATOM     62  C   UNL A   1      44.444  23.325  25.779  1.00  0.00     0.173 A 
ATOM     63  C   UNL A   1      43.179  21.572  26.780  1.00  0.00     0.173 A 
ATOM     64  F   UNL A   1      44.918  24.573  25.702  1.00  0.00    -0.203 F 
ATOM     65  C   UNL A   1      44.860  22.463  24.765  1.00  0.00     0.198 A 
ATOM     66  C   UNL A   1      43.589  20.709  25.754  1.00  0.00     0.198 A 
ATOM     67  F   UNL A   1      42.406  21.062  27.752  1.00  0.00    -0.203 F 
ATOM     68  F   UNL A   1      45.678  22.915  23.804  1.00  0.00    -0.200 F 
ATOM     69  C   UNL A   1      44.423  21.157  24.743  1.00  0.00     0.200 A 
ATOM     70  F   UNL A   1      43.168  19.435  25.744  1.00  0.00    -0.200 F 
ATOM     71  F   UNL A   1      44.809  20.334  23.759  1.00  0.00    -0.200 F 
ENDBRANCH  47  61
BRANCH  48  72
ATOM     72  C   UNL A   1      40.935  30.292  32.362  1.00  0.00     0.064 A 
ATOM     73  C   UNL A   1      39.930  29.306  32.460  1.00  0.00     0.173 A 
ATOM     74  C   UNL A   1      40.621  31.563  32.863  1.00  0.00     0.173 A 
ATOM     75  F   UNL A   1      40.168  28.062  32.011  1.00  0.00    -0.203 F 
ATOM     76  C   UNL A   1      38.712  29.554  33.096  1.00  0.00     0.198 A 
ATOM     77  C   UNL A   1      39.394  31.813  33.490  1.00  0.00     0.198 A 
ATOM     78  F   UNL A   1      41.522  32.554  32.823  1.00  0.00    -0.203 F 
ATOM     79  F   UNL A   1      37.821  28.563  33.244  1.00  0.00    -0.200 F 
ATOM     80  C   UNL A   1      38.451  30.805  33.623  1.00  0.00     0.200 A 
ATOM     81  F   UNL A   1      39.157  33.015  34.037  1.00  0.00    -0.200 F 
ATOM     82  F   UNL A   1      37.312  31.033  34.294  1.00  0.00    -0.200 F 
ENDBRANCH  48  72
BRANCH  60  83
ATOM     83  C   UNL A   1      45.089  24.492  33.179  1.00  0.00     0.064 A 
ATOM     84  C   UNL A   1      44.480  23.272  33.507  1.00  0.00     0.173 A 
ATOM     85  C   UNL A   1      46.439  24.629  33.589  1.00  0.00     0.173 A 
ATOM     86  F   UNL A   1      43.263  22.950  33.050  1.00  0.00    -0.203 F 
ATOM     87  C   UNL A   1      45.130  22.306  34.274  1.00  0.00     0.198 A 
ATOM     88  C   UNL A   1      47.107  23.633  34.294  1.00  0.00     0.198 A 
ATOM     89  F   UNL A   1      47.167  25.715  33.291  1.00  0.00    -0.203 F 
ATOM     90  F   UNL A   1      44.479  21.186  34.615  1.00  0.00    -0.200 F 
ATOM     91  C   UNL A   1      46.445  22.482  34.659  1.00  0.00     0.200 A 
ATOM     92  F   UNL A   1      48.403  23.792  34.597  1.00  0.00    -0.200 F 
ATOM     93  F   UNL A   1      47.080  21.532  35.357  1.00  0.00    -0.200 F 
ENDBRANCH  60  83
ENDBRANCH  34  35
ENDBRANCH  27  29
ENDBRANCH  26  27
ENDBRANCH  25  26
ENDBRANCH   1  25
TORSDOF 16
ENDMDL
