MODEL 1
REMARK VINA RESULT:     -12.1      0.000      0.000
REMARK SMILES Cc1cc(C(=O)N2C[C@@H](C(=O)OCCOC(=O)c3ccc(-c4c5nc(c(-c6c(F)c(F)c(F)c(F)c6F)c6ccc([nH]6)c(-c6c(F)c(F)c(F)c(F)c6F)c6nc(c(-c7c(F)c(F)c(F)c(F)c7F)c7ccc4[nH]7)C=C6)C=C5)cc3)[C@H](C(C)C)C2)cs1
REMARK SMILES IDX 13 1 12 2 10 3 11 4 9 5 7 6 8 7 85 8 81 9 5 10 6 11 4 12
REMARK SMILES IDX 1 13 2 14 3 15 87 16 86 17 82 18 83 19 84 20 14 21 15 22
REMARK SMILES IDX 16 23 17 24 18 25 19 26 80 27 20 28 79 29 21 30 22 31 23 32
REMARK SMILES IDX 73 33 24 34 78 35 72 36 74 37 25 38 77 39 71 40 70 41 26 43
REMARK SMILES IDX 58 44 38 45 57 46 39 47 42 48 56 49 75 50 40 51 41 52 55 54
REMARK SMILES IDX 76 55 43 56 27 57 28 58 36 59 29 60 30 61 34 62 37 63 31 64
REMARK SMILES IDX 32 65 35 66 33 67 59 68 60 69 68 70 61 71 62 72 66 73 69 74
REMARK SMILES IDX 63 75 64 76 67 77 65 78 44 79 45 80 53 81 46 82 47 83 51 84
REMARK SMILES IDX 54 85 48 86 49 87 52 88 50 89
REMARK H PARENT 74 42 42 53
REMARK Flexibility Score: inf
ROOT
ATOM      1  C   UNL A   1      31.828  29.407  24.556  1.00  0.00     0.274 C 
ENDROOT
BRANCH   1   2
ATOM      2  O   UNL A   1      30.617  28.691  24.211  1.00  0.00    -0.462 OA
BRANCH   2   3
ATOM      3  C   UNL A   1      30.691  27.836  23.159  1.00  0.00     0.311 C 
ATOM      4  O   UNL A   1      30.268  28.084  22.036  1.00  0.00    -0.252 OA
BRANCH   3   5
ATOM      5  C   UNL A   1      31.372  26.521  23.489  1.00  0.00     0.124 C 
ATOM      6  N   UNL A   1      31.969  24.405  22.773  1.00  0.00    -0.337 N 
ATOM      7  C   UNL A   1      31.940  25.771  22.294  1.00  0.00     0.135 C 
ATOM      8  C   UNL A   1      30.759  24.136  23.509  1.00  0.00     0.124 C 
ATOM      9  C   UNL A   1      30.447  25.486  24.199  1.00  0.00     0.027 C 
BRANCH   6  10
ATOM     10  C   UNL A   1      32.954  23.445  22.679  1.00  0.00     0.254 C 
ATOM     11  O   UNL A   1      33.608  23.308  21.648  1.00  0.00    -0.269 OA
BRANCH  10  12
ATOM     12  C   UNL A   1      33.107  22.504  23.794  1.00  0.00     0.050 A 
ATOM     13  C   UNL A   1      32.847  19.067  25.396  1.00  0.00     0.056 C 
ATOM     14  C   UNL A   1      33.084  20.487  25.010  1.00  0.00     0.002 A 
ATOM     15  C   UNL A   1      32.683  21.132  23.860  1.00  0.00     0.029 A 
ATOM     16  S   UNL A   1      33.992  21.520  26.020  1.00  0.00    -0.148 S 
ATOM     17  C   UNL A   1      33.862  22.815  24.912  1.00  0.00     0.079 A 
ENDBRANCH  10  12
ENDBRANCH   6  10
BRANCH   9  18
ATOM     18  C   UNL A   1      30.666  25.388  25.740  1.00  0.00    -0.012 C 
ATOM     19  C   UNL A   1      30.574  23.961  26.293  1.00  0.00     0.008 C 
ATOM     20  C   UNL A   1      32.007  26.026  26.138  1.00  0.00     0.008 C 
ENDBRANCH   9  18
ENDBRANCH   3   5
ENDBRANCH   2   3
ENDBRANCH   1   2
BRANCH   1  21
ATOM     21  C   UNL A   1      31.556  30.427  25.662  1.00  0.00     0.275 C 
BRANCH  21  22
ATOM     22  O   UNL A   1      32.570  30.277  26.668  1.00  0.00    -0.458 OA
BRANCH  22  23
ATOM     23  C   UNL A   1      33.125  31.416  27.142  1.00  0.00     0.338 C 
ATOM     24  O   UNL A   1      32.612  32.515  27.221  1.00  0.00    -0.246 OA
BRANCH  23  25
ATOM     25  C   UNL A   1      34.479  31.100  27.646  1.00  0.00     0.060 A 
ATOM     26  C   UNL A   1      34.789  29.774  27.929  1.00  0.00     0.016 A 
ATOM     27  C   UNL A   1      35.398  32.102  27.957  1.00  0.00     0.016 A 
ATOM     28  C   UNL A   1      35.957  29.458  28.612  1.00  0.00     0.010 A 
ATOM     29  C   UNL A   1      36.620  31.764  28.564  1.00  0.00     0.010 A 
ATOM     30  C   UNL A   1      36.891  30.439  28.949  1.00  0.00    -0.014 A 
BRANCH  30  31
ATOM     31  C   UNL A   1      38.049  30.055  29.812  1.00  0.00     0.031 A 
ATOM     32  C   UNL A   1      39.171  29.230  29.237  1.00  0.00     0.074 A 
ATOM     33  C   UNL A   1      38.193  30.554  31.058  1.00  0.00     0.049 A 
ATOM     34  N   UNL A   1      40.226  28.728  29.832  1.00  0.00    -0.248 NA
ATOM     35  C   UNL A   1      39.103  28.938  27.797  1.00  0.00     0.031 C 
ATOM     36  C   UNL A   1      37.259  31.464  31.722  1.00  0.00     0.029 A 
ATOM     37  N   UNL A   1      39.209  30.404  31.973  1.00  0.00    -0.354 N 
ATOM     38  C   UNL A   1      40.911  28.018  28.855  1.00  0.00     0.074 A 
ATOM     39  C   UNL A   1      40.156  28.152  27.628  1.00  0.00     0.031 C 
ATOM     40  C   UNL A   1      37.773  31.841  32.902  1.00  0.00     0.029 A 
ATOM     41  C   UNL A   1      39.024  31.123  33.129  1.00  0.00     0.049 A 
ATOM     42  H   UNL A   1      39.995  29.833  31.815  1.00  0.00     0.167 HD
ATOM     43  C   UNL A   1      42.063  27.314  28.966  1.00  0.00     0.037 A 
ATOM     44  C   UNL A   1      39.753  31.176  34.262  1.00  0.00     0.037 A 
ATOM     45  C   UNL A   1      42.852  27.213  30.166  1.00  0.00     0.049 A 
ATOM     46  C   UNL A   1      40.994  30.336  34.388  1.00  0.00     0.074 A 
ATOM     47  C   UNL A   1      44.005  26.478  30.383  1.00  0.00     0.029 A 
ATOM     48  N   UNL A   1      42.582  27.891  31.345  1.00  0.00    -0.354 N 
ATOM     49  N   UNL A   1      41.569  29.568  33.494  1.00  0.00    -0.248 NA
ATOM     50  C   UNL A   1      41.676  30.351  35.690  1.00  0.00     0.031 C 
ATOM     51  C   UNL A   1      44.413  26.683  31.706  1.00  0.00     0.029 A 
ATOM     52  C   UNL A   1      43.541  27.583  32.298  1.00  0.00     0.049 A 
ATOM     53  H   UNL A   1      41.821  28.500  31.484  1.00  0.00     0.167 HD
ATOM     54  C   UNL A   1      42.675  29.013  34.123  1.00  0.00     0.074 A 
ATOM     55  C   UNL A   1      42.711  29.554  35.465  1.00  0.00     0.031 C 
ATOM     56  C   UNL A   1      43.574  28.125  33.631  1.00  0.00     0.037 A 
BRANCH  43  57
ATOM     57  C   UNL A   1      42.501  26.537  27.759  1.00  0.00     0.064 A 
ATOM     58  C   UNL A   1      42.050  25.233  27.505  1.00  0.00     0.173 A 
ATOM     59  C   UNL A   1      43.401  27.112  26.848  1.00  0.00     0.173 A 
ATOM     60  F   UNL A   1      41.208  24.634  28.359  1.00  0.00    -0.203 F 
ATOM     61  C   UNL A   1      42.513  24.521  26.402  1.00  0.00     0.198 A 
ATOM     62  C   UNL A   1      43.838  26.406  25.732  1.00  0.00     0.198 A 
ATOM     63  F   UNL A   1      43.859  28.358  27.045  1.00  0.00    -0.203 F 
ATOM     64  F   UNL A   1      42.117  23.254  26.212  1.00  0.00    -0.200 F 
ATOM     65  C   UNL A   1      43.403  25.108  25.515  1.00  0.00     0.200 A 
ATOM     66  F   UNL A   1      44.692  26.980  24.871  1.00  0.00    -0.200 F 
ATOM     67  F   UNL A   1      43.852  24.419  24.457  1.00  0.00    -0.200 F 
ENDBRANCH  43  57
BRANCH  44  68
ATOM     68  C   UNL A   1      39.292  32.018  35.399  1.00  0.00     0.064 A 
ATOM     69  C   UNL A   1      38.466  31.496  36.404  1.00  0.00     0.173 A 
ATOM     70  C   UNL A   1      39.663  33.368  35.495  1.00  0.00     0.173 A 
ATOM     71  F   UNL A   1      38.057  30.220  36.340  1.00  0.00    -0.203 F 
ATOM     72  C   UNL A   1      38.023  32.294  37.457  1.00  0.00     0.198 A 
ATOM     73  C   UNL A   1      39.247  34.156  36.566  1.00  0.00     0.198 A 
ATOM     74  F   UNL A   1      40.445  33.919  34.555  1.00  0.00    -0.203 F 
ATOM     75  F   UNL A   1      37.199  31.784  38.382  1.00  0.00    -0.200 F 
ATOM     76  C   UNL A   1      38.422  33.620  37.542  1.00  0.00     0.200 A 
ATOM     77  F   UNL A   1      39.646  35.431  36.649  1.00  0.00    -0.200 F 
ATOM     78  F   UNL A   1      38.004  34.384  38.560  1.00  0.00    -0.200 F 
ENDBRANCH  44  68
BRANCH  56  79
ATOM     79  C   UNL A   1      44.689  27.695  34.539  1.00  0.00     0.064 A 
ATOM     80  C   UNL A   1      45.891  28.414  34.618  1.00  0.00     0.173 A 
ATOM     81  C   UNL A   1      44.538  26.575  35.371  1.00  0.00     0.173 A 
ATOM     82  F   UNL A   1      46.090  29.483  33.831  1.00  0.00    -0.203 F 
ATOM     83  C   UNL A   1      46.910  28.015  35.478  1.00  0.00     0.198 A 
ATOM     84  C   UNL A   1      45.549  26.193  36.249  1.00  0.00     0.198 A 
ATOM     85  F   UNL A   1      43.406  25.856  35.339  1.00  0.00    -0.203 F 
ATOM     86  F   UNL A   1      48.066  28.691  35.505  1.00  0.00    -0.200 F 
ATOM     87  C   UNL A   1      46.735  26.909  36.298  1.00  0.00     0.200 A 
ATOM     88  F   UNL A   1      45.375  25.132  37.048  1.00  0.00    -0.200 F 
ATOM     89  F   UNL A   1      47.715  26.530  37.130  1.00  0.00    -0.200 F 
ENDBRANCH  56  79
ENDBRANCH  30  31
ENDBRANCH  23  25
ENDBRANCH  22  23
ENDBRANCH  21  22
ENDBRANCH   1  21
TORSDOF 14
ENDMDL
MODEL 2
REMARK VINA RESULT:     -12.0      0.251      1.630
REMARK SMILES Cc1cc(C(=O)N2C[C@@H](C(=O)OCCOC(=O)c3ccc(-c4c5nc(c(-c6c(F)c(F)c(F)c(F)c6F)c6ccc([nH]6)c(-c6c(F)c(F)c(F)c(F)c6F)c6nc(c(-c7c(F)c(F)c(F)c(F)c7F)c7ccc4[nH]7)C=C6)C=C5)cc3)[C@H](C(C)C)C2)cs1
REMARK SMILES IDX 13 1 12 2 10 3 11 4 9 5 7 6 8 7 85 8 81 9 5 10 6 11 4 12
REMARK SMILES IDX 1 13 2 14 3 15 87 16 86 17 82 18 83 19 84 20 14 21 15 22
REMARK SMILES IDX 16 23 17 24 18 25 19 26 80 27 20 28 79 29 21 30 22 31 23 32
REMARK SMILES IDX 73 33 24 34 78 35 72 36 74 37 25 38 77 39 71 40 70 41 26 43
REMARK SMILES IDX 58 44 38 45 57 46 39 47 42 48 56 49 75 50 40 51 41 52 55 54
REMARK SMILES IDX 76 55 43 56 27 57 28 58 36 59 29 60 30 61 34 62 37 63 31 64
REMARK SMILES IDX 32 65 35 66 33 67 59 68 60 69 68 70 61 71 62 72 66 73 69 74
REMARK SMILES IDX 63 75 64 76 67 77 65 78 44 79 45 80 53 81 46 82 47 83 51 84
REMARK SMILES IDX 54 85 48 86 49 87 52 88 50 89
REMARK H PARENT 74 42 42 53
REMARK Flexibility Score: inf
ROOT
ATOM      1  C   UNL A   1      31.826  29.513  24.549  1.00  0.00     0.274 C 
ENDROOT
BRANCH   1   2
ATOM      2  O   UNL A   1      30.601  28.803  24.239  1.00  0.00    -0.462 OA
BRANCH   2   3
ATOM      3  C   UNL A   1      30.639  27.953  23.181  1.00  0.00     0.311 C 
ATOM      4  O   UNL A   1      30.175  28.204  22.075  1.00  0.00    -0.252 OA
BRANCH   3   5
ATOM      5  C   UNL A   1      31.334  26.638  23.482  1.00  0.00     0.124 C 
ATOM      6  N   UNL A   1      31.950  24.545  22.718  1.00  0.00    -0.337 N 
ATOM      7  C   UNL A   1      31.907  25.920  22.269  1.00  0.00     0.135 C 
ATOM      8  C   UNL A   1      30.745  24.247  23.450  1.00  0.00     0.124 C 
ATOM      9  C   UNL A   1      30.420  25.578  24.169  1.00  0.00     0.027 C 
BRANCH   6  10
ATOM     10  C   UNL A   1      32.944  23.596  22.602  1.00  0.00     0.254 C 
ATOM     11  O   UNL A   1      33.651  23.540  21.597  1.00  0.00    -0.269 OA
BRANCH  10  12
ATOM     12  C   UNL A   1      33.047  22.574  23.648  1.00  0.00     0.050 A 
ATOM     13  C   UNL A   1      32.628  19.046  25.000  1.00  0.00     0.056 C 
ATOM     14  C   UNL A   1      32.927  20.478  24.718  1.00  0.00     0.002 A 
ATOM     15  C   UNL A   1      32.565  21.220  23.613  1.00  0.00     0.029 A 
ATOM     16  S   UNL A   1      33.867  21.398  25.804  1.00  0.00    -0.148 S 
ATOM     17  C   UNL A   1      33.803  22.772  24.790  1.00  0.00     0.079 A 
ENDBRANCH  10  12
ENDBRANCH   6  10
BRANCH   9  18
ATOM     18  C   UNL A   1      30.643  25.448  25.708  1.00  0.00    -0.012 C 
ATOM     19  C   UNL A   1      30.602  24.006  26.224  1.00  0.00     0.008 C 
ATOM     20  C   UNL A   1      31.960  26.125  26.124  1.00  0.00     0.008 C 
ENDBRANCH   9  18
ENDBRANCH   3   5
ENDBRANCH   2   3
ENDBRANCH   1   2
BRANCH   1  21
ATOM     21  C   UNL A   1      31.629  30.425  25.761  1.00  0.00     0.275 C 
BRANCH  21  22
ATOM     22  O   UNL A   1      32.746  30.243  26.644  1.00  0.00    -0.458 OA
BRANCH  22  23
ATOM     23  C   UNL A   1      33.295  31.364  27.165  1.00  0.00     0.338 C 
ATOM     24  O   UNL A   1      32.785  32.463  27.264  1.00  0.00    -0.246 OA
BRANCH  23  25
ATOM     25  C   UNL A   1      34.634  31.025  27.692  1.00  0.00     0.060 A 
ATOM     26  C   UNL A   1      34.917  29.695  27.982  1.00  0.00     0.016 A 
ATOM     27  C   UNL A   1      35.565  32.012  28.017  1.00  0.00     0.016 A 
ATOM     28  C   UNL A   1      36.067  29.360  28.685  1.00  0.00     0.010 A 
ATOM     29  C   UNL A   1      36.771  31.654  28.645  1.00  0.00     0.010 A 
ATOM     30  C   UNL A   1      37.012  30.326  29.037  1.00  0.00    -0.014 A 
BRANCH  30  31
ATOM     31  C   UNL A   1      38.149  29.923  29.920  1.00  0.00     0.031 A 
ATOM     32  C   UNL A   1      39.272  29.088  29.361  1.00  0.00     0.074 A 
ATOM     33  C   UNL A   1      38.274  30.413  31.171  1.00  0.00     0.049 A 
ATOM     34  N   UNL A   1      40.310  28.570  29.974  1.00  0.00    -0.248 NA
ATOM     35  C   UNL A   1      39.228  28.804  27.919  1.00  0.00     0.031 C 
ATOM     36  C   UNL A   1      37.339  31.331  31.822  1.00  0.00     0.029 A 
ATOM     37  N   UNL A   1      39.271  30.246  32.105  1.00  0.00    -0.354 N 
ATOM     38  C   UNL A   1      41.005  27.857  29.006  1.00  0.00     0.074 A 
ATOM     39  C   UNL A   1      40.275  28.007  27.766  1.00  0.00     0.031 C 
ATOM     40  C   UNL A   1      37.834  31.695  33.014  1.00  0.00     0.029 A 
ATOM     41  C   UNL A   1      39.072  30.961  33.261  1.00  0.00     0.049 A 
ATOM     42  H   UNL A   1      40.054  29.667  31.958  1.00  0.00     0.167 HD
ATOM     43  C   UNL A   1      42.147  27.139  29.135  1.00  0.00     0.037 A 
ATOM     44  C   UNL A   1      39.780  30.999  34.408  1.00  0.00     0.037 A 
ATOM     45  C   UNL A   1      42.910  27.023  30.350  1.00  0.00     0.049 A 
ATOM     46  C   UNL A   1      41.009  30.144  34.553  1.00  0.00     0.074 A 
ATOM     47  C   UNL A   1      44.050  26.273  30.585  1.00  0.00     0.029 A 
ATOM     48  N   UNL A   1      42.626  27.697  31.527  1.00  0.00    -0.354 N 
ATOM     49  N   UNL A   1      41.591  29.374  33.666  1.00  0.00    -0.248 NA
ATOM     50  C   UNL A   1      41.665  30.144  35.868  1.00  0.00     0.031 C 
ATOM     51  C   UNL A   1      44.436  26.466  31.917  1.00  0.00     0.029 A 
ATOM     52  C   UNL A   1      43.563  27.372  32.496  1.00  0.00     0.049 A 
ATOM     53  H   UNL A   1      41.870  28.314  31.655  1.00  0.00     0.167 HD
ATOM     54  C   UNL A   1      42.679  28.803  34.313  1.00  0.00     0.074 A 
ATOM     55  C   UNL A   1      42.695  29.336  35.658  1.00  0.00     0.031 C 
ATOM     56  C   UNL A   1      43.576  27.907  33.833  1.00  0.00     0.037 A 
BRANCH  43  57
ATOM     57  C   UNL A   1      42.599  26.363  27.933  1.00  0.00     0.064 A 
ATOM     58  C   UNL A   1      43.533  26.875  27.021  1.00  0.00     0.173 A 
ATOM     59  C   UNL A   1      42.072  25.085  27.688  1.00  0.00     0.173 A 
ATOM     60  F   UNL A   1      44.048  28.101  27.200  1.00  0.00    -0.203 F 
ATOM     61  C   UNL A   1      43.896  26.150  25.889  1.00  0.00     0.198 A 
ATOM     62  C   UNL A   1      42.459  24.353  26.571  1.00  0.00     0.198 A 
ATOM     63  F   UNL A   1      41.177  24.550  28.533  1.00  0.00    -0.203 F 
ATOM     64  F   UNL A   1      44.744  26.684  24.999  1.00  0.00    -0.200 F 
ATOM     65  C   UNL A   1      43.362  24.889  25.667  1.00  0.00     0.200 A 
ATOM     66  F   UNL A   1      41.947  23.131  26.363  1.00  0.00    -0.200 F 
ATOM     67  F   UNL A   1      43.708  24.196  24.573  1.00  0.00    -0.200 F 
ENDBRANCH  43  57
BRANCH  44  68
ATOM     68  C   UNL A   1      39.307  31.840  35.541  1.00  0.00     0.064 A 
ATOM     69  C   UNL A   1      38.389  31.349  36.479  1.00  0.00     0.173 A 
ATOM     70  C   UNL A   1      39.759  33.160  35.699  1.00  0.00     0.173 A 
ATOM     71  F   UNL A   1      37.902  30.106  36.353  1.00  0.00    -0.203 F 
ATOM     72  C   UNL A   1      37.936  32.148  37.528  1.00  0.00     0.198 A 
ATOM     73  C   UNL A   1      39.332  33.945  36.766  1.00  0.00     0.198 A 
ATOM     74  F   UNL A   1      40.631  33.681  34.824  1.00  0.00    -0.203 F 
ATOM     75  F   UNL A   1      37.025  31.670  38.387  1.00  0.00    -0.200 F 
ATOM     76  C   UNL A   1      38.415  33.441  37.676  1.00  0.00     0.200 A 
ATOM     77  F   UNL A   1      39.807  35.188  36.912  1.00  0.00    -0.200 F 
ATOM     78  F   UNL A   1      37.988  34.205  38.690  1.00  0.00    -0.200 F 
ENDBRANCH  44  68
BRANCH  56  79
ATOM     79  C   UNL A   1      44.668  27.458  34.761  1.00  0.00     0.064 A 
ATOM     80  C   UNL A   1      44.528  26.314  35.560  1.00  0.00     0.173 A 
ATOM     81  C   UNL A   1      45.884  28.157  34.819  1.00  0.00     0.173 A 
ATOM     82  F   UNL A   1      43.379  25.621  35.552  1.00  0.00    -0.203 F 
ATOM     83  C   UNL A   1      45.557  25.899  36.402  1.00  0.00     0.198 A 
ATOM     84  C   UNL A   1      46.920  27.724  35.643  1.00  0.00     0.198 A 
ATOM     85  F   UNL A   1      46.070  29.253  34.070  1.00  0.00    -0.203 F 
ATOM     86  F   UNL A   1      45.385  24.828  37.189  1.00  0.00    -0.200 F 
ATOM     87  C   UNL A   1      46.754  26.600  36.437  1.00  0.00     0.200 A 
ATOM     88  F   UNL A   1      48.079  28.395  35.667  1.00  0.00    -0.200 F 
ATOM     89  F   UNL A   1      47.744  26.195  37.244  1.00  0.00    -0.200 F 
ENDBRANCH  56  79
ENDBRANCH  30  31
ENDBRANCH  23  25
ENDBRANCH  22  23
ENDBRANCH  21  22
ENDBRANCH   1  21
TORSDOF 14
ENDMDL
MODEL 3
REMARK VINA RESULT:     -11.9      4.391      9.699
REMARK SMILES Cc1cc(C(=O)N2C[C@@H](C(=O)OCCOC(=O)c3ccc(-c4c5nc(c(-c6c(F)c(F)c(F)c(F)c6F)c6ccc([nH]6)c(-c6c(F)c(F)c(F)c(F)c6F)c6nc(c(-c7c(F)c(F)c(F)c(F)c7F)c7ccc4[nH]7)C=C6)C=C5)cc3)[C@H](C(C)C)C2)cs1
REMARK SMILES IDX 13 1 12 2 10 3 11 4 9 5 7 6 8 7 85 8 81 9 5 10 6 11 4 12
REMARK SMILES IDX 1 13 2 14 3 15 87 16 86 17 82 18 83 19 84 20 14 21 15 22
REMARK SMILES IDX 16 23 17 24 18 25 19 26 80 27 20 28 79 29 21 30 22 31 23 32
REMARK SMILES IDX 73 33 24 34 78 35 72 36 74 37 25 38 77 39 71 40 70 41 26 43
REMARK SMILES IDX 58 44 38 45 57 46 39 47 42 48 56 49 75 50 40 51 41 52 55 54
REMARK SMILES IDX 76 55 43 56 27 57 28 58 36 59 29 60 30 61 34 62 37 63 31 64
REMARK SMILES IDX 32 65 35 66 33 67 59 68 60 69 68 70 61 71 62 72 66 73 69 74
REMARK SMILES IDX 63 75 64 76 67 77 65 78 44 79 45 80 53 81 46 82 47 83 51 84
REMARK SMILES IDX 54 85 48 86 49 87 52 88 50 89
REMARK H PARENT 74 42 42 53
REMARK Flexibility Score: inf
ROOT
ATOM      1  C   UNL A   1      35.818  20.431  25.005  1.00  0.00     0.274 C 
ENDROOT
BRANCH   1   2
ATOM      2  O   UNL A   1      35.227  21.727  24.742  1.00  0.00    -0.462 OA
BRANCH   2   3
ATOM      3  C   UNL A   1      33.902  21.746  24.445  1.00  0.00     0.311 C 
ATOM      4  O   UNL A   1      33.185  20.753  24.421  1.00  0.00    -0.252 OA
BRANCH   3   5
ATOM      5  C   UNL A   1      33.363  23.134  24.153  1.00  0.00     0.124 C 
ATOM      6  N   UNL A   1      33.711  25.183  23.140  1.00  0.00    -0.337 N 
ATOM      7  C   UNL A   1      33.881  23.770  22.872  1.00  0.00     0.135 C 
ATOM      8  C   UNL A   1      34.102  25.457  24.499  1.00  0.00     0.124 C 
ATOM      9  C   UNL A   1      33.672  24.183  25.264  1.00  0.00     0.027 C 
BRANCH   6  10
ATOM     10  C   UNL A   1      33.200  26.189  22.347  1.00  0.00     0.254 C 
ATOM     11  O   UNL A   1      33.850  26.647  21.409  1.00  0.00    -0.269 OA
BRANCH  10  12
ATOM     12  C   UNL A   1      31.920  26.789  22.735  1.00  0.00     0.050 A 
ATOM     13  C   UNL A   1      28.324  26.623  23.955  1.00  0.00     0.056 C 
ATOM     14  C   UNL A   1      29.701  26.971  23.505  1.00  0.00     0.002 A 
ATOM     15  C   UNL A   1      30.692  26.119  23.067  1.00  0.00     0.029 A 
ATOM     16  S   UNL A   1      30.240  28.589  23.538  1.00  0.00    -0.148 S 
ATOM     17  C   UNL A   1      31.796  28.144  22.987  1.00  0.00     0.079 A 
ENDBRANCH  10  12
ENDBRANCH   6  10
BRANCH   9  18
ATOM     18  C   UNL A   1      32.467  24.481  26.210  1.00  0.00    -0.012 C 
ATOM     19  C   UNL A   1      32.172  25.974  26.391  1.00  0.00     0.008 C 
ATOM     20  C   UNL A   1      31.206  23.744  25.729  1.00  0.00     0.008 C 
ENDBRANCH   9  18
ENDBRANCH   3   5
ENDBRANCH   2   3
ENDBRANCH   1   2
BRANCH   1  21
ATOM     21  C   UNL A   1      37.330  20.473  24.785  1.00  0.00     0.275 C 
BRANCH  21  22
ATOM     22  O   UNL A   1      37.883  21.466  25.662  1.00  0.00    -0.458 OA
BRANCH  22  23
ATOM     23  C   UNL A   1      39.133  21.235  26.125  1.00  0.00     0.338 C 
ATOM     24  O   UNL A   1      39.777  20.207  26.045  1.00  0.00    -0.246 OA
BRANCH  23  25
ATOM     25  C   UNL A   1      39.658  22.494  26.697  1.00  0.00     0.060 A 
ATOM     26  C   UNL A   1      39.164  23.700  26.211  1.00  0.00     0.016 A 
ATOM     27  C   UNL A   1      40.710  22.501  27.612  1.00  0.00     0.016 A 
ATOM     28  C   UNL A   1      39.781  24.898  26.550  1.00  0.00     0.010 A 
ATOM     29  C   UNL A   1      41.270  23.724  28.023  1.00  0.00     0.010 A 
ATOM     30  C   UNL A   1      40.846  24.937  27.453  1.00  0.00    -0.014 A 
BRANCH  30  31
ATOM     31  C   UNL A   1      41.560  26.234  27.657  1.00  0.00     0.031 A 
ATOM     32  C   UNL A   1      40.945  27.298  28.530  1.00  0.00     0.074 A 
ATOM     33  C   UNL A   1      42.815  26.425  27.202  1.00  0.00     0.049 A 
ATOM     34  N   UNL A   1      41.361  28.517  28.777  1.00  0.00    -0.248 NA
ATOM     35  C   UNL A   1      39.700  26.941  29.227  1.00  0.00     0.031 C 
ATOM     36  C   UNL A   1      43.601  25.451  26.444  1.00  0.00     0.029 A 
ATOM     37  N   UNL A   1      43.674  27.490  27.354  1.00  0.00    -0.354 N 
ATOM     38  C   UNL A   1      40.403  29.085  29.607  1.00  0.00     0.074 A 
ATOM     39  C   UNL A   1      39.384  28.080  29.824  1.00  0.00     0.031 C 
ATOM     40  C   UNL A   1      44.839  25.933  26.255  1.00  0.00     0.029 A 
ATOM     41  C   UNL A   1      44.909  27.291  26.787  1.00  0.00     0.049 A 
ATOM     42  H   UNL A   1      43.425  28.318  27.824  1.00  0.00     0.167 HD
ATOM     43  C   UNL A   1      40.370  30.330  30.140  1.00  0.00     0.037 A 
ATOM     44  C   UNL A   1      45.970  28.114  26.671  1.00  0.00     0.037 A 
ATOM     45  C   UNL A   1      41.400  31.321  29.974  1.00  0.00     0.049 A 
ATOM     46  C   UNL A   1      45.887  29.515  27.213  1.00  0.00     0.074 A 
ATOM     47  C   UNL A   1      41.424  32.627  30.434  1.00  0.00     0.029 A 
ATOM     48  N   UNL A   1      42.601  31.107  29.318  1.00  0.00    -0.354 N 
ATOM     49  N   UNL A   1      44.922  30.084  27.893  1.00  0.00    -0.248 NA
ATOM     50  C   UNL A   1      47.034  30.397  26.950  1.00  0.00     0.031 C 
ATOM     51  C   UNL A   1      42.627  33.215  30.025  1.00  0.00     0.029 A 
ATOM     52  C   UNL A   1      43.371  32.260  29.351  1.00  0.00     0.049 A 
ATOM     53  H   UNL A   1      42.869  30.261  28.891  1.00  0.00     0.167 HD
ATOM     54  C   UNL A   1      45.344  31.384  28.139  1.00  0.00     0.074 A 
ATOM     55  C   UNL A   1      46.665  31.513  27.562  1.00  0.00     0.031 C 
ATOM     56  C   UNL A   1      44.686  32.383  28.777  1.00  0.00     0.037 A 
BRANCH  43  57
ATOM     57  C   UNL A   1      39.133  30.708  30.901  1.00  0.00     0.064 A 
ATOM     58  C   UNL A   1      39.038  30.562  32.292  1.00  0.00     0.173 A 
ATOM     59  C   UNL A   1      38.019  31.217  30.215  1.00  0.00     0.173 A 
ATOM     60  F   UNL A   1      40.068  30.059  32.989  1.00  0.00    -0.203 F 
ATOM     61  C   UNL A   1      37.859  30.876  32.964  1.00  0.00     0.198 A 
ATOM     62  C   UNL A   1      36.854  31.557  30.893  1.00  0.00     0.198 A 
ATOM     63  F   UNL A   1      38.062  31.379  28.883  1.00  0.00    -0.203 F 
ATOM     64  F   UNL A   1      37.768  30.671  34.285  1.00  0.00    -0.200 F 
ATOM     65  C   UNL A   1      36.770  31.377  32.265  1.00  0.00     0.200 A 
ATOM     66  F   UNL A   1      35.805  32.048  30.216  1.00  0.00    -0.200 F 
ATOM     67  F   UNL A   1      35.635  31.673  32.912  1.00  0.00    -0.200 F 
ENDBRANCH  43  57
BRANCH  44  68
ATOM     68  C   UNL A   1      47.191  27.652  25.956  1.00  0.00     0.064 A 
ATOM     69  C   UNL A   1      47.291  27.729  24.561  1.00  0.00     0.173 A 
ATOM     70  C   UNL A   1      48.279  27.112  26.660  1.00  0.00     0.173 A 
ATOM     71  F   UNL A   1      46.265  28.207  23.841  1.00  0.00    -0.203 F 
ATOM     72  C   UNL A   1      48.429  27.278  23.896  1.00  0.00     0.198 A 
ATOM     73  C   UNL A   1      49.429  26.693  25.997  1.00  0.00     0.198 A 
ATOM     74  F   UNL A   1      48.230  27.007  27.996  1.00  0.00    -0.203 F 
ATOM     75  F   UNL A   1      48.484  27.322  22.557  1.00  0.00    -0.200 F 
ATOM     76  C   UNL A   1      49.501  26.769  24.615  1.00  0.00     0.200 A 
ATOM     77  F   UNL A   1      50.465  26.214  26.697  1.00  0.00    -0.200 F 
ATOM     78  F   UNL A   1      50.599  26.345  23.976  1.00  0.00    -0.200 F 
ENDBRANCH  44  68
BRANCH  56  79
ATOM     79  C   UNL A   1      45.391  33.702  28.908  1.00  0.00     0.064 A 
ATOM     80  C   UNL A   1      45.255  34.706  27.938  1.00  0.00     0.173 A 
ATOM     81  C   UNL A   1      46.178  33.980  30.037  1.00  0.00     0.173 A 
ATOM     82  F   UNL A   1      44.526  34.484  26.834  1.00  0.00    -0.203 F 
ATOM     83  C   UNL A   1      45.900  35.932  28.081  1.00  0.00     0.198 A 
ATOM     84  C   UNL A   1      46.801  35.216  30.189  1.00  0.00     0.198 A 
ATOM     85  F   UNL A   1      46.336  33.055  30.995  1.00  0.00    -0.203 F 
ATOM     86  F   UNL A   1      45.790  36.861  27.123  1.00  0.00    -0.200 F 
ATOM     87  C   UNL A   1      46.666  36.188  29.210  1.00  0.00     0.200 A 
ATOM     88  F   UNL A   1      47.531  35.466  31.284  1.00  0.00    -0.200 F 
ATOM     89  F   UNL A   1      47.281  37.371  29.348  1.00  0.00    -0.200 F 
ENDBRANCH  56  79
ENDBRANCH  30  31
ENDBRANCH  23  25
ENDBRANCH  22  23
ENDBRANCH  21  22
ENDBRANCH   1  21
TORSDOF 14
ENDMDL
