MODEL 1
REMARK VINA RESULT:     -11.0      0.000      0.000
REMARK SMILES C[C@H](CC(=O)NC[C@@]1(C)CCCO1)CC(=O)OCCOC(=O)c1ccc(-c2c3nc(c(-c4c(F)c(F)c(F)c(F)c4F)c4ccc([nH]4)c(-c4c(F)c(F)c(F)c(F)c4F)c4nc(c(-c5c(F)c(F)c(F)c(F)c5F)c5ccc2[nH]5)C=C4)C=C3)cc1
REMARK SMILES IDX 17 1 15 2 16 3 14 4 2 5 1 6 3 7 4 8 5 9 6 10 7 12 8 13 9 14
REMARK SMILES IDX 10 15 13 16 11 17 12 18 18 19 19 20 20 21 21 22 22 23 23 24
REMARK SMILES IDX 24 25 85 26 25 27 84 28 26 29 27 30 28 31 78 32 29 33 83 34
REMARK SMILES IDX 77 35 79 36 30 37 82 38 76 39 75 40 31 42 63 43 43 44 62 45
REMARK SMILES IDX 44 46 47 47 61 48 80 49 45 50 46 51 60 53 81 54 48 55 32 56
REMARK SMILES IDX 33 57 41 58 34 59 35 60 39 61 42 62 36 63 37 64 40 65 38 66
REMARK SMILES IDX 64 67 65 68 73 69 66 70 67 71 71 72 74 73 68 74 69 75 72 76
REMARK SMILES IDX 70 77 49 78 50 79 58 80 51 81 52 82 56 83 59 84 53 85 54 86
REMARK SMILES IDX 57 87 55 88
REMARK H PARENT 6 11 79 41 47 52
REMARK Flexibility Score: inf
ROOT
ATOM      1  O   UNL A   1      36.552  23.444  24.165  1.00  0.00    -0.462 OA
ENDROOT
BRANCH   1   2
ATOM      2  C   UNL A   1      35.257  23.839  24.102  1.00  0.00     0.306 C 
ATOM      3  O   UNL A   1      34.654  24.103  23.068  1.00  0.00    -0.252 OA
BRANCH   2   4
ATOM      4  C   UNL A   1      34.565  23.805  25.448  1.00  0.00     0.126 C 
BRANCH   4   5
ATOM      5  C   UNL A   1      33.043  23.631  25.453  1.00  0.00     0.006 C 
ATOM      6  C   UNL A   1      32.358  24.950  25.828  1.00  0.00     0.009 C 
BRANCH   5   7
ATOM      7  C   UNL A   1      32.576  22.418  26.282  1.00  0.00     0.104 C 
BRANCH   7   8
ATOM      8  C   UNL A   1      33.638  21.429  26.723  1.00  0.00     0.220 C 
ATOM      9  O   UNL A   1      34.102  21.470  27.865  1.00  0.00    -0.275 OA
ATOM     10  N   UNL A   1      34.101  20.469  25.882  1.00  0.00    -0.353 N 
ATOM     11  H   UNL A   1      34.766  19.862  26.282  1.00  0.00     0.163 HD
BRANCH  10  12
ATOM     12  C   UNL A   1      33.784  20.187  24.493  1.00  0.00     0.151 C 
BRANCH  12  13
ATOM     13  C   UNL A   1      33.235  18.756  24.266  1.00  0.00     0.083 C 
ATOM     14  C   UNL A   1      32.285  18.663  23.062  1.00  0.00     0.044 C 
ATOM     15  C   UNL A   1      34.358  17.726  24.159  1.00  0.00     0.039 C 
ATOM     16  O   UNL A   1      32.487  18.351  25.432  1.00  0.00    -0.373 OA
ATOM     17  C   UNL A   1      33.688  16.453  24.619  1.00  0.00     0.031 C 
ATOM     18  C   UNL A   1      32.685  16.943  25.646  1.00  0.00     0.161 C 
ENDBRANCH  12  13
ENDBRANCH  10  12
ENDBRANCH   7   8
ENDBRANCH   5   7
ENDBRANCH   4   5
ENDBRANCH   2   4
ENDBRANCH   1   2
BRANCH   1  19
ATOM     19  C   UNL A   1      36.867  22.188  23.542  1.00  0.00     0.274 C 
BRANCH  19  20
ATOM     20  C   UNL A   1      37.362  21.196  24.595  1.00  0.00     0.275 C 
BRANCH  20  21
ATOM     21  O   UNL A   1      37.776  21.873  25.798  1.00  0.00    -0.458 OA
BRANCH  21  22
ATOM     22  C   UNL A   1      39.042  21.615  26.196  1.00  0.00     0.338 C 
ATOM     23  O   UNL A   1      39.667  20.576  26.085  1.00  0.00    -0.246 OA
BRANCH  22  24
ATOM     24  C   UNL A   1      39.631  22.824  26.782  1.00  0.00     0.060 A 
ATOM     25  C   UNL A   1      39.202  24.081  26.349  1.00  0.00     0.016 A 
ATOM     26  C   UNL A   1      40.712  22.699  27.652  1.00  0.00     0.016 A 
ATOM     27  C   UNL A   1      39.897  25.223  26.734  1.00  0.00     0.010 A 
ATOM     28  C   UNL A   1      41.370  23.849  28.085  1.00  0.00     0.010 A 
ATOM     29  C   UNL A   1      40.985  25.116  27.608  1.00  0.00    -0.014 A 
BRANCH  29  30
ATOM     30  C   UNL A   1      41.762  26.309  28.014  1.00  0.00     0.031 A 
ATOM     31  C   UNL A   1      41.096  27.378  28.828  1.00  0.00     0.074 A 
ATOM     32  C   UNL A   1      43.036  26.457  27.610  1.00  0.00     0.049 A 
ATOM     33  N   UNL A   1      41.471  28.611  29.046  1.00  0.00    -0.248 NA
ATOM     34  C   UNL A   1      39.824  27.010  29.474  1.00  0.00     0.031 C 
ATOM     35  C   UNL A   1      43.814  25.459  26.876  1.00  0.00     0.029 A 
ATOM     36  N   UNL A   1      43.893  27.521  27.739  1.00  0.00    -0.354 N 
ATOM     37  C   UNL A   1      40.459  29.183  29.805  1.00  0.00     0.074 A 
ATOM     38  C   UNL A   1      39.458  28.160  30.021  1.00  0.00     0.031 C 
ATOM     39  C   UNL A   1      45.028  25.962  26.606  1.00  0.00     0.029 A 
ATOM     40  C   UNL A   1      45.083  27.341  27.079  1.00  0.00     0.049 A 
ATOM     41  H   UNL A   1      43.675  28.333  28.251  1.00  0.00     0.167 HD
ATOM     42  C   UNL A   1      40.375  30.454  30.263  1.00  0.00     0.037 A 
ATOM     43  C   UNL A   1      46.081  28.211  26.833  1.00  0.00     0.037 A 
ATOM     44  C   UNL A   1      41.398  31.448  30.069  1.00  0.00     0.049 A 
ATOM     45  C   UNL A   1      45.948  29.629  27.315  1.00  0.00     0.074 A 
ATOM     46  C   UNL A   1      41.417  32.766  30.488  1.00  0.00     0.029 A 
ATOM     47  N   UNL A   1      42.596  31.219  29.407  1.00  0.00    -0.354 N 
ATOM     48  N   UNL A   1      44.964  30.187  27.976  1.00  0.00    -0.248 NA
ATOM     49  C   UNL A   1      47.056  30.542  27.001  1.00  0.00     0.031 C 
ATOM     50  C   UNL A   1      42.616  33.343  30.056  1.00  0.00     0.029 A 
ATOM     51  C   UNL A   1      43.360  32.375  29.401  1.00  0.00     0.049 A 
ATOM     52  H   UNL A   1      42.863  30.364  29.000  1.00  0.00     0.167 HD
ATOM     53  C   UNL A   1      45.341  31.507  28.181  1.00  0.00     0.074 A 
ATOM     54  C   UNL A   1      46.647  31.666  27.573  1.00  0.00     0.031 C 
ATOM     55  C   UNL A   1      44.668  32.497  28.812  1.00  0.00     0.037 A 
BRANCH  42  56
ATOM     56  C   UNL A   1      39.122  30.854  30.982  1.00  0.00     0.064 A 
ATOM     57  C   UNL A   1      38.005  31.359  30.302  1.00  0.00     0.173 A 
ATOM     58  C   UNL A   1      39.029  30.696  32.374  1.00  0.00     0.173 A 
ATOM     59  F   UNL A   1      38.051  31.542  28.974  1.00  0.00    -0.203 F 
ATOM     60  C   UNL A   1      36.846  31.710  30.991  1.00  0.00     0.198 A 
ATOM     61  C   UNL A   1      37.861  31.025  33.057  1.00  0.00     0.198 A 
ATOM     62  F   UNL A   1      40.068  30.215  33.071  1.00  0.00    -0.203 F 
ATOM     63  F   UNL A   1      35.804  32.226  30.326  1.00  0.00    -0.200 F 
ATOM     64  C   UNL A   1      36.773  31.537  32.365  1.00  0.00     0.200 A 
ATOM     65  F   UNL A   1      37.789  30.849  34.383  1.00  0.00    -0.200 F 
ATOM     66  F   UNL A   1      35.655  31.869  33.026  1.00  0.00    -0.200 F 
ENDBRANCH  42  56
BRANCH  43  67
ATOM     67  C   UNL A   1      47.264  27.770  26.054  1.00  0.00     0.064 A 
ATOM     68  C   UNL A   1      47.237  27.758  24.653  1.00  0.00     0.173 A 
ATOM     69  C   UNL A   1      48.450  27.375  26.690  1.00  0.00     0.173 A 
ATOM     70  F   UNL A   1      46.117  28.105  24.003  1.00  0.00    -0.203 F 
ATOM     71  C   UNL A   1      48.351  27.360  23.917  1.00  0.00     0.198 A 
ATOM     72  C   UNL A   1      49.572  27.003  25.952  1.00  0.00     0.198 A 
ATOM     73  F   UNL A   1      48.526  27.371  28.028  1.00  0.00    -0.203 F 
ATOM     74  F   UNL A   1      48.290  27.326  22.578  1.00  0.00    -0.200 F 
ATOM     75  C   UNL A   1      49.520  26.991  24.567  1.00  0.00     0.200 A 
ATOM     76  F   UNL A   1      50.703  26.660  26.584  1.00  0.00    -0.200 F 
ATOM     77  F   UNL A   1      50.594  26.618  23.858  1.00  0.00    -0.200 F 
ENDBRANCH  43  67
BRANCH  55  78
ATOM     78  C   UNL A   1      45.351  33.824  28.932  1.00  0.00     0.064 A 
ATOM     79  C   UNL A   1      45.143  34.843  27.992  1.00  0.00     0.173 A 
ATOM     80  C   UNL A   1      46.170  34.097  30.036  1.00  0.00     0.173 A 
ATOM     81  F   UNL A   1      44.380  34.619  26.912  1.00  0.00    -0.203 F 
ATOM     82  C   UNL A   1      45.742  36.089  28.151  1.00  0.00     0.198 A 
ATOM     83  C   UNL A   1      46.750  35.350  30.202  1.00  0.00     0.198 A 
ATOM     84  F   UNL A   1      46.393  33.152  30.962  1.00  0.00    -0.203 F 
ATOM     85  F   UNL A   1      45.552  37.043  27.228  1.00  0.00    -0.200 F 
ATOM     86  C   UNL A   1      46.537  36.345  29.259  1.00  0.00     0.200 A 
ATOM     87  F   UNL A   1      47.512  35.598  31.277  1.00  0.00    -0.200 F 
ATOM     88  F   UNL A   1      47.102  37.549  29.415  1.00  0.00    -0.200 F 
ENDBRANCH  55  78
ENDBRANCH  29  30
ENDBRANCH  22  24
ENDBRANCH  21  22
ENDBRANCH  20  21
ENDBRANCH  19  20
ENDBRANCH   1  19
TORSDOF 16
ENDMDL
MODEL 2
REMARK VINA RESULT:     -10.9      1.468      3.254
REMARK SMILES C[C@H](CC(=O)NC[C@@]1(C)CCCO1)CC(=O)OCCOC(=O)c1ccc(-c2c3nc(c(-c4c(F)c(F)c(F)c(F)c4F)c4ccc([nH]4)c(-c4c(F)c(F)c(F)c(F)c4F)c4nc(c(-c5c(F)c(F)c(F)c(F)c5F)c5ccc2[nH]5)C=C4)C=C3)cc1
REMARK SMILES IDX 17 1 15 2 16 3 14 4 2 5 1 6 3 7 4 8 5 9 6 10 7 12 8 13 9 14
REMARK SMILES IDX 10 15 13 16 11 17 12 18 18 19 19 20 20 21 21 22 22 23 23 24
REMARK SMILES IDX 24 25 85 26 25 27 84 28 26 29 27 30 28 31 78 32 29 33 83 34
REMARK SMILES IDX 77 35 79 36 30 37 82 38 76 39 75 40 31 42 63 43 43 44 62 45
REMARK SMILES IDX 44 46 47 47 61 48 80 49 45 50 46 51 60 53 81 54 48 55 32 56
REMARK SMILES IDX 33 57 41 58 34 59 35 60 39 61 42 62 36 63 37 64 40 65 38 66
REMARK SMILES IDX 64 67 65 68 73 69 66 70 67 71 71 72 74 73 68 74 69 75 72 76
REMARK SMILES IDX 70 77 49 78 50 79 58 80 51 81 52 82 56 83 59 84 53 85 54 86
REMARK SMILES IDX 57 87 55 88
REMARK H PARENT 6 11 79 41 47 52
REMARK Flexibility Score: inf
ROOT
ATOM      1  O   UNL A   1      35.557  22.100  24.932  1.00  0.00    -0.462 OA
ENDROOT
BRANCH   1   2
ATOM      2  C   UNL A   1      34.553  22.451  24.092  1.00  0.00     0.306 C 
ATOM      3  O   UNL A   1      34.704  23.024  23.020  1.00  0.00    -0.252 OA
BRANCH   2   4
ATOM      4  C   UNL A   1      33.199  21.949  24.549  1.00  0.00     0.126 C 
BRANCH   4   5
ATOM      5  C   UNL A   1      32.518  22.704  25.695  1.00  0.00     0.006 C 
ATOM      6  C   UNL A   1      33.100  22.262  27.043  1.00  0.00     0.009 C 
BRANCH   5   7
ATOM      7  C   UNL A   1      30.980  22.651  25.623  1.00  0.00     0.104 C 
BRANCH   7   8
ATOM      8  C   UNL A   1      30.209  23.446  26.659  1.00  0.00     0.220 C 
ATOM      9  O   UNL A   1      29.736  22.893  27.655  1.00  0.00    -0.275 OA
ATOM     10  N   UNL A   1      30.022  24.784  26.527  1.00  0.00    -0.353 N 
ATOM     11  H   UNL A   1      29.534  25.205  27.273  1.00  0.00     0.163 HD
BRANCH  10  12
ATOM     12  C   UNL A   1      30.419  25.701  25.472  1.00  0.00     0.151 C 
BRANCH  12  13
ATOM     13  C   UNL A   1      31.471  26.743  25.926  1.00  0.00     0.083 C 
ATOM     14  C   UNL A   1      32.916  26.245  25.762  1.00  0.00     0.044 C 
ATOM     15  C   UNL A   1      31.274  28.090  25.232  1.00  0.00     0.039 C 
ATOM     16  O   UNL A   1      31.274  27.028  27.326  1.00  0.00    -0.373 OA
ATOM     17  C   UNL A   1      31.861  29.065  26.225  1.00  0.00     0.031 C 
ATOM     18  C   UNL A   1      31.561  28.416  27.564  1.00  0.00     0.161 C 
ENDBRANCH  12  13
ENDBRANCH  10  12
ENDBRANCH   7   8
ENDBRANCH   5   7
ENDBRANCH   4   5
ENDBRANCH   2   4
ENDBRANCH   1   2
BRANCH   1  19
ATOM     19  C   UNL A   1      35.862  20.697  25.010  1.00  0.00     0.274 C 
BRANCH  19  20
ATOM     20  C   UNL A   1      37.376  20.491  24.950  1.00  0.00     0.275 C 
BRANCH  20  21
ATOM     21  O   UNL A   1      38.081  21.636  25.471  1.00  0.00    -0.458 OA
BRANCH  21  22
ATOM     22  C   UNL A   1      39.231  21.353  26.123  1.00  0.00     0.338 C 
ATOM     23  O   UNL A   1      39.789  20.276  26.230  1.00  0.00    -0.246 OA
BRANCH  22  24
ATOM     24  C   UNL A   1      39.789  22.584  26.694  1.00  0.00     0.060 A 
ATOM     25  C   UNL A   1      39.379  23.824  26.197  1.00  0.00     0.016 A 
ATOM     26  C   UNL A   1      40.827  22.493  27.618  1.00  0.00     0.016 A 
ATOM     27  C   UNL A   1      40.053  24.981  26.575  1.00  0.00     0.010 A 
ATOM     28  C   UNL A   1      41.462  23.660  28.042  1.00  0.00     0.010 A 
ATOM     29  C   UNL A   1      41.098  24.908  27.503  1.00  0.00    -0.014 A 
BRANCH  29  30
ATOM     30  C   UNL A   1      41.852  26.117  27.904  1.00  0.00     0.031 A 
ATOM     31  C   UNL A   1      41.166  27.176  28.716  1.00  0.00     0.074 A 
ATOM     32  C   UNL A   1      43.123  26.288  27.498  1.00  0.00     0.049 A 
ATOM     33  N   UNL A   1      41.518  28.416  28.929  1.00  0.00    -0.248 NA
ATOM     34  C   UNL A   1      39.903  26.786  29.364  1.00  0.00     0.031 C 
ATOM     35  C   UNL A   1      43.918  25.303  26.767  1.00  0.00     0.029 A 
ATOM     36  N   UNL A   1      43.959  27.369  27.622  1.00  0.00    -0.354 N 
ATOM     37  C   UNL A   1      40.496  28.972  29.687  1.00  0.00     0.074 A 
ATOM     38  C   UNL A   1      39.515  27.930  29.907  1.00  0.00     0.031 C 
ATOM     39  C   UNL A   1      45.123  25.828  26.494  1.00  0.00     0.029 A 
ATOM     40  C   UNL A   1      45.152  27.209  26.962  1.00  0.00     0.049 A 
ATOM     41  H   UNL A   1      43.726  28.178  28.132  1.00  0.00     0.167 HD
ATOM     42  C   UNL A   1      40.389  30.243  30.140  1.00  0.00     0.037 A 
ATOM     43  C   UNL A   1      46.132  28.097  26.711  1.00  0.00     0.037 A 
ATOM     44  C   UNL A   1      41.393  31.255  29.942  1.00  0.00     0.049 A 
ATOM     45  C   UNL A   1      45.974  29.514  27.188  1.00  0.00     0.074 A 
ATOM     46  C   UNL A   1      41.387  32.575  30.357  1.00  0.00     0.029 A 
ATOM     47  N   UNL A   1      42.594  31.047  29.279  1.00  0.00    -0.354 N 
ATOM     48  N   UNL A   1      44.979  30.056  27.849  1.00  0.00    -0.248 NA
ATOM     49  C   UNL A   1      47.064  30.447  26.870  1.00  0.00     0.031 C 
ATOM     50  C   UNL A   1      42.574  33.173  29.921  1.00  0.00     0.029 A 
ATOM     51  C   UNL A   1      43.335  32.217  29.268  1.00  0.00     0.049 A 
ATOM     52  H   UNL A   1      42.877  30.195  28.875  1.00  0.00     0.167 HD
ATOM     53  C   UNL A   1      45.332  31.383  28.048  1.00  0.00     0.074 A 
ATOM     54  C   UNL A   1      46.633  31.565  27.439  1.00  0.00     0.031 C 
ATOM     55  C   UNL A   1      44.640  32.362  28.677  1.00  0.00     0.037 A 
BRANCH  42  56
ATOM     56  C   UNL A   1      39.130  30.621  30.860  1.00  0.00     0.064 A 
ATOM     57  C   UNL A   1      37.992  31.073  30.177  1.00  0.00     0.173 A 
ATOM     58  C   UNL A   1      39.052  30.496  32.255  1.00  0.00     0.173 A 
ATOM     59  F   UNL A   1      38.022  31.223  28.844  1.00  0.00    -0.203 F 
ATOM     60  C   UNL A   1      36.828  31.405  30.866  1.00  0.00     0.198 A 
ATOM     61  C   UNL A   1      37.880  30.806  32.940  1.00  0.00     0.198 A 
ATOM     62  F   UNL A   1      40.111  30.066  32.956  1.00  0.00    -0.203 F 
ATOM     63  F   UNL A   1      35.764  31.870  30.197  1.00  0.00    -0.200 F 
ATOM     64  C   UNL A   1      36.770  31.265  32.245  1.00  0.00     0.200 A 
ATOM     65  F   UNL A   1      37.823  30.661  34.271  1.00  0.00    -0.200 F 
ATOM     66  F   UNL A   1      35.647  31.578  32.906  1.00  0.00    -0.200 F 
ENDBRANCH  42  56
BRANCH  43  67
ATOM     67  C   UNL A   1      47.323  27.676  25.932  1.00  0.00     0.064 A 
ATOM     68  C   UNL A   1      47.318  27.722  24.531  1.00  0.00     0.173 A 
ATOM     69  C   UNL A   1      48.495  27.242  26.569  1.00  0.00     0.173 A 
ATOM     70  F   UNL A   1      46.212  28.108  23.880  1.00  0.00    -0.203 F 
ATOM     71  C   UNL A   1      48.439  27.343  23.797  1.00  0.00     0.198 A 
ATOM     72  C   UNL A   1      49.624  26.889  25.833  1.00  0.00     0.198 A 
ATOM     73  F   UNL A   1      48.551  27.181  27.907  1.00  0.00    -0.203 F 
ATOM     74  F   UNL A   1      48.398  27.366  22.457  1.00  0.00    -0.200 F 
ATOM     75  C   UNL A   1      49.594  26.935  24.448  1.00  0.00     0.200 A 
ATOM     76  F   UNL A   1      50.742  26.507  26.467  1.00  0.00    -0.200 F 
ATOM     77  F   UNL A   1      50.675  26.581  23.740  1.00  0.00    -0.200 F 
ENDBRANCH  43  67
BRANCH  55  78
ATOM     78  C   UNL A   1      45.298  33.703  28.791  1.00  0.00     0.064 A 
ATOM     79  C   UNL A   1      46.165  34.007  29.848  1.00  0.00     0.173 A 
ATOM     80  C   UNL A   1      45.104  34.668  27.793  1.00  0.00     0.173 A 
ATOM     81  F   UNL A   1      46.366  33.118  30.833  1.00  0.00    -0.203 F 
ATOM     82  C   UNL A   1      46.812  35.238  29.906  1.00  0.00     0.198 A 
ATOM     83  C   UNL A   1      45.768  35.889  27.842  1.00  0.00     0.198 A 
ATOM     84  F   UNL A   1      44.285  34.418  26.760  1.00  0.00    -0.203 F 
ATOM     85  F   UNL A   1      47.618  35.520  30.938  1.00  0.00    -0.200 F 
ATOM     86  C   UNL A   1      46.620  36.174  28.900  1.00  0.00     0.200 A 
ATOM     87  F   UNL A   1      45.588  36.790  26.866  1.00  0.00    -0.200 F 
ATOM     88  F   UNL A   1      47.252  37.353  28.952  1.00  0.00    -0.200 F 
ENDBRANCH  55  78
ENDBRANCH  29  30
ENDBRANCH  22  24
ENDBRANCH  21  22
ENDBRANCH  20  21
ENDBRANCH  19  20
ENDBRANCH   1  19
TORSDOF 16
ENDMDL
MODEL 3
REMARK VINA RESULT:     -10.9      4.463      9.629
REMARK SMILES C[C@H](CC(=O)NC[C@@]1(C)CCCO1)CC(=O)OCCOC(=O)c1ccc(-c2c3nc(c(-c4c(F)c(F)c(F)c(F)c4F)c4ccc([nH]4)c(-c4c(F)c(F)c(F)c(F)c4F)c4nc(c(-c5c(F)c(F)c(F)c(F)c5F)c5ccc2[nH]5)C=C4)C=C3)cc1
REMARK SMILES IDX 17 1 15 2 16 3 14 4 2 5 1 6 3 7 4 8 5 9 6 10 7 12 8 13 9 14
REMARK SMILES IDX 10 15 13 16 11 17 12 18 18 19 19 20 20 21 21 22 22 23 23 24
REMARK SMILES IDX 24 25 85 26 25 27 84 28 26 29 27 30 28 31 78 32 29 33 83 34
REMARK SMILES IDX 77 35 79 36 30 37 82 38 76 39 75 40 31 42 63 43 43 44 62 45
REMARK SMILES IDX 44 46 47 47 61 48 80 49 45 50 46 51 60 53 81 54 48 55 32 56
REMARK SMILES IDX 33 57 41 58 34 59 35 60 39 61 42 62 36 63 37 64 40 65 38 66
REMARK SMILES IDX 64 67 65 68 73 69 66 70 67 71 71 72 74 73 68 74 69 75 72 76
REMARK SMILES IDX 70 77 49 78 50 79 58 80 51 81 52 82 56 83 59 84 53 85 54 86
REMARK SMILES IDX 57 87 55 88
REMARK H PARENT 6 11 79 41 47 52
REMARK Flexibility Score: inf
ROOT
ATOM      1  O   UNL A   1      32.214  28.169  25.224  1.00  0.00    -0.462 OA
ENDROOT
BRANCH   1   2
ATOM      2  C   UNL A   1      31.573  26.982  25.347  1.00  0.00     0.306 C 
ATOM      3  O   UNL A   1      30.520  26.693  24.790  1.00  0.00    -0.252 OA
BRANCH   2   4
ATOM      4  C   UNL A   1      32.355  25.970  26.157  1.00  0.00     0.126 C 
BRANCH   4   5
ATOM      5  C   UNL A   1      32.911  24.751  25.414  1.00  0.00     0.006 C 
ATOM      6  C   UNL A   1      33.668  25.194  24.157  1.00  0.00     0.009 C 
BRANCH   5   7
ATOM      7  C   UNL A   1      31.850  23.662  25.162  1.00  0.00     0.104 C 
BRANCH   7   8
ATOM      8  C   UNL A   1      31.551  22.707  26.301  1.00  0.00     0.220 C 
ATOM      9  O   UNL A   1      30.612  22.918  27.071  1.00  0.00    -0.275 OA
ATOM     10  N   UNL A   1      32.299  21.591  26.502  1.00  0.00    -0.353 N 
ATOM     11  H   UNL A   1      31.997  21.026  27.251  1.00  0.00     0.163 HD
BRANCH  10  12
ATOM     12  C   UNL A   1      33.468  21.091  25.801  1.00  0.00     0.151 C 
BRANCH  12  13
ATOM     13  C   UNL A   1      33.159  19.898  24.862  1.00  0.00     0.083 C 
ATOM     14  C   UNL A   1      32.528  20.331  23.531  1.00  0.00     0.044 C 
ATOM     15  C   UNL A   1      34.392  19.025  24.626  1.00  0.00     0.039 C 
ATOM     16  O   UNL A   1      32.219  19.020  25.516  1.00  0.00    -0.373 OA
ATOM     17  C   UNL A   1      33.790  17.674  24.321  1.00  0.00     0.031 C 
ATOM     18  C   UNL A   1      32.527  17.661  25.163  1.00  0.00     0.161 C 
ENDBRANCH  12  13
ENDBRANCH  10  12
ENDBRANCH   7   8
ENDBRANCH   5   7
ENDBRANCH   4   5
ENDBRANCH   2   4
ENDBRANCH   1   2
BRANCH   1  19
ATOM     19  C   UNL A   1      31.411  29.290  24.819  1.00  0.00     0.274 C 
BRANCH  19  20
ATOM     20  C   UNL A   1      31.661  30.474  25.753  1.00  0.00     0.275 C 
BRANCH  20  21
ATOM     21  O   UNL A   1      32.825  30.255  26.575  1.00  0.00    -0.458 OA
BRANCH  21  22
ATOM     22  C   UNL A   1      33.338  31.365  27.151  1.00  0.00     0.338 C 
ATOM     23  O   UNL A   1      32.817  32.459  27.269  1.00  0.00    -0.246 OA
BRANCH  22  24
ATOM     24  C   UNL A   1      34.670  31.070  27.689  1.00  0.00     0.060 A 
ATOM     25  C   UNL A   1      35.006  29.756  28.021  1.00  0.00     0.016 A 
ATOM     26  C   UNL A   1      35.525  32.126  27.999  1.00  0.00     0.016 A 
ATOM     27  C   UNL A   1      36.176  29.495  28.729  1.00  0.00     0.010 A 
ATOM     28  C   UNL A   1      36.726  31.856  28.655  1.00  0.00     0.010 A 
ATOM     29  C   UNL A   1      37.046  30.544  29.048  1.00  0.00    -0.014 A 
BRANCH  29  30
ATOM     30  C   UNL A   1      38.284  30.302  29.824  1.00  0.00     0.031 A 
ATOM     31  C   UNL A   1      39.341  29.400  29.258  1.00  0.00     0.074 A 
ATOM     32  C   UNL A   1      38.434  30.844  31.045  1.00  0.00     0.049 A 
ATOM     33  N   UNL A   1      40.346  28.821  29.860  1.00  0.00    -0.248 NA
ATOM     34  C   UNL A   1      39.242  29.098  27.821  1.00  0.00     0.031 C 
ATOM     35  C   UNL A   1      37.512  31.789  31.672  1.00  0.00     0.029 A 
ATOM     36  N   UNL A   1      39.410  30.650  31.991  1.00  0.00    -0.354 N 
ATOM     37  C   UNL A   1      40.967  28.043  28.892  1.00  0.00     0.074 A 
ATOM     38  C   UNL A   1      40.232  28.233  27.659  1.00  0.00     0.031 C 
ATOM     39  C   UNL A   1      37.957  32.085  32.903  1.00  0.00     0.029 A 
ATOM     40  C   UNL A   1      39.149  31.290  33.177  1.00  0.00     0.049 A 
ATOM     41  H   UNL A   1      40.216  30.106  31.834  1.00  0.00     0.167 HD
ATOM     42  C   UNL A   1      42.044  27.235  29.033  1.00  0.00     0.037 A 
ATOM     43  C   UNL A   1      39.768  31.197  34.369  1.00  0.00     0.037 A 
ATOM     44  C   UNL A   1      42.783  27.088  30.259  1.00  0.00     0.049 A 
ATOM     45  C   UNL A   1      40.936  30.263  34.514  1.00  0.00     0.074 A 
ATOM     46  C   UNL A   1      43.888  26.296  30.515  1.00  0.00     0.029 A 
ATOM     47  N   UNL A   1      42.493  27.765  31.434  1.00  0.00    -0.354 N 
ATOM     48  N   UNL A   1      41.483  29.479  33.616  1.00  0.00    -0.248 NA
ATOM     49  C   UNL A   1      41.561  30.185  35.841  1.00  0.00     0.031 C 
ATOM     50  C   UNL A   1      44.251  26.474  31.854  1.00  0.00     0.029 A 
ATOM     51  C   UNL A   1      43.396  27.405  32.421  1.00  0.00     0.049 A 
ATOM     52  H   UNL A   1      41.755  28.406  31.551  1.00  0.00     0.167 HD
ATOM     53  C   UNL A   1      42.530  28.835  34.259  1.00  0.00     0.074 A 
ATOM     54  C   UNL A   1      42.543  29.319  35.624  1.00  0.00     0.031 C 
ATOM     55  C   UNL A   1      43.401  27.924  33.764  1.00  0.00     0.037 A 
BRANCH  42  56
ATOM     56  C   UNL A   1      42.463  26.420  27.847  1.00  0.00     0.064 A 
ATOM     57  C   UNL A   1      41.883  25.177  27.558  1.00  0.00     0.173 A 
ATOM     58  C   UNL A   1      43.439  26.910  26.965  1.00  0.00     0.173 A 
ATOM     59  F   UNL A   1      40.956  24.659  28.379  1.00  0.00    -0.203 F 
ATOM     60  C   UNL A   1      42.279  24.445  26.441  1.00  0.00     0.198 A 
ATOM     61  C   UNL A   1      43.816  26.188  25.837  1.00  0.00     0.198 A 
ATOM     62  F   UNL A   1      44.023  28.096  27.195  1.00  0.00    -0.203 F 
ATOM     63  F   UNL A   1      41.738  23.241  26.205  1.00  0.00    -0.200 F 
ATOM     64  C   UNL A   1      43.239  24.952  25.579  1.00  0.00     0.200 A 
ATOM     65  F   UNL A   1      44.737  26.684  25.000  1.00  0.00    -0.200 F 
ATOM     66  F   UNL A   1      43.614  24.249  24.501  1.00  0.00    -0.200 F 
ENDBRANCH  42  56
BRANCH  43  67
ATOM     67  C   UNL A   1      39.259  31.980  35.523  1.00  0.00     0.064 A 
ATOM     68  C   UNL A   1      39.596  33.331  35.678  1.00  0.00     0.173 A 
ATOM     69  C   UNL A   1      38.410  31.402  36.478  1.00  0.00     0.173 A 
ATOM     70  F   UNL A   1      40.423  33.919  34.802  1.00  0.00    -0.203 F 
ATOM     71  C   UNL A   1      39.108  34.073  36.751  1.00  0.00     0.198 A 
ATOM     72  C   UNL A   1      37.902  32.153  37.536  1.00  0.00     0.198 A 
ATOM     73  F   UNL A   1      38.058  30.113  36.373  1.00  0.00    -0.203 F 
ATOM     74  F   UNL A   1      39.471  35.356  36.895  1.00  0.00    -0.200 F 
ATOM     75  C   UNL A   1      38.255  33.486  37.674  1.00  0.00     0.200 A 
ATOM     76  F   UNL A   1      37.068  31.585  38.418  1.00  0.00    -0.200 F 
ATOM     77  F   UNL A   1      37.778  34.205  38.700  1.00  0.00    -0.200 F 
ENDBRANCH  43  67
BRANCH  55  78
ATOM     78  C   UNL A   1      44.477  27.433  34.683  1.00  0.00     0.064 A 
ATOM     79  C   UNL A   1      44.322  26.259  35.432  1.00  0.00     0.173 A 
ATOM     80  C   UNL A   1      45.700  28.114  34.762  1.00  0.00     0.173 A 
ATOM     81  F   UNL A   1      43.163  25.585  35.399  1.00  0.00    -0.203 F 
ATOM     82  C   UNL A   1      45.356  25.788  36.237  1.00  0.00     0.198 A 
ATOM     83  C   UNL A   1      46.737  27.630  35.551  1.00  0.00     0.198 A 
ATOM     84  F   UNL A   1      45.893  29.241  34.059  1.00  0.00    -0.203 F 
ATOM     85  F   UNL A   1      45.180  24.677  36.966  1.00  0.00    -0.200 F 
ATOM     86  C   UNL A   1      46.564  26.468  36.289  1.00  0.00     0.200 A 
ATOM     87  F   UNL A   1      47.907  28.283  35.595  1.00  0.00    -0.200 F 
ATOM     88  F   UNL A   1      47.561  26.005  37.055  1.00  0.00    -0.200 F 
ENDBRANCH  55  78
ENDBRANCH  29  30
ENDBRANCH  22  24
ENDBRANCH  21  22
ENDBRANCH  20  21
ENDBRANCH  19  20
ENDBRANCH   1  19
TORSDOF 16
ENDMDL
