MODEL 1
REMARK VINA RESULT:     -12.3      0.000      0.000
REMARK SMILES CCN(Cc1ccccn1)c1nc(C)cc(C)c1C(=O)OCCOC(=O)c1ccc(-c2c3nc(c(-c4c(F)c(F)c(F)c(F)c4F)c4ccc([nH]4)c(-c4c(F)c(F)c(F)c(F)c4F)c4nc(c(-c5c(F)c(F)c(F)c(F)c5F)c5ccc2[nH]5)C=C4)C=C3)cc1
REMARK SMILES IDX 22 1 21 2 19 3 20 4 18 5 11 6 12 7 13 8 16 9 14 10 15 11
REMARK SMILES IDX 17 12 3 13 2 14 1 15 4 16 5 17 6 18 10 19 7 20 9 21 8 22
REMARK SMILES IDX 23 23 24 24 25 25 26 26 27 27 28 28 89 29 29 30 88 31 30 32
REMARK SMILES IDX 31 33 32 34 82 35 33 36 87 37 81 38 83 39 34 40 86 41 80 42
REMARK SMILES IDX 79 43 35 45 67 46 47 47 66 48 48 49 51 50 65 51 84 52 49 53
REMARK SMILES IDX 50 54 64 56 85 57 52 58 36 59 37 60 45 61 38 62 39 63 43 64
REMARK SMILES IDX 46 65 40 66 41 67 44 68 42 69 68 70 69 71 77 72 70 73 71 74
REMARK SMILES IDX 75 75 78 76 72 77 73 78 76 79 74 80 53 81 54 82 62 83 55 84
REMARK SMILES IDX 56 85 60 86 63 87 57 88 58 89 61 90 59 91
REMARK H PARENT 83 44 51 55
REMARK Flexibility Score: inf
ROOT
ATOM      1  C   UNL A   1      31.381  27.141  26.888  1.00  0.00     0.275 C 
ENDROOT
BRANCH   1   2
ATOM      2  O   UNL A   1      32.544  26.344  26.554  1.00  0.00    -0.458 OA
BRANCH   2   3
ATOM      3  C   UNL A   1      32.288  25.127  25.997  1.00  0.00     0.342 C 
ATOM      4  O   UNL A   1      31.269  24.470  26.149  1.00  0.00    -0.246 OA
BRANCH   3   5
ATOM      5  C   UNL A   1      33.458  24.642  25.228  1.00  0.00     0.105 A 
ATOM      6  C   UNL A   1      33.760  25.086  23.922  1.00  0.00     0.144 A 
ATOM      7  N   UNL A   1      34.721  24.462  23.206  1.00  0.00    -0.235 NA
ATOM      8  C   UNL A   1      35.432  23.452  23.745  1.00  0.00     0.040 A 
ATOM      9  C   UNL A   1      34.187  23.572  25.788  1.00  0.00    -0.031 A 
ATOM     10  C   UNL A   1      36.532  22.905  22.888  1.00  0.00     0.067 C 
ATOM     11  C   UNL A   1      35.209  22.992  25.032  1.00  0.00     0.028 A 
ATOM     12  C   UNL A   1      33.900  23.056  27.171  1.00  0.00     0.045 C 
BRANCH   6  13
ATOM     13  N   UNL A   1      33.211  26.172  23.279  1.00  0.00    -0.350 N 
BRANCH  13  14
ATOM     14  C   UNL A   1      33.691  27.508  23.503  1.00  0.00     0.115 C 
ATOM     15  C   UNL A   1      34.119  28.102  22.168  1.00  0.00     0.027 C 
ENDBRANCH  13  14
BRANCH  13  16
ATOM     16  C   UNL A   1      32.026  26.006  22.422  1.00  0.00     0.174 C 
BRANCH  16  17
ATOM     17  C   UNL A   1      30.759  26.744  22.812  1.00  0.00     0.060 A 
ATOM     18  C   UNL A   1      29.740  26.141  23.547  1.00  0.00     0.026 A 
ATOM     19  N   UNL A   1      30.616  27.988  22.275  1.00  0.00    -0.259 NA
ATOM     20  C   UNL A   1      28.561  26.850  23.775  1.00  0.00     0.004 A 
ATOM     21  C   UNL A   1      29.471  28.655  22.526  1.00  0.00     0.111 A 
ATOM     22  C   UNL A   1      28.424  28.134  23.263  1.00  0.00     0.020 A 
ENDBRANCH  16  17
ENDBRANCH  13  16
ENDBRANCH   6  13
ENDBRANCH   3   5
ENDBRANCH   2   3
ENDBRANCH   1   2
BRANCH   1  23
ATOM     23  C   UNL A   1      31.622  28.618  26.510  1.00  0.00     0.275 C 
BRANCH  23  24
ATOM     24  O   UNL A   1      32.440  29.276  27.508  1.00  0.00    -0.458 OA
BRANCH  24  25
ATOM     25  C   UNL A   1      32.953  30.506  27.216  1.00  0.00     0.338 C 
ATOM     26  O   UNL A   1      32.303  31.510  26.965  1.00  0.00    -0.246 OA
BRANCH  25  27
ATOM     27  C   UNL A   1      34.440  30.511  27.407  1.00  0.00     0.060 A 
ATOM     28  C   UNL A   1      35.141  29.325  27.415  1.00  0.00     0.016 A 
ATOM     29  C   UNL A   1      35.147  31.660  27.754  1.00  0.00     0.016 A 
ATOM     30  C   UNL A   1      36.359  29.242  28.103  1.00  0.00     0.010 A 
ATOM     31  C   UNL A   1      36.476  31.572  28.252  1.00  0.00     0.010 A 
ATOM     32  C   UNL A   1      37.077  30.340  28.578  1.00  0.00    -0.014 A 
BRANCH  32  33
ATOM     33  C   UNL A   1      38.368  30.211  29.405  1.00  0.00     0.031 A 
ATOM     34  C   UNL A   1      39.536  29.377  28.871  1.00  0.00     0.074 A 
ATOM     35  C   UNL A   1      38.632  30.837  30.587  1.00  0.00     0.049 A 
ATOM     36  N   UNL A   1      40.460  28.705  29.522  1.00  0.00    -0.248 NA
ATOM     37  C   UNL A   1      39.678  29.283  27.409  1.00  0.00     0.031 C 
ATOM     38  C   UNL A   1      37.828  31.849  31.271  1.00  0.00     0.029 A 
ATOM     39  N   UNL A   1      39.713  30.691  31.454  1.00  0.00    -0.354 N 
ATOM     40  C   UNL A   1      41.179  27.996  28.561  1.00  0.00     0.074 A 
ATOM     41  C   UNL A   1      40.615  28.354  27.277  1.00  0.00     0.031 C 
ATOM     42  C   UNL A   1      38.448  32.275  32.374  1.00  0.00     0.029 A 
ATOM     43  C   UNL A   1      39.585  31.416  32.621  1.00  0.00     0.049 A 
ATOM     44  H   UNL A   1      40.492  30.125  31.253  1.00  0.00     0.167 HD
ATOM     45  C   UNL A   1      42.197  27.114  28.738  1.00  0.00     0.037 A 
ATOM     46  C   UNL A   1      40.187  31.342  33.827  1.00  0.00     0.037 A 
ATOM     47  C   UNL A   1      42.865  26.888  29.998  1.00  0.00     0.049 A 
ATOM     48  C   UNL A   1      41.235  30.300  34.062  1.00  0.00     0.074 A 
ATOM     49  C   UNL A   1      43.900  26.013  30.289  1.00  0.00     0.029 A 
ATOM     50  N   UNL A   1      42.599  27.584  31.167  1.00  0.00    -0.354 N 
ATOM     51  N   UNL A   1      41.747  29.442  33.218  1.00  0.00    -0.248 NA
ATOM     52  C   UNL A   1      41.759  30.185  35.430  1.00  0.00     0.031 C 
ATOM     53  C   UNL A   1      44.225  26.145  31.644  1.00  0.00     0.029 A 
ATOM     54  C   UNL A   1      43.435  27.145  32.183  1.00  0.00     0.049 A 
ATOM     55  H   UNL A   1      41.916  28.287  31.262  1.00  0.00     0.167 HD
ATOM     56  C   UNL A   1      42.659  28.694  33.945  1.00  0.00     0.074 A 
ATOM     57  C   UNL A   1      42.648  29.212  35.297  1.00  0.00     0.031 C 
ATOM     58  C   UNL A   1      43.430  27.664  33.525  1.00  0.00     0.037 A 
BRANCH  45  59
ATOM     59  C   UNL A   1      42.605  26.252  27.571  1.00  0.00     0.064 A 
ATOM     60  C   UNL A   1      41.981  25.040  27.250  1.00  0.00     0.173 A 
ATOM     61  C   UNL A   1      43.640  26.691  26.722  1.00  0.00     0.173 A 
ATOM     62  F   UNL A   1      40.990  24.567  28.019  1.00  0.00    -0.203 F 
ATOM     63  C   UNL A   1      42.400  24.282  26.155  1.00  0.00     0.198 A 
ATOM     64  C   UNL A   1      44.032  25.951  25.610  1.00  0.00     0.198 A 
ATOM     65  F   UNL A   1      44.265  27.854  26.965  1.00  0.00    -0.203 F 
ATOM     66  F   UNL A   1      41.826  23.098  25.902  1.00  0.00    -0.200 F 
ATOM     67  C   UNL A   1      43.420  24.740  25.334  1.00  0.00     0.200 A 
ATOM     68  F   UNL A   1      45.003  26.412  24.807  1.00  0.00    -0.200 F 
ATOM     69  F   UNL A   1      43.817  24.013  24.280  1.00  0.00    -0.200 F 
ENDBRANCH  45  59
BRANCH  46  70
ATOM     70  C   UNL A   1      39.690  32.185  34.959  1.00  0.00     0.064 A 
ATOM     71  C   UNL A   1      40.127  33.503  35.137  1.00  0.00     0.173 A 
ATOM     72  C   UNL A   1      38.759  31.681  35.886  1.00  0.00     0.173 A 
ATOM     73  F   UNL A   1      41.048  34.021  34.313  1.00  0.00    -0.203 F 
ATOM     74  C   UNL A   1      39.649  34.284  36.191  1.00  0.00     0.198 A 
ATOM     75  C   UNL A   1      38.248  32.476  36.908  1.00  0.00     0.198 A 
ATOM     76  F   UNL A   1      38.313  30.419  35.776  1.00  0.00    -0.203 F 
ATOM     77  F   UNL A   1      40.119  35.527  36.368  1.00  0.00    -0.200 F 
ATOM     78  C   UNL A   1      38.699  33.776  37.065  1.00  0.00     0.200 A 
ATOM     79  F   UNL A   1      37.313  31.984  37.734  1.00  0.00    -0.200 F 
ATOM     80  F   UNL A   1      38.225  34.535  38.063  1.00  0.00    -0.200 F 
ENDBRANCH  46  70
BRANCH  58  81
ATOM     81  C   UNL A   1      44.367  27.058  34.527  1.00  0.00     0.064 A 
ATOM     82  C   UNL A   1      44.007  25.939  35.291  1.00  0.00     0.173 A 
ATOM     83  C   UNL A   1      45.649  27.598  34.712  1.00  0.00     0.173 A 
ATOM     84  F   UNL A   1      42.783  25.402  35.167  1.00  0.00    -0.203 F 
ATOM     85  C   UNL A   1      44.888  25.395  36.221  1.00  0.00     0.198 A 
ATOM     86  C   UNL A   1      46.537  27.033  35.621  1.00  0.00     0.198 A 
ATOM     87  F   UNL A   1      46.039  28.671  34.007  1.00  0.00    -0.203 F 
ATOM     88  F   UNL A   1      44.506  24.358  36.977  1.00  0.00    -0.200 F 
ATOM     89  C   UNL A   1      46.155  25.938  36.380  1.00  0.00     0.200 A 
ATOM     90  F   UNL A   1      47.765  27.553  35.766  1.00  0.00    -0.200 F 
ATOM     91  F   UNL A   1      47.004  25.410  37.272  1.00  0.00    -0.200 F 
ENDBRANCH  58  81
ENDBRANCH  32  33
ENDBRANCH  25  27
ENDBRANCH  24  25
ENDBRANCH  23  24
ENDBRANCH   1  23
TORSDOF 15
ENDMDL
MODEL 2
REMARK VINA RESULT:     -12.2      1.169      3.021
REMARK SMILES CCN(Cc1ccccn1)c1nc(C)cc(C)c1C(=O)OCCOC(=O)c1ccc(-c2c3nc(c(-c4c(F)c(F)c(F)c(F)c4F)c4ccc([nH]4)c(-c4c(F)c(F)c(F)c(F)c4F)c4nc(c(-c5c(F)c(F)c(F)c(F)c5F)c5ccc2[nH]5)C=C4)C=C3)cc1
REMARK SMILES IDX 22 1 21 2 19 3 20 4 18 5 11 6 12 7 13 8 16 9 14 10 15 11
REMARK SMILES IDX 17 12 3 13 2 14 1 15 4 16 5 17 6 18 10 19 7 20 9 21 8 22
REMARK SMILES IDX 23 23 24 24 25 25 26 26 27 27 28 28 89 29 29 30 88 31 30 32
REMARK SMILES IDX 31 33 32 34 82 35 33 36 87 37 81 38 83 39 34 40 86 41 80 42
REMARK SMILES IDX 79 43 35 45 67 46 47 47 66 48 48 49 51 50 65 51 84 52 49 53
REMARK SMILES IDX 50 54 64 56 85 57 52 58 36 59 37 60 45 61 38 62 39 63 43 64
REMARK SMILES IDX 46 65 40 66 41 67 44 68 42 69 68 70 69 71 77 72 70 73 71 74
REMARK SMILES IDX 75 75 78 76 72 77 73 78 76 79 74 80 53 81 54 82 62 83 55 84
REMARK SMILES IDX 56 85 60 86 63 87 57 88 58 89 61 90 59 91
REMARK H PARENT 83 44 51 55
REMARK Flexibility Score: inf
ROOT
ATOM      1  C   UNL A   1      32.191  26.969  26.502  1.00  0.00     0.275 C 
ENDROOT
BRANCH   1   2
ATOM      2  O   UNL A   1      31.206  25.922  26.682  1.00  0.00    -0.458 OA
BRANCH   2   3
ATOM      3  C   UNL A   1      30.737  25.346  25.540  1.00  0.00     0.342 C 
ATOM      4  O   UNL A   1      29.900  25.824  24.789  1.00  0.00    -0.246 OA
BRANCH   3   5
ATOM      5  C   UNL A   1      31.317  23.996  25.353  1.00  0.00     0.105 A 
ATOM      6  C   UNL A   1      32.319  23.712  24.400  1.00  0.00     0.144 A 
ATOM      7  N   UNL A   1      32.661  22.430  24.146  1.00  0.00    -0.235 NA
ATOM      8  C   UNL A   1      32.090  21.418  24.831  1.00  0.00     0.040 A 
ATOM      9  C   UNL A   1      30.703  22.938  26.058  1.00  0.00    -0.031 A 
ATOM     10  C   UNL A   1      32.620  20.051  24.527  1.00  0.00     0.067 C 
ATOM     11  C   UNL A   1      31.126  21.632  25.802  1.00  0.00     0.028 A 
ATOM     12  C   UNL A   1      29.626  23.185  27.077  1.00  0.00     0.045 C 
BRANCH   6  13
ATOM     13  N   UNL A   1      33.074  24.631  23.708  1.00  0.00    -0.350 N 
BRANCH  13  14
ATOM     14  C   UNL A   1      32.733  25.042  22.373  1.00  0.00     0.115 C 
ATOM     15  C   UNL A   1      33.167  26.489  22.183  1.00  0.00     0.027 C 
ENDBRANCH  13  14
BRANCH  13  16
ATOM     16  C   UNL A   1      34.331  25.140  24.279  1.00  0.00     0.174 C 
BRANCH  16  17
ATOM     17  C   UNL A   1      35.482  24.166  24.442  1.00  0.00     0.060 A 
ATOM     18  C   UNL A   1      35.867  23.289  23.429  1.00  0.00     0.026 A 
ATOM     19  N   UNL A   1      36.023  24.100  25.690  1.00  0.00    -0.259 NA
ATOM     20  C   UNL A   1      36.864  22.350  23.690  1.00  0.00     0.004 A 
ATOM     21  C   UNL A   1      36.996  23.192  25.909  1.00  0.00     0.111 A 
ATOM     22  C   UNL A   1      37.447  22.304  24.951  1.00  0.00     0.020 A 
ENDBRANCH  16  17
ENDBRANCH  13  16
ENDBRANCH   6  13
ENDBRANCH   3   5
ENDBRANCH   2   3
ENDBRANCH   1   2
BRANCH   1  23
ATOM     23  C   UNL A   1      31.536  28.353  26.694  1.00  0.00     0.275 C 
BRANCH  23  24
ATOM     24  O   UNL A   1      32.316  29.167  27.606  1.00  0.00    -0.458 OA
BRANCH  24  25
ATOM     25  C   UNL A   1      32.806  30.357  27.153  1.00  0.00     0.338 C 
ATOM     26  O   UNL A   1      32.138  31.305  26.767  1.00  0.00    -0.246 OA
BRANCH  25  27
ATOM     27  C   UNL A   1      34.291  30.418  27.347  1.00  0.00     0.060 A 
ATOM     28  C   UNL A   1      35.041  29.262  27.325  1.00  0.00     0.016 A 
ATOM     29  C   UNL A   1      34.950  31.585  27.728  1.00  0.00     0.016 A 
ATOM     30  C   UNL A   1      36.261  29.210  28.013  1.00  0.00     0.010 A 
ATOM     31  C   UNL A   1      36.281  31.539  28.226  1.00  0.00     0.010 A 
ATOM     32  C   UNL A   1      36.932  30.324  28.520  1.00  0.00    -0.014 A 
BRANCH  32  33
ATOM     33  C   UNL A   1      38.225  30.226  29.346  1.00  0.00     0.031 A 
ATOM     34  C   UNL A   1      39.414  29.423  28.810  1.00  0.00     0.074 A 
ATOM     35  C   UNL A   1      38.475  30.856  30.529  1.00  0.00     0.049 A 
ATOM     36  N   UNL A   1      40.355  28.773  29.460  1.00  0.00    -0.248 NA
ATOM     37  C   UNL A   1      39.558  29.335  27.348  1.00  0.00     0.031 C 
ATOM     38  C   UNL A   1      37.646  31.847  31.215  1.00  0.00     0.029 A 
ATOM     39  N   UNL A   1      39.559  30.736  31.396  1.00  0.00    -0.354 N 
ATOM     40  C   UNL A   1      41.091  28.083  28.497  1.00  0.00     0.074 A 
ATOM     41  C   UNL A   1      40.518  28.429  27.214  1.00  0.00     0.031 C 
ATOM     42  C   UNL A   1      38.255  32.286  32.319  1.00  0.00     0.029 A 
ATOM     43  C   UNL A   1      39.414  31.455  32.564  1.00  0.00     0.049 A 
ATOM     44  H   UNL A   1      40.352  30.190  31.194  1.00  0.00     0.167 HD
ATOM     45  C   UNL A   1      42.131  27.227  28.672  1.00  0.00     0.037 A 
ATOM     46  C   UNL A   1      40.018  31.394  33.770  1.00  0.00     0.037 A 
ATOM     47  C   UNL A   1      42.805  27.015  29.932  1.00  0.00     0.049 A 
ATOM     48  C   UNL A   1      41.092  30.378  34.003  1.00  0.00     0.074 A 
ATOM     49  C   UNL A   1      43.861  26.165  30.220  1.00  0.00     0.029 A 
ATOM     50  N   UNL A   1      42.522  27.702  31.101  1.00  0.00    -0.354 N 
ATOM     51  N   UNL A   1      41.624  29.535  33.156  1.00  0.00    -0.248 NA
ATOM     52  C   UNL A   1      41.618  30.274  35.370  1.00  0.00     0.031 C 
ATOM     53  C   UNL A   1      44.183  26.303  31.575  1.00  0.00     0.029 A 
ATOM     54  C   UNL A   1      43.369  27.282  32.116  1.00  0.00     0.049 A 
ATOM     55  H   UNL A   1      41.822  28.388  31.198  1.00  0.00     0.167 HD
ATOM     56  C   UNL A   1      42.555  28.808  33.882  1.00  0.00     0.074 A 
ATOM     57  C   UNL A   1      42.531  29.323  35.235  1.00  0.00     0.031 C 
ATOM     58  C   UNL A   1      43.352  27.798  33.460  1.00  0.00     0.037 A 
BRANCH  45  59
ATOM     59  C   UNL A   1      42.560  26.377  27.503  1.00  0.00     0.064 A 
ATOM     60  C   UNL A   1      43.622  26.712  26.653  1.00  0.00     0.173 A 
ATOM     61  C   UNL A   1      41.896  25.159  27.260  1.00  0.00     0.173 A 
ATOM     62  F   UNL A   1      44.294  27.859  26.831  1.00  0.00    -0.203 F 
ATOM     63  C   UNL A   1      43.976  25.886  25.585  1.00  0.00     0.198 A 
ATOM     64  C   UNL A   1      42.275  24.320  26.216  1.00  0.00     0.198 A 
ATOM     65  F   UNL A   1      40.883  24.773  28.051  1.00  0.00    -0.203 F 
ATOM     66  F   UNL A   1      44.958  26.256  24.751  1.00  0.00    -0.200 F 
ATOM     67  C   UNL A   1      43.307  24.690  25.371  1.00  0.00     0.200 A 
ATOM     68  F   UNL A   1      41.639  23.154  26.029  1.00  0.00    -0.200 F 
ATOM     69  F   UNL A   1      43.653  23.897  24.347  1.00  0.00    -0.200 F 
ENDBRANCH  45  59
BRANCH  46  70
ATOM     70  C   UNL A   1      39.500  32.222  34.903  1.00  0.00     0.064 A 
ATOM     71  C   UNL A   1      38.626  31.690  35.860  1.00  0.00     0.173 A 
ATOM     72  C   UNL A   1      39.879  33.569  35.052  1.00  0.00     0.173 A 
ATOM     73  F   UNL A   1      38.194  30.426  35.744  1.00  0.00    -0.203 F 
ATOM     74  C   UNL A   1      38.157  32.469  36.920  1.00  0.00     0.198 A 
ATOM     75  C   UNL A   1      39.448  34.329  36.136  1.00  0.00     0.198 A 
ATOM     76  F   UNL A   1      40.704  34.139  34.159  1.00  0.00    -0.203 F 
ATOM     77  F   UNL A   1      37.284  31.950  37.794  1.00  0.00    -0.200 F 
ATOM     78  C   UNL A   1      38.581  33.781  37.065  1.00  0.00     0.200 A 
ATOM     79  F   UNL A   1      39.881  35.590  36.280  1.00  0.00    -0.200 F 
ATOM     80  F   UNL A   1      38.147  34.520  38.095  1.00  0.00    -0.200 F 
ENDBRANCH  46  70
BRANCH  58  81
ATOM     81  C   UNL A   1      44.304  27.214  34.461  1.00  0.00     0.064 A 
ATOM     82  C   UNL A   1      43.974  26.082  35.219  1.00  0.00     0.173 A 
ATOM     83  C   UNL A   1      45.570  27.789  34.650  1.00  0.00     0.173 A 
ATOM     84  F   UNL A   1      42.766  25.512  35.091  1.00  0.00    -0.203 F 
ATOM     85  C   UNL A   1      44.868  25.559  36.148  1.00  0.00     0.198 A 
ATOM     86  C   UNL A   1      46.472  27.245  35.557  1.00  0.00     0.198 A 
ATOM     87  F   UNL A   1      45.931  28.875  33.950  1.00  0.00    -0.203 F 
ATOM     88  F   UNL A   1      44.515  24.508  36.899  1.00  0.00    -0.200 F 
ATOM     89  C   UNL A   1      46.120  26.136  36.310  1.00  0.00     0.200 A 
ATOM     90  F   UNL A   1      47.685  27.798  35.706  1.00  0.00    -0.200 F 
ATOM     91  F   UNL A   1      46.982  25.627  37.201  1.00  0.00    -0.200 F 
ENDBRANCH  58  81
ENDBRANCH  32  33
ENDBRANCH  25  27
ENDBRANCH  24  25
ENDBRANCH  23  24
ENDBRANCH   1  23
TORSDOF 15
ENDMDL
MODEL 3
REMARK VINA RESULT:     -12.1      1.192      2.524
REMARK SMILES CCN(Cc1ccccn1)c1nc(C)cc(C)c1C(=O)OCCOC(=O)c1ccc(-c2c3nc(c(-c4c(F)c(F)c(F)c(F)c4F)c4ccc([nH]4)c(-c4c(F)c(F)c(F)c(F)c4F)c4nc(c(-c5c(F)c(F)c(F)c(F)c5F)c5ccc2[nH]5)C=C4)C=C3)cc1
REMARK SMILES IDX 22 1 21 2 19 3 20 4 18 5 11 6 12 7 13 8 16 9 14 10 15 11
REMARK SMILES IDX 17 12 3 13 2 14 1 15 4 16 5 17 6 18 10 19 7 20 9 21 8 22
REMARK SMILES IDX 23 23 24 24 25 25 26 26 27 27 28 28 89 29 29 30 88 31 30 32
REMARK SMILES IDX 31 33 32 34 82 35 33 36 87 37 81 38 83 39 34 40 86 41 80 42
REMARK SMILES IDX 79 43 35 45 67 46 47 47 66 48 48 49 51 50 65 51 84 52 49 53
REMARK SMILES IDX 50 54 64 56 85 57 52 58 36 59 37 60 45 61 38 62 39 63 43 64
REMARK SMILES IDX 46 65 40 66 41 67 44 68 42 69 68 70 69 71 77 72 70 73 71 74
REMARK SMILES IDX 75 75 78 76 72 77 73 78 76 79 74 80 53 81 54 82 62 83 55 84
REMARK SMILES IDX 56 85 60 86 63 87 57 88 58 89 61 90 59 91
REMARK H PARENT 83 44 51 55
REMARK Flexibility Score: inf
ROOT
ATOM      1  C   UNL A   1      31.789  28.172  27.480  1.00  0.00     0.275 C 
ENDROOT
BRANCH   1   2
ATOM      2  O   UNL A   1      32.447  27.436  26.419  1.00  0.00    -0.458 OA
BRANCH   2   3
ATOM      3  C   UNL A   1      31.725  26.420  25.867  1.00  0.00     0.342 C 
ATOM      4  O   UNL A   1      30.983  25.660  26.471  1.00  0.00    -0.246 OA
BRANCH   3   5
ATOM      5  C   UNL A   1      32.019  26.289  24.421  1.00  0.00     0.105 A 
ATOM      6  C   UNL A   1      31.183  26.818  23.414  1.00  0.00     0.144 A 
ATOM      7  N   UNL A   1      31.403  26.494  22.120  1.00  0.00    -0.235 NA
ATOM      8  C   UNL A   1      32.446  25.712  21.775  1.00  0.00     0.040 A 
ATOM      9  C   UNL A   1      33.100  25.454  24.066  1.00  0.00    -0.031 A 
ATOM     10  C   UNL A   1      32.640  25.503  20.306  1.00  0.00     0.067 C 
ATOM     11  C   UNL A   1      33.322  25.190  22.712  1.00  0.00     0.028 A 
ATOM     12  C   UNL A   1      34.015  24.859  25.100  1.00  0.00     0.045 C 
BRANCH   6  13
ATOM     13  N   UNL A   1      30.158  27.718  23.590  1.00  0.00    -0.350 N 
BRANCH  13  14
ATOM     14  C   UNL A   1      28.783  27.350  23.391  1.00  0.00     0.115 C 
ATOM     15  C   UNL A   1      28.454  26.180  24.307  1.00  0.00     0.027 C 
ENDBRANCH  13  14
BRANCH  13  16
ATOM     16  C   UNL A   1      30.452  29.131  23.879  1.00  0.00     0.174 C 
BRANCH  16  17
ATOM     17  C   UNL A   1      29.652  30.188  23.142  1.00  0.00     0.060 A 
ATOM     18  C   UNL A   1      28.975  31.210  23.805  1.00  0.00     0.026 A 
ATOM     19  N   UNL A   1      29.518  29.991  21.801  1.00  0.00    -0.259 NA
ATOM     20  C   UNL A   1      28.175  32.081  23.066  1.00  0.00     0.004 A 
ATOM     21  C   UNL A   1      28.749  30.859  21.110  1.00  0.00     0.111 A 
ATOM     22  C   UNL A   1      28.064  31.909  21.692  1.00  0.00     0.020 A 
ENDBRANCH  16  17
ENDBRANCH  13  16
ENDBRANCH   6  13
ENDBRANCH   3   5
ENDBRANCH   2   3
ENDBRANCH   1   2
BRANCH   1  23
ATOM     23  C   UNL A   1      31.785  29.681  27.157  1.00  0.00     0.275 C 
BRANCH  23  24
ATOM     24  O   UNL A   1      33.108  30.126  26.768  1.00  0.00    -0.458 OA
BRANCH  24  25
ATOM     25  C   UNL A   1      33.644  31.202  27.413  1.00  0.00     0.338 C 
ATOM     26  O   UNL A   1      33.017  32.133  27.894  1.00  0.00    -0.246 OA
BRANCH  25  27
ATOM     27  C   UNL A   1      35.119  31.012  27.607  1.00  0.00     0.060 A 
ATOM     28  C   UNL A   1      35.652  29.743  27.678  1.00  0.00     0.016 A 
ATOM     29  C   UNL A   1      35.979  32.070  27.898  1.00  0.00     0.016 A 
ATOM     30  C   UNL A   1      36.849  29.529  28.373  1.00  0.00     0.010 A 
ATOM     31  C   UNL A   1      37.285  31.826  28.402  1.00  0.00     0.010 A 
ATOM     32  C   UNL A   1      37.714  30.541  28.792  1.00  0.00    -0.014 A 
BRANCH  32  33
ATOM     33  C   UNL A   1      38.978  30.279  29.628  1.00  0.00     0.031 A 
ATOM     34  C   UNL A   1      40.107  29.417  29.055  1.00  0.00     0.074 A 
ATOM     35  C   UNL A   1      39.254  30.804  30.855  1.00  0.00     0.049 A 
ATOM     36  N   UNL A   1      40.976  28.648  29.671  1.00  0.00    -0.248 NA
ATOM     37  C   UNL A   1      40.271  29.417  27.592  1.00  0.00     0.031 C 
ATOM     38  C   UNL A   1      38.497  31.812  31.597  1.00  0.00     0.029 A 
ATOM     39  N   UNL A   1      40.307  30.535  31.727  1.00  0.00    -0.354 N 
ATOM     40  C   UNL A   1      41.672  27.966  28.674  1.00  0.00     0.074 A 
ATOM     41  C   UNL A   1      41.156  28.446  27.410  1.00  0.00     0.031 C 
ATOM     42  C   UNL A   1      39.118  32.122  32.737  1.00  0.00     0.029 A 
ATOM     43  C   UNL A   1      40.199  31.182  32.940  1.00  0.00     0.049 A 
ATOM     44  H   UNL A   1      41.056  29.939  31.499  1.00  0.00     0.167 HD
ATOM     45  C   UNL A   1      42.635  27.016  28.803  1.00  0.00     0.037 A 
ATOM     46  C   UNL A   1      40.772  30.989  34.147  1.00  0.00     0.037 A 
ATOM     47  C   UNL A   1      43.264  26.663  30.055  1.00  0.00     0.049 A 
ATOM     48  C   UNL A   1      41.753  29.873  34.324  1.00  0.00     0.074 A 
ATOM     49  C   UNL A   1      44.240  25.710  30.298  1.00  0.00     0.029 A 
ATOM     50  N   UNL A   1      43.015  27.290  31.265  1.00  0.00    -0.354 N 
ATOM     51  N   UNL A   1      42.231  29.048  33.429  1.00  0.00    -0.248 NA
ATOM     52  C   UNL A   1      42.242  29.632  35.689  1.00  0.00     0.031 C 
ATOM     53  C   UNL A   1      44.545  25.728  31.664  1.00  0.00     0.029 A 
ATOM     54  C   UNL A   1      43.803  26.733  32.260  1.00  0.00     0.049 A 
ATOM     55  H   UNL A   1      42.372  28.025  31.399  1.00  0.00     0.167 HD
ATOM     56  C   UNL A   1      43.084  28.198  34.116  1.00  0.00     0.074 A 
ATOM     57  C   UNL A   1      43.076  28.620  35.500  1.00  0.00     0.031 C 
ATOM     58  C   UNL A   1      43.802  27.156  33.636  1.00  0.00     0.037 A 
BRANCH  45  59
ATOM     59  C   UNL A   1      43.015  26.215  27.584  1.00  0.00     0.064 A 
ATOM     60  C   UNL A   1      44.065  26.566  26.726  1.00  0.00     0.173 A 
ATOM     61  C   UNL A   1      42.316  25.026  27.299  1.00  0.00     0.173 A 
ATOM     62  F   UNL A   1      44.768  27.686  26.942  1.00  0.00    -0.203 F 
ATOM     63  C   UNL A   1      44.373  25.785  25.610  1.00  0.00     0.198 A 
ATOM     64  C   UNL A   1      42.649  24.230  26.206  1.00  0.00     0.198 A 
ATOM     65  F   UNL A   1      41.312  24.625  28.095  1.00  0.00    -0.203 F 
ATOM     66  F   UNL A   1      45.345  26.172  24.771  1.00  0.00    -0.200 F 
ATOM     67  C   UNL A   1      43.670  24.617  25.355  1.00  0.00     0.200 A 
ATOM     68  F   UNL A   1      41.980  23.090  25.979  1.00  0.00    -0.200 F 
ATOM     69  F   UNL A   1      43.972  23.867  24.286  1.00  0.00    -0.200 F 
ENDBRANCH  45  59
BRANCH  46  70
ATOM     70  C   UNL A   1      40.302  31.778  35.328  1.00  0.00     0.064 A 
ATOM     71  C   UNL A   1      40.991  32.914  35.772  1.00  0.00     0.173 A 
ATOM     72  C   UNL A   1      39.143  31.408  36.035  1.00  0.00     0.173 A 
ATOM     73  F   UNL A   1      42.128  33.287  35.166  1.00  0.00    -0.203 F 
ATOM     74  C   UNL A   1      40.539  33.649  36.869  1.00  0.00     0.198 A 
ATOM     75  C   UNL A   1      38.667  32.170  37.099  1.00  0.00     0.198 A 
ATOM     76  F   UNL A   1      38.447  30.321  35.667  1.00  0.00    -0.203 F 
ATOM     77  F   UNL A   1      41.243  34.703  37.302  1.00  0.00    -0.200 F 
ATOM     78  C   UNL A   1      39.370  33.286  37.520  1.00  0.00     0.200 A 
ATOM     79  F   UNL A   1      37.524  31.824  37.709  1.00  0.00    -0.200 F 
ATOM     80  F   UNL A   1      38.925  34.006  38.560  1.00  0.00    -0.200 F 
ENDBRANCH  46  70
BRANCH  58  81
ATOM     81  C   UNL A   1      44.683  26.428  34.607  1.00  0.00     0.064 A 
ATOM     82  C   UNL A   1      45.975  26.879  34.914  1.00  0.00     0.173 A 
ATOM     83  C   UNL A   1      44.218  25.271  35.251  1.00  0.00     0.173 A 
ATOM     84  F   UNL A   1      46.472  27.966  34.305  1.00  0.00    -0.203 F 
ATOM     85  C   UNL A   1      46.779  26.185  35.813  1.00  0.00     0.198 A 
ATOM     86  C   UNL A   1      45.014  24.597  36.172  1.00  0.00     0.198 A 
ATOM     87  F   UNL A   1      42.990  24.798  34.990  1.00  0.00    -0.203 F 
ATOM     88  F   UNL A   1      48.028  26.603  36.053  1.00  0.00    -0.200 F 
ATOM     89  C   UNL A   1      46.295  25.050  36.447  1.00  0.00     0.200 A 
ATOM     90  F   UNL A   1      44.541  23.506  36.791  1.00  0.00    -0.200 F 
ATOM     91  F   UNL A   1      47.069  24.386  37.317  1.00  0.00    -0.200 F 
ENDBRANCH  58  81
ENDBRANCH  32  33
ENDBRANCH  25  27
ENDBRANCH  24  25
ENDBRANCH  23  24
ENDBRANCH   1  23
TORSDOF 15
ENDMDL
