MODEL 1
REMARK VINA RESULT:     -13.8      0.000      0.000
REMARK SMILES O=C(OCCOC(=O)c1nnn(-c2cccc(Br)c2)c1[C@@H]1COc2ccccc2O1)c1ccc(-c2c3nc(c(-c4c(F)c(F)c(F)c(F)c4F)c4ccc([nH]4)c(-c4c(F)c(F)c(F)c(F)c4F)c4nc(c(-c5c(F)c(F)c(F)c(F)c5F)c5ccc2[nH]5)C=C4)C=C3)cc1
REMARK SMILES IDX 4 1 3 2 2 3 1 4 31 5 32 6 93 7 33 8 92 9 34 10 35 11 36 12
REMARK SMILES IDX 86 13 37 14 91 15 85 16 87 17 38 18 90 19 84 20 83 21 39 23
REMARK SMILES IDX 71 24 51 25 70 26 52 27 55 28 69 29 88 30 53 31 54 32 68 34
REMARK SMILES IDX 89 35 56 36 40 37 41 38 49 39 42 40 43 41 47 42 50 43 44 44
REMARK SMILES IDX 45 45 48 46 46 47 72 48 73 49 81 50 74 51 75 52 79 53 82 54
REMARK SMILES IDX 76 55 77 56 80 57 78 58 57 59 58 60 66 61 59 62 60 63 64 64
REMARK SMILES IDX 67 65 61 66 62 67 65 68 63 69 5 70 6 71 7 72 8 73 9 74 10 75
REMARK SMILES IDX 20 76 11 77 12 78 21 79 22 80 30 81 23 82 29 83 24 84 28 85
REMARK SMILES IDX 25 86 27 87 26 88 13 89 14 90 19 91 15 92 17 93 16 94 18 95
REMARK H PARENT 87 22 55 33
REMARK Flexibility Score: inf
ROOT
ATOM      1  C   UNL A   1      33.562  31.128  27.216  1.00  0.00     0.275 C 
ENDROOT
BRANCH   1   2
ATOM      2  O   UNL A   1      34.433  31.366  28.332  1.00  0.00    -0.458 OA
BRANCH   2   3
ATOM      3  C   UNL A   1      35.557  32.088  28.115  1.00  0.00     0.338 C 
ATOM      4  O   UNL A   1      35.635  33.168  27.577  1.00  0.00    -0.246 OA
BRANCH   3   5
ATOM      5  C   UNL A   1      36.707  31.290  28.587  1.00  0.00     0.060 A 
ATOM      6  C   UNL A   1      37.823  31.907  29.169  1.00  0.00     0.016 A 
ATOM      7  C   UNL A   1      36.643  29.903  28.443  1.00  0.00     0.016 A 
ATOM      8  C   UNL A   1      38.942  31.154  29.447  1.00  0.00     0.010 A 
ATOM      9  C   UNL A   1      37.756  29.142  28.750  1.00  0.00     0.010 A 
ATOM     10  C   UNL A   1      38.921  29.785  29.168  1.00  0.00    -0.014 A 
BRANCH  10  11
ATOM     11  C   UNL A   1      40.173  29.064  29.312  1.00  0.00     0.031 A 
ATOM     12  C   UNL A   1      40.649  28.872  30.709  1.00  0.00     0.074 A 
ATOM     13  C   UNL A   1      40.826  28.582  28.238  1.00  0.00     0.049 A 
ATOM     14  N   UNL A   1      41.760  29.271  31.240  1.00  0.00    -0.248 NA
ATOM     15  C   UNL A   1      39.727  28.231  31.660  1.00  0.00     0.031 C 
ATOM     16  C   UNL A   1      40.363  28.482  26.850  1.00  0.00     0.029 A 
ATOM     17  N   UNL A   1      42.050  27.994  28.190  1.00  0.00    -0.354 N 
ATOM     18  C   UNL A   1      41.753  28.801  32.552  1.00  0.00     0.074 A 
ATOM     19  C   UNL A   1      40.441  28.255  32.786  1.00  0.00     0.031 C 
ATOM     20  C   UNL A   1      41.193  27.668  26.158  1.00  0.00     0.029 A 
ATOM     21  C   UNL A   1      42.315  27.318  27.010  1.00  0.00     0.049 A 
ATOM     22  H   UNL A   1      42.695  28.044  28.933  1.00  0.00     0.167 HD
ATOM     23  C   UNL A   1      42.891  28.738  33.298  1.00  0.00     0.037 A 
ATOM     24  C   UNL A   1      43.355  26.478  26.788  1.00  0.00     0.037 A 
ATOM     25  C   UNL A   1      43.899  29.635  32.802  1.00  0.00     0.049 A 
ATOM     26  C   UNL A   1      44.395  26.779  27.804  1.00  0.00     0.074 A 
ATOM     27  C   UNL A   1      43.981  31.008  32.670  1.00  0.00     0.029 A 
ATOM     28  N   UNL A   1      44.904  29.132  32.014  1.00  0.00    -0.354 N 
ATOM     29  N   UNL A   1      45.078  27.889  27.833  1.00  0.00    -0.248 NA
ATOM     30  C   UNL A   1      44.338  26.046  29.061  1.00  0.00     0.031 C 
ATOM     31  C   UNL A   1      44.659  31.217  31.433  1.00  0.00     0.029 A 
ATOM     32  C   UNL A   1      45.004  29.964  30.926  1.00  0.00     0.049 A 
ATOM     33  H   UNL A   1      45.447  28.331  32.193  1.00  0.00     0.167 HD
ATOM     34  C   UNL A   1      45.178  28.209  29.179  1.00  0.00     0.074 A 
ATOM     35  C   UNL A   1      44.764  27.001  29.890  1.00  0.00     0.031 C 
ATOM     36  C   UNL A   1      45.311  29.502  29.594  1.00  0.00     0.037 A 
BRANCH  23  37
ATOM     37  C   UNL A   1      43.190  27.641  34.287  1.00  0.00     0.064 A 
ATOM     38  C   UNL A   1      43.561  26.363  33.824  1.00  0.00     0.173 A 
ATOM     39  C   UNL A   1      42.836  27.716  35.652  1.00  0.00     0.173 A 
ATOM     40  F   UNL A   1      43.896  26.172  32.539  1.00  0.00    -0.203 F 
ATOM     41  C   UNL A   1      43.511  25.236  34.650  1.00  0.00     0.198 A 
ATOM     42  C   UNL A   1      42.834  26.599  36.484  1.00  0.00     0.198 A 
ATOM     43  F   UNL A   1      42.373  28.844  36.204  1.00  0.00    -0.203 F 
ATOM     44  F   UNL A   1      43.757  24.023  34.136  1.00  0.00    -0.200 F 
ATOM     45  C   UNL A   1      43.140  25.354  35.977  1.00  0.00     0.200 A 
ATOM     46  F   UNL A   1      42.451  26.729  37.762  1.00  0.00    -0.200 F 
ATOM     47  F   UNL A   1      43.029  24.267  36.752  1.00  0.00    -0.200 F 
ENDBRANCH  23  37
BRANCH  24  48
ATOM     48  C   UNL A   1      43.330  25.214  26.016  1.00  0.00     0.064 A 
ATOM     49  C   UNL A   1      44.348  24.899  25.104  1.00  0.00     0.173 A 
ATOM     50  C   UNL A   1      42.452  24.167  26.363  1.00  0.00     0.173 A 
ATOM     51  F   UNL A   1      45.256  25.825  24.761  1.00  0.00    -0.203 F 
ATOM     52  C   UNL A   1      44.489  23.608  24.582  1.00  0.00     0.198 A 
ATOM     53  C   UNL A   1      42.589  22.883  25.837  1.00  0.00     0.198 A 
ATOM     54  F   UNL A   1      41.501  24.347  27.292  1.00  0.00    -0.203 F 
ATOM     55  F   UNL A   1      45.507  23.328  23.756  1.00  0.00    -0.200 F 
ATOM     56  C   UNL A   1      43.615  22.600  24.956  1.00  0.00     0.200 A 
ATOM     57  F   UNL A   1      41.761  21.909  26.240  1.00  0.00    -0.200 F 
ATOM     58  F   UNL A   1      43.785  21.351  24.503  1.00  0.00    -0.200 F 
ENDBRANCH  24  48
BRANCH  36  59
ATOM     59  C   UNL A   1      45.550  30.556  28.548  1.00  0.00     0.064 A 
ATOM     60  C   UNL A   1      44.520  31.200  27.840  1.00  0.00     0.173 A 
ATOM     61  C   UNL A   1      46.852  31.042  28.371  1.00  0.00     0.173 A 
ATOM     62  F   UNL A   1      43.238  30.869  28.033  1.00  0.00    -0.203 F 
ATOM     63  C   UNL A   1      44.789  32.251  26.962  1.00  0.00     0.198 A 
ATOM     64  C   UNL A   1      47.114  32.115  27.523  1.00  0.00     0.198 A 
ATOM     65  F   UNL A   1      47.867  30.509  29.068  1.00  0.00    -0.203 F 
ATOM     66  F   UNL A   1      43.788  32.843  26.294  1.00  0.00    -0.200 F 
ATOM     67  C   UNL A   1      46.085  32.712  26.812  1.00  0.00     0.200 A 
ATOM     68  F   UNL A   1      48.361  32.593  27.420  1.00  0.00    -0.200 F 
ATOM     69  F   UNL A   1      46.340  33.751  26.005  1.00  0.00    -0.200 F 
ENDBRANCH  36  59
ENDBRANCH  10  11
ENDBRANCH   3   5
ENDBRANCH   2   3
ENDBRANCH   1   2
BRANCH   1  70
ATOM     70  C   UNL A   1      33.828  29.847  26.424  1.00  0.00     0.275 C 
BRANCH  70  71
ATOM     71  O   UNL A   1      33.042  29.877  25.216  1.00  0.00    -0.457 OA
BRANCH  71  72
ATOM     72  C   UNL A   1      31.719  29.598  25.378  1.00  0.00     0.361 C 
ATOM     73  O   UNL A   1      30.806  30.395  25.201  1.00  0.00    -0.244 OA
BRANCH  72  74
ATOM     74  C   UNL A   1      31.488  28.235  25.817  1.00  0.00     0.198 A 
ATOM     75  N   UNL A   1      31.417  27.888  27.147  1.00  0.00    -0.122 NA
ATOM     76  C   UNL A   1      31.303  27.095  25.050  1.00  0.00     0.123 A 
ATOM     77  N   UNL A   1      31.210  26.580  27.229  1.00  0.00    -0.061 NA
ATOM     78  N   UNL A   1      31.333  26.076  25.984  1.00  0.00    -0.213 N 
BRANCH  76  79
ATOM     79  C   UNL A   1      30.989  26.849  23.610  1.00  0.00     0.262 C 
ATOM     80  C   UNL A   1      31.837  27.580  22.575  1.00  0.00     0.281 C 
ATOM     81  O   UNL A   1      29.578  27.027  23.466  1.00  0.00    -0.477 OA
ATOM     82  O   UNL A   1      31.466  28.935  22.348  1.00  0.00    -0.485 OA
ATOM     83  C   UNL A   1      29.214  28.225  22.926  1.00  0.00     0.162 A 
ATOM     84  C   UNL A   1      30.112  29.120  22.351  1.00  0.00     0.161 A 
ATOM     85  C   UNL A   1      27.859  28.550  23.008  1.00  0.00     0.050 A 
ATOM     86  C   UNL A   1      29.653  30.331  21.835  1.00  0.00     0.050 A 
ATOM     87  C   UNL A   1      27.406  29.778  22.527  1.00  0.00     0.004 A 
ATOM     88  C   UNL A   1      28.302  30.665  21.932  1.00  0.00     0.004 A 
ENDBRANCH  76  79
BRANCH  78  89
ATOM     89  C   UNL A   1      31.518  24.696  25.758  1.00  0.00     0.068 A 
ATOM     90  C   UNL A   1      30.548  23.792  26.219  1.00  0.00     0.028 A 
ATOM     91  C   UNL A   1      32.679  24.240  25.132  1.00  0.00     0.044 A 
ATOM     92  C   UNL A   1      30.773  22.422  26.116  1.00  0.00     0.003 A 
ATOM     93  C   UNL A   1      32.907  22.865  25.068  1.00  0.00     0.020 A 
ATOM     94  C   UNL A   1      31.965  21.957  25.561  1.00  0.00     0.016 A 
ATOM     95  Br  UNL A   1      34.538  22.221  24.359  1.00  0.00    -0.051 Br
ENDBRANCH  78  89
ENDBRANCH  72  74
ENDBRANCH  71  72
ENDBRANCH  70  71
ENDBRANCH   1  70
TORSDOF 13
ENDMDL
MODEL 2
REMARK VINA RESULT:     -13.8      3.999      9.153
REMARK SMILES O=C(OCCOC(=O)c1nnn(-c2cccc(Br)c2)c1[C@@H]1COc2ccccc2O1)c1ccc(-c2c3nc(c(-c4c(F)c(F)c(F)c(F)c4F)c4ccc([nH]4)c(-c4c(F)c(F)c(F)c(F)c4F)c4nc(c(-c5c(F)c(F)c(F)c(F)c5F)c5ccc2[nH]5)C=C4)C=C3)cc1
REMARK SMILES IDX 4 1 3 2 2 3 1 4 31 5 32 6 93 7 33 8 92 9 34 10 35 11 36 12
REMARK SMILES IDX 86 13 37 14 91 15 85 16 87 17 38 18 90 19 84 20 83 21 39 23
REMARK SMILES IDX 71 24 51 25 70 26 52 27 55 28 69 29 88 30 53 31 54 32 68 34
REMARK SMILES IDX 89 35 56 36 40 37 41 38 49 39 42 40 43 41 47 42 50 43 44 44
REMARK SMILES IDX 45 45 48 46 46 47 72 48 73 49 81 50 74 51 75 52 79 53 82 54
REMARK SMILES IDX 76 55 77 56 80 57 78 58 57 59 58 60 66 61 59 62 60 63 64 64
REMARK SMILES IDX 67 65 61 66 62 67 65 68 63 69 5 70 6 71 7 72 8 73 9 74 10 75
REMARK SMILES IDX 20 76 11 77 12 78 21 79 22 80 30 81 23 82 29 83 24 84 28 85
REMARK SMILES IDX 25 86 27 87 26 88 13 89 14 90 19 91 15 92 17 93 16 94 18 95
REMARK H PARENT 87 22 55 33
REMARK Flexibility Score: inf
ROOT
ATOM      1  C   UNL A   1      38.609  21.676  25.824  1.00  0.00     0.275 C 
ENDROOT
BRANCH   1   2
ATOM      2  O   UNL A   1      39.842  22.402  25.952  1.00  0.00    -0.458 OA
BRANCH   2   3
ATOM      3  C   UNL A   1      40.391  22.506  27.184  1.00  0.00     0.338 C 
ATOM      4  O   UNL A   1      40.590  21.608  27.969  1.00  0.00    -0.246 OA
BRANCH   3   5
ATOM      5  C   UNL A   1      40.645  23.936  27.449  1.00  0.00     0.060 A 
ATOM      6  C   UNL A   1      41.603  24.337  28.391  1.00  0.00     0.016 A 
ATOM      7  C   UNL A   1      39.907  24.876  26.725  1.00  0.00     0.016 A 
ATOM      8  C   UNL A   1      41.699  25.669  28.731  1.00  0.00     0.010 A 
ATOM      9  C   UNL A   1      40.025  26.216  27.046  1.00  0.00     0.010 A 
ATOM     10  C   UNL A   1      40.857  26.588  28.102  1.00  0.00    -0.014 A 
BRANCH  10  11
ATOM     11  C   UNL A   1      40.869  27.948  28.611  1.00  0.00     0.031 A 
ATOM     12  C   UNL A   1      42.007  28.794  28.162  1.00  0.00     0.074 A 
ATOM     13  C   UNL A   1      39.884  28.400  29.411  1.00  0.00     0.049 A 
ATOM     14  N   UNL A   1      42.904  29.382  28.887  1.00  0.00    -0.248 NA
ATOM     15  C   UNL A   1      42.226  28.928  26.714  1.00  0.00     0.031 C 
ATOM     16  C   UNL A   1      38.599  27.771  29.731  1.00  0.00     0.029 A 
ATOM     17  N   UNL A   1      39.806  29.592  30.059  1.00  0.00    -0.354 N 
ATOM     18  C   UNL A   1      43.715  30.090  28.001  1.00  0.00     0.074 A 
ATOM     19  C   UNL A   1      43.315  29.697  26.674  1.00  0.00     0.031 C 
ATOM     20  C   UNL A   1      37.787  28.682  30.314  1.00  0.00     0.029 A 
ATOM     21  C   UNL A   1      38.544  29.900  30.541  1.00  0.00     0.049 A 
ATOM     22  H   UNL A   1      40.582  30.187  30.176  1.00  0.00     0.167 HD
ATOM     23  C   UNL A   1      44.544  31.084  28.424  1.00  0.00     0.037 A 
ATOM     24  C   UNL A   1      38.146  31.101  31.027  1.00  0.00     0.037 A 
ATOM     25  C   UNL A   1      44.852  30.957  29.823  1.00  0.00     0.049 A 
ATOM     26  C   UNL A   1      39.369  31.853  31.408  1.00  0.00     0.074 A 
ATOM     27  C   UNL A   1      45.502  30.001  30.579  1.00  0.00     0.029 A 
ATOM     28  N   UNL A   1      44.169  31.733  30.725  1.00  0.00    -0.354 N 
ATOM     29  N   UNL A   1      40.144  31.517  32.402  1.00  0.00    -0.248 NA
ATOM     30  C   UNL A   1      39.982  32.698  30.394  1.00  0.00     0.031 C 
ATOM     31  C   UNL A   1      44.763  29.934  31.797  1.00  0.00     0.029 A 
ATOM     32  C   UNL A   1      43.755  30.896  31.731  1.00  0.00     0.049 A 
ATOM     33  H   UNL A   1      44.006  32.702  30.663  1.00  0.00     0.167 HD
ATOM     34  C   UNL A   1      41.431  31.744  31.939  1.00  0.00     0.074 A 
ATOM     35  C   UNL A   1      41.266  32.537  30.722  1.00  0.00     0.031 C 
ATOM     36  C   UNL A   1      42.494  31.036  32.418  1.00  0.00     0.037 A 
BRANCH  23  37
ATOM     37  C   UNL A   1      44.825  32.338  27.638  1.00  0.00     0.064 A 
ATOM     38  C   UNL A   1      46.032  32.458  26.920  1.00  0.00     0.173 A 
ATOM     39  C   UNL A   1      44.095  33.535  27.807  1.00  0.00     0.173 A 
ATOM     40  F   UNL A   1      46.816  31.389  26.717  1.00  0.00    -0.203 F 
ATOM     41  C   UNL A   1      46.502  33.696  26.470  1.00  0.00     0.198 A 
ATOM     42  C   UNL A   1      44.544  34.759  27.315  1.00  0.00     0.198 A 
ATOM     43  F   UNL A   1      42.981  33.587  28.548  1.00  0.00    -0.203 F 
ATOM     44  F   UNL A   1      47.711  33.779  25.897  1.00  0.00    -0.200 F 
ATOM     45  C   UNL A   1      45.762  34.845  26.675  1.00  0.00     0.200 A 
ATOM     46  F   UNL A   1      43.823  35.866  27.543  1.00  0.00    -0.200 F 
ATOM     47  F   UNL A   1      46.241  36.040  26.302  1.00  0.00    -0.200 F 
ENDBRANCH  23  37
BRANCH  24  48
ATOM     48  C   UNL A   1      36.834  31.756  30.820  1.00  0.00     0.064 A 
ATOM     49  C   UNL A   1      35.967  32.003  31.895  1.00  0.00     0.173 A 
ATOM     50  C   UNL A   1      36.527  32.401  29.605  1.00  0.00     0.173 A 
ATOM     51  F   UNL A   1      36.218  31.469  33.099  1.00  0.00    -0.203 F 
ATOM     52  C   UNL A   1      34.867  32.858  31.765  1.00  0.00     0.198 A 
ATOM     53  C   UNL A   1      35.426  33.247  29.476  1.00  0.00     0.198 A 
ATOM     54  F   UNL A   1      37.343  32.297  28.545  1.00  0.00    -0.203 F 
ATOM     55  F   UNL A   1      34.091  33.115  32.828  1.00  0.00    -0.200 F 
ATOM     56  C   UNL A   1      34.602  33.486  30.559  1.00  0.00     0.200 A 
ATOM     57  F   UNL A   1      35.207  33.879  28.313  1.00  0.00    -0.200 F 
ATOM     58  F   UNL A   1      33.584  34.349  30.451  1.00  0.00    -0.200 F 
ENDBRANCH  24  48
BRANCH  36  59
ATOM     59  C   UNL A   1      42.266  30.143  33.607  1.00  0.00     0.064 A 
ATOM     60  C   UNL A   1      41.827  28.810  33.509  1.00  0.00     0.173 A 
ATOM     61  C   UNL A   1      42.656  30.598  34.873  1.00  0.00     0.173 A 
ATOM     62  F   UNL A   1      41.539  28.265  32.321  1.00  0.00    -0.203 F 
ATOM     63  C   UNL A   1      41.740  27.990  34.634  1.00  0.00     0.198 A 
ATOM     64  C   UNL A   1      42.604  29.766  35.989  1.00  0.00     0.198 A 
ATOM     65  F   UNL A   1      43.143  31.840  35.019  1.00  0.00    -0.203 F 
ATOM     66  F   UNL A   1      41.312  26.724  34.512  1.00  0.00    -0.200 F 
ATOM     67  C   UNL A   1      42.137  28.466  35.871  1.00  0.00     0.200 A 
ATOM     68  F   UNL A   1      43.038  30.214  37.174  1.00  0.00    -0.200 F 
ATOM     69  F   UNL A   1      42.098  27.665  36.944  1.00  0.00    -0.200 F 
ENDBRANCH  36  59
ENDBRANCH  10  11
ENDBRANCH   3   5
ENDBRANCH   2   3
ENDBRANCH   1   2
BRANCH   1  70
ATOM     70  C   UNL A   1      37.337  22.461  26.146  1.00  0.00     0.275 C 
BRANCH  70  71
ATOM     71  O   UNL A   1      36.230  21.540  26.219  1.00  0.00    -0.457 OA
BRANCH  71  72
ATOM     72  C   UNL A   1      35.810  21.043  25.022  1.00  0.00     0.361 C 
ATOM     73  O   UNL A   1      35.868  19.866  24.691  1.00  0.00    -0.244 OA
BRANCH  72  74
ATOM     74  C   UNL A   1      35.296  22.075  24.141  1.00  0.00     0.198 A 
ATOM     75  N   UNL A   1      36.104  22.783  23.280  1.00  0.00    -0.122 NA
ATOM     76  C   UNL A   1      33.992  22.521  23.995  1.00  0.00     0.123 A 
ATOM     77  N   UNL A   1      35.352  23.655  22.621  1.00  0.00    -0.061 NA
ATOM     78  N   UNL A   1      34.126  23.633  23.182  1.00  0.00    -0.213 N 
BRANCH  76  79
ATOM     79  C   UNL A   1      32.657  21.988  24.403  1.00  0.00     0.262 C 
ATOM     80  C   UNL A   1      32.491  21.559  25.857  1.00  0.00     0.281 C 
ATOM     81  O   UNL A   1      32.304  20.994  23.438  1.00  0.00    -0.477 OA
ATOM     82  O   UNL A   1      33.017  20.272  26.164  1.00  0.00    -0.485 OA
ATOM     83  C   UNL A   1      32.497  19.710  23.856  1.00  0.00     0.162 A 
ATOM     84  C   UNL A   1      32.796  19.360  25.170  1.00  0.00     0.161 A 
ATOM     85  C   UNL A   1      32.419  18.725  22.871  1.00  0.00     0.050 A 
ATOM     86  C   UNL A   1      32.992  18.022  25.506  1.00  0.00     0.050 A 
ATOM     87  C   UNL A   1      32.654  17.390  23.200  1.00  0.00     0.004 A 
ATOM     88  C   UNL A   1      32.932  17.037  24.519  1.00  0.00     0.004 A 
ENDBRANCH  76  79
BRANCH  78  89
ATOM     89  C   UNL A   1      33.191  24.666  22.964  1.00  0.00     0.068 A 
ATOM     90  C   UNL A   1      32.719  24.896  21.663  1.00  0.00     0.028 A 
ATOM     91  C   UNL A   1      32.790  25.480  24.024  1.00  0.00     0.044 A 
ATOM     92  C   UNL A   1      31.894  25.988  21.407  1.00  0.00     0.003 A 
ATOM     93  C   UNL A   1      31.992  26.591  23.747  1.00  0.00     0.020 A 
ATOM     94  C   UNL A   1      31.549  26.851  22.447  1.00  0.00     0.016 A 
ATOM     95  Br  UNL A   1      31.553  27.795  25.139  1.00  0.00    -0.051 Br
ENDBRANCH  78  89
ENDBRANCH  72  74
ENDBRANCH  71  72
ENDBRANCH  70  71
ENDBRANCH   1  70
TORSDOF 13
ENDMDL
MODEL 3
REMARK VINA RESULT:     -13.8      0.711      1.276
REMARK SMILES O=C(OCCOC(=O)c1nnn(-c2cccc(Br)c2)c1[C@@H]1COc2ccccc2O1)c1ccc(-c2c3nc(c(-c4c(F)c(F)c(F)c(F)c4F)c4ccc([nH]4)c(-c4c(F)c(F)c(F)c(F)c4F)c4nc(c(-c5c(F)c(F)c(F)c(F)c5F)c5ccc2[nH]5)C=C4)C=C3)cc1
REMARK SMILES IDX 4 1 3 2 2 3 1 4 31 5 32 6 93 7 33 8 92 9 34 10 35 11 36 12
REMARK SMILES IDX 86 13 37 14 91 15 85 16 87 17 38 18 90 19 84 20 83 21 39 23
REMARK SMILES IDX 71 24 51 25 70 26 52 27 55 28 69 29 88 30 53 31 54 32 68 34
REMARK SMILES IDX 89 35 56 36 40 37 41 38 49 39 42 40 43 41 47 42 50 43 44 44
REMARK SMILES IDX 45 45 48 46 46 47 72 48 73 49 81 50 74 51 75 52 79 53 82 54
REMARK SMILES IDX 76 55 77 56 80 57 78 58 57 59 58 60 66 61 59 62 60 63 64 64
REMARK SMILES IDX 67 65 61 66 62 67 65 68 63 69 5 70 6 71 7 72 8 73 9 74 10 75
REMARK SMILES IDX 20 76 11 77 12 78 21 79 22 80 30 81 23 82 29 83 24 84 28 85
REMARK SMILES IDX 25 86 27 87 26 88 13 89 14 90 19 91 15 92 17 93 16 94 18 95
REMARK H PARENT 87 22 55 33
REMARK Flexibility Score: inf
ROOT
ATOM      1  C   UNL A   1      33.567  31.228  27.395  1.00  0.00     0.275 C 
ENDROOT
BRANCH   1   2
ATOM      2  O   UNL A   1      34.440  31.472  28.509  1.00  0.00    -0.458 OA
BRANCH   2   3
ATOM      3  C   UNL A   1      35.562  32.196  28.287  1.00  0.00     0.338 C 
ATOM      4  O   UNL A   1      35.640  33.259  27.718  1.00  0.00    -0.246 OA
BRANCH   3   5
ATOM      5  C   UNL A   1      36.710  31.422  28.801  1.00  0.00     0.060 A 
ATOM      6  C   UNL A   1      37.906  32.059  29.163  1.00  0.00     0.016 A 
ATOM      7  C   UNL A   1      36.564  30.039  28.923  1.00  0.00     0.016 A 
ATOM      8  C   UNL A   1      39.008  31.296  29.481  1.00  0.00     0.010 A 
ATOM      9  C   UNL A   1      37.663  29.275  29.271  1.00  0.00     0.010 A 
ATOM     10  C   UNL A   1      38.892  29.904  29.464  1.00  0.00    -0.014 A 
BRANCH  10  11
ATOM     11  C   UNL A   1      40.115  29.140  29.634  1.00  0.00     0.031 A 
ATOM     12  C   UNL A   1      40.620  29.035  31.030  1.00  0.00     0.074 A 
ATOM     13  C   UNL A   1      40.716  28.546  28.586  1.00  0.00     0.049 A 
ATOM     14  N   UNL A   1      41.762  29.423  31.500  1.00  0.00    -0.248 NA
ATOM     15  C   UNL A   1      39.698  28.512  32.050  1.00  0.00     0.031 C 
ATOM     16  C   UNL A   1      40.211  28.361  27.221  1.00  0.00     0.029 A 
ATOM     17  N   UNL A   1      41.911  27.901  28.555  1.00  0.00    -0.354 N 
ATOM     18  C   UNL A   1      41.771  29.056  32.845  1.00  0.00     0.074 A 
ATOM     19  C   UNL A   1      40.443  28.591  33.153  1.00  0.00     0.031 C 
ATOM     20  C   UNL A   1      40.985  27.459  26.576  1.00  0.00     0.029 A 
ATOM     21  C   UNL A   1      42.114  27.125  27.425  1.00  0.00     0.049 A 
ATOM     22  H   UNL A   1      42.578  27.979  29.275  1.00  0.00     0.167 HD
ATOM     23  C   UNL A   1      42.925  28.999  33.566  1.00  0.00     0.037 A 
ATOM     24  C   UNL A   1      43.109  26.223  27.244  1.00  0.00     0.037 A 
ATOM     25  C   UNL A   1      43.957  29.808  32.978  1.00  0.00     0.049 A 
ATOM     26  C   UNL A   1      44.190  26.554  28.209  1.00  0.00     0.074 A 
ATOM     27  C   UNL A   1      44.096  31.161  32.736  1.00  0.00     0.029 A 
ATOM     28  N   UNL A   1      44.917  29.201  32.207  1.00  0.00    -0.354 N 
ATOM     29  N   UNL A   1      44.921  27.631  28.133  1.00  0.00    -0.248 NA
ATOM     30  C   UNL A   1      44.135  25.924  29.520  1.00  0.00     0.031 C 
ATOM     31  C   UNL A   1      44.748  31.243  31.470  1.00  0.00     0.029 A 
ATOM     32  C   UNL A   1      45.024  29.940  31.055  1.00  0.00     0.049 A 
ATOM     33  H   UNL A   1      45.429  28.392  32.436  1.00  0.00     0.167 HD
ATOM     34  C   UNL A   1      45.072  28.049  29.448  1.00  0.00     0.074 A 
ATOM     35  C   UNL A   1      44.626  26.920  30.262  1.00  0.00     0.031 C 
ATOM     36  C   UNL A   1      45.273  29.363  29.756  1.00  0.00     0.037 A 
BRANCH  23  37
ATOM     37  C   UNL A   1      43.203  27.970  34.631  1.00  0.00     0.064 A 
ATOM     38  C   UNL A   1      43.523  28.386  35.939  1.00  0.00     0.173 A 
ATOM     39  C   UNL A   1      43.460  26.612  34.343  1.00  0.00     0.173 A 
ATOM     40  F   UNL A   1      43.340  29.660  36.316  1.00  0.00    -0.203 F 
ATOM     41  C   UNL A   1      44.121  27.522  36.862  1.00  0.00     0.198 A 
ATOM     42  C   UNL A   1      44.010  25.741  35.281  1.00  0.00     0.198 A 
ATOM     43  F   UNL A   1      43.293  26.103  33.116  1.00  0.00    -0.203 F 
ATOM     44  F   UNL A   1      44.517  27.991  38.053  1.00  0.00    -0.200 F 
ATOM     45  C   UNL A   1      44.371  26.203  36.529  1.00  0.00     0.200 A 
ATOM     46  F   UNL A   1      44.266  24.472  34.933  1.00  0.00    -0.200 F 
ATOM     47  F   UNL A   1      45.001  25.391  37.389  1.00  0.00    -0.200 F 
ENDBRANCH  23  37
BRANCH  24  48
ATOM     48  C   UNL A   1      43.009  24.905  26.576  1.00  0.00     0.064 A 
ATOM     49  C   UNL A   1      43.713  24.634  25.393  1.00  0.00     0.173 A 
ATOM     50  C   UNL A   1      42.436  23.798  27.234  1.00  0.00     0.173 A 
ATOM     51  F   UNL A   1      44.330  25.626  24.734  1.00  0.00    -0.203 F 
ATOM     52  C   UNL A   1      43.850  23.329  24.907  1.00  0.00     0.198 A 
ATOM     53  C   UNL A   1      42.569  22.499  26.745  1.00  0.00     0.198 A 
ATOM     54  F   UNL A   1      41.818  23.944  28.415  1.00  0.00    -0.203 F 
ATOM     55  F   UNL A   1      44.577  23.100  23.805  1.00  0.00    -0.200 F 
ATOM     56  C   UNL A   1      43.286  22.262  25.587  1.00  0.00     0.200 A 
ATOM     57  F   UNL A   1      42.052  21.473  27.436  1.00  0.00    -0.200 F 
ATOM     58  F   UNL A   1      43.468  21.008  25.155  1.00  0.00    -0.200 F 
ENDBRANCH  24  48
BRANCH  36  59
ATOM     59  C   UNL A   1      45.529  30.320  28.626  1.00  0.00     0.064 A 
ATOM     60  C   UNL A   1      44.509  30.964  27.902  1.00  0.00     0.173 A 
ATOM     61  C   UNL A   1      46.847  30.722  28.371  1.00  0.00     0.173 A 
ATOM     62  F   UNL A   1      43.219  30.716  28.159  1.00  0.00    -0.203 F 
ATOM     63  C   UNL A   1      44.801  31.929  26.938  1.00  0.00     0.198 A 
ATOM     64  C   UNL A   1      47.134  31.712  27.436  1.00  0.00     0.198 A 
ATOM     65  F   UNL A   1      47.858  30.189  29.076  1.00  0.00    -0.203 F 
ATOM     66  F   UNL A   1      43.809  32.522  26.257  1.00  0.00    -0.200 F 
ATOM     67  C   UNL A   1      46.112  32.308  26.712  1.00  0.00     0.200 A 
ATOM     68  F   UNL A   1      48.399  32.113  27.258  1.00  0.00    -0.200 F 
ATOM     69  F   UNL A   1      46.392  33.268  25.820  1.00  0.00    -0.200 F 
ENDBRANCH  36  59
ENDBRANCH  10  11
ENDBRANCH   3   5
ENDBRANCH   2   3
ENDBRANCH   1   2
BRANCH   1  70
ATOM     70  C   UNL A   1      33.943  30.045  26.501  1.00  0.00     0.275 C 
BRANCH  70  71
ATOM     71  O   UNL A   1      33.126  30.084  25.314  1.00  0.00    -0.457 OA
BRANCH  71  72
ATOM     72  C   UNL A   1      31.802  29.833  25.512  1.00  0.00     0.361 C 
ATOM     73  O   UNL A   1      30.898  30.635  25.317  1.00  0.00    -0.244 OA
BRANCH  72  74
ATOM     74  C   UNL A   1      31.560  28.494  26.017  1.00  0.00     0.198 A 
ATOM     75  N   UNL A   1      31.413  28.224  27.359  1.00  0.00    -0.122 NA
ATOM     76  C   UNL A   1      31.435  27.310  25.309  1.00  0.00     0.123 A 
ATOM     77  N   UNL A   1      31.215  26.920  27.505  1.00  0.00    -0.061 NA
ATOM     78  N   UNL A   1      31.419  26.346  26.302  1.00  0.00    -0.213 N 
BRANCH  76  79
ATOM     79  C   UNL A   1      31.210  26.975  23.870  1.00  0.00     0.262 C 
ATOM     80  C   UNL A   1      32.032  27.740  22.839  1.00  0.00     0.281 C 
ATOM     81  O   UNL A   1      29.797  27.012  23.660  1.00  0.00    -0.477 OA
ATOM     82  O   UNL A   1      31.547  29.043  22.535  1.00  0.00    -0.485 OA
ATOM     83  C   UNL A   1      29.348  28.147  23.051  1.00  0.00     0.162 A 
ATOM     84  C   UNL A   1      30.183  29.099  22.474  1.00  0.00     0.161 A 
ATOM     85  C   UNL A   1      27.966  28.345  23.063  1.00  0.00     0.050 A 
ATOM     86  C   UNL A   1      29.638  30.238  21.885  1.00  0.00     0.050 A 
ATOM     87  C   UNL A   1      27.423  29.503  22.508  1.00  0.00     0.004 A 
ATOM     88  C   UNL A   1      28.258  30.446  21.911  1.00  0.00     0.004 A 
ENDBRANCH  76  79
BRANCH  78  89
ATOM     89  C   UNL A   1      31.632  24.958  26.169  1.00  0.00     0.068 A 
ATOM     90  C   UNL A   1      30.525  24.096  26.144  1.00  0.00     0.028 A 
ATOM     91  C   UNL A   1      32.932  24.454  26.119  1.00  0.00     0.044 A 
ATOM     92  C   UNL A   1      30.719  22.718  26.139  1.00  0.00     0.003 A 
ATOM     93  C   UNL A   1      33.112  23.070  26.151  1.00  0.00     0.020 A 
ATOM     94  C   UNL A   1      32.016  22.203  26.166  1.00  0.00     0.016 A 
ATOM     95  Br  UNL A   1      34.863  22.358  26.234  1.00  0.00    -0.051 Br
ENDBRANCH  78  89
ENDBRANCH  72  74
ENDBRANCH  71  72
ENDBRANCH  70  71
ENDBRANCH   1  70
TORSDOF 13
ENDMDL
