MODEL 1
REMARK VINA RESULT:      -9.9      0.000      0.000
REMARK SMILES Cc1cccc(Cl)c1Nc1ccccc1CC(=O)OCCOC(=O)c1ccc(-c2c3nc(c(-c4c(F)c(F)c(F)c(F)c4F)c4ccc([nH]4)c(-c4c(F)c(F)c(F)c(F)c4F)c4nc(c(-c5c(F)c(F)c(F)c(F)c5F)c5ccc2[nH]5)C=C4)C=C3)cc1
REMARK SMILES IDX 20 1 19 2 17 3 18 4 16 5 15 6 10 7 11 8 12 9 14 10 13 11
REMARK SMILES IDX 9 12 8 14 1 15 2 16 3 17 4 18 6 19 5 20 7 21 21 22 22 23
REMARK SMILES IDX 23 24 24 25 25 26 26 27 87 28 27 29 86 30 28 31 29 32 30 33
REMARK SMILES IDX 80 34 31 35 85 36 79 37 81 38 32 39 84 40 78 41 77 42 33 44
REMARK SMILES IDX 65 45 45 46 64 47 46 48 49 49 63 50 82 51 47 52 48 53 62 55
REMARK SMILES IDX 83 56 50 57 34 58 35 59 43 60 36 61 37 62 41 63 44 64 38 65
REMARK SMILES IDX 39 66 42 67 40 68 66 69 67 70 75 71 68 72 69 73 73 74 76 75
REMARK SMILES IDX 70 76 71 77 74 78 72 79 51 80 52 81 60 82 53 83 54 84 58 85
REMARK SMILES IDX 61 86 55 87 56 88 59 89 57 90
REMARK H PARENT 9 13 81 43 49 54
REMARK Flexibility Score: inf
ROOT
ATOM      1  C   UNL A   1      34.052  34.258  28.840  1.00  0.00     0.274 C 
ENDROOT
BRANCH   1   2
ATOM      2  O   UNL A   1      33.601  34.107  30.198  1.00  0.00    -0.462 OA
BRANCH   2   3
ATOM      3  C   UNL A   1      34.571  34.173  31.146  1.00  0.00     0.310 C 
ATOM      4  O   UNL A   1      34.619  35.018  32.037  1.00  0.00    -0.252 OA
BRANCH   3   5
ATOM      5  C   UNL A   1      35.669  33.160  30.962  1.00  0.00     0.160 C 
BRANCH   5   6
ATOM      6  C   UNL A   1      37.080  33.651  30.701  1.00  0.00    -0.013 A 
ATOM      7  C   UNL A   1      37.913  34.088  31.755  1.00  0.00     0.042 A 
ATOM      8  C   UNL A   1      39.195  34.580  31.452  1.00  0.00     0.026 A 
ATOM      9  C   UNL A   1      39.679  34.582  30.144  1.00  0.00     0.002 A 
ATOM     10  C   UNL A   1      37.600  33.627  29.394  1.00  0.00     0.006 A 
ATOM     11  C   UNL A   1      38.887  34.088  29.117  1.00  0.00     0.000 A 
BRANCH   7  12
ATOM     12  N   UNL A   1      37.574  33.957  33.119  1.00  0.00    -0.354 N 
ATOM     13  H   UNL A   1      36.868  34.568  33.431  1.00  0.00     0.167 HD
BRANCH  12  14
ATOM     14  C   UNL A   1      38.089  33.087  34.110  1.00  0.00     0.060 A 
ATOM     15  C   UNL A   1      39.381  35.071  35.059  1.00  0.00     0.046 C 
ATOM     16  C   UNL A   1      38.964  33.623  35.088  1.00  0.00    -0.026 A 
ATOM     17  C   UNL A   1      39.390  32.823  36.163  1.00  0.00     0.005 A 
ATOM     18  C   UNL A   1      38.980  31.498  36.275  1.00  0.00     0.002 A 
ATOM     19  C   UNL A   1      37.707  31.729  34.231  1.00  0.00     0.064 A 
ATOM     20  C   UNL A   1      38.148  30.949  35.305  1.00  0.00     0.023 A 
ATOM     21  Cl  UNL A   1      36.740  30.915  33.045  1.00  0.00    -0.082 Cl
ENDBRANCH  12  14
ENDBRANCH   7  12
ENDBRANCH   5   6
ENDBRANCH   3   5
ENDBRANCH   2   3
ENDBRANCH   1   2
BRANCH   1  22
ATOM     22  C   UNL A   1      33.618  33.070  27.983  1.00  0.00     0.275 C 
BRANCH  22  23
ATOM     23  O   UNL A   1      34.760  32.259  27.652  1.00  0.00    -0.458 OA
BRANCH  23  24
ATOM     24  C   UNL A   1      34.577  30.924  27.726  1.00  0.00     0.338 C 
ATOM     25  O   UNL A   1      33.565  30.292  27.479  1.00  0.00    -0.246 OA
BRANCH  24  26
ATOM     26  C   UNL A   1      35.821  30.282  28.179  1.00  0.00     0.060 A 
ATOM     27  C   UNL A   1      35.911  29.729  29.460  1.00  0.00     0.016 A 
ATOM     28  C   UNL A   1      36.942  30.338  27.352  1.00  0.00     0.016 A 
ATOM     29  C   UNL A   1      37.136  29.254  29.929  1.00  0.00     0.010 A 
ATOM     30  C   UNL A   1      38.156  29.821  27.805  1.00  0.00     0.010 A 
ATOM     31  C   UNL A   1      38.268  29.296  29.105  1.00  0.00    -0.014 A 
BRANCH  31  32
ATOM     32  C   UNL A   1      39.590  28.833  29.594  1.00  0.00     0.031 A 
ATOM     33  C   UNL A   1      40.384  29.698  30.529  1.00  0.00     0.074 A 
ATOM     34  C   UNL A   1      40.100  27.664  29.162  1.00  0.00     0.049 A 
ATOM     35  N   UNL A   1      41.628  29.582  30.915  1.00  0.00    -0.248 NA
ATOM     36  C   UNL A   1      39.682  30.861  31.098  1.00  0.00     0.031 C 
ATOM     37  C   UNL A   1      39.417  26.720  28.280  1.00  0.00     0.029 A 
ATOM     38  N   UNL A   1      41.322  27.087  29.394  1.00  0.00    -0.354 N 
ATOM     39  C   UNL A   1      41.874  30.674  31.735  1.00  0.00     0.074 A 
ATOM     40  C   UNL A   1      40.650  31.446  31.790  1.00  0.00     0.031 C 
ATOM     41  C   UNL A   1      40.234  25.682  28.035  1.00  0.00     0.029 A 
ATOM     42  C   UNL A   1      41.514  25.919  28.698  1.00  0.00     0.049 A 
ATOM     43  H   UNL A   1      41.996  27.471  29.999  1.00  0.00     0.167 HD
ATOM     44  C   UNL A   1      43.019  31.003  32.378  1.00  0.00     0.037 A 
ATOM     45  C   UNL A   1      42.611  25.149  28.574  1.00  0.00     0.037 A 
ATOM     46  C   UNL A   1      44.222  30.215  32.351  1.00  0.00     0.049 A 
ATOM     47  C   UNL A   1      43.878  25.546  29.279  1.00  0.00     0.074 A 
ATOM     48  C   UNL A   1      45.423  30.445  33.001  1.00  0.00     0.029 A 
ATOM     49  N   UNL A   1      44.374  29.035  31.636  1.00  0.00    -0.354 N 
ATOM     50  N   UNL A   1      44.109  26.589  30.038  1.00  0.00    -0.248 NA
ATOM     51  C   UNL A   1      45.040  24.666  29.099  1.00  0.00     0.031 C 
ATOM     52  C   UNL A   1      46.313  29.422  32.653  1.00  0.00     0.029 A 
ATOM     53  C   UNL A   1      45.654  28.535  31.817  1.00  0.00     0.049 A 
ATOM     54  H   UNL A   1      43.677  28.615  31.084  1.00  0.00     0.167 HD
ATOM     55  C   UNL A   1      45.433  26.485  30.438  1.00  0.00     0.074 A 
ATOM     56  C   UNL A   1      45.953  25.268  29.849  1.00  0.00     0.031 C 
ATOM     57  C   UNL A   1      46.154  27.323  31.222  1.00  0.00     0.037 A 
BRANCH  44  58
ATOM     58  C   UNL A   1      43.035  32.292  33.144  1.00  0.00     0.064 A 
ATOM     59  C   UNL A   1      42.782  32.337  34.522  1.00  0.00     0.173 A 
ATOM     60  C   UNL A   1      43.344  33.496  32.492  1.00  0.00     0.173 A 
ATOM     61  F   UNL A   1      42.470  31.216  35.188  1.00  0.00    -0.203 F 
ATOM     62  C   UNL A   1      42.814  33.545  35.216  1.00  0.00     0.198 A 
ATOM     63  C   UNL A   1      43.398  34.697  33.192  1.00  0.00     0.198 A 
ATOM     64  F   UNL A   1      43.598  33.505  31.174  1.00  0.00    -0.203 F 
ATOM     65  F   UNL A   1      42.529  33.572  36.525  1.00  0.00    -0.200 F 
ATOM     66  C   UNL A   1      43.126  34.722  34.552  1.00  0.00     0.200 A 
ATOM     67  F   UNL A   1      43.709  35.833  32.551  1.00  0.00    -0.200 F 
ATOM     68  F   UNL A   1      43.161  35.883  35.222  1.00  0.00    -0.200 F 
ENDBRANCH  44  58
BRANCH  45  69
ATOM     69  C   UNL A   1      42.559  23.935  27.722  1.00  0.00     0.064 A 
ATOM     70  C   UNL A   1      42.870  24.000  26.359  1.00  0.00     0.173 A 
ATOM     71  C   UNL A   1      42.213  22.685  28.258  1.00  0.00     0.173 A 
ATOM     72  F   UNL A   1      43.180  25.178  25.798  1.00  0.00    -0.203 F 
ATOM     73  C   UNL A   1      42.833  22.860  25.559  1.00  0.00     0.198 A 
ATOM     74  C   UNL A   1      42.200  21.542  27.463  1.00  0.00     0.198 A 
ATOM     75  F   UNL A   1      41.905  22.574  29.559  1.00  0.00    -0.203 F 
ATOM     76  F   UNL A   1      43.104  22.952  24.251  1.00  0.00    -0.200 F 
ATOM     77  C   UNL A   1      42.506  21.630  26.113  1.00  0.00     0.200 A 
ATOM     78  F   UNL A   1      41.895  20.355  28.005  1.00  0.00    -0.200 F 
ATOM     79  F   UNL A   1      42.481  20.533  25.346  1.00  0.00    -0.200 F 
ENDBRANCH  45  69
BRANCH  57  80
ATOM     80  C   UNL A   1      47.575  26.940  31.507  1.00  0.00     0.064 A 
ATOM     81  C   UNL A   1      47.899  26.046  32.538  1.00  0.00     0.173 A 
ATOM     82  C   UNL A   1      48.619  27.443  30.717  1.00  0.00     0.173 A 
ATOM     83  F   UNL A   1      46.936  25.552  33.329  1.00  0.00    -0.203 F 
ATOM     84  C   UNL A   1      49.221  25.684  32.779  1.00  0.00     0.198 A 
ATOM     85  C   UNL A   1      49.937  27.062  30.947  1.00  0.00     0.198 A 
ATOM     86  F   UNL A   1      48.358  28.299  29.717  1.00  0.00    -0.203 F 
ATOM     87  F   UNL A   1      49.514  24.858  33.793  1.00  0.00    -0.200 F 
ATOM     88  C   UNL A   1      50.238  26.188  31.980  1.00  0.00     0.200 A 
ATOM     89  F   UNL A   1      50.918  27.543  30.170  1.00  0.00    -0.200 F 
ATOM     90  F   UNL A   1      51.510  25.835  32.213  1.00  0.00    -0.200 F 
ENDBRANCH  57  80
ENDBRANCH  31  32
ENDBRANCH  24  26
ENDBRANCH  23  24
ENDBRANCH  22  23
ENDBRANCH   1  22
TORSDOF 14
ENDMDL
MODEL 2
REMARK VINA RESULT:      -9.9      4.059     10.685
REMARK SMILES Cc1cccc(Cl)c1Nc1ccccc1CC(=O)OCCOC(=O)c1ccc(-c2c3nc(c(-c4c(F)c(F)c(F)c(F)c4F)c4ccc([nH]4)c(-c4c(F)c(F)c(F)c(F)c4F)c4nc(c(-c5c(F)c(F)c(F)c(F)c5F)c5ccc2[nH]5)C=C4)C=C3)cc1
REMARK SMILES IDX 20 1 19 2 17 3 18 4 16 5 15 6 10 7 11 8 12 9 14 10 13 11
REMARK SMILES IDX 9 12 8 14 1 15 2 16 3 17 4 18 6 19 5 20 7 21 21 22 22 23
REMARK SMILES IDX 23 24 24 25 25 26 26 27 87 28 27 29 86 30 28 31 29 32 30 33
REMARK SMILES IDX 80 34 31 35 85 36 79 37 81 38 32 39 84 40 78 41 77 42 33 44
REMARK SMILES IDX 65 45 45 46 64 47 46 48 49 49 63 50 82 51 47 52 48 53 62 55
REMARK SMILES IDX 83 56 50 57 34 58 35 59 43 60 36 61 37 62 41 63 44 64 38 65
REMARK SMILES IDX 39 66 42 67 40 68 66 69 67 70 75 71 68 72 69 73 73 74 76 75
REMARK SMILES IDX 70 76 71 77 74 78 72 79 51 80 52 81 60 82 53 83 54 84 58 85
REMARK SMILES IDX 61 86 55 87 56 88 59 89 57 90
REMARK H PARENT 9 13 81 43 49 54
REMARK Flexibility Score: inf
ROOT
ATOM      1  C   UNL A   1      41.740  20.248  26.547  1.00  0.00     0.274 C 
ENDROOT
BRANCH   1   2
ATOM      2  O   UNL A   1      42.557  20.539  25.398  1.00  0.00    -0.462 OA
BRANCH   2   3
ATOM      3  C   UNL A   1      43.580  21.407  25.615  1.00  0.00     0.310 C 
ATOM      4  O   UNL A   1      44.768  21.137  25.459  1.00  0.00    -0.252 OA
BRANCH   3   5
ATOM      5  C   UNL A   1      43.140  22.737  26.166  1.00  0.00     0.160 C 
BRANCH   5   6
ATOM      6  C   UNL A   1      43.606  23.144  27.550  1.00  0.00    -0.013 A 
ATOM      7  C   UNL A   1      44.885  23.707  27.759  1.00  0.00     0.042 A 
ATOM      8  C   UNL A   1      45.286  24.022  29.070  1.00  0.00     0.026 A 
ATOM      9  C   UNL A   1      44.424  23.848  30.151  1.00  0.00     0.002 A 
ATOM     10  C   UNL A   1      42.738  23.012  28.649  1.00  0.00     0.006 A 
ATOM     11  C   UNL A   1      43.142  23.361  29.938  1.00  0.00     0.000 A 
BRANCH   7  12
ATOM     12  N   UNL A   1      45.751  24.080  26.709  1.00  0.00    -0.354 N 
ATOM     13  H   UNL A   1      46.139  23.328  26.206  1.00  0.00     0.167 HD
BRANCH  12  14
ATOM     14  C   UNL A   1      46.151  25.363  26.264  1.00  0.00     0.060 A 
ATOM     15  C   UNL A   1      48.379  24.985  27.446  1.00  0.00     0.046 C 
ATOM     16  C   UNL A   1      47.452  25.817  26.599  1.00  0.00    -0.026 A 
ATOM     17  C   UNL A   1      47.932  27.025  26.066  1.00  0.00     0.005 A 
ATOM     18  C   UNL A   1      47.140  27.801  25.223  1.00  0.00     0.002 A 
ATOM     19  C   UNL A   1      45.355  26.181  25.427  1.00  0.00     0.064 A 
ATOM     20  C   UNL A   1      45.850  27.384  24.913  1.00  0.00     0.023 A 
ATOM     21  Cl  UNL A   1      43.709  25.806  25.034  1.00  0.00    -0.082 Cl
ENDBRANCH  12  14
ENDBRANCH   7  12
ENDBRANCH   5   6
ENDBRANCH   3   5
ENDBRANCH   2   3
ENDBRANCH   1   2
BRANCH   1  22
ATOM     22  C   UNL A   1      40.287  20.649  26.300  1.00  0.00     0.275 C 
BRANCH  22  23
ATOM     23  O   UNL A   1      39.971  21.839  27.045  1.00  0.00    -0.458 OA
BRANCH  23  24
ATOM     24  C   UNL A   1      39.165  22.726  26.424  1.00  0.00     0.338 C 
ATOM     25  O   UNL A   1      38.301  22.500  25.595  1.00  0.00    -0.246 OA
BRANCH  24  26
ATOM     26  C   UNL A   1      39.479  24.085  26.891  1.00  0.00     0.060 A 
ATOM     27  C   UNL A   1      40.098  25.005  26.040  1.00  0.00     0.016 A 
ATOM     28  C   UNL A   1      39.253  24.401  28.231  1.00  0.00     0.016 A 
ATOM     29  C   UNL A   1      40.521  26.238  26.536  1.00  0.00     0.010 A 
ATOM     30  C   UNL A   1      39.635  25.653  28.714  1.00  0.00     0.010 A 
ATOM     31  C   UNL A   1      40.292  26.572  27.877  1.00  0.00    -0.014 A 
BRANCH  31  32
ATOM     32  C   UNL A   1      40.766  27.861  28.438  1.00  0.00     0.031 A 
ATOM     33  C   UNL A   1      42.212  28.028  28.802  1.00  0.00     0.074 A 
ATOM     34  C   UNL A   1      39.894  28.861  28.667  1.00  0.00     0.049 A 
ATOM     35  N   UNL A   1      42.793  28.984  29.482  1.00  0.00    -0.248 NA
ATOM     36  C   UNL A   1      43.127  26.968  28.351  1.00  0.00     0.031 C 
ATOM     37  C   UNL A   1      38.472  28.835  28.329  1.00  0.00     0.029 A 
ATOM     38  N   UNL A   1      40.078  30.085  29.259  1.00  0.00    -0.354 N 
ATOM     39  C   UNL A   1      44.130  28.621  29.576  1.00  0.00     0.074 A 
ATOM     40  C   UNL A   1      44.276  27.356  28.887  1.00  0.00     0.031 C 
ATOM     41  C   UNL A   1      37.908  29.987  28.728  1.00  0.00     0.029 A 
ATOM     42  C   UNL A   1      38.917  30.803  29.397  1.00  0.00     0.049 A 
ATOM     43  H   UNL A   1      40.956  30.416  29.556  1.00  0.00     0.167 HD
ATOM     44  C   UNL A   1      45.140  29.284  30.187  1.00  0.00     0.037 A 
ATOM     45  C   UNL A   1      38.684  31.969  30.030  1.00  0.00     0.037 A 
ATOM     46  C   UNL A   1      44.999  30.559  30.839  1.00  0.00     0.049 A 
ATOM     47  C   UNL A   1      39.816  32.675  30.721  1.00  0.00     0.074 A 
ATOM     48  C   UNL A   1      45.972  31.329  31.454  1.00  0.00     0.029 A 
ATOM     49  N   UNL A   1      43.805  31.257  30.954  1.00  0.00    -0.354 N 
ATOM     50  N   UNL A   1      41.074  32.319  30.822  1.00  0.00    -0.248 NA
ATOM     51  C   UNL A   1      39.494  33.939  31.397  1.00  0.00     0.031 C 
ATOM     52  C   UNL A   1      45.360  32.477  31.972  1.00  0.00     0.029 A 
ATOM     53  C   UNL A   1      44.014  32.440  31.645  1.00  0.00     0.049 A 
ATOM     54  H   UNL A   1      42.939  30.957  30.598  1.00  0.00     0.167 HD
ATOM     55  C   UNL A   1      41.695  33.318  31.558  1.00  0.00     0.074 A 
ATOM     56  C   UNL A   1      40.680  34.303  31.866  1.00  0.00     0.031 C 
ATOM     57  C   UNL A   1      42.991  33.409  31.944  1.00  0.00     0.037 A 
BRANCH  44  58
ATOM     58  C   UNL A   1      46.487  28.625  30.207  1.00  0.00     0.064 A 
ATOM     59  C   UNL A   1      47.477  28.939  29.267  1.00  0.00     0.173 A 
ATOM     60  C   UNL A   1      46.799  27.689  31.205  1.00  0.00     0.173 A 
ATOM     61  F   UNL A   1      47.224  29.818  28.286  1.00  0.00    -0.203 F 
ATOM     62  C   UNL A   1      48.726  28.322  29.311  1.00  0.00     0.198 A 
ATOM     63  C   UNL A   1      48.055  27.092  31.260  1.00  0.00     0.198 A 
ATOM     64  F   UNL A   1      45.886  27.358  32.131  1.00  0.00    -0.203 F 
ATOM     65  F   UNL A   1      49.646  28.606  28.379  1.00  0.00    -0.200 F 
ATOM     66  C   UNL A   1      49.015  27.404  30.310  1.00  0.00     0.200 A 
ATOM     67  F   UNL A   1      48.335  26.212  32.232  1.00  0.00    -0.200 F 
ATOM     68  F   UNL A   1      50.218  26.815  30.354  1.00  0.00    -0.200 F 
ENDBRANCH  44  58
BRANCH  45  69
ATOM     69  C   UNL A   1      37.307  32.522  30.058  1.00  0.00     0.064 A 
ATOM     70  C   UNL A   1      36.411  32.170  31.074  1.00  0.00     0.173 A 
ATOM     71  C   UNL A   1      36.868  33.426  29.078  1.00  0.00     0.173 A 
ATOM     72  F   UNL A   1      36.779  31.289  32.016  1.00  0.00    -0.203 F 
ATOM     73  C   UNL A   1      35.122  32.697  31.109  1.00  0.00     0.198 A 
ATOM     74  C   UNL A   1      35.587  33.971  29.128  1.00  0.00     0.198 A 
ATOM     75  F   UNL A   1      37.690  33.791  28.084  1.00  0.00    -0.203 F 
ATOM     76  F   UNL A   1      34.272  32.321  32.073  1.00  0.00    -0.200 F 
ATOM     77  C   UNL A   1      34.714  33.603  30.141  1.00  0.00     0.200 A 
ATOM     78  F   UNL A   1      35.201  34.854  28.197  1.00  0.00    -0.200 F 
ATOM     79  F   UNL A   1      33.477  34.117  30.180  1.00  0.00    -0.200 F 
ENDBRANCH  45  69
BRANCH  57  80
ATOM     80  C   UNL A   1      43.389  34.627  32.721  1.00  0.00     0.064 A 
ATOM     81  C   UNL A   1      43.723  35.828  32.079  1.00  0.00     0.173 A 
ATOM     82  C   UNL A   1      43.401  34.602  34.124  1.00  0.00     0.173 A 
ATOM     83  F   UNL A   1      43.741  35.894  30.740  1.00  0.00    -0.203 F 
ATOM     84  C   UNL A   1      44.072  36.957  32.814  1.00  0.00     0.198 A 
ATOM     85  C   UNL A   1      43.729  35.739  34.856  1.00  0.00     0.198 A 
ATOM     86  F   UNL A   1      43.085  33.477  34.783  1.00  0.00    -0.203 F 
ATOM     87  F   UNL A   1      44.425  38.085  32.181  1.00  0.00    -0.200 F 
ATOM     88  C   UNL A   1      44.069  36.913  34.201  1.00  0.00     0.200 A 
ATOM     89  F   UNL A   1      43.718  35.698  36.196  1.00  0.00    -0.200 F 
ATOM     90  F   UNL A   1      44.402  38.003  34.907  1.00  0.00    -0.200 F 
ENDBRANCH  57  80
ENDBRANCH  31  32
ENDBRANCH  24  26
ENDBRANCH  23  24
ENDBRANCH  22  23
ENDBRANCH   1  22
TORSDOF 14
ENDMDL
MODEL 3
REMARK VINA RESULT:      -9.5      0.386      2.010
REMARK SMILES Cc1cccc(Cl)c1Nc1ccccc1CC(=O)OCCOC(=O)c1ccc(-c2c3nc(c(-c4c(F)c(F)c(F)c(F)c4F)c4ccc([nH]4)c(-c4c(F)c(F)c(F)c(F)c4F)c4nc(c(-c5c(F)c(F)c(F)c(F)c5F)c5ccc2[nH]5)C=C4)C=C3)cc1
REMARK SMILES IDX 20 1 19 2 17 3 18 4 16 5 15 6 10 7 11 8 12 9 14 10 13 11
REMARK SMILES IDX 9 12 8 14 1 15 2 16 3 17 4 18 6 19 5 20 7 21 21 22 22 23
REMARK SMILES IDX 23 24 24 25 25 26 26 27 87 28 27 29 86 30 28 31 29 32 30 33
REMARK SMILES IDX 80 34 31 35 85 36 79 37 81 38 32 39 84 40 78 41 77 42 33 44
REMARK SMILES IDX 65 45 45 46 64 47 46 48 49 49 63 50 82 51 47 52 48 53 62 55
REMARK SMILES IDX 83 56 50 57 34 58 35 59 43 60 36 61 37 62 41 63 44 64 38 65
REMARK SMILES IDX 39 66 42 67 40 68 66 69 67 70 75 71 68 72 69 73 73 74 76 75
REMARK SMILES IDX 70 76 71 77 74 78 72 79 51 80 52 81 60 82 53 83 54 84 58 85
REMARK SMILES IDX 61 86 55 87 56 88 59 89 57 90
REMARK H PARENT 9 13 81 43 49 54
REMARK Flexibility Score: inf
ROOT
ATOM      1  C   UNL A   1      33.373  34.111  28.400  1.00  0.00     0.274 C 
ENDROOT
BRANCH   1   2
ATOM      2  O   UNL A   1      34.600  34.266  29.136  1.00  0.00    -0.462 OA
BRANCH   2   3
ATOM      3  C   UNL A   1      34.536  33.937  30.452  1.00  0.00     0.310 C 
ATOM      4  O   UNL A   1      33.655  34.311  31.222  1.00  0.00    -0.252 OA
BRANCH   3   5
ATOM      5  C   UNL A   1      35.713  33.132  30.934  1.00  0.00     0.160 C 
BRANCH   5   6
ATOM      6  C   UNL A   1      37.112  33.646  30.656  1.00  0.00    -0.013 A 
ATOM      7  C   UNL A   1      37.940  34.125  31.696  1.00  0.00     0.042 A 
ATOM      8  C   UNL A   1      39.211  34.636  31.377  1.00  0.00     0.026 A 
ATOM      9  C   UNL A   1      39.689  34.619  30.068  1.00  0.00     0.002 A 
ATOM     10  C   UNL A   1      37.629  33.603  29.347  1.00  0.00     0.006 A 
ATOM     11  C   UNL A   1      38.905  34.084  29.055  1.00  0.00     0.000 A 
BRANCH   7  12
ATOM     12  N   UNL A   1      37.608  34.019  33.064  1.00  0.00    -0.354 N 
ATOM     13  H   UNL A   1      36.881  34.612  33.361  1.00  0.00     0.167 HD
BRANCH  12  14
ATOM     14  C   UNL A   1      38.156  33.195  34.077  1.00  0.00     0.060 A 
ATOM     15  C   UNL A   1      39.410  35.239  34.944  1.00  0.00     0.046 C 
ATOM     16  C   UNL A   1      39.029  33.784  35.026  1.00  0.00    -0.026 A 
ATOM     17  C   UNL A   1      39.486  33.030  36.121  1.00  0.00     0.005 A 
ATOM     18  C   UNL A   1      39.110  31.699  36.281  1.00  0.00     0.002 A 
ATOM     19  C   UNL A   1      37.808  31.833  34.246  1.00  0.00     0.064 A 
ATOM     20  C   UNL A   1      38.281  31.099  35.339  1.00  0.00     0.023 A 
ATOM     21  Cl  UNL A   1      36.848  30.957  33.100  1.00  0.00    -0.082 Cl
ENDBRANCH  12  14
ENDBRANCH   7  12
ENDBRANCH   5   6
ENDBRANCH   3   5
ENDBRANCH   2   3
ENDBRANCH   1   2
BRANCH   1  22
ATOM     22  C   UNL A   1      33.350  32.783  27.647  1.00  0.00     0.275 C 
BRANCH  22  23
ATOM     23  O   UNL A   1      34.588  32.078  27.854  1.00  0.00    -0.458 OA
BRANCH  23  24
ATOM     24  C   UNL A   1      34.524  30.733  27.756  1.00  0.00     0.338 C 
ATOM     25  O   UNL A   1      33.585  30.053  27.381  1.00  0.00    -0.246 OA
BRANCH  24  26
ATOM     26  C   UNL A   1      35.801  30.148  28.193  1.00  0.00     0.060 A 
ATOM     27  C   UNL A   1      35.947  29.645  29.489  1.00  0.00     0.016 A 
ATOM     28  C   UNL A   1      36.895  30.209  27.330  1.00  0.00     0.016 A 
ATOM     29  C   UNL A   1      37.200  29.227  29.937  1.00  0.00     0.010 A 
ATOM     30  C   UNL A   1      38.138  29.747  27.764  1.00  0.00     0.010 A 
ATOM     31  C   UNL A   1      38.306  29.274  29.078  1.00  0.00    -0.014 A 
BRANCH  31  32
ATOM     32  C   UNL A   1      39.656  28.872  29.542  1.00  0.00     0.031 A 
ATOM     33  C   UNL A   1      40.437  29.784  30.443  1.00  0.00     0.074 A 
ATOM     34  C   UNL A   1      40.200  27.716  29.117  1.00  0.00     0.049 A 
ATOM     35  N   UNL A   1      41.694  29.722  30.800  1.00  0.00    -0.248 NA
ATOM     36  C   UNL A   1      39.704  30.928  31.009  1.00  0.00     0.031 C 
ATOM     37  C   UNL A   1      39.535  26.731  28.268  1.00  0.00     0.029 A 
ATOM     38  N   UNL A   1      41.450  27.191  29.329  1.00  0.00    -0.354 N 
ATOM     39  C   UNL A   1      41.916  30.838  31.595  1.00  0.00     0.074 A 
ATOM     40  C   UNL A   1      40.664  31.562  31.668  1.00  0.00     0.031 C 
ATOM     41  C   UNL A   1      40.385  25.722  28.021  1.00  0.00     0.029 A 
ATOM     42  C   UNL A   1      41.670  26.019  28.648  1.00  0.00     0.049 A 
ATOM     43  H   UNL A   1      42.123  27.611  29.911  1.00  0.00     0.167 HD
ATOM     44  C   UNL A   1      43.062  31.222  32.205  1.00  0.00     0.037 A 
ATOM     45  C   UNL A   1      42.794  25.290  28.510  1.00  0.00     0.037 A 
ATOM     46  C   UNL A   1      44.294  30.481  32.161  1.00  0.00     0.049 A 
ATOM     47  C   UNL A   1      44.060  25.749  29.177  1.00  0.00     0.074 A 
ATOM     48  C   UNL A   1      45.500  30.769  32.777  1.00  0.00     0.029 A 
ATOM     49  N   UNL A   1      44.476  29.295  31.463  1.00  0.00    -0.354 N 
ATOM     50  N   UNL A   1      44.268  26.813  29.913  1.00  0.00    -0.248 NA
ATOM     51  C   UNL A   1      45.252  24.911  28.983  1.00  0.00     0.031 C 
ATOM     52  C   UNL A   1      46.421  29.775  32.425  1.00  0.00     0.029 A 
ATOM     53  C   UNL A   1      45.778  28.848  31.621  1.00  0.00     0.049 A 
ATOM     54  H   UNL A   1      43.782  28.839  30.935  1.00  0.00     0.167 HD
ATOM     55  C   UNL A   1      45.605  26.767  30.282  1.00  0.00     0.074 A 
ATOM     56  C   UNL A   1      46.158  25.561  29.701  1.00  0.00     0.031 C 
ATOM     57  C   UNL A   1      46.311  27.646  31.034  1.00  0.00     0.037 A 
BRANCH  44  58
ATOM     58  C   UNL A   1      43.046  32.524  32.948  1.00  0.00     0.064 A 
ATOM     59  C   UNL A   1      43.143  33.755  32.285  1.00  0.00     0.173 A 
ATOM     60  C   UNL A   1      42.897  32.538  34.343  1.00  0.00     0.173 A 
ATOM     61  F   UNL A   1      43.299  33.795  30.954  1.00  0.00    -0.203 F 
ATOM     62  C   UNL A   1      43.114  34.954  32.995  1.00  0.00     0.198 A 
ATOM     63  C   UNL A   1      42.845  33.737  35.047  1.00  0.00     0.198 A 
ATOM     64  F   UNL A   1      42.796  31.386  35.024  1.00  0.00    -0.203 F 
ATOM     65  F   UNL A   1      43.249  36.119  32.346  1.00  0.00    -0.200 F 
ATOM     66  C   UNL A   1      42.960  34.944  34.374  1.00  0.00     0.200 A 
ATOM     67  F   UNL A   1      42.687  33.726  36.378  1.00  0.00    -0.200 F 
ATOM     68  F   UNL A   1      42.928  36.098  35.055  1.00  0.00    -0.200 F 
ENDBRANCH  44  58
BRANCH  45  69
ATOM     69  C   UNL A   1      42.769  24.060  27.680  1.00  0.00     0.064 A 
ATOM     70  C   UNL A   1      42.441  22.820  28.242  1.00  0.00     0.173 A 
ATOM     71  C   UNL A   1      43.057  24.104  26.308  1.00  0.00     0.173 A 
ATOM     72  F   UNL A   1      42.185  22.726  29.555  1.00  0.00    -0.203 F 
ATOM     73  C   UNL A   1      42.406  21.666  27.462  1.00  0.00     0.198 A 
ATOM     74  C   UNL A   1      42.999  22.954  25.525  1.00  0.00     0.198 A 
ATOM     75  F   UNL A   1      43.379  25.269  25.726  1.00  0.00    -0.203 F 
ATOM     76  F   UNL A   1      42.121  20.486  28.028  1.00  0.00    -0.200 F 
ATOM     77  C   UNL A   1      42.677  21.735  26.103  1.00  0.00     0.200 A 
ATOM     78  F   UNL A   1      43.249  23.027  24.211  1.00  0.00    -0.200 F 
ATOM     79  F   UNL A   1      42.634  20.626  25.353  1.00  0.00    -0.200 F 
ENDBRANCH  45  69
BRANCH  57  80
ATOM     80  C   UNL A   1      47.752  27.324  31.290  1.00  0.00     0.064 A 
ATOM     81  C   UNL A   1      48.774  27.859  30.493  1.00  0.00     0.173 A 
ATOM     82  C   UNL A   1      48.116  26.500  32.366  1.00  0.00     0.173 A 
ATOM     83  F   UNL A   1      48.473  28.639  29.445  1.00  0.00    -0.203 F 
ATOM     84  C   UNL A   1      50.110  27.567  30.754  1.00  0.00     0.198 A 
ATOM     85  C   UNL A   1      49.453  26.227  32.637  1.00  0.00     0.198 A 
ATOM     86  F   UNL A   1      47.173  25.966  33.158  1.00  0.00    -0.203 F 
ATOM     87  F   UNL A   1      51.070  28.058  29.959  1.00  0.00    -0.200 F 
ATOM     88  C   UNL A   1      50.448  26.756  31.829  1.00  0.00     0.200 A 
ATOM     89  F   UNL A   1      49.779  25.450  33.679  1.00  0.00    -0.200 F 
ATOM     90  F   UNL A   1      51.735  26.479  32.080  1.00  0.00    -0.200 F 
ENDBRANCH  57  80
ENDBRANCH  31  32
ENDBRANCH  24  26
ENDBRANCH  23  24
ENDBRANCH  22  23
ENDBRANCH   1  22
TORSDOF 14
ENDMDL
