MODEL 1
REMARK VINA RESULT:     -12.4      0.000      0.000
REMARK SMILES Cc1nsc(N(C)C(=O)Nc2cccc(Cl)c2)c1C(=O)OCCOC(=O)c1ccc(-c2c3nc(c(-c4c(F)c(F)c(F)c(F)c4F)c4ccc([nH]4)c(-c4c(F)c(F)c(F)c(F)c4F)c4nc(c(-c5c(F)c(F)c(F)c(F)c5F)c5ccc2[nH]5)C=C4)C=C3)cc1
REMARK SMILES IDX 22 1 21 2 19 3 20 4 18 5 1 6 2 7 3 8 4 9 5 10 6 11 7 12 8 13
REMARK SMILES IDX 9 14 10 15 11 17 12 18 17 19 13 20 15 21 14 22 16 23 23 24
REMARK SMILES IDX 24 25 25 26 26 27 27 28 28 29 89 30 29 31 88 32 30 33 31 34
REMARK SMILES IDX 32 35 82 36 33 37 87 38 81 39 83 40 34 41 86 42 80 43 79 44
REMARK SMILES IDX 35 46 67 47 47 48 66 49 48 50 51 51 65 52 84 53 49 54 50 55
REMARK SMILES IDX 64 57 85 58 52 59 36 60 37 61 45 62 38 63 39 64 43 65 46 66
REMARK SMILES IDX 40 67 41 68 44 69 42 70 68 71 69 72 77 73 70 74 71 75 75 76
REMARK SMILES IDX 78 77 72 78 73 79 76 80 74 81 53 82 54 83 62 84 55 85 56 86
REMARK SMILES IDX 60 87 63 88 57 89 58 90 61 91 59 92
REMARK H PARENT 10 16 83 45 51 56
REMARK Flexibility Score: inf
ROOT
ATOM      1  C   UNL A   1      36.876  23.541  24.910  1.00  0.00     0.275 C 
ENDROOT
BRANCH   1   2
ATOM      2  O   UNL A   1      35.621  23.671  25.592  1.00  0.00    -0.458 OA
BRANCH   2   3
ATOM      3  C   UNL A   1      34.504  23.168  24.992  1.00  0.00     0.343 C 
ATOM      4  O   UNL A   1      34.529  22.381  24.049  1.00  0.00    -0.246 OA
BRANCH   3   5
ATOM      5  C   UNL A   1      33.290  23.786  25.511  1.00  0.00     0.118 A 
ATOM      6  C   UNL A   1      33.142  22.204  27.623  1.00  0.00     0.069 C 
ATOM      7  C   UNL A   1      32.711  23.361  26.784  1.00  0.00     0.068 A 
ATOM      8  N   UNL A   1      31.708  24.092  27.252  1.00  0.00    -0.195 NA
ATOM      9  S   UNL A   1      31.404  25.292  26.192  1.00  0.00    -0.017 S 
ATOM     10  C   UNL A   1      32.461  24.754  24.921  1.00  0.00     0.134 A 
BRANCH  10  11
ATOM     11  N   UNL A   1      32.255  25.368  23.633  1.00  0.00    -0.286 N 
ATOM     12  C   UNL A   1      31.073  24.983  22.835  1.00  0.00     0.156 C 
BRANCH  11  13
ATOM     13  C   UNL A   1      33.281  26.128  23.066  1.00  0.00     0.326 C 
ATOM     14  O   UNL A   1      33.980  25.757  22.120  1.00  0.00    -0.248 OA
ATOM     15  N   UNL A   1      33.469  27.449  23.393  1.00  0.00    -0.307 N 
ATOM     16  H   UNL A   1      33.951  27.955  22.699  1.00  0.00     0.171 HD
BRANCH  15  17
ATOM     17  C   UNL A   1      33.120  28.227  24.501  1.00  0.00     0.044 A 
ATOM     18  C   UNL A   1      31.970  29.018  24.521  1.00  0.00     0.026 A 
ATOM     19  C   UNL A   1      34.020  28.265  25.571  1.00  0.00     0.046 A 
ATOM     20  C   UNL A   1      31.780  29.937  25.554  1.00  0.00     0.004 A 
ATOM     21  C   UNL A   1      33.843  29.213  26.577  1.00  0.00     0.043 A 
ATOM     22  C   UNL A   1      32.736  30.061  26.564  1.00  0.00     0.020 A 
ATOM     23  Cl  UNL A   1      35.041  29.391  27.801  1.00  0.00    -0.084 Cl
ENDBRANCH  15  17
ENDBRANCH  11  13
ENDBRANCH  10  11
ENDBRANCH   3   5
ENDBRANCH   2   3
ENDBRANCH   1   2
BRANCH   1  24
ATOM     24  C   UNL A   1      37.765  22.611  25.724  1.00  0.00     0.275 C 
BRANCH  24  25
ATOM     25  O   UNL A   1      38.480  23.361  26.699  1.00  0.00    -0.458 OA
BRANCH  25  26
ATOM     26  C   UNL A   1      39.756  22.978  26.952  1.00  0.00     0.338 C 
ATOM     27  O   UNL A   1      40.158  21.867  27.249  1.00  0.00    -0.246 OA
BRANCH  26  28
ATOM     28  C   UNL A   1      40.567  24.198  27.065  1.00  0.00     0.060 A 
ATOM     29  C   UNL A   1      41.382  24.318  28.195  1.00  0.00     0.016 A 
ATOM     30  C   UNL A   1      40.245  25.297  26.259  1.00  0.00     0.016 A 
ATOM     31  C   UNL A   1      41.633  25.582  28.678  1.00  0.00     0.010 A 
ATOM     32  C   UNL A   1      40.454  26.550  26.761  1.00  0.00     0.010 A 
ATOM     33  C   UNL A   1      41.054  26.664  28.011  1.00  0.00    -0.014 A 
BRANCH  33  34
ATOM     34  C   UNL A   1      41.035  27.954  28.647  1.00  0.00     0.031 A 
ATOM     35  C   UNL A   1      42.102  28.862  28.192  1.00  0.00     0.074 A 
ATOM     36  C   UNL A   1      40.019  28.328  29.441  1.00  0.00     0.049 A 
ATOM     37  N   UNL A   1      43.190  29.159  28.818  1.00  0.00    -0.248 NA
ATOM     38  C   UNL A   1      42.061  29.322  26.797  1.00  0.00     0.031 C 
ATOM     39  C   UNL A   1      38.750  27.655  29.722  1.00  0.00     0.029 A 
ATOM     40  N   UNL A   1      39.907  29.499  30.114  1.00  0.00    -0.354 N 
ATOM     41  C   UNL A   1      43.900  29.985  27.955  1.00  0.00     0.074 A 
ATOM     42  C   UNL A   1      43.287  29.828  26.664  1.00  0.00     0.031 C 
ATOM     43  C   UNL A   1      37.913  28.529  30.330  1.00  0.00     0.029 A 
ATOM     44  C   UNL A   1      38.629  29.767  30.581  1.00  0.00     0.049 A 
ATOM     45  H   UNL A   1      40.668  30.107  30.258  1.00  0.00     0.167 HD
ATOM     46  C   UNL A   1      44.774  30.920  28.418  1.00  0.00     0.037 A 
ATOM     47  C   UNL A   1      38.230  30.992  31.003  1.00  0.00     0.037 A 
ATOM     48  C   UNL A   1      45.036  30.722  29.823  1.00  0.00     0.049 A 
ATOM     49  C   UNL A   1      39.472  31.749  31.363  1.00  0.00     0.074 A 
ATOM     50  C   UNL A   1      45.600  29.701  30.565  1.00  0.00     0.029 A 
ATOM     51  N   UNL A   1      44.323  31.484  30.720  1.00  0.00    -0.354 N 
ATOM     52  N   UNL A   1      40.250  31.407  32.360  1.00  0.00    -0.248 NA
ATOM     53  C   UNL A   1      40.122  32.528  30.314  1.00  0.00     0.031 C 
ATOM     54  C   UNL A   1      44.800  29.618  31.744  1.00  0.00     0.029 A 
ATOM     55  C   UNL A   1      43.845  30.632  31.687  1.00  0.00     0.049 A 
ATOM     56  H   UNL A   1      44.181  32.457  30.679  1.00  0.00     0.167 HD
ATOM     57  C   UNL A   1      41.547  31.570  31.883  1.00  0.00     0.074 A 
ATOM     58  C   UNL A   1      41.404  32.315  30.634  1.00  0.00     0.031 C 
ATOM     59  C   UNL A   1      42.587  30.827  32.370  1.00  0.00     0.037 A 
BRANCH  46  60
ATOM     60  C   UNL A   1      45.128  32.203  27.707  1.00  0.00     0.064 A 
ATOM     61  C   UNL A   1      46.390  32.310  27.090  1.00  0.00     0.173 A 
ATOM     62  C   UNL A   1      44.405  33.413  27.812  1.00  0.00     0.173 A 
ATOM     63  F   UNL A   1      47.173  31.231  26.941  1.00  0.00    -0.203 F 
ATOM     64  C   UNL A   1      46.915  33.539  26.684  1.00  0.00     0.198 A 
ATOM     65  C   UNL A   1      44.906  34.627  27.348  1.00  0.00     0.198 A 
ATOM     66  F   UNL A   1      43.242  33.506  28.463  1.00  0.00    -0.203 F 
ATOM     67  F   UNL A   1      48.170  33.605  26.220  1.00  0.00    -0.200 F 
ATOM     68  C   UNL A   1      46.173  34.698  26.817  1.00  0.00     0.200 A 
ATOM     69  F   UNL A   1      44.173  35.740  27.499  1.00  0.00    -0.200 F 
ATOM     70  F   UNL A   1      46.694  35.885  26.482  1.00  0.00    -0.200 F 
ENDBRANCH  46  60
BRANCH  47  71
ATOM     71  C   UNL A   1      36.921  31.629  30.715  1.00  0.00     0.064 A 
ATOM     72  C   UNL A   1      36.019  31.955  31.739  1.00  0.00     0.173 A 
ATOM     73  C   UNL A   1      36.622  32.145  29.436  1.00  0.00     0.173 A 
ATOM     74  F   UNL A   1      36.255  31.556  32.997  1.00  0.00    -0.203 F 
ATOM     75  C   UNL A   1      34.888  32.747  31.496  1.00  0.00     0.198 A 
ATOM     76  C   UNL A   1      35.491  32.924  29.192  1.00  0.00     0.198 A 
ATOM     77  F   UNL A   1      37.468  31.981  28.409  1.00  0.00    -0.203 F 
ATOM     78  F   UNL A   1      34.072  33.078  32.506  1.00  0.00    -0.200 F 
ATOM     79  C   UNL A   1      34.628  33.233  30.224  1.00  0.00     0.200 A 
ATOM     80  F   UNL A   1      35.278  33.418  27.965  1.00  0.00    -0.200 F 
ATOM     81  F   UNL A   1      33.572  34.028  30.000  1.00  0.00    -0.200 F 
ENDBRANCH  47  71
BRANCH  59  82
ATOM     82  C   UNL A   1      42.327  29.949  33.564  1.00  0.00     0.064 A 
ATOM     83  C   UNL A   1      41.898  28.613  33.465  1.00  0.00     0.173 A 
ATOM     84  C   UNL A   1      42.695  30.407  34.834  1.00  0.00     0.173 A 
ATOM     85  F   UNL A   1      41.644  28.062  32.274  1.00  0.00    -0.203 F 
ATOM     86  C   UNL A   1      41.792  27.794  34.588  1.00  0.00     0.198 A 
ATOM     87  C   UNL A   1      42.624  29.577  35.952  1.00  0.00     0.198 A 
ATOM     88  F   UNL A   1      43.181  31.649  34.984  1.00  0.00    -0.203 F 
ATOM     89  F   UNL A   1      41.374  26.526  34.458  1.00  0.00    -0.200 F 
ATOM     90  C   UNL A   1      42.162  28.275  35.830  1.00  0.00     0.200 A 
ATOM     91  F   UNL A   1      43.038  30.030  37.143  1.00  0.00    -0.200 F 
ATOM     92  F   UNL A   1      42.106  27.477  36.905  1.00  0.00    -0.200 F 
ENDBRANCH  59  82
ENDBRANCH  33  34
ENDBRANCH  26  28
ENDBRANCH  25  26
ENDBRANCH  24  25
ENDBRANCH   1  24
TORSDOF 14
ENDMDL
MODEL 2
REMARK VINA RESULT:     -12.1      3.997      6.213
REMARK SMILES Cc1nsc(N(C)C(=O)Nc2cccc(Cl)c2)c1C(=O)OCCOC(=O)c1ccc(-c2c3nc(c(-c4c(F)c(F)c(F)c(F)c4F)c4ccc([nH]4)c(-c4c(F)c(F)c(F)c(F)c4F)c4nc(c(-c5c(F)c(F)c(F)c(F)c5F)c5ccc2[nH]5)C=C4)C=C3)cc1
REMARK SMILES IDX 22 1 21 2 19 3 20 4 18 5 1 6 2 7 3 8 4 9 5 10 6 11 7 12 8 13
REMARK SMILES IDX 9 14 10 15 11 17 12 18 17 19 13 20 15 21 14 22 16 23 23 24
REMARK SMILES IDX 24 25 25 26 26 27 27 28 28 29 89 30 29 31 88 32 30 33 31 34
REMARK SMILES IDX 32 35 82 36 33 37 87 38 81 39 83 40 34 41 86 42 80 43 79 44
REMARK SMILES IDX 35 46 67 47 47 48 66 49 48 50 51 51 65 52 84 53 49 54 50 55
REMARK SMILES IDX 64 57 85 58 52 59 36 60 37 61 45 62 38 63 39 64 43 65 46 66
REMARK SMILES IDX 40 67 41 68 44 69 42 70 68 71 69 72 77 73 70 74 71 75 75 76
REMARK SMILES IDX 78 77 72 78 73 79 76 80 74 81 53 82 54 83 62 84 55 85 56 86
REMARK SMILES IDX 60 87 63 88 57 89 58 90 61 91 59 92
REMARK H PARENT 10 16 83 45 51 56
REMARK Flexibility Score: inf
ROOT
ATOM      1  C   UNL A   1      41.237  19.925  26.542  1.00  0.00     0.275 C 
ENDROOT
BRANCH   1   2
ATOM      2  O   UNL A   1      42.162  19.685  25.472  1.00  0.00    -0.458 OA
BRANCH   2   3
ATOM      3  C   UNL A   1      43.347  19.076  25.767  1.00  0.00     0.343 C 
ATOM      4  O   UNL A   1      43.436  17.986  26.325  1.00  0.00    -0.246 OA
BRANCH   3   5
ATOM      5  C   UNL A   1      44.484  19.937  25.467  1.00  0.00     0.118 A 
ATOM      6  C   UNL A   1      46.225  17.952  25.368  1.00  0.00     0.069 C 
ATOM      7  C   UNL A   1      45.810  19.378  25.215  1.00  0.00     0.068 A 
ATOM      8  N   UNL A   1      46.739  20.223  24.787  1.00  0.00    -0.195 NA
ATOM      9  S   UNL A   1      46.079  21.710  24.690  1.00  0.00    -0.017 S 
ATOM     10  C   UNL A   1      44.556  21.340  25.445  1.00  0.00     0.134 A 
BRANCH  10  11
ATOM     11  N   UNL A   1      43.772  22.475  25.863  1.00  0.00    -0.286 N 
ATOM     12  C   UNL A   1      43.042  23.257  24.844  1.00  0.00     0.156 C 
BRANCH  11  13
ATOM     13  C   UNL A   1      43.901  22.951  27.170  1.00  0.00     0.326 C 
ATOM     14  O   UNL A   1      43.492  22.358  28.170  1.00  0.00    -0.248 OA
ATOM     15  N   UNL A   1      44.680  24.042  27.469  1.00  0.00    -0.307 N 
ATOM     16  H   UNL A   1      44.980  24.059  28.406  1.00  0.00     0.171 HD
BRANCH  15  17
ATOM     17  C   UNL A   1      45.139  25.133  26.724  1.00  0.00     0.044 A 
ATOM     18  C   UNL A   1      44.331  26.238  26.450  1.00  0.00     0.026 A 
ATOM     19  C   UNL A   1      46.420  25.044  26.171  1.00  0.00     0.046 A 
ATOM     20  C   UNL A   1      44.756  27.196  25.528  1.00  0.00     0.004 A 
ATOM     21  C   UNL A   1      46.821  25.982  25.221  1.00  0.00     0.043 A 
ATOM     22  C   UNL A   1      45.988  27.048  24.885  1.00  0.00     0.020 A 
ATOM     23  Cl  UNL A   1      48.321  25.779  24.402  1.00  0.00    -0.084 Cl
ENDBRANCH  15  17
ENDBRANCH  11  13
ENDBRANCH  10  11
ENDBRANCH   3   5
ENDBRANCH   2   3
ENDBRANCH   1   2
BRANCH   1  24
ATOM     24  C   UNL A   1      40.287  21.032  26.108  1.00  0.00     0.275 C 
BRANCH  24  25
ATOM     25  O   UNL A   1      40.246  22.047  27.106  1.00  0.00    -0.458 OA
BRANCH  25  26
ATOM     26  C   UNL A   1      39.522  23.157  26.820  1.00  0.00     0.338 C 
ATOM     27  O   UNL A   1      38.429  23.219  26.285  1.00  0.00    -0.246 OA
BRANCH  26  28
ATOM     28  C   UNL A   1      40.396  24.319  27.028  1.00  0.00     0.060 A 
ATOM     29  C   UNL A   1      41.080  24.391  28.246  1.00  0.00     0.016 A 
ATOM     30  C   UNL A   1      40.247  25.432  26.190  1.00  0.00     0.016 A 
ATOM     31  C   UNL A   1      41.359  25.639  28.755  1.00  0.00     0.010 A 
ATOM     32  C   UNL A   1      40.481  26.671  26.714  1.00  0.00     0.010 A 
ATOM     33  C   UNL A   1      40.938  26.753  28.025  1.00  0.00    -0.014 A 
BRANCH  33  34
ATOM     34  C   UNL A   1      40.934  28.046  28.655  1.00  0.00     0.031 A 
ATOM     35  C   UNL A   1      42.000  28.946  28.183  1.00  0.00     0.074 A 
ATOM     36  C   UNL A   1      39.929  28.429  29.461  1.00  0.00     0.049 A 
ATOM     37  N   UNL A   1      43.097  29.240  28.794  1.00  0.00    -0.248 NA
ATOM     38  C   UNL A   1      41.944  29.400  26.787  1.00  0.00     0.031 C 
ATOM     39  C   UNL A   1      38.661  27.765  29.760  1.00  0.00     0.029 A 
ATOM     40  N   UNL A   1      39.832  29.604  30.129  1.00  0.00    -0.354 N 
ATOM     41  C   UNL A   1      43.801  30.058  27.919  1.00  0.00     0.074 A 
ATOM     42  C   UNL A   1      43.171  29.898  26.637  1.00  0.00     0.031 C 
ATOM     43  C   UNL A   1      37.835  28.646  30.375  1.00  0.00     0.029 A 
ATOM     44  C   UNL A   1      38.562  29.881  30.610  1.00  0.00     0.049 A 
ATOM     45  H   UNL A   1      40.598  30.208  30.261  1.00  0.00     0.167 HD
ATOM     46  C   UNL A   1      44.685  30.990  28.367  1.00  0.00     0.037 A 
ATOM     47  C   UNL A   1      38.174  31.111  31.031  1.00  0.00     0.037 A 
ATOM     48  C   UNL A   1      44.964  30.798  29.769  1.00  0.00     0.049 A 
ATOM     49  C   UNL A   1      39.424  31.862  31.372  1.00  0.00     0.074 A 
ATOM     50  C   UNL A   1      45.531  29.777  30.509  1.00  0.00     0.029 A 
ATOM     51  N   UNL A   1      44.266  31.568  30.672  1.00  0.00    -0.354 N 
ATOM     52  N   UNL A   1      40.213  31.521  32.361  1.00  0.00    -0.248 NA
ATOM     53  C   UNL A   1      40.066  32.633  30.312  1.00  0.00     0.031 C 
ATOM     54  C   UNL A   1      44.746  29.704  31.699  1.00  0.00     0.029 A 
ATOM     55  C   UNL A   1      43.795  30.723  31.648  1.00  0.00     0.049 A 
ATOM     56  H   UNL A   1      44.128  32.542  30.627  1.00  0.00     0.167 HD
ATOM     57  C   UNL A   1      41.505  31.675  31.868  1.00  0.00     0.074 A 
ATOM     58  C   UNL A   1      41.350  32.415  30.617  1.00  0.00     0.031 C 
ATOM     59  C   UNL A   1      42.547  30.928  32.345  1.00  0.00     0.037 A 
BRANCH  46  60
ATOM     60  C   UNL A   1      45.038  32.269  27.646  1.00  0.00     0.064 A 
ATOM     61  C   UNL A   1      46.277  32.352  26.980  1.00  0.00     0.173 A 
ATOM     62  C   UNL A   1      44.344  33.492  27.780  1.00  0.00     0.173 A 
ATOM     63  F   UNL A   1      47.031  31.258  26.799  1.00  0.00    -0.203 F 
ATOM     64  C   UNL A   1      46.810  33.571  26.557  1.00  0.00     0.198 A 
ATOM     65  C   UNL A   1      44.851  34.697  27.300  1.00  0.00     0.198 A 
ATOM     66  F   UNL A   1      43.209  33.607  28.477  1.00  0.00    -0.203 F 
ATOM     67  F   UNL A   1      48.047  33.613  26.044  1.00  0.00    -0.200 F 
ATOM     68  C   UNL A   1      46.098  34.744  26.721  1.00  0.00     0.200 A 
ATOM     69  F   UNL A   1      44.147  35.824  27.482  1.00  0.00    -0.200 F 
ATOM     70  F   UNL A   1      46.630  35.922  26.368  1.00  0.00    -0.200 F 
ENDBRANCH  46  60
BRANCH  47  71
ATOM     71  C   UNL A   1      36.866  31.753  30.757  1.00  0.00     0.064 A 
ATOM     72  C   UNL A   1      35.976  32.085  31.789  1.00  0.00     0.173 A 
ATOM     73  C   UNL A   1      36.555  32.269  29.480  1.00  0.00     0.173 A 
ATOM     74  F   UNL A   1      36.224  31.687  33.045  1.00  0.00    -0.203 F 
ATOM     75  C   UNL A   1      34.846  32.882  31.557  1.00  0.00     0.198 A 
ATOM     76  C   UNL A   1      35.426  33.053  29.247  1.00  0.00     0.198 A 
ATOM     77  F   UNL A   1      37.389  32.099  28.444  1.00  0.00    -0.203 F 
ATOM     78  F   UNL A   1      34.043  33.218  32.576  1.00  0.00    -0.200 F 
ATOM     79  C   UNL A   1      34.575  33.368  30.288  1.00  0.00     0.200 A 
ATOM     80  F   UNL A   1      35.201  33.546  28.021  1.00  0.00    -0.200 F 
ATOM     81  F   UNL A   1      33.521  34.167  30.073  1.00  0.00    -0.200 F 
ENDBRANCH  47  71
BRANCH  59  82
ATOM     82  C   UNL A   1      42.297  30.057  33.547  1.00  0.00     0.064 A 
ATOM     83  C   UNL A   1      41.864  28.721  33.460  1.00  0.00     0.173 A 
ATOM     84  C   UNL A   1      42.678  30.522  34.811  1.00  0.00     0.173 A 
ATOM     85  F   UNL A   1      41.598  28.165  32.274  1.00  0.00    -0.203 F 
ATOM     86  C   UNL A   1      41.769  27.909  34.588  1.00  0.00     0.198 A 
ATOM     87  C   UNL A   1      42.617  29.698  35.934  1.00  0.00     0.198 A 
ATOM     88  F   UNL A   1      43.167  31.764  34.950  1.00  0.00    -0.203 F 
ATOM     89  F   UNL A   1      41.347  26.641  34.469  1.00  0.00    -0.200 F 
ATOM     90  C   UNL A   1      42.151  28.396  35.824  1.00  0.00     0.200 A 
ATOM     91  F   UNL A   1      43.043  30.156  37.119  1.00  0.00    -0.200 F 
ATOM     92  F   UNL A   1      42.104  27.604  36.903  1.00  0.00    -0.200 F 
ENDBRANCH  59  82
ENDBRANCH  33  34
ENDBRANCH  26  28
ENDBRANCH  25  26
ENDBRANCH  24  25
ENDBRANCH   1  24
TORSDOF 14
ENDMDL
MODEL 3
REMARK VINA RESULT:     -12.1      1.349      2.050
REMARK SMILES Cc1nsc(N(C)C(=O)Nc2cccc(Cl)c2)c1C(=O)OCCOC(=O)c1ccc(-c2c3nc(c(-c4c(F)c(F)c(F)c(F)c4F)c4ccc([nH]4)c(-c4c(F)c(F)c(F)c(F)c4F)c4nc(c(-c5c(F)c(F)c(F)c(F)c5F)c5ccc2[nH]5)C=C4)C=C3)cc1
REMARK SMILES IDX 22 1 21 2 19 3 20 4 18 5 1 6 2 7 3 8 4 9 5 10 6 11 7 12 8 13
REMARK SMILES IDX 9 14 10 15 11 17 12 18 17 19 13 20 15 21 14 22 16 23 23 24
REMARK SMILES IDX 24 25 25 26 26 27 27 28 28 29 89 30 29 31 88 32 30 33 31 34
REMARK SMILES IDX 32 35 82 36 33 37 87 38 81 39 83 40 34 41 86 42 80 43 79 44
REMARK SMILES IDX 35 46 67 47 47 48 66 49 48 50 51 51 65 52 84 53 49 54 50 55
REMARK SMILES IDX 64 57 85 58 52 59 36 60 37 61 45 62 38 63 39 64 43 65 46 66
REMARK SMILES IDX 40 67 41 68 44 69 42 70 68 71 69 72 77 73 70 74 71 75 75 76
REMARK SMILES IDX 78 77 72 78 73 79 76 80 74 81 53 82 54 83 62 84 55 85 56 86
REMARK SMILES IDX 60 87 63 88 57 89 58 90 61 91 59 92
REMARK H PARENT 10 16 83 45 51 56
REMARK Flexibility Score: inf
ROOT
ATOM      1  C   UNL A   1      36.494  23.760  25.271  1.00  0.00     0.275 C 
ENDROOT
BRANCH   1   2
ATOM      2  O   UNL A   1      35.450  22.929  24.746  1.00  0.00    -0.458 OA
BRANCH   2   3
ATOM      3  C   UNL A   1      34.537  23.493  23.904  1.00  0.00     0.343 C 
ATOM      4  O   UNL A   1      34.647  23.501  22.681  1.00  0.00    -0.246 OA
BRANCH   3   5
ATOM      5  C   UNL A   1      33.496  24.202  24.636  1.00  0.00     0.118 A 
ATOM      6  C   UNL A   1      32.417  22.007  25.637  1.00  0.00     0.069 C 
ATOM      7  C   UNL A   1      32.557  23.487  25.498  1.00  0.00     0.068 A 
ATOM      8  N   UNL A   1      31.757  24.231  26.251  1.00  0.00    -0.195 NA
ATOM      9  S   UNL A   1      32.075  25.801  25.947  1.00  0.00    -0.017 S 
ATOM     10  C   UNL A   1      33.156  25.564  24.605  1.00  0.00     0.134 A 
BRANCH  10  11
ATOM     11  N   UNL A   1      33.430  26.734  23.809  1.00  0.00    -0.286 N 
ATOM     12  C   UNL A   1      33.784  27.998  24.487  1.00  0.00     0.156 C 
BRANCH  11  13
ATOM     13  C   UNL A   1      33.133  26.717  22.444  1.00  0.00     0.326 C 
ATOM     14  O   UNL A   1      33.924  26.372  21.564  1.00  0.00    -0.248 OA
ATOM     15  N   UNL A   1      31.852  26.899  21.980  1.00  0.00    -0.307 N 
ATOM     16  H   UNL A   1      31.707  26.517  21.084  1.00  0.00     0.171 HD
BRANCH  15  17
ATOM     17  C   UNL A   1      30.712  27.510  22.510  1.00  0.00     0.044 A 
ATOM     18  C   UNL A   1      29.747  26.794  23.219  1.00  0.00     0.026 A 
ATOM     19  C   UNL A   1      30.515  28.865  22.225  1.00  0.00     0.046 A 
ATOM     20  C   UNL A   1      28.530  27.398  23.538  1.00  0.00     0.004 A 
ATOM     21  C   UNL A   1      29.282  29.450  22.511  1.00  0.00     0.043 A 
ATOM     22  C   UNL A   1      28.283  28.718  23.151  1.00  0.00     0.020 A 
ATOM     23  Cl  UNL A   1      28.966  31.063  22.000  1.00  0.00    -0.084 Cl
ENDBRANCH  15  17
ENDBRANCH  11  13
ENDBRANCH  10  11
ENDBRANCH   3   5
ENDBRANCH   2   3
ENDBRANCH   1   2
BRANCH   1  24
ATOM     24  C   UNL A   1      37.654  22.864  25.681  1.00  0.00     0.275 C 
BRANCH  24  25
ATOM     25  O   UNL A   1      38.458  23.531  26.649  1.00  0.00    -0.458 OA
BRANCH  25  26
ATOM     26  C   UNL A   1      39.734  23.096  26.789  1.00  0.00     0.338 C 
ATOM     27  O   UNL A   1      40.121  21.951  26.943  1.00  0.00    -0.246 OA
BRANCH  26  28
ATOM     28  C   UNL A   1      40.583  24.278  26.988  1.00  0.00     0.060 A 
ATOM     29  C   UNL A   1      41.326  24.337  28.170  1.00  0.00     0.016 A 
ATOM     30  C   UNL A   1      40.358  25.409  26.192  1.00  0.00     0.016 A 
ATOM     31  C   UNL A   1      41.594  25.578  28.703  1.00  0.00     0.010 A 
ATOM     32  C   UNL A   1      40.582  26.640  26.740  1.00  0.00     0.010 A 
ATOM     33  C   UNL A   1      41.103  26.698  28.029  1.00  0.00    -0.014 A 
BRANCH  33  34
ATOM     34  C   UNL A   1      41.092  27.972  28.696  1.00  0.00     0.031 A 
ATOM     35  C   UNL A   1      42.191  28.868  28.296  1.00  0.00     0.074 A 
ATOM     36  C   UNL A   1      40.061  28.348  29.471  1.00  0.00     0.049 A 
ATOM     37  N   UNL A   1      43.266  29.126  28.960  1.00  0.00    -0.248 NA
ATOM     38  C   UNL A   1      42.200  29.364  26.913  1.00  0.00     0.031 C 
ATOM     39  C   UNL A   1      38.771  27.696  29.698  1.00  0.00     0.029 A 
ATOM     40  N   UNL A   1      39.954  29.504  30.170  1.00  0.00    -0.354 N 
ATOM     41  C   UNL A   1      44.018  29.958  28.139  1.00  0.00     0.074 A 
ATOM     42  C   UNL A   1      43.439  29.846  26.828  1.00  0.00     0.031 C 
ATOM     43  C   UNL A   1      37.934  28.573  30.305  1.00  0.00     0.029 A 
ATOM     44  C   UNL A   1      38.669  29.788  30.607  1.00  0.00     0.049 A 
ATOM     45  H   UNL A   1      40.723  30.092  30.351  1.00  0.00     0.167 HD
ATOM     46  C   UNL A   1      44.897  30.861  28.651  1.00  0.00     0.037 A 
ATOM     47  C   UNL A   1      38.283  31.011  31.049  1.00  0.00     0.037 A 
ATOM     48  C   UNL A   1      45.114  30.624  30.057  1.00  0.00     0.049 A 
ATOM     49  C   UNL A   1      39.530  31.731  31.463  1.00  0.00     0.074 A 
ATOM     50  C   UNL A   1      45.635  29.572  30.788  1.00  0.00     0.029 A 
ATOM     51  N   UNL A   1      44.391  31.378  30.953  1.00  0.00    -0.354 N 
ATOM     52  N   UNL A   1      40.271  31.348  32.473  1.00  0.00    -0.248 NA
ATOM     53  C   UNL A   1      40.226  32.522  30.453  1.00  0.00     0.031 C 
ATOM     54  C   UNL A   1      44.799  29.477  31.942  1.00  0.00     0.029 A 
ATOM     55  C   UNL A   1      43.867  30.512  31.884  1.00  0.00     0.049 A 
ATOM     56  H   UNL A   1      44.270  32.354  30.932  1.00  0.00     0.167 HD
ATOM     57  C   UNL A   1      41.584  31.495  32.038  1.00  0.00     0.074 A 
ATOM     58  C   UNL A   1      41.493  32.274  30.805  1.00  0.00     0.031 C 
ATOM     59  C   UNL A   1      42.594  30.718  32.535  1.00  0.00     0.037 A 
BRANCH  46  60
ATOM     60  C   UNL A   1      45.298  32.155  27.984  1.00  0.00     0.064 A 
ATOM     61  C   UNL A   1      44.310  33.132  27.750  1.00  0.00     0.173 A 
ATOM     62  C   UNL A   1      46.535  32.385  27.342  1.00  0.00     0.173 A 
ATOM     63  F   UNL A   1      43.091  33.018  28.298  1.00  0.00    -0.203 F 
ATOM     64  C   UNL A   1      44.520  34.206  26.882  1.00  0.00     0.198 A 
ATOM     65  C   UNL A   1      46.762  33.491  26.527  1.00  0.00     0.198 A 
ATOM     66  F   UNL A   1      47.541  31.505  27.372  1.00  0.00    -0.203 F 
ATOM     67  F   UNL A   1      43.509  35.035  26.594  1.00  0.00    -0.200 F 
ATOM     68  C   UNL A   1      45.746  34.382  26.268  1.00  0.00     0.200 A 
ATOM     69  F   UNL A   1      47.956  33.635  25.932  1.00  0.00    -0.200 F 
ATOM     70  F   UNL A   1      45.934  35.378  25.392  1.00  0.00    -0.200 F 
ENDBRANCH  46  60
BRANCH  47  71
ATOM     71  C   UNL A   1      36.997  31.683  30.740  1.00  0.00     0.064 A 
ATOM     72  C   UNL A   1      36.100  32.059  31.751  1.00  0.00     0.173 A 
ATOM     73  C   UNL A   1      36.721  32.181  29.448  1.00  0.00     0.173 A 
ATOM     74  F   UNL A   1      36.317  31.679  33.019  1.00  0.00    -0.203 F 
ATOM     75  C   UNL A   1      34.997  32.881  31.485  1.00  0.00     0.198 A 
ATOM     76  C   UNL A   1      35.617  32.990  29.182  1.00  0.00     0.198 A 
ATOM     77  F   UNL A   1      37.566  31.968  28.430  1.00  0.00    -0.203 F 
ATOM     78  F   UNL A   1      34.187  33.259  32.483  1.00  0.00    -0.200 F 
ATOM     79  C   UNL A   1      34.759  33.348  30.202  1.00  0.00     0.200 A 
ATOM     80  F   UNL A   1      35.426  33.464  27.943  1.00  0.00    -0.200 F 
ATOM     81  F   UNL A   1      33.730  34.172  29.955  1.00  0.00    -0.200 F 
ENDBRANCH  47  71
BRANCH  59  82
ATOM     82  C   UNL A   1      42.282  29.815  33.698  1.00  0.00     0.064 A 
ATOM     83  C   UNL A   1      41.837  28.489  33.553  1.00  0.00     0.173 A 
ATOM     84  C   UNL A   1      42.613  30.239  34.991  1.00  0.00     0.173 A 
ATOM     85  F   UNL A   1      41.616  27.970  32.341  1.00  0.00    -0.203 F 
ATOM     86  C   UNL A   1      41.682  27.646  34.651  1.00  0.00     0.198 A 
ATOM     87  C   UNL A   1      42.492  29.384  36.085  1.00  0.00     0.198 A 
ATOM     88  F   UNL A   1      43.111  31.469  35.187  1.00  0.00    -0.203 F 
ATOM     89  F   UNL A   1      41.250  26.388  34.478  1.00  0.00    -0.200 F 
ATOM     90  C   UNL A   1      42.016  28.092  35.917  1.00  0.00     0.200 A 
ATOM     91  F   UNL A   1      42.872  29.802  37.300  1.00  0.00    -0.200 F 
ATOM     92  F   UNL A   1      41.912  27.270  36.970  1.00  0.00    -0.200 F 
ENDBRANCH  59  82
ENDBRANCH  33  34
ENDBRANCH  26  28
ENDBRANCH  25  26
ENDBRANCH  24  25
ENDBRANCH   1  24
TORSDOF 14
ENDMDL
