MODEL 1
REMARK VINA RESULT:     -13.1      0.000      0.000
REMARK SMILES Cc1cccc(N2CCN(c3ncc(NC(=O)c4ccccc4F)cc3C(=O)OCCOC(=O)c3ccc(-c4c5nc(c(-c6c(F)c(F)c(F)c(F)c6F)c6ccc([nH]6)c(-c6c(F)c(F)c(F)c(F)c6F)c6nc(c(-c7c(F)c(F)c(F)c(F)c7F)c7ccc4[nH]7)C=C6)C=C5)cc3)C[C@@H]2C)c1
REMARK SMILES IDX 30 1 29 2 27 3 28 4 26 5 11 6 12 7 13 8 25 9 14 10 10 11
REMARK SMILES IDX 7 12 8 13 99 14 9 15 98 16 100 17 6 18 1 19 2 20 3 21 101 22
REMARK SMILES IDX 4 23 5 24 15 25 16 26 17 28 18 29 19 30 23 31 20 32 22 33
REMARK SMILES IDX 24 34 21 35 31 36 32 37 33 38 34 39 35 40 36 41 97 42 37 43
REMARK SMILES IDX 96 44 38 45 39 46 40 47 90 48 41 49 95 50 89 51 91 52 42 53
REMARK SMILES IDX 94 54 88 55 87 56 43 58 75 59 55 60 74 61 56 62 59 63 73 64
REMARK SMILES IDX 92 65 57 66 58 67 72 69 93 70 60 71 44 72 45 73 53 74 46 75
REMARK SMILES IDX 47 76 51 77 54 78 48 79 49 80 52 81 50 82 76 83 77 84 85 85
REMARK SMILES IDX 78 86 79 87 83 88 86 89 80 90 81 91 84 92 82 93 61 94 62 95
REMARK SMILES IDX 70 96 63 97 64 98 68 99 71 100 65 101 66 102 69 103 67 104
REMARK H PARENT 15 27 91 57 59 68
REMARK Flexibility Score: inf
ROOT
ATOM      1  C   UNL A   1      33.118  27.170  26.624  1.00  0.00     0.275 C 
ENDROOT
BRANCH   1   2
ATOM      2  O   UNL A   1      31.818  26.584  26.937  1.00  0.00    -0.458 OA
BRANCH   2   3
ATOM      3  C   UNL A   1      31.799  25.226  26.776  1.00  0.00     0.342 C 
ATOM      4  O   UNL A   1      32.044  24.450  27.705  1.00  0.00    -0.246 OA
BRANCH   3   5
ATOM      5  C   UNL A   1      31.837  24.647  25.406  1.00  0.00     0.104 A 
ATOM      6  C   UNL A   1      31.358  25.058  24.118  1.00  0.00     0.143 A 
ATOM      7  N   UNL A   1      31.112  24.050  23.216  1.00  0.00    -0.236 NA
ATOM      8  C   UNL A   1      31.186  22.732  23.555  1.00  0.00     0.139 A 
ATOM      9  C   UNL A   1      31.979  23.258  25.677  1.00  0.00     0.047 A 
ATOM     10  C   UNL A   1      31.601  22.288  24.786  1.00  0.00     0.061 A 
BRANCH   6  11
ATOM     11  N   UNL A   1      30.928  26.340  23.650  1.00  0.00    -0.352 N 
ATOM     12  N   UNL A   1      29.581  28.839  22.608  1.00  0.00    -0.365 N 
ATOM     13  C   UNL A   1      28.788  27.819  23.320  1.00  0.00     0.138 C 
ATOM     14  C   UNL A   1      30.876  28.394  21.978  1.00  0.00     0.098 C 
ATOM     15  C   UNL A   1      29.443  26.487  23.759  1.00  0.00     0.139 C 
ATOM     16  C   UNL A   1      31.352  26.877  22.320  1.00  0.00     0.142 C 
ATOM     17  C   UNL A   1      32.022  29.398  22.204  1.00  0.00     0.033 C 
BRANCH  12  18
ATOM     18  C   UNL A   1      29.041  30.141  22.497  1.00  0.00     0.037 A 
ATOM     19  C   UNL A   1      27.709  32.662  19.892  1.00  0.00     0.044 C 
ATOM     20  C   UNL A   1      28.242  32.086  21.173  1.00  0.00    -0.049 A 
ATOM     21  C   UNL A   1      28.302  32.922  22.288  1.00  0.00     0.003 A 
ATOM     22  C   UNL A   1      28.644  30.727  21.280  1.00  0.00     0.029 A 
ATOM     23  C   UNL A   1      28.610  32.373  23.516  1.00  0.00     0.002 A 
ATOM     24  C   UNL A   1      28.903  31.002  23.615  1.00  0.00     0.026 A 
ENDBRANCH  12  18
ENDBRANCH   6  11
BRANCH  10  25
ATOM     25  N   UNL A   1      31.657  20.959  25.229  1.00  0.00    -0.320 N 
ATOM     26  C   UNL A   1      32.758  20.196  25.531  1.00  0.00     0.258 C 
ATOM     27  H   UNL A   1      30.788  20.510  25.337  1.00  0.00     0.170 HD
ATOM     28  O   UNL A   1      32.640  18.996  25.767  1.00  0.00    -0.269 OA
BRANCH  26  29
ATOM     29  C   UNL A   1      34.083  20.832  25.637  1.00  0.00     0.075 A 
ATOM     30  C   UNL A   1      34.942  20.758  24.541  1.00  0.00     0.017 A 
ATOM     31  C   UNL A   1      34.486  21.507  26.792  1.00  0.00     0.135 A 
ATOM     32  C   UNL A   1      36.150  21.455  24.571  1.00  0.00     0.001 A 
ATOM     33  C   UNL A   1      35.660  22.244  26.804  1.00  0.00     0.040 A 
ATOM     34  F   UNL A   1      33.751  21.475  27.913  1.00  0.00    -0.206 F 
ATOM     35  C   UNL A   1      36.490  22.226  25.687  1.00  0.00     0.003 A 
ENDBRANCH  26  29
ENDBRANCH  10  25
ENDBRANCH   3   5
ENDBRANCH   2   3
ENDBRANCH   1   2
BRANCH   1  36
ATOM     36  C   UNL A   1      33.285  28.688  26.874  1.00  0.00     0.275 C 
BRANCH  36  37
ATOM     37  O   UNL A   1      34.019  29.173  28.011  1.00  0.00    -0.458 OA
BRANCH  37  38
ATOM     38  C   UNL A   1      34.796  30.258  27.822  1.00  0.00     0.338 C 
ATOM     39  O   UNL A   1      34.344  31.361  27.626  1.00  0.00    -0.246 OA
BRANCH  38  40
ATOM     40  C   UNL A   1      36.228  29.926  28.038  1.00  0.00     0.060 A 
ATOM     41  C   UNL A   1      36.560  29.347  29.259  1.00  0.00     0.016 A 
ATOM     42  C   UNL A   1      37.159  29.955  27.014  1.00  0.00     0.016 A 
ATOM     43  C   UNL A   1      37.756  28.688  29.476  1.00  0.00     0.010 A 
ATOM     44  C   UNL A   1      38.366  29.319  27.210  1.00  0.00     0.010 A 
ATOM     45  C   UNL A   1      38.656  28.701  28.442  1.00  0.00    -0.014 A 
BRANCH  45  46
ATOM     46  C   UNL A   1      40.000  28.215  28.622  1.00  0.00     0.031 A 
ATOM     47  C   UNL A   1      40.324  26.790  28.423  1.00  0.00     0.074 A 
ATOM     48  C   UNL A   1      40.866  29.228  28.832  1.00  0.00     0.049 A 
ATOM     49  N   UNL A   1      41.368  26.223  28.924  1.00  0.00    -0.248 NA
ATOM     50  C   UNL A   1      39.454  25.832  27.732  1.00  0.00     0.031 C 
ATOM     51  C   UNL A   1      42.244  29.365  28.419  1.00  0.00     0.029 A 
ATOM     52  N   UNL A   1      40.591  30.439  29.479  1.00  0.00    -0.354 N 
ATOM     53  C   UNL A   1      41.524  25.031  28.242  1.00  0.00     0.074 A 
ATOM     54  C   UNL A   1      40.223  24.733  27.700  1.00  0.00     0.031 C 
ATOM     55  C   UNL A   1      42.763  30.477  28.979  1.00  0.00     0.029 A 
ATOM     56  C   UNL A   1      41.797  30.990  29.937  1.00  0.00     0.049 A 
ATOM     57  H   UNL A   1      39.698  30.837  29.594  1.00  0.00     0.167 HD
ATOM     58  C   UNL A   1      42.795  24.609  27.975  1.00  0.00     0.037 A 
ATOM     59  C   UNL A   1      42.033  31.165  31.282  1.00  0.00     0.037 A 
ATOM     60  C   UNL A   1      43.742  25.556  28.546  1.00  0.00     0.049 A 
ATOM     61  C   UNL A   1      43.116  30.260  31.801  1.00  0.00     0.074 A 
ATOM     62  C   UNL A   1      44.326  26.680  27.987  1.00  0.00     0.029 A 
ATOM     63  N   UNL A   1      43.881  25.665  29.917  1.00  0.00    -0.354 N 
ATOM     64  N   UNL A   1      43.476  29.177  31.183  1.00  0.00    -0.248 NA
ATOM     65  C   UNL A   1      43.717  30.394  33.124  1.00  0.00     0.031 C 
ATOM     66  C   UNL A   1      44.806  27.486  29.039  1.00  0.00     0.029 A 
ATOM     67  C   UNL A   1      44.497  26.860  30.234  1.00  0.00     0.049 A 
ATOM     68  H   UNL A   1      43.584  24.992  30.572  1.00  0.00     0.167 HD
ATOM     69  C   UNL A   1      44.287  28.450  31.996  1.00  0.00     0.074 A 
ATOM     70  C   UNL A   1      44.433  29.259  33.192  1.00  0.00     0.031 C 
ATOM     71  C   UNL A   1      44.732  27.221  31.617  1.00  0.00     0.037 A 
BRANCH  58  72
ATOM     72  C   UNL A   1      43.218  23.628  26.905  1.00  0.00     0.064 A 
ATOM     73  C   UNL A   1      42.981  22.241  27.090  1.00  0.00     0.173 A 
ATOM     74  C   UNL A   1      43.857  23.959  25.699  1.00  0.00     0.173 A 
ATOM     75  F   UNL A   1      42.316  21.770  28.152  1.00  0.00    -0.203 F 
ATOM     76  C   UNL A   1      43.414  21.269  26.191  1.00  0.00     0.198 A 
ATOM     77  C   UNL A   1      44.303  22.978  24.800  1.00  0.00     0.198 A 
ATOM     78  F   UNL A   1      44.038  25.234  25.335  1.00  0.00    -0.203 F 
ATOM     79  F   UNL A   1      43.172  19.975  26.449  1.00  0.00    -0.200 F 
ATOM     80  C   UNL A   1      44.088  21.634  25.050  1.00  0.00     0.200 A 
ATOM     81  F   UNL A   1      44.941  23.342  23.678  1.00  0.00    -0.200 F 
ATOM     82  F   UNL A   1      44.509  20.699  24.189  1.00  0.00    -0.200 F 
ENDBRANCH  58  72
BRANCH  59  83
ATOM     83  C   UNL A   1      40.775  31.308  32.087  1.00  0.00     0.064 A 
ATOM     84  C   UNL A   1      40.426  30.202  32.884  1.00  0.00     0.173 A 
ATOM     85  C   UNL A   1      40.500  32.603  32.553  1.00  0.00     0.173 A 
ATOM     86  F   UNL A   1      40.596  28.953  32.425  1.00  0.00    -0.203 F 
ATOM     87  C   UNL A   1      40.186  30.398  34.229  1.00  0.00     0.198 A 
ATOM     88  C   UNL A   1      40.273  32.796  33.890  1.00  0.00     0.198 A 
ATOM     89  F   UNL A   1      40.619  33.681  31.768  1.00  0.00    -0.203 F 
ATOM     90  F   UNL A   1      40.098  29.354  35.064  1.00  0.00    -0.200 F 
ATOM     91  C   UNL A   1      40.179  31.693  34.716  1.00  0.00     0.200 A 
ATOM     92  F   UNL A   1      40.212  34.036  34.394  1.00  0.00    -0.200 F 
ATOM     93  F   UNL A   1      40.053  31.906  36.015  1.00  0.00    -0.200 F 
ENDBRANCH  59  83
BRANCH  71  94
ATOM     94  C   UNL A   1      45.539  26.310  32.475  1.00  0.00     0.064 A 
ATOM     95  C   UNL A   1      44.990  25.459  33.440  1.00  0.00     0.173 A 
ATOM     96  C   UNL A   1      46.937  26.229  32.283  1.00  0.00     0.173 A 
ATOM     97  F   UNL A   1      43.663  25.333  33.583  1.00  0.00    -0.203 F 
ATOM     98  C   UNL A   1      45.802  24.684  34.263  1.00  0.00     0.198 A 
ATOM     99  C   UNL A   1      47.735  25.399  33.054  1.00  0.00     0.198 A 
ATOM    100  F   UNL A   1      47.560  26.950  31.339  1.00  0.00    -0.203 F 
ATOM    101  F   UNL A   1      45.249  23.958  35.243  1.00  0.00    -0.200 F 
ATOM    102  C   UNL A   1      47.173  24.657  34.072  1.00  0.00     0.200 A 
ATOM    103  F   UNL A   1      49.049  25.324  32.805  1.00  0.00    -0.200 F 
ATOM    104  F   UNL A   1      47.950  23.905  34.861  1.00  0.00    -0.200 F 
ENDBRANCH  71  94
ENDBRANCH  45  46
ENDBRANCH  38  40
ENDBRANCH  37  38
ENDBRANCH  36  37
ENDBRANCH   1  36
TORSDOF 15
ENDMDL
MODEL 2
REMARK VINA RESULT:     -12.9      2.629      6.483
REMARK SMILES Cc1cccc(N2CCN(c3ncc(NC(=O)c4ccccc4F)cc3C(=O)OCCOC(=O)c3ccc(-c4c5nc(c(-c6c(F)c(F)c(F)c(F)c6F)c6ccc([nH]6)c(-c6c(F)c(F)c(F)c(F)c6F)c6nc(c(-c7c(F)c(F)c(F)c(F)c7F)c7ccc4[nH]7)C=C6)C=C5)cc3)C[C@@H]2C)c1
REMARK SMILES IDX 30 1 29 2 27 3 28 4 26 5 11 6 12 7 13 8 25 9 14 10 10 11
REMARK SMILES IDX 7 12 8 13 99 14 9 15 98 16 100 17 6 18 1 19 2 20 3 21 101 22
REMARK SMILES IDX 4 23 5 24 15 25 16 26 17 28 18 29 19 30 23 31 20 32 22 33
REMARK SMILES IDX 24 34 21 35 31 36 32 37 33 38 34 39 35 40 36 41 97 42 37 43
REMARK SMILES IDX 96 44 38 45 39 46 40 47 90 48 41 49 95 50 89 51 91 52 42 53
REMARK SMILES IDX 94 54 88 55 87 56 43 58 75 59 55 60 74 61 56 62 59 63 73 64
REMARK SMILES IDX 92 65 57 66 58 67 72 69 93 70 60 71 44 72 45 73 53 74 46 75
REMARK SMILES IDX 47 76 51 77 54 78 48 79 49 80 52 81 50 82 76 83 77 84 85 85
REMARK SMILES IDX 78 86 79 87 83 88 86 89 80 90 81 91 84 92 82 93 61 94 62 95
REMARK SMILES IDX 70 96 63 97 64 98 68 99 71 100 65 101 66 102 69 103 67 104
REMARK H PARENT 15 27 91 57 59 68
REMARK Flexibility Score: inf
ROOT
ATOM      1  C   UNL A   1      32.619  28.643  26.570  1.00  0.00     0.275 C 
ENDROOT
BRANCH   1   2
ATOM      2  O   UNL A   1      33.527  27.547  26.892  1.00  0.00    -0.458 OA
BRANCH   2   3
ATOM      3  C   UNL A   1      33.712  26.689  25.842  1.00  0.00     0.342 C 
ATOM      4  O   UNL A   1      34.131  27.072  24.745  1.00  0.00    -0.246 OA
BRANCH   3   5
ATOM      5  C   UNL A   1      33.078  25.343  25.872  1.00  0.00     0.104 A 
ATOM      6  C   UNL A   1      33.547  23.998  25.709  1.00  0.00     0.143 A 
ATOM      7  N   UNL A   1      32.616  23.081  25.279  1.00  0.00    -0.236 NA
ATOM      8  C   UNL A   1      31.358  23.442  24.900  1.00  0.00     0.139 A 
ATOM      9  C   UNL A   1      31.728  25.647  25.544  1.00  0.00     0.047 A 
ATOM     10  C   UNL A   1      30.873  24.724  25.000  1.00  0.00     0.061 A 
BRANCH   6  11
ATOM     11  N   UNL A   1      34.873  23.461  25.757  1.00  0.00    -0.352 N 
ATOM     12  N   UNL A   1      37.820  22.791  25.848  1.00  0.00    -0.365 N 
ATOM     13  C   UNL A   1      37.343  24.080  26.384  1.00  0.00     0.138 C 
ATOM     14  C   UNL A   1      36.947  22.095  24.835  1.00  0.00     0.098 C 
ATOM     15  C   UNL A   1      35.854  24.480  26.242  1.00  0.00     0.139 C 
ATOM     16  C   UNL A   1      35.479  22.750  24.589  1.00  0.00     0.142 C 
ATOM     17  C   UNL A   1      36.843  20.579  25.083  1.00  0.00     0.033 C 
BRANCH  12  18
ATOM     18  C   UNL A   1      39.094  22.333  26.258  1.00  0.00     0.037 A 
ATOM     19  C   UNL A   1      41.457  19.291  25.989  1.00  0.00     0.044 C 
ATOM     20  C   UNL A   1      40.843  20.579  26.456  1.00  0.00    -0.049 A 
ATOM     21  C   UNL A   1      41.524  21.310  27.430  1.00  0.00     0.003 A 
ATOM     22  C   UNL A   1      39.627  21.077  25.913  1.00  0.00     0.029 A 
ATOM     23  C   UNL A   1      41.081  22.580  27.740  1.00  0.00     0.002 A 
ATOM     24  C   UNL A   1      39.932  23.093  27.113  1.00  0.00     0.026 A 
ENDBRANCH  12  18
ENDBRANCH   6  11
BRANCH  10  25
ATOM     25  N   UNL A   1      29.615  25.185  24.588  1.00  0.00    -0.320 N 
ATOM     26  C   UNL A   1      29.299  26.332  23.903  1.00  0.00     0.258 C 
ATOM     27  H   UNL A   1      28.853  24.607  24.822  1.00  0.00     0.170 HD
ATOM     28  O   UNL A   1      28.126  26.662  23.745  1.00  0.00    -0.269 OA
BRANCH  26  29
ATOM     29  C   UNL A   1      30.370  27.141  23.296  1.00  0.00     0.075 A 
ATOM     30  C   UNL A   1      30.454  28.491  23.636  1.00  0.00     0.017 A 
ATOM     31  C   UNL A   1      31.297  26.589  22.407  1.00  0.00     0.135 A 
ATOM     32  C   UNL A   1      31.530  29.247  23.172  1.00  0.00     0.001 A 
ATOM     33  C   UNL A   1      32.396  27.324  21.988  1.00  0.00     0.040 A 
ATOM     34  F   UNL A   1      31.163  25.338  21.944  1.00  0.00    -0.206 F 
ATOM     35  C   UNL A   1      32.519  28.654  22.380  1.00  0.00     0.003 A 
ENDBRANCH  26  29
ENDBRANCH  10  25
ENDBRANCH   3   5
ENDBRANCH   2   3
ENDBRANCH   1   2
BRANCH   1  36
ATOM     36  C   UNL A   1      33.223  30.068  26.523  1.00  0.00     0.275 C 
BRANCH  36  37
ATOM     37  O   UNL A   1      33.107  30.955  27.649  1.00  0.00    -0.458 OA
BRANCH  37  38
ATOM     38  C   UNL A   1      34.032  31.930  27.758  1.00  0.00     0.338 C 
ATOM     39  O   UNL A   1      33.755  33.104  27.697  1.00  0.00    -0.246 OA
BRANCH  38  40
ATOM     40  C   UNL A   1      35.359  31.361  28.106  1.00  0.00     0.060 A 
ATOM     41  C   UNL A   1      36.430  32.248  28.153  1.00  0.00     0.016 A 
ATOM     42  C   UNL A   1      35.508  30.074  28.595  1.00  0.00     0.016 A 
ATOM     43  C   UNL A   1      37.627  31.945  28.774  1.00  0.00     0.010 A 
ATOM     44  C   UNL A   1      36.698  29.741  29.205  1.00  0.00     0.010 A 
ATOM     45  C   UNL A   1      37.749  30.676  29.279  1.00  0.00    -0.014 A 
BRANCH  45  46
ATOM     46  C   UNL A   1      39.013  30.193  29.772  1.00  0.00     0.031 A 
ATOM     47  C   UNL A   1      39.566  28.907  29.307  1.00  0.00     0.074 A 
ATOM     48  C   UNL A   1      39.626  31.113  30.546  1.00  0.00     0.049 A 
ATOM     49  N   UNL A   1      40.456  28.239  29.960  1.00  0.00    -0.248 NA
ATOM     50  C   UNL A   1      39.098  28.186  28.118  1.00  0.00     0.031 C 
ATOM     51  C   UNL A   1      41.033  31.405  30.694  1.00  0.00     0.029 A 
ATOM     52  N   UNL A   1      39.002  32.059  31.368  1.00  0.00    -0.354 N 
ATOM     53  C   UNL A   1      40.977  27.320  29.069  1.00  0.00     0.074 A 
ATOM     54  C   UNL A   1      39.972  27.171  28.048  1.00  0.00     0.031 C 
ATOM     55  C   UNL A   1      41.194  32.303  31.687  1.00  0.00     0.029 A 
ATOM     56  C   UNL A   1      39.912  32.472  32.352  1.00  0.00     0.049 A 
ATOM     57  H   UNL A   1      38.076  32.380  31.271  1.00  0.00     0.167 HD
ATOM     58  C   UNL A   1      42.310  27.033  29.154  1.00  0.00     0.037 A 
ATOM     59  C   UNL A   1      39.674  32.230  33.687  1.00  0.00     0.037 A 
ATOM     60  C   UNL A   1      42.890  27.781  30.261  1.00  0.00     0.049 A 
ATOM     61  C   UNL A   1      40.638  31.237  34.273  1.00  0.00     0.074 A 
ATOM     62  C   UNL A   1      43.472  29.037  30.279  1.00  0.00     0.029 A 
ATOM     63  N   UNL A   1      42.561  27.466  31.566  1.00  0.00    -0.354 N 
ATOM     64  N   UNL A   1      41.317  30.407  33.542  1.00  0.00    -0.248 NA
ATOM     65  C   UNL A   1      40.756  30.972  35.703  1.00  0.00     0.031 C 
ATOM     66  C   UNL A   1      43.476  29.491  31.613  1.00  0.00     0.029 A 
ATOM     67  C   UNL A   1      42.881  28.521  32.399  1.00  0.00     0.049 A 
ATOM     68  H   UNL A   1      42.158  26.617  31.859  1.00  0.00     0.167 HD
ATOM     69  C   UNL A   1      41.908  29.484  34.348  1.00  0.00     0.074 A 
ATOM     70  C   UNL A   1      41.553  29.890  35.696  1.00  0.00     0.031 C 
ATOM     71  C   UNL A   1      42.607  28.444  33.819  1.00  0.00     0.037 A 
BRANCH  58  72
ATOM     72  C   UNL A   1      43.180  26.440  28.069  1.00  0.00     0.064 A 
ATOM     73  C   UNL A   1      43.572  27.242  26.965  1.00  0.00     0.173 A 
ATOM     74  C   UNL A   1      43.652  25.119  28.031  1.00  0.00     0.173 A 
ATOM     75  F   UNL A   1      43.264  28.542  26.888  1.00  0.00    -0.203 F 
ATOM     76  C   UNL A   1      44.300  26.747  25.886  1.00  0.00     0.198 A 
ATOM     77  C   UNL A   1      44.377  24.618  26.938  1.00  0.00     0.198 A 
ATOM     78  F   UNL A   1      43.462  24.283  29.060  1.00  0.00    -0.203 F 
ATOM     79  F   UNL A   1      44.612  27.563  24.868  1.00  0.00    -0.200 F 
ATOM     80  C   UNL A   1      44.693  25.430  25.864  1.00  0.00     0.200 A 
ATOM     81  F   UNL A   1      44.776  23.338  26.933  1.00  0.00    -0.200 F 
ATOM     82  F   UNL A   1      45.390  24.953  24.824  1.00  0.00    -0.200 F 
ENDBRANCH  58  72
BRANCH  59  83
ATOM     83  C   UNL A   1      38.217  32.086  34.009  1.00  0.00     0.064 A 
ATOM     84  C   UNL A   1      37.489  33.286  34.115  1.00  0.00     0.173 A 
ATOM     85  C   UNL A   1      37.590  30.949  33.478  1.00  0.00     0.173 A 
ATOM     86  F   UNL A   1      38.035  34.362  34.701  1.00  0.00    -0.203 F 
ATOM     87  C   UNL A   1      36.339  33.437  33.367  1.00  0.00     0.198 A 
ATOM     88  C   UNL A   1      36.456  31.103  32.726  1.00  0.00     0.198 A 
ATOM     89  F   UNL A   1      38.153  29.735  33.535  1.00  0.00    -0.203 F 
ATOM     90  F   UNL A   1      35.759  34.639  33.246  1.00  0.00    -0.200 F 
ATOM     91  C   UNL A   1      35.882  32.356  32.634  1.00  0.00     0.200 A 
ATOM     92  F   UNL A   1      35.953  30.068  32.038  1.00  0.00    -0.200 F 
ATOM     93  F   UNL A   1      34.843  32.500  31.829  1.00  0.00    -0.200 F 
ENDBRANCH  59  83
BRANCH  71  94
ATOM     94  C   UNL A   1      43.203  27.333  34.612  1.00  0.00     0.064 A 
ATOM     95  C   UNL A   1      44.537  27.307  35.035  1.00  0.00     0.173 A 
ATOM     96  C   UNL A   1      42.385  26.261  35.033  1.00  0.00     0.173 A 
ATOM     97  F   UNL A   1      45.351  28.353  34.837  1.00  0.00    -0.203 F 
ATOM     98  C   UNL A   1      45.056  26.206  35.710  1.00  0.00     0.198 A 
ATOM     99  C   UNL A   1      42.888  25.202  35.772  1.00  0.00     0.198 A 
ATOM    100  F   UNL A   1      41.076  26.219  34.742  1.00  0.00    -0.203 F 
ATOM    101  F   UNL A   1      46.360  26.170  36.012  1.00  0.00    -0.200 F 
ATOM    102  C   UNL A   1      44.233  25.154  36.075  1.00  0.00     0.200 A 
ATOM    103  F   UNL A   1      42.063  24.230  36.185  1.00  0.00    -0.200 F 
ATOM    104  F   UNL A   1      44.734  24.100  36.730  1.00  0.00    -0.200 F 
ENDBRANCH  71  94
ENDBRANCH  45  46
ENDBRANCH  38  40
ENDBRANCH  37  38
ENDBRANCH  36  37
ENDBRANCH   1  36
TORSDOF 15
ENDMDL
MODEL 3
REMARK VINA RESULT:     -12.9      2.623      6.366
REMARK SMILES Cc1cccc(N2CCN(c3ncc(NC(=O)c4ccccc4F)cc3C(=O)OCCOC(=O)c3ccc(-c4c5nc(c(-c6c(F)c(F)c(F)c(F)c6F)c6ccc([nH]6)c(-c6c(F)c(F)c(F)c(F)c6F)c6nc(c(-c7c(F)c(F)c(F)c(F)c7F)c7ccc4[nH]7)C=C6)C=C5)cc3)C[C@@H]2C)c1
REMARK SMILES IDX 30 1 29 2 27 3 28 4 26 5 11 6 12 7 13 8 25 9 14 10 10 11
REMARK SMILES IDX 7 12 8 13 99 14 9 15 98 16 100 17 6 18 1 19 2 20 3 21 101 22
REMARK SMILES IDX 4 23 5 24 15 25 16 26 17 28 18 29 19 30 23 31 20 32 22 33
REMARK SMILES IDX 24 34 21 35 31 36 32 37 33 38 34 39 35 40 36 41 97 42 37 43
REMARK SMILES IDX 96 44 38 45 39 46 40 47 90 48 41 49 95 50 89 51 91 52 42 53
REMARK SMILES IDX 94 54 88 55 87 56 43 58 75 59 55 60 74 61 56 62 59 63 73 64
REMARK SMILES IDX 92 65 57 66 58 67 72 69 93 70 60 71 44 72 45 73 53 74 46 75
REMARK SMILES IDX 47 76 51 77 54 78 48 79 49 80 52 81 50 82 76 83 77 84 85 85
REMARK SMILES IDX 78 86 79 87 83 88 86 89 80 90 81 91 84 92 82 93 61 94 62 95
REMARK SMILES IDX 70 96 63 97 64 98 68 99 71 100 65 101 66 102 69 103 67 104
REMARK H PARENT 15 27 91 57 59 68
REMARK Flexibility Score: inf
ROOT
ATOM      1  C   UNL A   1      33.982  30.314  27.200  1.00  0.00     0.275 C 
ENDROOT
BRANCH   1   2
ATOM      2  O   UNL A   1      33.465  29.731  25.966  1.00  0.00    -0.458 OA
BRANCH   2   3
ATOM      3  C   UNL A   1      33.572  28.367  25.941  1.00  0.00     0.342 C 
ATOM      4  O   UNL A   1      34.465  27.766  26.547  1.00  0.00    -0.246 OA
BRANCH   3   5
ATOM      5  C   UNL A   1      32.844  27.591  24.901  1.00  0.00     0.104 A 
ATOM      6  C   UNL A   1      33.036  26.320  24.265  1.00  0.00     0.143 A 
ATOM      7  N   UNL A   1      32.486  26.183  23.011  1.00  0.00    -0.236 NA
ATOM      8  C   UNL A   1      31.909  27.225  22.349  1.00  0.00     0.139 A 
ATOM      9  C   UNL A   1      32.157  28.617  24.196  1.00  0.00     0.047 A 
ATOM     10  C   UNL A   1      31.737  28.471  22.899  1.00  0.00     0.061 A 
BRANCH   6  11
ATOM     11  N   UNL A   1      33.850  25.205  24.638  1.00  0.00    -0.352 N 
ATOM     12  N   UNL A   1      35.608  22.763  24.948  1.00  0.00    -0.365 N 
ATOM     13  C   UNL A   1      35.688  23.574  23.719  1.00  0.00     0.138 C 
ATOM     14  C   UNL A   1      34.339  22.854  25.757  1.00  0.00     0.098 C 
ATOM     15  C   UNL A   1      34.716  24.759  23.502  1.00  0.00     0.139 C 
ATOM     16  C   UNL A   1      33.272  23.988  25.287  1.00  0.00     0.142 C 
ATOM     17  C   UNL A   1      34.606  22.939  27.272  1.00  0.00     0.033 C 
BRANCH  12  18
ATOM     18  C   UNL A   1      36.688  21.900  25.244  1.00  0.00     0.037 A 
ATOM     19  C   UNL A   1      40.331  21.925  26.526  1.00  0.00     0.044 C 
ATOM     20  C   UNL A   1      39.049  21.470  25.889  1.00  0.00    -0.049 A 
ATOM     21  C   UNL A   1      38.964  20.142  25.471  1.00  0.00     0.003 A 
ATOM     22  C   UNL A   1      37.932  22.336  25.737  1.00  0.00     0.029 A 
ATOM     23  C   UNL A   1      37.743  19.652  25.056  1.00  0.00     0.002 A 
ATOM     24  C   UNL A   1      36.625  20.502  25.013  1.00  0.00     0.026 A 
ENDBRANCH  12  18
ENDBRANCH   6  11
BRANCH  10  25
ATOM     25  N   UNL A   1      31.201  29.604  22.271  1.00  0.00    -0.320 N 
ATOM     26  C   UNL A   1      29.888  29.900  21.999  1.00  0.00     0.258 C 
ATOM     27  H   UNL A   1      31.857  30.281  21.984  1.00  0.00     0.170 HD
ATOM     28  O   UNL A   1      29.598  30.874  21.308  1.00  0.00    -0.269 OA
BRANCH  26  29
ATOM     29  C   UNL A   1      28.816  29.083  22.593  1.00  0.00     0.075 A 
ATOM     30  C   UNL A   1      29.102  27.761  22.934  1.00  0.00     0.017 A 
ATOM     31  C   UNL A   1      27.539  29.601  22.827  1.00  0.00     0.135 A 
ATOM     32  C   UNL A   1      28.142  27.006  23.608  1.00  0.00     0.001 A 
ATOM     33  C   UNL A   1      26.603  28.871  23.545  1.00  0.00     0.040 A 
ATOM     34  F   UNL A   1      27.183  30.815  22.382  1.00  0.00    -0.206 F 
ATOM     35  C   UNL A   1      26.909  27.574  23.945  1.00  0.00     0.003 A 
ENDBRANCH  26  29
ENDBRANCH  10  25
ENDBRANCH   3   5
ENDBRANCH   2   3
ENDBRANCH   1   2
BRANCH   1  36
ATOM     36  C   UNL A   1      33.236  31.548  27.762  1.00  0.00     0.275 C 
BRANCH  36  37
ATOM     37  O   UNL A   1      33.870  32.838  27.802  1.00  0.00    -0.458 OA
BRANCH  37  38
ATOM     38  C   UNL A   1      34.221  33.310  29.016  1.00  0.00     0.338 C 
ATOM     39  O   UNL A   1      33.469  33.950  29.711  1.00  0.00    -0.246 OA
BRANCH  38  40
ATOM     40  C   UNL A   1      35.563  32.808  29.408  1.00  0.00     0.060 A 
ATOM     41  C   UNL A   1      35.611  31.906  30.466  1.00  0.00     0.016 A 
ATOM     42  C   UNL A   1      36.689  33.020  28.632  1.00  0.00     0.016 A 
ATOM     43  C   UNL A   1      36.712  31.111  30.723  1.00  0.00     0.010 A 
ATOM     44  C   UNL A   1      37.806  32.251  28.878  1.00  0.00     0.010 A 
ATOM     45  C   UNL A   1      37.810  31.311  29.927  1.00  0.00    -0.014 A 
BRANCH  45  46
ATOM     46  C   UNL A   1      39.069  30.679  30.227  1.00  0.00     0.031 A 
ATOM     47  C   UNL A   1      39.368  29.318  29.743  1.00  0.00     0.074 A 
ATOM     48  C   UNL A   1      39.916  31.532  30.839  1.00  0.00     0.049 A 
ATOM     49  N   UNL A   1      40.265  28.558  30.272  1.00  0.00    -0.248 NA
ATOM     50  C   UNL A   1      38.616  28.631  28.687  1.00  0.00     0.031 C 
ATOM     51  C   UNL A   1      41.353  31.640  30.735  1.00  0.00     0.029 A 
ATOM     52  N   UNL A   1      39.566  32.576  31.704  1.00  0.00    -0.354 N 
ATOM     53  C   UNL A   1      40.506  27.552  29.355  1.00  0.00     0.074 A 
ATOM     54  C   UNL A   1      39.330  27.507  28.525  1.00  0.00     0.031 C 
ATOM     55  C   UNL A   1      41.794  32.537  31.640  1.00  0.00     0.029 A 
ATOM     56  C   UNL A   1      40.677  32.894  32.501  1.00  0.00     0.049 A 
ATOM     57  H   UNL A   1      38.685  33.014  31.747  1.00  0.00     0.167 HD
ATOM     58  C   UNL A   1      41.787  27.094  29.231  1.00  0.00     0.037 A 
ATOM     59  C   UNL A   1      40.644  32.725  33.866  1.00  0.00     0.037 A 
ATOM     60  C   UNL A   1      42.637  27.790  30.186  1.00  0.00     0.049 A 
ATOM     61  C   UNL A   1      41.562  31.630  34.334  1.00  0.00     0.074 A 
ATOM     62  C   UNL A   1      43.368  28.958  30.042  1.00  0.00     0.029 A 
ATOM     63  N   UNL A   1      42.502  27.560  31.542  1.00  0.00    -0.354 N 
ATOM     64  N   UNL A   1      41.995  30.696  33.544  1.00  0.00    -0.248 NA
ATOM     65  C   UNL A   1      41.890  31.394  35.737  1.00  0.00     0.031 C 
ATOM     66  C   UNL A   1      43.658  29.447  31.332  1.00  0.00     0.029 A 
ATOM     67  C   UNL A   1      43.090  28.587  32.254  1.00  0.00     0.049 A 
ATOM     68  H   UNL A   1      42.051  26.781  31.942  1.00  0.00     0.167 HD
ATOM     69  C   UNL A   1      42.595  29.728  34.287  1.00  0.00     0.074 A 
ATOM     70  C   UNL A   1      42.531  30.216  35.652  1.00  0.00     0.031 C 
ATOM     71  C   UNL A   1      43.056  28.589  33.703  1.00  0.00     0.037 A 
BRANCH  58  72
ATOM     72  C   UNL A   1      42.375  26.359  28.048  1.00  0.00     0.064 A 
ATOM     73  C   UNL A   1      42.628  27.060  26.840  1.00  0.00     0.173 A 
ATOM     74  C   UNL A   1      42.703  24.994  28.014  1.00  0.00     0.173 A 
ATOM     75  F   UNL A   1      42.438  28.381  26.732  1.00  0.00    -0.203 F 
ATOM     76  C   UNL A   1      43.089  26.439  25.682  1.00  0.00     0.198 A 
ATOM     77  C   UNL A   1      43.158  24.367  26.844  1.00  0.00     0.198 A 
ATOM     78  F   UNL A   1      42.631  24.235  29.114  1.00  0.00    -0.203 F 
ATOM     79  F   UNL A   1      43.280  27.166  24.572  1.00  0.00    -0.200 F 
ATOM     80  C   UNL A   1      43.343  25.087  25.678  1.00  0.00     0.200 A 
ATOM     81  F   UNL A   1      43.424  23.053  26.853  1.00  0.00    -0.200 F 
ATOM     82  F   UNL A   1      43.782  24.489  24.563  1.00  0.00    -0.200 F 
ENDBRANCH  58  72
BRANCH  59  83
ATOM     83  C   UNL A   1      39.257  32.785  34.434  1.00  0.00     0.064 A 
ATOM     84  C   UNL A   1      38.682  31.550  34.786  1.00  0.00     0.173 A 
ATOM     85  C   UNL A   1      38.970  33.920  35.209  1.00  0.00     0.173 A 
ATOM     86  F   UNL A   1      38.867  30.469  34.012  1.00  0.00    -0.203 F 
ATOM     87  C   UNL A   1      38.178  31.388  36.060  1.00  0.00     0.198 A 
ATOM     88  C   UNL A   1      38.481  33.755  36.477  1.00  0.00     0.198 A 
ATOM     89  F   UNL A   1      39.316  35.153  34.818  1.00  0.00    -0.203 F 
ATOM     90  F   UNL A   1      37.854  30.168  36.513  1.00  0.00    -0.200 F 
ATOM     91  C   UNL A   1      38.149  32.484  36.903  1.00  0.00     0.200 A 
ATOM     92  F   UNL A   1      38.392  34.801  37.310  1.00  0.00    -0.200 F 
ATOM     93  F   UNL A   1      37.768  32.336  38.161  1.00  0.00    -0.200 F 
ENDBRANCH  59  83
BRANCH  71  94
ATOM     94  C   UNL A   1      43.636  27.433  34.441  1.00  0.00     0.064 A 
ATOM     95  C   UNL A   1      42.876  26.378  34.958  1.00  0.00     0.173 A 
ATOM     96  C   UNL A   1      45.038  27.333  34.588  1.00  0.00     0.173 A 
ATOM     97  F   UNL A   1      41.558  26.290  34.725  1.00  0.00    -0.203 F 
ATOM     98  C   UNL A   1      43.466  25.363  35.704  1.00  0.00     0.198 A 
ATOM     99  C   UNL A   1      45.630  26.279  35.266  1.00  0.00     0.198 A 
ATOM    100  F   UNL A   1      45.867  28.253  34.071  1.00  0.00    -0.203 F 
ATOM    101  F   UNL A   1      42.697  24.424  36.269  1.00  0.00    -0.200 F 
ATOM    102  C   UNL A   1      44.841  25.315  35.860  1.00  0.00     0.200 A 
ATOM    103  F   UNL A   1      46.965  26.205  35.341  1.00  0.00    -0.200 F 
ATOM    104  F   UNL A   1      45.407  24.333  36.572  1.00  0.00    -0.200 F 
ENDBRANCH  71  94
ENDBRANCH  45  46
ENDBRANCH  38  40
ENDBRANCH  37  38
ENDBRANCH  36  37
ENDBRANCH   1  36
TORSDOF 15
ENDMDL
