MODEL 1
REMARK VINA RESULT:     -12.5      0.000      0.000
REMARK SMILES C=CCn1c(=S)[nH]c2cc(C(=O)OCCOC(=O)c3ccc(-c4c5nc(c(-c6c(F)c(F)c(F)c(F)c6F)c6ccc([nH]6)c(-c6c(F)c(F)c(F)c(F)c6F)c6nc(c(-c7c(F)c(F)c(F)c(F)c7F)c7ccc4[nH]7)C=C6)C=C5)cc3)ccc2c1=O
REMARK SMILES IDX 14 1 13 2 11 3 12 4 10 5 4 6 5 7 85 8 6 9 7 10 84 11 86 12
REMARK SMILES IDX 8 13 83 15 9 16 82 17 3 18 2 19 1 20 15 21 16 22 17 23 18 24
REMARK SMILES IDX 19 25 20 26 81 27 21 28 80 29 22 30 23 31 24 32 74 33 25 34
REMARK SMILES IDX 79 35 73 36 75 37 26 38 78 39 72 40 71 41 27 43 59 44 39 45
REMARK SMILES IDX 58 46 40 47 43 48 57 49 76 50 41 51 42 52 56 54 77 55 44 56
REMARK SMILES IDX 28 57 29 58 37 59 30 60 31 61 35 62 38 63 32 64 33 65 36 66
REMARK SMILES IDX 34 67 60 68 61 69 69 70 62 71 63 72 67 73 70 74 64 75 65 76
REMARK SMILES IDX 68 77 66 78 45 79 46 80 54 81 47 82 48 83 52 84 55 85 49 86
REMARK SMILES IDX 50 87 53 88 51 89
REMARK H PARENT 7 14 75 42 43 53
REMARK Flexibility Score: inf
ROOT
ATOM      1  C   UNL A   1      46.545  20.774  37.539  1.00  0.00     0.275 C 
ENDROOT
BRANCH   1   2
ATOM      2  O   UNL A   1      45.729  19.585  37.641  1.00  0.00    -0.458 OA
BRANCH   2   3
ATOM      3  C   UNL A   1      46.190  18.638  38.490  1.00  0.00     0.338 C 
ATOM      4  O   UNL A   1      47.317  18.566  38.959  1.00  0.00    -0.246 OA
BRANCH   3   5
ATOM      5  C   UNL A   1      45.123  17.705  38.910  1.00  0.00     0.062 A 
ATOM      6  N   UNL A   1      42.494  14.536  41.839  1.00  0.00    -0.281 N 
ATOM      7  C   UNL A   1      43.328  15.259  42.692  1.00  0.00     0.180 A 
ATOM      8  C   UNL A   1      42.470  14.714  40.441  1.00  0.00     0.262 A 
ATOM      9  S   UNL A   1      43.506  15.094  44.353  1.00  0.00    -0.040 S 
ATOM     10  N   UNL A   1      44.104  16.220  42.116  1.00  0.00    -0.332 N 
ATOM     11  C   UNL A   1      43.351  15.757  39.874  1.00  0.00     0.064 A 
ATOM     12  O   UNL A   1      41.787  14.052  39.663  1.00  0.00    -0.269 OA
ATOM     13  C   UNL A   1      44.141  16.471  40.752  1.00  0.00     0.054 A 
ATOM     14  H   UNL A   1      44.673  16.769  42.703  1.00  0.00     0.169 HD
ATOM     15  C   UNL A   1      43.436  16.021  38.496  1.00  0.00     0.017 A 
ATOM     16  C   UNL A   1      45.021  17.428  40.275  1.00  0.00     0.042 A 
ATOM     17  C   UNL A   1      44.320  17.002  38.010  1.00  0.00     0.016 A 
BRANCH   6  18
ATOM     18  C   UNL A   1      41.580  13.523  42.367  1.00  0.00     0.155 C 
BRANCH  18  19
ATOM     19  C   UNL A   1      42.304  12.204  42.440  1.00  0.00    -0.013 C 
ATOM     20  C   UNL A   1      42.151  11.305  43.419  1.00  0.00     0.006 C 
ENDBRANCH  18  19
ENDBRANCH   6  18
ENDBRANCH   3   5
ENDBRANCH   2   3
ENDBRANCH   1   2
BRANCH   1  21
ATOM     21  C   UNL A   1      46.035  21.737  36.463  1.00  0.00     0.275 C 
BRANCH  21  22
ATOM     22  O   UNL A   1      45.620  22.991  37.040  1.00  0.00    -0.458 OA
BRANCH  22  23
ATOM     23  C   UNL A   1      46.381  24.055  36.704  1.00  0.00     0.338 C 
ATOM     24  O   UNL A   1      47.596  24.144  36.738  1.00  0.00    -0.246 OA
BRANCH  23  25
ATOM     25  C   UNL A   1      45.542  25.127  36.148  1.00  0.00     0.060 A 
ATOM     26  C   UNL A   1      46.088  26.216  35.481  1.00  0.00     0.016 A 
ATOM     27  C   UNL A   1      44.174  24.906  36.101  1.00  0.00     0.016 A 
ATOM     28  C   UNL A   1      45.236  27.074  34.770  1.00  0.00     0.010 A 
ATOM     29  C   UNL A   1      43.364  25.641  35.243  1.00  0.00     0.010 A 
ATOM     30  C   UNL A   1      43.868  26.770  34.592  1.00  0.00    -0.014 A 
BRANCH  30  31
ATOM     31  C   UNL A   1      42.977  27.630  33.750  1.00  0.00     0.031 A 
ATOM     32  C   UNL A   1      42.824  27.391  32.261  1.00  0.00     0.074 A 
ATOM     33  C   UNL A   1      42.310  28.659  34.316  1.00  0.00     0.049 A 
ATOM     34  N   UNL A   1      42.042  28.003  31.402  1.00  0.00    -0.248 NA
ATOM     35  C   UNL A   1      43.690  26.376  31.637  1.00  0.00     0.031 C 
ATOM     36  C   UNL A   1      42.457  29.102  35.703  1.00  0.00     0.029 A 
ATOM     37  N   UNL A   1      41.352  29.503  33.804  1.00  0.00    -0.354 N 
ATOM     38  C   UNL A   1      42.344  27.464  30.158  1.00  0.00     0.074 A 
ATOM     39  C   UNL A   1      43.443  26.550  30.348  1.00  0.00     0.031 C 
ATOM     40  C   UNL A   1      41.553  30.059  35.961  1.00  0.00     0.029 A 
ATOM     41  C   UNL A   1      40.786  30.329  34.749  1.00  0.00     0.049 A 
ATOM     42  H   UNL A   1      41.095  29.516  32.854  1.00  0.00     0.167 HD
ATOM     43  C   UNL A   1      41.725  27.656  28.968  1.00  0.00     0.037 A 
ATOM     44  C   UNL A   1      39.747  31.182  34.661  1.00  0.00     0.037 A 
ATOM     45  C   UNL A   1      40.577  28.500  28.787  1.00  0.00     0.049 A 
ATOM     46  C   UNL A   1      39.024  31.330  33.350  1.00  0.00     0.074 A 
ATOM     47  C   UNL A   1      39.811  28.679  27.648  1.00  0.00     0.029 A 
ATOM     48  N   UNL A   1      40.023  29.297  29.775  1.00  0.00    -0.354 N 
ATOM     49  N   UNL A   1      39.246  30.722  32.211  1.00  0.00    -0.248 NA
ATOM     50  C   UNL A   1      37.902  32.281  33.312  1.00  0.00     0.031 C 
ATOM     51  C   UNL A   1      38.812  29.610  27.938  1.00  0.00     0.029 A 
ATOM     52  C   UNL A   1      38.932  29.981  29.269  1.00  0.00     0.049 A 
ATOM     53  H   UNL A   1      40.354  29.365  30.700  1.00  0.00     0.167 HD
ATOM     54  C   UNL A   1      38.289  31.201  31.328  1.00  0.00     0.074 A 
ATOM     55  C   UNL A   1      37.468  32.137  32.067  1.00  0.00     0.031 C 
ATOM     56  C   UNL A   1      38.115  30.898  30.020  1.00  0.00     0.037 A 
BRANCH  43  57
ATOM     57  C   UNL A   1      42.230  26.889  27.777  1.00  0.00     0.064 A 
ATOM     58  C   UNL A   1      43.193  27.436  26.914  1.00  0.00     0.173 A 
ATOM     59  C   UNL A   1      41.802  25.576  27.532  1.00  0.00     0.173 A 
ATOM     60  F   UNL A   1      43.633  28.689  27.100  1.00  0.00    -0.203 F 
ATOM     61  C   UNL A   1      43.687  26.709  25.835  1.00  0.00     0.198 A 
ATOM     62  C   UNL A   1      42.323  24.838  26.471  1.00  0.00     0.198 A 
ATOM     63  F   UNL A   1      40.894  24.999  28.332  1.00  0.00    -0.203 F 
ATOM     64  F   UNL A   1      44.572  27.270  25.000  1.00  0.00    -0.200 F 
ATOM     65  C   UNL A   1      43.260  25.408  25.619  1.00  0.00     0.200 A 
ATOM     66  F   UNL A   1      41.923  23.575  26.274  1.00  0.00    -0.200 F 
ATOM     67  F   UNL A   1      43.748  24.703  24.590  1.00  0.00    -0.200 F 
ENDBRANCH  43  57
BRANCH  44  68
ATOM     68  C   UNL A   1      39.273  31.891  35.880  1.00  0.00     0.064 A 
ATOM     69  C   UNL A   1      39.752  33.173  36.190  1.00  0.00     0.173 A 
ATOM     70  C   UNL A   1      38.314  31.331  36.734  1.00  0.00     0.173 A 
ATOM     71  F   UNL A   1      40.682  33.745  35.413  1.00  0.00    -0.203 F 
ATOM     72  C   UNL A   1      39.295  33.862  37.310  1.00  0.00     0.198 A 
ATOM     73  C   UNL A   1      37.838  32.032  37.841  1.00  0.00     0.198 A 
ATOM     74  F   UNL A   1      37.818  30.111  36.479  1.00  0.00    -0.203 F 
ATOM     75  F   UNL A   1      39.790  35.074  37.598  1.00  0.00    -0.200 F 
ATOM     76  C   UNL A   1      38.331  33.295  38.131  1.00  0.00     0.200 A 
ATOM     77  F   UNL A   1      36.895  31.488  38.622  1.00  0.00    -0.200 F 
ATOM     78  F   UNL A   1      37.881  33.965  39.200  1.00  0.00    -0.200 F 
ENDBRANCH  44  68
BRANCH  56  79
ATOM     79  C   UNL A   1      36.994  31.568  29.286  1.00  0.00     0.064 A 
ATOM     80  C   UNL A   1      35.845  30.858  28.911  1.00  0.00     0.173 A 
ATOM     81  C   UNL A   1      37.017  32.954  29.062  1.00  0.00     0.173 A 
ATOM     82  F   UNL A   1      35.782  29.531  29.096  1.00  0.00    -0.203 F 
ATOM     83  C   UNL A   1      34.758  31.511  28.339  1.00  0.00     0.198 A 
ATOM     84  C   UNL A   1      35.919  33.607  28.513  1.00  0.00     0.198 A 
ATOM     85  F   UNL A   1      38.091  33.677  29.414  1.00  0.00    -0.203 F 
ATOM     86  F   UNL A   1      33.675  30.811  27.974  1.00  0.00    -0.200 F 
ATOM     87  C   UNL A   1      34.790  32.886  28.152  1.00  0.00     0.200 A 
ATOM     88  F   UNL A   1      35.944  34.937  28.350  1.00  0.00    -0.200 F 
ATOM     89  F   UNL A   1      33.730  33.516  27.627  1.00  0.00    -0.200 F 
ENDBRANCH  56  79
ENDBRANCH  30  31
ENDBRANCH  23  25
ENDBRANCH  22  23
ENDBRANCH  21  22
ENDBRANCH   1  21
TORSDOF 13
ENDMDL
MODEL 2
REMARK VINA RESULT:     -12.4      7.308     14.491
REMARK SMILES C=CCn1c(=S)[nH]c2cc(C(=O)OCCOC(=O)c3ccc(-c4c5nc(c(-c6c(F)c(F)c(F)c(F)c6F)c6ccc([nH]6)c(-c6c(F)c(F)c(F)c(F)c6F)c6nc(c(-c7c(F)c(F)c(F)c(F)c7F)c7ccc4[nH]7)C=C6)C=C5)cc3)ccc2c1=O
REMARK SMILES IDX 14 1 13 2 11 3 12 4 10 5 4 6 5 7 85 8 6 9 7 10 84 11 86 12
REMARK SMILES IDX 8 13 83 15 9 16 82 17 3 18 2 19 1 20 15 21 16 22 17 23 18 24
REMARK SMILES IDX 19 25 20 26 81 27 21 28 80 29 22 30 23 31 24 32 74 33 25 34
REMARK SMILES IDX 79 35 73 36 75 37 26 38 78 39 72 40 71 41 27 43 59 44 39 45
REMARK SMILES IDX 58 46 40 47 43 48 57 49 76 50 41 51 42 52 56 54 77 55 44 56
REMARK SMILES IDX 28 57 29 58 37 59 30 60 31 61 35 62 38 63 32 64 33 65 36 66
REMARK SMILES IDX 34 67 60 68 61 69 69 70 62 71 63 72 67 73 70 74 64 75 65 76
REMARK SMILES IDX 68 77 66 78 45 79 46 80 54 81 47 82 48 83 52 84 55 85 49 86
REMARK SMILES IDX 50 87 53 88 51 89
REMARK H PARENT 7 14 75 42 43 53
REMARK Flexibility Score: inf
ROOT
ATOM      1  C   UNL A   1      31.203  30.557  25.340  1.00  0.00     0.275 C 
ENDROOT
BRANCH   1   2
ATOM      2  O   UNL A   1      31.491  29.197  25.735  1.00  0.00    -0.458 OA
BRANCH   2   3
ATOM      3  C   UNL A   1      32.468  28.584  25.028  1.00  0.00     0.338 C 
ATOM      4  O   UNL A   1      33.192  29.098  24.188  1.00  0.00    -0.246 OA
BRANCH   3   5
ATOM      5  C   UNL A   1      32.669  27.184  25.461  1.00  0.00     0.062 A 
ATOM      6  N   UNL A   1      34.442  22.453  25.495  1.00  0.00    -0.281 N 
ATOM      7  C   UNL A   1      35.314  23.193  24.698  1.00  0.00     0.180 A 
ATOM      8  C   UNL A   1      33.303  23.002  26.119  1.00  0.00     0.262 A 
ATOM      9  S   UNL A   1      36.655  22.650  23.845  1.00  0.00    -0.040 S 
ATOM     10  N   UNL A   1      35.054  24.526  24.584  1.00  0.00    -0.332 N 
ATOM     11  C   UNL A   1      33.063  24.450  25.939  1.00  0.00     0.064 A 
ATOM     12  O   UNL A   1      32.489  22.360  26.779  1.00  0.00    -0.269 OA
ATOM     13  C   UNL A   1      33.963  25.155  25.167  1.00  0.00     0.054 A 
ATOM     14  H   UNL A   1      35.678  25.077  24.057  1.00  0.00     0.169 HD
ATOM     15  C   UNL A   1      31.955  25.115  26.492  1.00  0.00     0.017 A 
ATOM     16  C   UNL A   1      33.765  26.504  24.924  1.00  0.00     0.042 A 
ATOM     17  C   UNL A   1      31.758  26.489  26.257  1.00  0.00     0.016 A 
BRANCH   6  18
ATOM     18  C   UNL A   1      34.669  21.026  25.727  1.00  0.00     0.155 C 
BRANCH  18  19
ATOM     19  C   UNL A   1      33.905  20.237  24.697  1.00  0.00    -0.013 C 
ATOM     20  C   UNL A   1      33.157  19.160  24.963  1.00  0.00     0.006 C 
ENDBRANCH  18  19
ENDBRANCH   6  18
ENDBRANCH   3   5
ENDBRANCH   2   3
ENDBRANCH   1   2
BRANCH   1  21
ATOM     21  C   UNL A   1      31.445  31.554  26.477  1.00  0.00     0.275 C 
BRANCH  21  22
ATOM     22  O   UNL A   1      32.659  31.247  27.190  1.00  0.00    -0.458 OA
BRANCH  22  23
ATOM     23  C   UNL A   1      33.430  32.314  27.494  1.00  0.00     0.338 C 
ATOM     24  O   UNL A   1      33.093  33.484  27.558  1.00  0.00    -0.246 OA
BRANCH  23  25
ATOM     25  C   UNL A   1      34.780  31.876  27.876  1.00  0.00     0.060 A 
ATOM     26  C   UNL A   1      35.812  32.780  28.095  1.00  0.00     0.016 A 
ATOM     27  C   UNL A   1      34.939  30.548  28.244  1.00  0.00     0.016 A 
ATOM     28  C   UNL A   1      37.000  32.325  28.687  1.00  0.00     0.010 A 
ATOM     29  C   UNL A   1      36.035  30.146  29.000  1.00  0.00     0.010 A 
ATOM     30  C   UNL A   1      37.111  31.015  29.200  1.00  0.00    -0.014 A 
BRANCH  30  31
ATOM     31  C   UNL A   1      38.340  30.557  29.921  1.00  0.00     0.031 A 
ATOM     32  C   UNL A   1      38.599  30.940  31.365  1.00  0.00     0.074 A 
ATOM     33  C   UNL A   1      39.256  29.805  29.273  1.00  0.00     0.049 A 
ATOM     34  N   UNL A   1      39.582  30.572  32.154  1.00  0.00    -0.248 NA
ATOM     35  C   UNL A   1      37.676  31.898  31.996  1.00  0.00     0.031 C 
ATOM     36  C   UNL A   1      39.220  29.468  27.849  1.00  0.00     0.029 A 
ATOM     37  N   UNL A   1      40.384  29.164  29.731  1.00  0.00    -0.354 N 
ATOM     38  C   UNL A   1      39.399  31.267  33.343  1.00  0.00     0.074 A 
ATOM     39  C   UNL A   1      38.277  32.152  33.148  1.00  0.00     0.031 C 
ATOM     40  C   UNL A   1      40.207  28.603  27.573  1.00  0.00     0.029 A 
ATOM     41  C   UNL A   1      40.976  28.354  28.789  1.00  0.00     0.049 A 
ATOM     42  H   UNL A   1      40.734  29.273  30.645  1.00  0.00     0.167 HD
ATOM     43  C   UNL A   1      40.059  31.140  34.519  1.00  0.00     0.037 A 
ATOM     44  C   UNL A   1      41.997  27.482  28.896  1.00  0.00     0.037 A 
ATOM     45  C   UNL A   1      41.123  30.202  34.747  1.00  0.00     0.049 A 
ATOM     46  C   UNL A   1      42.674  27.300  30.228  1.00  0.00     0.074 A 
ATOM     47  C   UNL A   1      41.783  29.919  35.930  1.00  0.00     0.029 A 
ATOM     48  N   UNL A   1      41.672  29.384  33.772  1.00  0.00    -0.354 N 
ATOM     49  N   UNL A   1      42.410  27.878  31.374  1.00  0.00    -0.248 NA
ATOM     50  C   UNL A   1      43.788  26.342  30.283  1.00  0.00     0.031 C 
ATOM     51  C   UNL A   1      42.756  28.953  35.664  1.00  0.00     0.029 A 
ATOM     52  C   UNL A   1      42.674  28.606  34.324  1.00  0.00     0.049 A 
ATOM     53  H   UNL A   1      41.391  29.360  32.829  1.00  0.00     0.167 HD
ATOM     54  C   UNL A   1      43.310  27.346  32.286  1.00  0.00     0.074 A 
ATOM     55  C   UNL A   1      44.116  26.382  31.568  1.00  0.00     0.031 C 
ATOM     56  C   UNL A   1      43.458  27.640  33.600  1.00  0.00     0.037 A 
BRANCH  43  57
ATOM     57  C   UNL A   1      39.610  31.988  35.677  1.00  0.00     0.064 A 
ATOM     58  C   UNL A   1      38.586  31.561  36.538  1.00  0.00     0.173 A 
ATOM     59  C   UNL A   1      40.248  33.202  35.971  1.00  0.00     0.173 A 
ATOM     60  F   UNL A   1      37.940  30.410  36.300  1.00  0.00    -0.203 F 
ATOM     61  C   UNL A   1      38.199  32.330  37.632  1.00  0.00     0.198 A 
ATOM     62  C   UNL A   1      39.880  33.954  37.085  1.00  0.00     0.198 A 
ATOM     63  F   UNL A   1      41.241  33.652  35.190  1.00  0.00    -0.203 F 
ATOM     64  F   UNL A   1      37.189  31.921  38.412  1.00  0.00    -0.200 F 
ATOM     65  C   UNL A   1      38.852  33.520  37.910  1.00  0.00     0.200 A 
ATOM     66  F   UNL A   1      40.525  35.095  37.365  1.00  0.00    -0.200 F 
ATOM     67  F   UNL A   1      38.490  34.252  38.973  1.00  0.00    -0.200 F 
ENDBRANCH  43  57
BRANCH  44  68
ATOM     68  C   UNL A   1      42.380  26.649  27.724  1.00  0.00     0.064 A 
ATOM     69  C   UNL A   1      43.388  27.075  26.846  1.00  0.00     0.173 A 
ATOM     70  C   UNL A   1      41.783  25.406  27.477  1.00  0.00     0.173 A 
ATOM     71  F   UNL A   1      43.977  28.265  27.030  1.00  0.00    -0.203 F 
ATOM     72  C   UNL A   1      43.778  26.292  25.762  1.00  0.00     0.198 A 
ATOM     73  C   UNL A   1      42.192  24.611  26.407  1.00  0.00     0.198 A 
ATOM     74  F   UNL A   1      40.820  24.949  28.291  1.00  0.00    -0.203 F 
ATOM     75  F   UNL A   1      44.724  26.736  24.922  1.00  0.00    -0.200 F 
ATOM     76  C   UNL A   1      43.186  25.056  25.548  1.00  0.00     0.200 A 
ATOM     77  F   UNL A   1      41.631  23.410  26.214  1.00  0.00    -0.200 F 
ATOM     78  F   UNL A   1      43.572  24.296  24.515  1.00  0.00    -0.200 F 
ENDBRANCH  44  68
BRANCH  56  79
ATOM     79  C   UNL A   1      44.522  26.915  34.367  1.00  0.00     0.064 A 
ATOM     80  C   UNL A   1      45.792  27.478  34.555  1.00  0.00     0.173 A 
ATOM     81  C   UNL A   1      44.231  25.707  35.020  1.00  0.00     0.173 A 
ATOM     82  F   UNL A   1      46.118  28.626  33.943  1.00  0.00    -0.203 F 
ATOM     83  C   UNL A   1      46.734  26.857  35.369  1.00  0.00     0.198 A 
ATOM     84  C   UNL A   1      45.166  25.102  35.853  1.00  0.00     0.198 A 
ATOM     85  F   UNL A   1      43.025  25.136  34.879  1.00  0.00    -0.203 F 
ATOM     86  F   UNL A   1      47.947  27.403  35.523  1.00  0.00    -0.200 F 
ATOM     87  C   UNL A   1      46.417  25.677  36.028  1.00  0.00     0.200 A 
ATOM     88  F   UNL A   1      44.852  23.973  36.503  1.00  0.00    -0.200 F 
ATOM     89  F   UNL A   1      47.315  25.097  36.834  1.00  0.00    -0.200 F 
ENDBRANCH  56  79
ENDBRANCH  30  31
ENDBRANCH  23  25
ENDBRANCH  22  23
ENDBRANCH  21  22
ENDBRANCH   1  21
TORSDOF 13
ENDMDL
MODEL 3
REMARK VINA RESULT:     -12.4      8.892     12.388
REMARK SMILES C=CCn1c(=S)[nH]c2cc(C(=O)OCCOC(=O)c3ccc(-c4c5nc(c(-c6c(F)c(F)c(F)c(F)c6F)c6ccc([nH]6)c(-c6c(F)c(F)c(F)c(F)c6F)c6nc(c(-c7c(F)c(F)c(F)c(F)c7F)c7ccc4[nH]7)C=C6)C=C5)cc3)ccc2c1=O
REMARK SMILES IDX 14 1 13 2 11 3 12 4 10 5 4 6 5 7 85 8 6 9 7 10 84 11 86 12
REMARK SMILES IDX 8 13 83 15 9 16 82 17 3 18 2 19 1 20 15 21 16 22 17 23 18 24
REMARK SMILES IDX 19 25 20 26 81 27 21 28 80 29 22 30 23 31 24 32 74 33 25 34
REMARK SMILES IDX 79 35 73 36 75 37 26 38 78 39 72 40 71 41 27 43 59 44 39 45
REMARK SMILES IDX 58 46 40 47 43 48 57 49 76 50 41 51 42 52 56 54 77 55 44 56
REMARK SMILES IDX 28 57 29 58 37 59 30 60 31 61 35 62 38 63 32 64 33 65 36 66
REMARK SMILES IDX 34 67 60 68 61 69 69 70 62 71 63 72 67 73 70 74 64 75 65 76
REMARK SMILES IDX 68 77 66 78 45 79 46 80 54 81 47 82 48 83 52 84 55 85 49 86
REMARK SMILES IDX 50 87 53 88 51 89
REMARK H PARENT 7 14 75 42 43 53
REMARK Flexibility Score: inf
ROOT
ATOM      1  C   UNL A   1      35.173  20.946  25.450  1.00  0.00     0.275 C 
ENDROOT
BRANCH   1   2
ATOM      2  O   UNL A   1      34.182  20.758  24.414  1.00  0.00    -0.458 OA
BRANCH   2   3
ATOM      3  C   UNL A   1      32.895  20.823  24.826  1.00  0.00     0.338 C 
ATOM      4  O   UNL A   1      32.138  19.880  25.003  1.00  0.00    -0.246 OA
BRANCH   3   5
ATOM      5  C   UNL A   1      32.493  22.205  25.168  1.00  0.00     0.062 A 
ATOM      6  N   UNL A   1      32.361  27.254  25.062  1.00  0.00    -0.281 N 
ATOM      7  C   UNL A   1      32.971  26.852  23.875  1.00  0.00     0.180 A 
ATOM      8  C   UNL A   1      31.913  26.353  26.050  1.00  0.00     0.262 A 
ATOM      9  S   UNL A   1      33.610  27.818  22.659  1.00  0.00    -0.040 S 
ATOM     10  N   UNL A   1      33.071  25.510  23.664  1.00  0.00    -0.332 N 
ATOM     11  C   UNL A   1      32.070  24.910  25.771  1.00  0.00     0.064 A 
ATOM     12  O   UNL A   1      31.425  26.683  27.128  1.00  0.00    -0.269 OA
ATOM     13  C   UNL A   1      32.652  24.550  24.574  1.00  0.00     0.054 A 
ATOM     14  H   UNL A   1      33.464  25.202  22.814  1.00  0.00     0.169 HD
ATOM     15  C   UNL A   1      31.683  23.910  26.680  1.00  0.00     0.017 A 
ATOM     16  C   UNL A   1      32.868  23.214  24.278  1.00  0.00     0.042 A 
ATOM     17  C   UNL A   1      31.889  22.550  26.377  1.00  0.00     0.016 A 
BRANCH   6  18
ATOM     18  C   UNL A   1      32.153  28.673  25.355  1.00  0.00     0.155 C 
BRANCH  18  19
ATOM     19  C   UNL A   1      33.433  29.250  25.901  1.00  0.00    -0.013 C 
ATOM     20  C   UNL A   1      33.726  29.353  27.203  1.00  0.00     0.006 C 
ENDBRANCH  18  19
ENDBRANCH   6  18
ENDBRANCH   3   5
ENDBRANCH   2   3
ENDBRANCH   1   2
BRANCH   1  21
ATOM     21  C   UNL A   1      36.571  20.512  25.000  1.00  0.00     0.275 C 
BRANCH  21  22
ATOM     22  O   UNL A   1      37.523  21.583  25.151  1.00  0.00    -0.458 OA
BRANCH  22  23
ATOM     23  C   UNL A   1      38.671  21.245  25.775  1.00  0.00     0.338 C 
ATOM     24  O   UNL A   1      39.270  20.184  25.712  1.00  0.00    -0.246 OA
BRANCH  23  25
ATOM     25  C   UNL A   1      39.222  22.401  26.497  1.00  0.00     0.060 A 
ATOM     26  C   UNL A   1      40.379  22.310  27.259  1.00  0.00     0.016 A 
ATOM     27  C   UNL A   1      38.684  23.647  26.207  1.00  0.00     0.016 A 
ATOM     28  C   UNL A   1      40.983  23.489  27.722  1.00  0.00     0.010 A 
ATOM     29  C   UNL A   1      39.387  24.810  26.502  1.00  0.00     0.010 A 
ATOM     30  C   UNL A   1      40.530  24.760  27.305  1.00  0.00    -0.014 A 
BRANCH  30  31
ATOM     31  C   UNL A   1      41.233  26.016  27.715  1.00  0.00     0.031 A 
ATOM     32  C   UNL A   1      42.641  26.325  27.246  1.00  0.00     0.074 A 
ATOM     33  C   UNL A   1      40.616  26.889  28.542  1.00  0.00     0.049 A 
ATOM     34  N   UNL A   1      43.365  27.400  27.456  1.00  0.00    -0.248 NA
ATOM     35  C   UNL A   1      43.354  25.283  26.489  1.00  0.00     0.031 C 
ATOM     36  C   UNL A   1      39.321  26.672  29.188  1.00  0.00     0.029 A 
ATOM     37  N   UNL A   1      40.982  28.147  28.960  1.00  0.00    -0.354 N 
ATOM     38  C   UNL A   1      44.605  27.144  26.883  1.00  0.00     0.074 A 
ATOM     39  C   UNL A   1      44.576  25.785  26.402  1.00  0.00     0.031 C 
ATOM     40  C   UNL A   1      38.953  27.790  29.830  1.00  0.00     0.029 A 
ATOM     41  C   UNL A   1      40.002  28.794  29.678  1.00  0.00     0.049 A 
ATOM     42  H   UNL A   1      41.860  28.547  28.765  1.00  0.00     0.167 HD
ATOM     43  C   UNL A   1      45.656  27.980  26.709  1.00  0.00     0.037 A 
ATOM     44  C   UNL A   1      39.938  30.060  30.134  1.00  0.00     0.037 A 
ATOM     45  C   UNL A   1      45.661  29.360  27.110  1.00  0.00     0.049 A 
ATOM     46  C   UNL A   1      41.084  30.998  29.870  1.00  0.00     0.074 A 
ATOM     47  C   UNL A   1      46.632  30.319  26.882  1.00  0.00     0.029 A 
ATOM     48  N   UNL A   1      44.638  29.979  27.810  1.00  0.00    -0.354 N 
ATOM     49  N   UNL A   1      42.200  30.775  29.220  1.00  0.00    -0.248 NA
ATOM     50  C   UNL A   1      40.961  32.365  30.398  1.00  0.00     0.031 C 
ATOM     51  C   UNL A   1      46.211  31.512  27.475  1.00  0.00     0.029 A 
ATOM     52  C   UNL A   1      44.961  31.305  28.037  1.00  0.00     0.049 A 
ATOM     53  H   UNL A   1      43.806  29.541  28.102  1.00  0.00     0.167 HD
ATOM     54  C   UNL A   1      42.903  31.971  29.247  1.00  0.00     0.074 A 
ATOM     55  C   UNL A   1      42.081  32.926  29.960  1.00  0.00     0.031 C 
ATOM     56  C   UNL A   1      44.126  32.247  28.735  1.00  0.00     0.037 A 
BRANCH  43  57
ATOM     57  C   UNL A   1      46.868  27.451  25.994  1.00  0.00     0.064 A 
ATOM     58  C   UNL A   1      47.029  27.620  24.609  1.00  0.00     0.173 A 
ATOM     59  C   UNL A   1      47.909  26.833  26.703  1.00  0.00     0.173 A 
ATOM     60  F   UNL A   1      46.062  28.200  23.883  1.00  0.00    -0.203 F 
ATOM     61  C   UNL A   1      48.171  27.163  23.957  1.00  0.00     0.198 A 
ATOM     62  C   UNL A   1      49.066  26.407  26.053  1.00  0.00     0.198 A 
ATOM     63  F   UNL A   1      47.815  26.659  28.029  1.00  0.00    -0.203 F 
ATOM     64  F   UNL A   1      48.279  27.295  22.628  1.00  0.00    -0.200 F 
ATOM     65  C   UNL A   1      49.192  26.566  24.680  1.00  0.00     0.200 A 
ATOM     66  F   UNL A   1      50.060  25.847  26.754  1.00  0.00    -0.200 F 
ATOM     67  F   UNL A   1      50.298  26.142  24.053  1.00  0.00    -0.200 F 
ENDBRANCH  43  57
BRANCH  44  68
ATOM     68  C   UNL A   1      38.700  30.536  30.809  1.00  0.00     0.064 A 
ATOM     69  C   UNL A   1      38.612  30.548  32.210  1.00  0.00     0.173 A 
ATOM     70  C   UNL A   1      37.604  31.022  30.084  1.00  0.00     0.173 A 
ATOM     71  F   UNL A   1      39.627  30.078  32.948  1.00  0.00    -0.203 F 
ATOM     72  C   UNL A   1      37.472  31.019  32.856  1.00  0.00     0.198 A 
ATOM     73  C   UNL A   1      36.474  31.518  30.732  1.00  0.00     0.198 A 
ATOM     74  F   UNL A   1      37.641  31.040  28.743  1.00  0.00    -0.203 F 
ATOM     75  F   UNL A   1      37.403  30.992  34.195  1.00  0.00    -0.200 F 
ATOM     76  C   UNL A   1      36.407  31.512  32.117  1.00  0.00     0.200 A 
ATOM     77  F   UNL A   1      35.455  32.009  30.016  1.00  0.00    -0.200 F 
ATOM     78  F   UNL A   1      35.317  31.980  32.740  1.00  0.00    -0.200 F 
ENDBRANCH  44  68
BRANCH  56  79
ATOM     79  C   UNL A   1      44.664  33.634  28.908  1.00  0.00     0.064 A 
ATOM     80  C   UNL A   1      45.512  33.956  29.977  1.00  0.00     0.173 A 
ATOM     81  C   UNL A   1      44.429  34.616  27.932  1.00  0.00     0.173 A 
ATOM     82  F   UNL A   1      45.757  33.053  30.938  1.00  0.00    -0.203 F 
ATOM     83  C   UNL A   1      46.105  35.211  30.064  1.00  0.00     0.198 A 
ATOM     84  C   UNL A   1      45.044  35.862  28.010  1.00  0.00     0.198 A 
ATOM     85  F   UNL A   1      43.634  34.352  26.885  1.00  0.00    -0.203 F 
ATOM     86  F   UNL A   1      46.900  35.504  31.103  1.00  0.00    -0.200 F 
ATOM     87  C   UNL A   1      45.882  36.158  29.075  1.00  0.00     0.200 A 
ATOM     88  F   UNL A   1      44.842  36.769  27.044  1.00  0.00    -0.200 F 
ATOM     89  F   UNL A   1      46.477  37.356  29.146  1.00  0.00    -0.200 F 
ENDBRANCH  56  79
ENDBRANCH  30  31
ENDBRANCH  23  25
ENDBRANCH  22  23
ENDBRANCH  21  22
ENDBRANCH   1  21
TORSDOF 13
ENDMDL
