MODEL 1
REMARK VINA RESULT:     -14.0      0.000      0.000
REMARK SMILES CCC(=O)Nc1ccc(NC(=O)[C@@H]2CC=CC[C@@H]2C(=O)OCCOC(=O)c2ccc(-c3c4nc(c(-c5c(F)c(F)c(F)c(F)c5F)c5ccc([nH]5)c(-c5c(F)c(F)c(F)c(F)c5F)c5nc(c(-c6c(F)c(F)c(F)c(F)c6F)c6ccc3[nH]6)C=C5)C=C4)cc2)cc1
REMARK SMILES IDX 22 1 21 2 19 3 20 4 18 5 13 6 14 7 15 8 17 9 16 10 11 11
REMARK SMILES IDX 10 12 12 14 9 15 6 16 7 17 91 18 8 19 90 20 5 21 3 22 4 23
REMARK SMILES IDX 2 25 1 26 23 27 24 28 25 29 26 30 27 31 28 32 89 33 29 34
REMARK SMILES IDX 88 35 30 36 31 37 32 38 82 39 33 40 87 41 81 42 83 43 34 44
REMARK SMILES IDX 86 45 80 46 79 47 35 49 67 50 47 51 66 52 48 53 51 54 65 55
REMARK SMILES IDX 84 56 49 57 50 58 64 60 85 61 52 62 36 63 37 64 45 65 38 66
REMARK SMILES IDX 39 67 43 68 46 69 40 70 41 71 44 72 42 73 68 74 69 75 77 76
REMARK SMILES IDX 70 77 71 78 75 79 78 80 72 81 73 82 76 83 74 84 53 85 54 86
REMARK SMILES IDX 62 87 55 88 56 89 60 90 63 91 57 92 58 93 61 94 59 95
REMARK H PARENT 10 13 5 24 83 48 51 59
REMARK Flexibility Score: inf
ROOT
ATOM      1  C   UNL A   1      32.396  27.710  26.574  1.00  0.00     0.274 C 
ENDROOT
BRANCH   1   2
ATOM      2  O   UNL A   1      32.326  26.410  25.900  1.00  0.00    -0.462 OA
BRANCH   2   3
ATOM      3  C   UNL A   1      31.064  25.999  25.587  1.00  0.00     0.310 C 
ATOM      4  O   UNL A   1      30.196  25.835  26.445  1.00  0.00    -0.252 OA
BRANCH   3   5
ATOM      5  C   UNL A   1      30.784  25.766  24.071  1.00  0.00     0.116 C 
ATOM      6  C   UNL A   1      31.595  26.319  22.819  1.00  0.00     0.097 C 
ATOM      7  C   UNL A   1      31.099  27.622  22.120  1.00  0.00     0.041 C 
ATOM      8  C   UNL A   1      29.893  28.276  22.706  1.00  0.00    -0.030 C 
ATOM      9  C   UNL A   1      29.283  26.185  23.888  1.00  0.00     0.043 C 
ATOM     10  C   UNL A   1      29.077  27.635  23.545  1.00  0.00    -0.030 C 
BRANCH   6  11
ATOM     11  C   UNL A   1      33.120  26.205  22.533  1.00  0.00     0.228 C 
ATOM     12  N   UNL A   1      33.978  25.215  22.914  1.00  0.00    -0.326 N 
ATOM     13  H   UNL A   1      34.926  25.448  22.795  1.00  0.00     0.169 HD
ATOM     14  O   UNL A   1      33.680  27.205  22.050  1.00  0.00    -0.274 OA
BRANCH  12  15
ATOM     15  C   UNL A   1      33.778  23.939  23.438  1.00  0.00     0.041 A 
ATOM     16  C   UNL A   1      32.943  20.659  24.816  1.00  0.00     0.041 A 
ATOM     17  C   UNL A   1      32.390  21.099  23.170  1.00  0.00     0.028 A 
ATOM     18  C   UNL A   1      33.988  21.792  25.767  1.00  0.00     0.028 A 
ATOM     19  C   UNL A   1      32.882  22.720  22.471  1.00  0.00     0.028 A 
ATOM     20  C   UNL A   1      34.341  23.500  25.120  1.00  0.00     0.028 A 
BRANCH  16  21
ATOM     21  N   UNL A   1      32.472  19.445  25.312  1.00  0.00    -0.326 N 
ATOM     22  C   UNL A   1      33.016  18.193  25.203  1.00  0.00     0.224 C 
ATOM     23  O   UNL A   1      32.525  17.307  25.914  1.00  0.00    -0.275 OA
ATOM     24  H   UNL A   1      31.626  19.494  25.812  1.00  0.00     0.169 HD
BRANCH  22  25
ATOM     25  C   UNL A   1      34.215  17.856  24.333  1.00  0.00     0.097 C 
ATOM     26  C   UNL A   1      33.950  16.862  23.219  1.00  0.00     0.014 C 
ENDBRANCH  22  25
ENDBRANCH  16  21
ENDBRANCH  12  15
ENDBRANCH   6  11
ENDBRANCH   3   5
ENDBRANCH   2   3
ENDBRANCH   1   2
BRANCH   1  27
ATOM     27  C   UNL A   1      32.136  28.887  25.634  1.00  0.00     0.275 C 
BRANCH  27  28
ATOM     28  O   UNL A   1      31.615  29.984  26.435  1.00  0.00    -0.458 OA
BRANCH  28  29
ATOM     29  C   UNL A   1      32.539  31.032  26.901  1.00  0.00     0.338 C 
ATOM     30  O   UNL A   1      31.790  32.043  26.782  1.00  0.00    -0.246 OA
BRANCH  29  31
ATOM     31  C   UNL A   1      34.564  30.804  27.609  1.00  0.00     0.060 A 
ATOM     32  C   UNL A   1      35.292  29.559  28.091  1.00  0.00     0.016 A 
ATOM     33  C   UNL A   1      35.605  31.858  27.912  1.00  0.00     0.016 A 
ATOM     34  C   UNL A   1      36.341  29.457  28.986  1.00  0.00     0.010 A 
ATOM     35  C   UNL A   1      36.809  31.738  28.590  1.00  0.00     0.010 A 
ATOM     36  C   UNL A   1      37.133  30.545  29.174  1.00  0.00    -0.014 A 
BRANCH  36  37
ATOM     37  C   UNL A   1      38.423  30.426  29.813  1.00  0.00     0.031 A 
ATOM     38  C   UNL A   1      39.407  29.517  29.175  1.00  0.00     0.074 A 
ATOM     39  C   UNL A   1      38.498  30.964  31.040  1.00  0.00     0.049 A 
ATOM     40  N   UNL A   1      40.415  28.916  29.728  1.00  0.00    -0.248 NA
ATOM     41  C   UNL A   1      39.155  29.131  27.770  1.00  0.00     0.031 C 
ATOM     42  C   UNL A   1      37.466  31.798  31.684  1.00  0.00     0.029 A 
ATOM     43  N   UNL A   1      39.458  30.852  31.991  1.00  0.00    -0.354 N 
ATOM     44  C   UNL A   1      40.885  28.043  28.762  1.00  0.00     0.074 A 
ATOM     45  C   UNL A   1      40.012  28.133  27.617  1.00  0.00     0.031 C 
ATOM     46  C   UNL A   1      37.873  32.162  32.899  1.00  0.00     0.029 A 
ATOM     47  C   UNL A   1      39.116  31.473  33.165  1.00  0.00     0.049 A 
ATOM     48  H   UNL A   1      40.309  30.377  31.854  1.00  0.00     0.167 HD
ATOM     49  C   UNL A   1      41.972  27.253  28.866  1.00  0.00     0.037 A 
ATOM     50  C   UNL A   1      39.720  31.418  34.355  1.00  0.00     0.037 A 
ATOM     51  C   UNL A   1      42.774  27.241  30.060  1.00  0.00     0.049 A 
ATOM     52  C   UNL A   1      40.936  30.559  34.420  1.00  0.00     0.074 A 
ATOM     53  C   UNL A   1      43.947  26.564  30.312  1.00  0.00     0.029 A 
ATOM     54  N   UNL A   1      42.463  27.962  31.215  1.00  0.00    -0.354 N 
ATOM     55  N   UNL A   1      41.437  29.773  33.494  1.00  0.00    -0.248 NA
ATOM     56  C   UNL A   1      41.676  30.581  35.676  1.00  0.00     0.031 C 
ATOM     57  C   UNL A   1      44.310  26.824  31.638  1.00  0.00     0.029 A 
ATOM     58  C   UNL A   1      43.412  27.730  32.190  1.00  0.00     0.049 A 
ATOM     59  H   UNL A   1      41.681  28.552  31.318  1.00  0.00     0.167 HD
ATOM     60  C   UNL A   1      42.577  29.220  34.040  1.00  0.00     0.074 A 
ATOM     61  C   UNL A   1      42.695  29.789  35.375  1.00  0.00     0.031 C 
ATOM     62  C   UNL A   1      43.450  28.331  33.504  1.00  0.00     0.037 A 
BRANCH  49  63
ATOM     63  C   UNL A   1      42.322  26.380  27.697  1.00  0.00     0.064 A 
ATOM     64  C   UNL A   1      41.697  25.139  27.482  1.00  0.00     0.173 A 
ATOM     65  C   UNL A   1      43.296  26.783  26.773  1.00  0.00     0.173 A 
ATOM     66  F   UNL A   1      40.772  24.688  28.344  1.00  0.00    -0.203 F 
ATOM     67  C   UNL A   1      42.056  24.326  26.411  1.00  0.00     0.198 A 
ATOM     68  C   UNL A   1      43.624  25.985  25.679  1.00  0.00     0.198 A 
ATOM     69  F   UNL A   1      43.940  27.948  26.932  1.00  0.00    -0.203 F 
ATOM     70  F   UNL A   1      41.492  23.118  26.271  1.00  0.00    -0.200 F 
ATOM     71  C   UNL A   1      43.011  24.754  25.503  1.00  0.00     0.200 A 
ATOM     72  F   UNL A   1      44.541  26.405  24.796  1.00  0.00    -0.200 F 
ATOM     73  F   UNL A   1      43.349  23.975  24.466  1.00  0.00    -0.200 F 
ENDBRANCH  49  63
BRANCH  50  74
ATOM     74  C   UNL A   1      39.188  32.211  35.485  1.00  0.00     0.064 A 
ATOM     75  C   UNL A   1      38.400  31.597  36.463  1.00  0.00     0.173 A 
ATOM     76  C   UNL A   1      39.540  33.558  35.679  1.00  0.00     0.173 A 
ATOM     77  F   UNL A   1      38.068  30.303  36.338  1.00  0.00    -0.203 F 
ATOM     78  C   UNL A   1      37.949  32.306  37.573  1.00  0.00     0.198 A 
ATOM     79  C   UNL A   1      39.121  34.255  36.808  1.00  0.00     0.198 A 
ATOM     80  F   UNL A   1      40.344  34.178  34.801  1.00  0.00    -0.203 F 
ATOM     81  F   UNL A   1      37.165  31.700  38.475  1.00  0.00    -0.200 F 
ATOM     82  C   UNL A   1      38.313  33.633  37.747  1.00  0.00     0.200 A 
ATOM     83  F   UNL A   1      39.518  35.521  36.999  1.00  0.00    -0.200 F 
ATOM     84  F   UNL A   1      37.892  34.309  38.825  1.00  0.00    -0.200 F 
ENDBRANCH  50  74
BRANCH  62  85
ATOM     85  C   UNL A   1      44.614  27.975  34.370  1.00  0.00     0.064 A 
ATOM     86  C   UNL A   1      44.567  26.888  35.253  1.00  0.00     0.173 A 
ATOM     87  C   UNL A   1      45.794  28.728  34.299  1.00  0.00     0.173 A 
ATOM     88  F   UNL A   1      43.447  26.155  35.367  1.00  0.00    -0.203 F 
ATOM     89  C   UNL A   1      45.650  26.595  36.072  1.00  0.00     0.198 A 
ATOM     90  C   UNL A   1      46.892  28.399  35.080  1.00  0.00     0.198 A 
ATOM     91  F   UNL A   1      45.882  29.773  33.461  1.00  0.00    -0.203 F 
ATOM     92  F   UNL A   1      45.557  25.606  36.971  1.00  0.00    -0.200 F 
ATOM     93  C   UNL A   1      46.814  27.345  35.977  1.00  0.00     0.200 A 
ATOM     94  F   UNL A   1      48.025  29.107  34.969  1.00  0.00    -0.200 F 
ATOM     95  F   UNL A   1      47.861  27.055  36.760  1.00  0.00    -0.200 F 
ENDBRANCH  62  85
ENDBRANCH  36  37
ENDBRANCH  29  31
ENDBRANCH  28  29
ENDBRANCH  27  28
ENDBRANCH   1  27
TORSDOF 15
ENDMDL
MODEL 2
REMARK VINA RESULT:     -13.9      0.380      1.749
REMARK SMILES CCC(=O)Nc1ccc(NC(=O)[C@@H]2CC=CC[C@@H]2C(=O)OCCOC(=O)c2ccc(-c3c4nc(c(-c5c(F)c(F)c(F)c(F)c5F)c5ccc([nH]5)c(-c5c(F)c(F)c(F)c(F)c5F)c5nc(c(-c6c(F)c(F)c(F)c(F)c6F)c6ccc3[nH]6)C=C5)C=C4)cc2)cc1
REMARK SMILES IDX 22 1 21 2 19 3 20 4 18 5 13 6 14 7 15 8 17 9 16 10 11 11
REMARK SMILES IDX 10 12 12 14 9 15 6 16 7 17 91 18 8 19 90 20 5 21 3 22 4 23
REMARK SMILES IDX 2 25 1 26 23 27 24 28 25 29 26 30 27 31 28 32 89 33 29 34
REMARK SMILES IDX 88 35 30 36 31 37 32 38 82 39 33 40 87 41 81 42 83 43 34 44
REMARK SMILES IDX 86 45 80 46 79 47 35 49 67 50 47 51 66 52 48 53 51 54 65 55
REMARK SMILES IDX 84 56 49 57 50 58 64 60 85 61 52 62 36 63 37 64 45 65 38 66
REMARK SMILES IDX 39 67 43 68 46 69 40 70 41 71 44 72 42 73 68 74 69 75 77 76
REMARK SMILES IDX 70 77 71 78 75 79 78 80 72 81 73 82 76 83 74 84 53 85 54 86
REMARK SMILES IDX 62 87 55 88 56 89 60 90 63 91 57 92 58 93 61 94 59 95
REMARK H PARENT 10 13 5 24 83 48 51 59
REMARK Flexibility Score: inf
ROOT
ATOM      1  C   UNL A   1      32.279  28.288  25.556  1.00  0.00     0.274 C 
ENDROOT
BRANCH   1   2
ATOM      2  O   UNL A   1      32.302  26.839  25.778  1.00  0.00    -0.462 OA
BRANCH   2   3
ATOM      3  C   UNL A   1      31.098  26.219  25.615  1.00  0.00     0.310 C 
ATOM      4  O   UNL A   1      30.349  25.984  26.564  1.00  0.00    -0.252 OA
BRANCH   3   5
ATOM      5  C   UNL A   1      30.723  25.841  24.150  1.00  0.00     0.116 C 
ATOM      6  C   UNL A   1      31.544  26.121  22.816  1.00  0.00     0.097 C 
ATOM      7  C   UNL A   1      31.191  27.383  21.970  1.00  0.00     0.041 C 
ATOM      8  C   UNL A   1      30.107  28.261  22.500  1.00  0.00    -0.030 C 
ATOM      9  C   UNL A   1      29.284  26.433  23.956  1.00  0.00     0.043 C 
ATOM     10  C   UNL A   1      29.253  27.844  23.437  1.00  0.00    -0.030 C 
BRANCH   6  11
ATOM     11  C   UNL A   1      33.026  25.769  22.504  1.00  0.00     0.228 C 
ATOM     12  N   UNL A   1      33.722  24.652  22.868  1.00  0.00    -0.326 N 
ATOM     13  H   UNL A   1      34.693  24.733  22.735  1.00  0.00     0.169 HD
ATOM     14  O   UNL A   1      33.730  26.670  22.016  1.00  0.00    -0.274 OA
BRANCH  12  15
ATOM     15  C   UNL A   1      33.330  23.422  23.390  1.00  0.00     0.041 A 
ATOM     16  C   UNL A   1      32.609  20.135  24.816  1.00  0.00     0.041 A 
ATOM     17  C   UNL A   1      33.308  21.419  25.851  1.00  0.00     0.028 A 
ATOM     18  C   UNL A   1      32.173  20.480  23.092  1.00  0.00     0.028 A 
ATOM     19  C   UNL A   1      33.593  23.081  25.133  1.00  0.00     0.028 A 
ATOM     20  C   UNL A   1      32.622  22.116  22.327  1.00  0.00     0.028 A 
BRANCH  16  21
ATOM     21  N   UNL A   1      32.487  18.878  25.404  1.00  0.00    -0.326 N 
ATOM     22  C   UNL A   1      33.263  17.763  25.240  1.00  0.00     0.224 C 
ATOM     23  O   UNL A   1      33.082  16.833  26.036  1.00  0.00    -0.275 OA
ATOM     24  H   UNL A   1      31.732  18.777  26.029  1.00  0.00     0.169 HD
BRANCH  22  25
ATOM     25  C   UNL A   1      34.366  17.635  24.202  1.00  0.00     0.097 C 
ATOM     26  C   UNL A   1      34.040  16.753  23.013  1.00  0.00     0.014 C 
ENDBRANCH  22  25
ENDBRANCH  16  21
ENDBRANCH  12  15
ENDBRANCH   6  11
ENDBRANCH   3   5
ENDBRANCH   2   3
ENDBRANCH   1   2
BRANCH   1  27
ATOM     27  C   UNL A   1      31.812  29.074  26.780  1.00  0.00     0.275 C 
BRANCH  27  28
ATOM     28  O   UNL A   1      31.710  30.473  26.393  1.00  0.00    -0.458 OA
BRANCH  28  29
ATOM     29  C   UNL A   1      32.646  31.448  26.980  1.00  0.00     0.338 C 
ATOM     30  O   UNL A   1      31.922  32.483  26.945  1.00  0.00    -0.246 OA
BRANCH  29  31
ATOM     31  C   UNL A   1      34.648  31.102  27.707  1.00  0.00     0.060 A 
ATOM     32  C   UNL A   1      35.278  29.830  28.253  1.00  0.00     0.016 A 
ATOM     33  C   UNL A   1      35.766  32.087  27.962  1.00  0.00     0.016 A 
ATOM     34  C   UNL A   1      36.317  29.693  29.156  1.00  0.00     0.010 A 
ATOM     35  C   UNL A   1      36.957  31.909  28.650  1.00  0.00     0.010 A 
ATOM     36  C   UNL A   1      37.189  30.726  29.294  1.00  0.00    -0.014 A 
BRANCH  36  37
ATOM     37  C   UNL A   1      38.466  30.541  29.943  1.00  0.00     0.031 A 
ATOM     38  C   UNL A   1      39.415  29.597  29.303  1.00  0.00     0.074 A 
ATOM     39  C   UNL A   1      38.553  31.059  31.178  1.00  0.00     0.049 A 
ATOM     40  N   UNL A   1      40.389  28.944  29.856  1.00  0.00    -0.248 NA
ATOM     41  C   UNL A   1      39.159  29.241  27.890  1.00  0.00     0.031 C 
ATOM     42  C   UNL A   1      37.552  31.930  31.823  1.00  0.00     0.029 A 
ATOM     43  N   UNL A   1      39.498  30.892  32.136  1.00  0.00    -0.354 N 
ATOM     44  C   UNL A   1      40.830  28.064  28.883  1.00  0.00     0.074 A 
ATOM     45  C   UNL A   1      39.972  28.207  27.732  1.00  0.00     0.031 C 
ATOM     46  C   UNL A   1      37.964  32.260  33.047  1.00  0.00     0.029 A 
ATOM     47  C   UNL A   1      39.172  31.513  33.315  1.00  0.00     0.049 A 
ATOM     48  H   UNL A   1      40.327  30.381  32.001  1.00  0.00     0.167 HD
ATOM     49  C   UNL A   1      41.879  27.224  28.987  1.00  0.00     0.037 A 
ATOM     50  C   UNL A   1      39.761  31.415  34.509  1.00  0.00     0.037 A 
ATOM     51  C   UNL A   1      42.668  27.162  30.188  1.00  0.00     0.049 A 
ATOM     52  C   UNL A   1      40.937  30.501  34.575  1.00  0.00     0.074 A 
ATOM     53  C   UNL A   1      43.807  26.429  30.442  1.00  0.00     0.029 A 
ATOM     54  N   UNL A   1      42.378  27.881  31.349  1.00  0.00    -0.354 N 
ATOM     55  N   UNL A   1      41.411  29.706  33.643  1.00  0.00    -0.248 NA
ATOM     56  C   UNL A   1      41.665  30.475  35.837  1.00  0.00     0.031 C 
ATOM     57  C   UNL A   1      44.168  26.656  31.774  1.00  0.00     0.029 A 
ATOM     58  C   UNL A   1      43.306  27.593  32.331  1.00  0.00     0.049 A 
ATOM     59  H   UNL A   1      41.622  28.503  31.453  1.00  0.00     0.167 HD
ATOM     60  C   UNL A   1      42.520  29.096  34.192  1.00  0.00     0.074 A 
ATOM     61  C   UNL A   1      42.650  29.642  35.536  1.00  0.00     0.031 C 
ATOM     62  C   UNL A   1      43.358  28.176  33.653  1.00  0.00     0.037 A 
BRANCH  49  63
ATOM     63  C   UNL A   1      42.201  26.352  27.810  1.00  0.00     0.064 A 
ATOM     64  C   UNL A   1      43.177  26.711  26.864  1.00  0.00     0.173 A 
ATOM     65  C   UNL A   1      41.527  25.138  27.616  1.00  0.00     0.173 A 
ATOM     66  F   UNL A   1      43.840  27.871  26.982  1.00  0.00    -0.203 F 
ATOM     67  C   UNL A   1      43.441  25.907  25.759  1.00  0.00     0.198 A 
ATOM     68  C   UNL A   1      41.823  24.315  26.531  1.00  0.00     0.198 A 
ATOM     69  F   UNL A   1      40.573  24.748  28.474  1.00  0.00    -0.203 F 
ATOM     70  F   UNL A   1      44.329  26.308  24.838  1.00  0.00    -0.200 F 
ATOM     71  C   UNL A   1      42.772  24.704  25.599  1.00  0.00     0.200 A 
ATOM     72  F   UNL A   1      41.182  23.147  26.383  1.00  0.00    -0.200 F 
ATOM     73  F   UNL A   1      43.035  23.925  24.540  1.00  0.00    -0.200 F 
ENDBRANCH  49  63
BRANCH  50  74
ATOM     74  C   UNL A   1      39.254  32.217  35.645  1.00  0.00     0.064 A 
ATOM     75  C   UNL A   1      38.404  31.634  36.591  1.00  0.00     0.173 A 
ATOM     76  C   UNL A   1      39.687  33.533  35.878  1.00  0.00     0.173 A 
ATOM     77  F   UNL A   1      37.992  30.368  36.427  1.00  0.00    -0.203 F 
ATOM     78  C   UNL A   1      37.973  32.347  37.706  1.00  0.00     0.198 A 
ATOM     79  C   UNL A   1      39.287  34.231  37.014  1.00  0.00     0.198 A 
ATOM     80  F   UNL A   1      40.551  34.118  35.034  1.00  0.00    -0.203 F 
ATOM     81  F   UNL A   1      37.129  31.774  38.575  1.00  0.00    -0.200 F 
ATOM     82  C   UNL A   1      38.417  33.643  37.919  1.00  0.00     0.200 A 
ATOM     83  F   UNL A   1      39.760  35.464  37.243  1.00  0.00    -0.200 F 
ATOM     84  F   UNL A   1      38.014  34.321  39.002  1.00  0.00    -0.200 F 
ENDBRANCH  50  74
BRANCH  62  85
ATOM     85  C   UNL A   1      44.496  27.756  34.525  1.00  0.00     0.064 A 
ATOM     86  C   UNL A   1      45.711  28.453  34.534  1.00  0.00     0.173 A 
ATOM     87  C   UNL A   1      44.354  26.647  35.372  1.00  0.00     0.173 A 
ATOM     88  F   UNL A   1      45.894  29.506  33.720  1.00  0.00    -0.203 F 
ATOM     89  C   UNL A   1      46.766  28.025  35.329  1.00  0.00     0.198 A 
ATOM     90  C   UNL A   1      45.392  26.256  36.204  1.00  0.00     0.198 A 
ATOM     91  F   UNL A   1      43.203  25.958  35.398  1.00  0.00    -0.203 F 
ATOM     92  F   UNL A   1      47.948  28.650  35.261  1.00  0.00    -0.200 F 
ATOM     93  C   UNL A   1      46.601  26.933  36.170  1.00  0.00     0.200 A 
ATOM     94  F   UNL A   1      45.223  25.218  37.036  1.00  0.00    -0.200 F 
ATOM     95  F   UNL A   1      47.616  26.528  36.945  1.00  0.00    -0.200 F 
ENDBRANCH  62  85
ENDBRANCH  36  37
ENDBRANCH  29  31
ENDBRANCH  28  29
ENDBRANCH  27  28
ENDBRANCH   1  27
TORSDOF 15
ENDMDL
MODEL 3
REMARK VINA RESULT:     -13.7      4.182      9.888
REMARK SMILES CCC(=O)Nc1ccc(NC(=O)[C@@H]2CC=CC[C@@H]2C(=O)OCCOC(=O)c2ccc(-c3c4nc(c(-c5c(F)c(F)c(F)c(F)c5F)c5ccc([nH]5)c(-c5c(F)c(F)c(F)c(F)c5F)c5nc(c(-c6c(F)c(F)c(F)c(F)c6F)c6ccc3[nH]6)C=C5)C=C4)cc2)cc1
REMARK SMILES IDX 22 1 21 2 19 3 20 4 18 5 13 6 14 7 15 8 17 9 16 10 11 11
REMARK SMILES IDX 10 12 12 14 9 15 6 16 7 17 91 18 8 19 90 20 5 21 3 22 4 23
REMARK SMILES IDX 2 25 1 26 23 27 24 28 25 29 26 30 27 31 28 32 89 33 29 34
REMARK SMILES IDX 88 35 30 36 31 37 32 38 82 39 33 40 87 41 81 42 83 43 34 44
REMARK SMILES IDX 86 45 80 46 79 47 35 49 67 50 47 51 66 52 48 53 51 54 65 55
REMARK SMILES IDX 84 56 49 57 50 58 64 60 85 61 52 62 36 63 37 64 45 65 38 66
REMARK SMILES IDX 39 67 43 68 46 69 40 70 41 71 44 72 42 73 68 74 69 75 77 76
REMARK SMILES IDX 70 77 71 78 75 79 78 80 72 81 73 82 76 83 74 84 53 85 54 86
REMARK SMILES IDX 62 87 55 88 56 89 60 90 63 91 57 92 58 93 61 94 59 95
REMARK H PARENT 10 13 5 24 83 48 51 59
REMARK Flexibility Score: inf
ROOT
ATOM      1  C   UNL A   1      35.859  23.271  24.435  1.00  0.00     0.274 C 
ENDROOT
BRANCH   1   2
ATOM      2  O   UNL A   1      34.598  23.998  24.610  1.00  0.00    -0.462 OA
BRANCH   2   3
ATOM      3  C   UNL A   1      33.747  23.925  23.546  1.00  0.00     0.310 C 
ATOM      4  O   UNL A   1      34.083  24.273  22.414  1.00  0.00    -0.252 OA
BRANCH   3   5
ATOM      5  C   UNL A   1      32.327  23.359  23.852  1.00  0.00     0.116 C 
ATOM      6  C   UNL A   1      31.712  22.940  25.258  1.00  0.00     0.097 C 
ATOM      7  C   UNL A   1      31.771  21.441  25.685  1.00  0.00     0.041 C 
ATOM      8  C   UNL A   1      32.435  20.502  24.736  1.00  0.00    -0.030 C 
ATOM      9  C   UNL A   1      32.186  22.132  22.886  1.00  0.00     0.043 C 
ATOM     10  C   UNL A   1      32.661  20.826  23.461  1.00  0.00    -0.030 C 
BRANCH   6  11
ATOM     11  C   UNL A   1      31.635  23.780  26.565  1.00  0.00     0.228 C 
ATOM     12  N   UNL A   1      31.473  25.129  26.692  1.00  0.00    -0.326 N 
ATOM     13  H   UNL A   1      31.652  25.463  27.600  1.00  0.00     0.169 HD
ATOM     14  O   UNL A   1      31.923  23.199  27.627  1.00  0.00    -0.274 OA
BRANCH  12  15
ATOM     15  C   UNL A   1      31.105  26.127  25.793  1.00  0.00     0.041 A 
ATOM     16  C   UNL A   1      30.180  28.532  23.201  1.00  0.00     0.041 A 
ATOM     17  C   UNL A   1      29.141  27.103  23.500  1.00  0.00     0.028 A 
ATOM     18  C   UNL A   1      31.636  28.841  24.233  1.00  0.00     0.028 A 
ATOM     19  C   UNL A   1      29.586  25.949  24.853  1.00  0.00     0.028 A 
ATOM     20  C   UNL A   1      32.173  27.579  25.490  1.00  0.00     0.028 A 
BRANCH  16  21
ATOM     21  N   UNL A   1      29.824  29.325  22.112  1.00  0.00    -0.326 N 
ATOM     22  C   UNL A   1      28.770  30.187  21.973  1.00  0.00     0.224 C 
ATOM     23  O   UNL A   1      28.790  30.941  20.992  1.00  0.00    -0.275 OA
ATOM     24  H   UNL A   1      30.417  29.255  21.329  1.00  0.00     0.169 HD
BRANCH  22  25
ATOM     25  C   UNL A   1      27.638  30.321  22.978  1.00  0.00     0.097 C 
ATOM     26  C   UNL A   1      27.651  31.591  23.806  1.00  0.00     0.014 C 
ENDBRANCH  22  25
ENDBRANCH  16  21
ENDBRANCH  12  15
ENDBRANCH   6  11
ENDBRANCH   3   5
ENDBRANCH   2   3
ENDBRANCH   1   2
BRANCH   1  27
ATOM     27  C   UNL A   1      35.847  21.887  25.084  1.00  0.00     0.275 C 
BRANCH  27  28
ATOM     28  O   UNL A   1      37.027  21.172  24.620  1.00  0.00    -0.458 OA
BRANCH  28  29
ATOM     29  C   UNL A   1      38.233  21.159  25.464  1.00  0.00     0.338 C 
ATOM     30  O   UNL A   1      38.540  19.937  25.376  1.00  0.00    -0.246 OA
BRANCH  29  31
ATOM     31  C   UNL A   1      39.164  22.817  26.485  1.00  0.00     0.060 A 
ATOM     32  C   UNL A   1      38.966  24.313  26.292  1.00  0.00     0.016 A 
ATOM     33  C   UNL A   1      40.305  22.822  27.476  1.00  0.00     0.016 A 
ATOM     34  C   UNL A   1      39.854  25.345  26.531  1.00  0.00     0.010 A 
ATOM     35  C   UNL A   1      41.060  23.887  27.945  1.00  0.00     0.010 A 
ATOM     36  C   UNL A   1      40.863  25.132  27.416  1.00  0.00    -0.014 A 
BRANCH  36  37
ATOM     37  C   UNL A   1      41.613  26.235  27.970  1.00  0.00     0.031 A 
ATOM     38  C   UNL A   1      40.846  27.260  28.720  1.00  0.00     0.074 A 
ATOM     39  C   UNL A   1      42.880  26.332  27.539  1.00  0.00     0.049 A 
ATOM     40  N   UNL A   1      41.163  28.499  28.934  1.00  0.00    -0.248 NA
ATOM     41  C   UNL A   1      39.489  26.885  29.176  1.00  0.00     0.031 C 
ATOM     42  C   UNL A   1      43.594  25.332  26.723  1.00  0.00     0.029 A 
ATOM     43  N   UNL A   1      43.781  27.336  27.677  1.00  0.00    -0.354 N 
ATOM     44  C   UNL A   1      40.035  29.066  29.500  1.00  0.00     0.074 A 
ATOM     45  C   UNL A   1      38.998  28.064  29.526  1.00  0.00     0.031 C 
ATOM     46  C   UNL A   1      44.836  25.752  26.479  1.00  0.00     0.029 A 
ATOM     47  C   UNL A   1      44.948  27.097  26.996  1.00  0.00     0.049 A 
ATOM     48  H   UNL A   1      43.616  28.148  28.207  1.00  0.00     0.167 HD
ATOM     49  C   UNL A   1      39.923  30.331  29.954  1.00  0.00     0.037 A 
ATOM     50  C   UNL A   1      45.968  27.925  26.757  1.00  0.00     0.037 A 
ATOM     51  C   UNL A   1      41.026  31.252  29.876  1.00  0.00     0.049 A 
ATOM     52  C   UNL A   1      45.820  29.304  27.304  1.00  0.00     0.074 A 
ATOM     53  C   UNL A   1      41.116  32.541  30.353  1.00  0.00     0.029 A 
ATOM     54  N   UNL A   1      42.247  30.955  29.267  1.00  0.00    -0.354 N 
ATOM     55  N   UNL A   1      44.782  29.843  27.901  1.00  0.00    -0.248 NA
ATOM     56  C   UNL A   1      46.973  30.184  27.158  1.00  0.00     0.031 C 
ATOM     57  C   UNL A   1      42.366  33.045  29.977  1.00  0.00     0.029 A 
ATOM     58  C   UNL A   1      43.090  32.046  29.338  1.00  0.00     0.049 A 
ATOM     59  H   UNL A   1      42.473  30.093  28.848  1.00  0.00     0.167 HD
ATOM     60  C   UNL A   1      45.160  31.127  28.236  1.00  0.00     0.074 A 
ATOM     61  C   UNL A   1      46.538  31.266  27.787  1.00  0.00     0.031 C 
ATOM     62  C   UNL A   1      44.451  32.105  28.854  1.00  0.00     0.037 A 
BRANCH  49  63
ATOM     63  C   UNL A   1      38.610  30.753  30.544  1.00  0.00     0.064 A 
ATOM     64  C   UNL A   1      37.536  31.174  29.742  1.00  0.00     0.173 A 
ATOM     65  C   UNL A   1      38.415  30.739  31.933  1.00  0.00     0.173 A 
ATOM     66  F   UNL A   1      37.668  31.231  28.407  1.00  0.00    -0.203 F 
ATOM     67  C   UNL A   1      36.335  31.595  30.306  1.00  0.00     0.198 A 
ATOM     68  C   UNL A   1      37.197  31.121  32.492  1.00  0.00     0.198 A 
ATOM     69  F   UNL A   1      39.407  30.363  32.753  1.00  0.00    -0.203 F 
ATOM     70  F   UNL A   1      35.352  32.056  29.519  1.00  0.00    -0.200 F 
ATOM     71  C   UNL A   1      36.162  31.557  31.680  1.00  0.00     0.200 A 
ATOM     72  F   UNL A   1      37.028  31.075  33.821  1.00  0.00    -0.200 F 
ATOM     73  F   UNL A   1      35.001  31.951  32.222  1.00  0.00    -0.200 F 
ENDBRANCH  49  63
BRANCH  50  74
ATOM     74  C   UNL A   1      47.156  27.433  26.025  1.00  0.00     0.064 A 
ATOM     75  C   UNL A   1      47.251  27.614  24.642  1.00  0.00     0.173 A 
ATOM     76  C   UNL A   1      48.263  26.880  26.690  1.00  0.00     0.173 A 
ATOM     77  F   UNL A   1      46.232  28.170  23.969  1.00  0.00    -0.203 F 
ATOM     78  C   UNL A   1      48.390  27.225  23.942  1.00  0.00     0.198 A 
ATOM     79  C   UNL A   1      49.417  26.528  25.995  1.00  0.00     0.198 A 
ATOM     80  F   UNL A   1      48.247  26.741  28.025  1.00  0.00    -0.203 F 
ATOM     81  F   UNL A   1      48.437  27.377  22.612  1.00  0.00    -0.200 F 
ATOM     82  C   UNL A   1      49.474  26.686  24.620  1.00  0.00     0.200 A 
ATOM     83  F   UNL A   1      50.480  26.056  26.660  1.00  0.00    -0.200 F 
ATOM     84  F   UNL A   1      50.575  26.327  23.946  1.00  0.00    -0.200 F 
ENDBRANCH  50  74
BRANCH  62  85
ATOM     85  C   UNL A   1      45.194  33.378  29.099  1.00  0.00     0.064 A 
ATOM     86  C   UNL A   1      45.939  33.580  30.268  1.00  0.00     0.173 A 
ATOM     87  C   UNL A   1      45.167  34.398  28.138  1.00  0.00     0.173 A 
ATOM     88  F   UNL A   1      45.971  32.636  31.223  1.00  0.00    -0.203 F 
ATOM     89  C   UNL A   1      46.595  34.784  30.489  1.00  0.00     0.198 A 
ATOM     90  C   UNL A   1      45.868  35.578  28.338  1.00  0.00     0.198 A 
ATOM     91  F   UNL A   1      44.472  34.240  27.001  1.00  0.00    -0.203 F 
ATOM     92  F   UNL A   1      47.230  34.993  31.649  1.00  0.00    -0.200 F 
ATOM     93  C   UNL A   1      46.567  35.776  29.519  1.00  0.00     0.200 A 
ATOM     94  F   UNL A   1      45.863  36.525  27.390  1.00  0.00    -0.200 F 
ATOM     95  F   UNL A   1      47.209  36.933  29.729  1.00  0.00    -0.200 F 
ENDBRANCH  62  85
ENDBRANCH  36  37
ENDBRANCH  29  31
ENDBRANCH  28  29
ENDBRANCH  27  28
ENDBRANCH   1  27
TORSDOF 15
ENDMDL
