MODEL 1
REMARK VINA RESULT:     -10.6      0.000      0.000
REMARK SMILES C[NH2+]CCC(=O)N1CC[C@@H](C(=O)OCCOC(=O)c2ccc(-c3c4nc(c(-c5c(F)c(F)c(F)c(F)c5F)c5ccc([nH]5)c(-c5c(F)c(F)c(F)c(F)c5F)c5nc(c(-c6c(F)c(F)c(F)c(F)c6F)c6ccc3[nH]6)C=C5)C=C4)cc2)[C@@H]1C
REMARK SMILES IDX 14 1 13 2 11 3 12 4 10 5 7 6 8 7 82 8 9 9 83 10 5 11 6 12
REMARK SMILES IDX 4 13 3 14 2 15 1 16 15 19 16 20 17 21 18 22 19 23 20 24
REMARK SMILES IDX 81 25 21 26 80 27 22 28 23 29 24 30 74 31 25 32 79 33 73 34
REMARK SMILES IDX 75 35 26 36 78 37 72 38 71 39 27 41 59 42 39 43 58 44 40 45
REMARK SMILES IDX 43 46 57 47 76 48 41 49 42 50 56 52 77 53 44 54 28 55 29 56
REMARK SMILES IDX 37 57 30 58 31 59 35 60 38 61 32 62 33 63 36 64 34 65 60 66
REMARK SMILES IDX 61 67 69 68 62 69 63 70 67 71 70 72 64 73 65 74 68 75 66 76
REMARK SMILES IDX 45 77 46 78 54 79 47 80 48 81 52 82 55 83 49 84 50 85 53 86
REMARK SMILES IDX 51 87
REMARK H PARENT 2 17 2 18 75 40 43 51
REMARK Flexibility Score: inf
ROOT
ATOM      1  C   UNL A   1      31.753  28.619  24.684  1.00  0.00     0.274 C 
ENDROOT
BRANCH   1   2
ATOM      2  O   UNL A   1      30.703  27.680  24.998  1.00  0.00    -0.462 OA
BRANCH   2   3
ATOM      3  C   UNL A   1      31.059  26.561  25.679  1.00  0.00     0.311 C 
ATOM      4  O   UNL A   1      30.853  26.382  26.875  1.00  0.00    -0.252 OA
BRANCH   3   5
ATOM      5  C   UNL A   1      31.760  25.523  24.826  1.00  0.00     0.123 C 
ATOM      6  N   UNL A   1      32.295  23.218  25.027  1.00  0.00    -0.339 N 
ATOM      7  C   UNL A   1      31.560  23.380  23.792  1.00  0.00     0.121 C 
ATOM      8  C   UNL A   1      32.649  24.518  25.585  1.00  0.00     0.096 C 
ATOM      9  C   UNL A   1      30.768  24.653  24.049  1.00  0.00     0.039 C 
ATOM     10  C   UNL A   1      34.136  24.787  25.321  1.00  0.00     0.032 C 
BRANCH   6  11
ATOM     11  C   UNL A   1      32.612  21.973  25.516  1.00  0.00     0.228 C 
ATOM     12  O   UNL A   1      32.883  21.806  26.708  1.00  0.00    -0.275 OA
BRANCH  11  13
ATOM     13  C   UNL A   1      32.847  20.848  24.515  1.00  0.00     0.161 C 
BRANCH  13  14
ATOM     14  C   UNL A   1      33.617  19.602  24.956  1.00  0.00     0.270 C 
BRANCH  14  15
ATOM     15  N   UNL A   1      33.076  18.761  26.031  1.00  0.00    -0.348 N 
ATOM     16  C   UNL A   1      32.541  17.475  25.615  1.00  0.00     0.330 C 
ATOM     17  H   UNL A   1      33.825  18.588  26.701  1.00  0.00     0.346 HD
ATOM     18  H   UNL A   1      32.286  19.279  26.419  1.00  0.00     0.346 HD
ENDBRANCH  14  15
ENDBRANCH  13  14
ENDBRANCH  11  13
ENDBRANCH   6  11
ENDBRANCH   3   5
ENDBRANCH   2   3
ENDBRANCH   1   2
BRANCH   1  19
ATOM     19  C   UNL A   1      31.798  29.778  25.687  1.00  0.00     0.275 C 
BRANCH  19  20
ATOM     20  O   UNL A   1      33.134  30.295  25.843  1.00  0.00    -0.458 OA
BRANCH  20  21
ATOM     21  C   UNL A   1      33.286  31.165  26.866  1.00  0.00     0.338 C 
ATOM     22  O   UNL A   1      32.456  31.948  27.300  1.00  0.00    -0.246 OA
BRANCH  21  23
ATOM     23  C   UNL A   1      34.574  30.921  27.533  1.00  0.00     0.060 A 
ATOM     24  C   UNL A   1      34.829  29.625  27.983  1.00  0.00     0.016 A 
ATOM     25  C   UNL A   1      35.479  31.949  27.791  1.00  0.00     0.016 A 
ATOM     26  C   UNL A   1      35.967  29.349  28.727  1.00  0.00     0.010 A 
ATOM     27  C   UNL A   1      36.645  31.666  28.514  1.00  0.00     0.010 A 
ATOM     28  C   UNL A   1      36.886  30.366  28.996  1.00  0.00    -0.014 A 
BRANCH  28  29
ATOM     29  C   UNL A   1      38.091  30.048  29.795  1.00  0.00     0.031 A 
ATOM     30  C   UNL A   1      39.150  29.147  29.238  1.00  0.00     0.074 A 
ATOM     31  C   UNL A   1      38.245  30.612  31.007  1.00  0.00     0.049 A 
ATOM     32  N   UNL A   1      40.244  28.705  29.805  1.00  0.00    -0.248 NA
ATOM     33  C   UNL A   1      38.954  28.678  27.858  1.00  0.00     0.031 C 
ATOM     34  C   UNL A   1      37.301  31.544  31.626  1.00  0.00     0.029 A 
ATOM     35  N   UNL A   1      39.250  30.488  31.931  1.00  0.00    -0.354 N 
ATOM     36  C   UNL A   1      40.851  27.885  28.865  1.00  0.00     0.074 A 
ATOM     37  C   UNL A   1      40.002  27.883  27.693  1.00  0.00     0.031 C 
ATOM     38  C   UNL A   1      37.773  31.908  32.828  1.00  0.00     0.029 A 
ATOM     39  C   UNL A   1      39.023  31.198  33.083  1.00  0.00     0.049 A 
ATOM     40  H   UNL A   1      40.055  29.942  31.783  1.00  0.00     0.167 HD
ATOM     41  C   UNL A   1      42.013  27.197  28.977  1.00  0.00     0.037 A 
ATOM     42  C   UNL A   1      39.727  31.245  34.228  1.00  0.00     0.037 A 
ATOM     43  C   UNL A   1      42.861  27.224  30.140  1.00  0.00     0.049 A 
ATOM     44  C   UNL A   1      40.991  30.440  34.343  1.00  0.00     0.074 A 
ATOM     45  C   UNL A   1      44.073  26.588  30.341  1.00  0.00     0.029 A 
ATOM     46  N   UNL A   1      42.583  27.929  31.303  1.00  0.00    -0.354 N 
ATOM     47  N   UNL A   1      41.557  29.662  33.452  1.00  0.00    -0.248 NA
ATOM     48  C   UNL A   1      41.708  30.513  35.622  1.00  0.00     0.031 C 
ATOM     49  C   UNL A   1      44.506  26.870  31.642  1.00  0.00     0.029 A 
ATOM     50  C   UNL A   1      43.585  27.719  32.237  1.00  0.00     0.049 A 
ATOM     51  H   UNL A   1      41.789  28.494  31.445  1.00  0.00     0.167 HD
ATOM     52  C   UNL A   1      42.699  29.159  34.057  1.00  0.00     0.074 A 
ATOM     53  C   UNL A   1      42.757  29.736  35.385  1.00  0.00     0.031 C 
ATOM     54  C   UNL A   1      43.617  28.295  33.558  1.00  0.00     0.037 A 
BRANCH  41  55
ATOM     55  C   UNL A   1      42.409  26.322  27.824  1.00  0.00     0.064 A 
ATOM     56  C   UNL A   1      41.890  25.030  27.660  1.00  0.00     0.173 A 
ATOM     57  C   UNL A   1      43.313  26.794  26.861  1.00  0.00     0.173 A 
ATOM     58  F   UNL A   1      41.034  24.527  28.563  1.00  0.00    -0.203 F 
ATOM     59  C   UNL A   1      42.284  24.232  26.590  1.00  0.00     0.198 A 
ATOM     60  C   UNL A   1      43.686  26.004  25.779  1.00  0.00     0.198 A 
ATOM     61  F   UNL A   1      43.836  28.024  26.971  1.00  0.00    -0.203 F 
ATOM     62  F   UNL A   1      41.814  22.982  26.477  1.00  0.00    -0.200 F 
ATOM     63  C   UNL A   1      43.178  24.720  25.647  1.00  0.00     0.200 A 
ATOM     64  F   UNL A   1      44.543  26.481  24.865  1.00  0.00    -0.200 F 
ATOM     65  F   UNL A   1      43.556  23.951  24.618  1.00  0.00    -0.200 F 
ENDBRANCH  41  55
BRANCH  42  66
ATOM     66  C   UNL A   1      39.226  32.065  35.360  1.00  0.00     0.064 A 
ATOM     67  C   UNL A   1      38.454  31.496  36.380  1.00  0.00     0.173 A 
ATOM     68  C   UNL A   1      39.540  33.428  35.458  1.00  0.00     0.173 A 
ATOM     69  F   UNL A   1      38.110  30.200  36.317  1.00  0.00    -0.203 F 
ATOM     70  C   UNL A   1      38.011  32.262  37.456  1.00  0.00     0.198 A 
ATOM     71  C   UNL A   1      39.118  34.187  36.547  1.00  0.00     0.198 A 
ATOM     72  F   UNL A   1      40.278  34.019  34.507  1.00  0.00    -0.203 F 
ATOM     73  F   UNL A   1      37.249  31.702  38.406  1.00  0.00    -0.200 F 
ATOM     74  C   UNL A   1      38.350  33.604  37.543  1.00  0.00     0.200 A 
ATOM     75  F   UNL A   1      39.460  35.480  36.634  1.00  0.00    -0.200 F 
ATOM     76  F   UNL A   1      37.935  34.336  38.586  1.00  0.00    -0.200 F 
ENDBRANCH  42  66
BRANCH  54  77
ATOM     77  C   UNL A   1      44.764  27.927  34.453  1.00  0.00     0.064 A 
ATOM     78  C   UNL A   1      45.929  28.705  34.504  1.00  0.00     0.173 A 
ATOM     79  C   UNL A   1      44.682  26.805  35.290  1.00  0.00     0.173 A 
ATOM     80  F   UNL A   1      46.060  29.778  33.708  1.00  0.00    -0.203 F 
ATOM     81  C   UNL A   1      46.981  28.362  35.349  1.00  0.00     0.198 A 
ATOM     82  C   UNL A   1      45.725  26.478  36.151  1.00  0.00     0.198 A 
ATOM     83  F   UNL A   1      43.586  26.032  35.279  1.00  0.00    -0.203 F 
ATOM     84  F   UNL A   1      48.103  29.095  35.351  1.00  0.00    -0.200 F 
ATOM     85  C   UNL A   1      46.875  27.253  36.175  1.00  0.00     0.200 A 
ATOM     86  F   UNL A   1      45.618  25.413  36.956  1.00  0.00    -0.200 F 
ATOM     87  F   UNL A   1      47.887  26.926  36.991  1.00  0.00    -0.200 F 
ENDBRANCH  54  77
ENDBRANCH  28  29
ENDBRANCH  21  23
ENDBRANCH  20  21
ENDBRANCH  19  20
ENDBRANCH   1  19
TORSDOF 15
ENDMDL
MODEL 2
REMARK VINA RESULT:     -10.6      0.773      1.948
REMARK SMILES C[NH2+]CCC(=O)N1CC[C@@H](C(=O)OCCOC(=O)c2ccc(-c3c4nc(c(-c5c(F)c(F)c(F)c(F)c5F)c5ccc([nH]5)c(-c5c(F)c(F)c(F)c(F)c5F)c5nc(c(-c6c(F)c(F)c(F)c(F)c6F)c6ccc3[nH]6)C=C5)C=C4)cc2)[C@@H]1C
REMARK SMILES IDX 14 1 13 2 11 3 12 4 10 5 7 6 8 7 82 8 9 9 83 10 5 11 6 12
REMARK SMILES IDX 4 13 3 14 2 15 1 16 15 19 16 20 17 21 18 22 19 23 20 24
REMARK SMILES IDX 81 25 21 26 80 27 22 28 23 29 24 30 74 31 25 32 79 33 73 34
REMARK SMILES IDX 75 35 26 36 78 37 72 38 71 39 27 41 59 42 39 43 58 44 40 45
REMARK SMILES IDX 43 46 57 47 76 48 41 49 42 50 56 52 77 53 44 54 28 55 29 56
REMARK SMILES IDX 37 57 30 58 31 59 35 60 38 61 32 62 33 63 36 64 34 65 60 66
REMARK SMILES IDX 61 67 69 68 62 69 63 70 67 71 70 72 64 73 65 74 68 75 66 76
REMARK SMILES IDX 45 77 46 78 54 79 47 80 48 81 52 82 55 83 49 84 50 85 53 86
REMARK SMILES IDX 51 87
REMARK H PARENT 2 17 2 18 75 40 43 51
REMARK Flexibility Score: inf
ROOT
ATOM      1  C   UNL A   1      31.378  29.292  24.725  1.00  0.00     0.274 C 
ENDROOT
BRANCH   1   2
ATOM      2  O   UNL A   1      32.231  28.141  24.898  1.00  0.00    -0.462 OA
BRANCH   2   3
ATOM      3  C   UNL A   1      31.628  26.968  25.216  1.00  0.00     0.311 C 
ATOM      4  O   UNL A   1      30.424  26.757  25.116  1.00  0.00    -0.252 OA
BRANCH   3   5
ATOM      5  C   UNL A   1      32.583  25.909  25.730  1.00  0.00     0.123 C 
ATOM      6  N   UNL A   1      33.645  23.981  24.839  1.00  0.00    -0.339 N 
ATOM      7  C   UNL A   1      34.684  24.831  25.379  1.00  0.00     0.121 C 
ATOM      8  C   UNL A   1      32.329  24.473  25.229  1.00  0.00     0.096 C 
ATOM      9  C   UNL A   1      34.033  26.205  25.340  1.00  0.00     0.039 C 
ATOM     10  C   UNL A   1      31.777  23.586  26.351  1.00  0.00     0.032 C 
BRANCH   6  11
ATOM     11  C   UNL A   1      33.946  22.858  24.105  1.00  0.00     0.228 C 
ATOM     12  O   UNL A   1      33.081  22.281  23.442  1.00  0.00    -0.275 OA
BRANCH  11  13
ATOM     13  C   UNL A   1      35.309  22.211  24.311  1.00  0.00     0.161 C 
BRANCH  13  14
ATOM     14  C   UNL A   1      35.425  20.976  25.206  1.00  0.00     0.270 C 
BRANCH  14  15
ATOM     15  N   UNL A   1      34.217  20.212  25.544  1.00  0.00    -0.348 N 
ATOM     16  C   UNL A   1      33.917  19.091  24.669  1.00  0.00     0.330 C 
ATOM     17  H   UNL A   1      34.330  19.850  26.491  1.00  0.00     0.346 HD
ATOM     18  H   UNL A   1      33.438  20.863  25.440  1.00  0.00     0.346 HD
ENDBRANCH  14  15
ENDBRANCH  13  14
ENDBRANCH  11  13
ENDBRANCH   6  11
ENDBRANCH   3   5
ENDBRANCH   2   3
ENDBRANCH   1   2
BRANCH   1  19
ATOM     19  C   UNL A   1      31.647  30.365  25.786  1.00  0.00     0.275 C 
BRANCH  19  20
ATOM     20  O   UNL A   1      33.045  30.439  26.125  1.00  0.00    -0.458 OA
BRANCH  20  21
ATOM     21  C   UNL A   1      33.374  31.464  26.943  1.00  0.00     0.338 C 
ATOM     22  O   UNL A   1      32.686  32.429  27.231  1.00  0.00    -0.246 OA
BRANCH  21  23
ATOM     23  C   UNL A   1      34.655  31.174  27.605  1.00  0.00     0.060 A 
ATOM     24  C   UNL A   1      34.901  29.851  27.975  1.00  0.00     0.016 A 
ATOM     25  C   UNL A   1      35.560  32.180  27.938  1.00  0.00     0.016 A 
ATOM     26  C   UNL A   1      36.030  29.524  28.712  1.00  0.00     0.010 A 
ATOM     27  C   UNL A   1      36.717  31.847  28.653  1.00  0.00     0.010 A 
ATOM     28  C   UNL A   1      36.950  30.519  29.054  1.00  0.00    -0.014 A 
BRANCH  28  29
ATOM     29  C   UNL A   1      38.146  30.147  29.843  1.00  0.00     0.031 A 
ATOM     30  C   UNL A   1      39.171  29.219  29.268  1.00  0.00     0.074 A 
ATOM     31  C   UNL A   1      38.322  30.686  31.063  1.00  0.00     0.049 A 
ATOM     32  N   UNL A   1      40.250  28.730  29.825  1.00  0.00    -0.248 NA
ATOM     33  C   UNL A   1      38.955  28.779  27.881  1.00  0.00     0.031 C 
ATOM     34  C   UNL A   1      37.413  31.640  31.701  1.00  0.00     0.029 A 
ATOM     35  N   UNL A   1      39.326  30.512  31.982  1.00  0.00    -0.354 N 
ATOM     36  C   UNL A   1      40.826  27.905  28.869  1.00  0.00     0.074 A 
ATOM     37  C   UNL A   1      39.974  27.951  27.701  1.00  0.00     0.031 C 
ATOM     38  C   UNL A   1      37.902  31.968  32.907  1.00  0.00     0.029 A 
ATOM     39  C   UNL A   1      39.126  31.211  33.146  1.00  0.00     0.049 A 
ATOM     40  H   UNL A   1      40.111  29.941  31.822  1.00  0.00     0.167 HD
ATOM     41  C   UNL A   1      41.964  27.175  28.967  1.00  0.00     0.037 A 
ATOM     42  C   UNL A   1      39.836  31.215  34.289  1.00  0.00     0.037 A 
ATOM     43  C   UNL A   1      42.816  27.154  30.127  1.00  0.00     0.049 A 
ATOM     44  C   UNL A   1      41.070  30.365  34.387  1.00  0.00     0.074 A 
ATOM     45  C   UNL A   1      44.006  26.473  30.313  1.00  0.00     0.029 A 
ATOM     46  N   UNL A   1      42.566  27.849  31.302  1.00  0.00    -0.354 N 
ATOM     47  N   UNL A   1      41.607  29.583  33.481  1.00  0.00    -0.248 NA
ATOM     48  C   UNL A   1      41.794  30.393  35.664  1.00  0.00     0.031 C 
ATOM     49  C   UNL A   1      44.452  26.720  31.617  1.00  0.00     0.029 A 
ATOM     50  C   UNL A   1      43.563  27.590  32.228  1.00  0.00     0.049 A 
ATOM     51  H   UNL A   1      41.792  28.440  31.455  1.00  0.00     0.167 HD
ATOM     52  C   UNL A   1      42.733  29.031  34.074  1.00  0.00     0.074 A 
ATOM     53  C   UNL A   1      42.815  29.584  35.412  1.00  0.00     0.031 C 
ATOM     54  C   UNL A   1      43.618  28.144  33.558  1.00  0.00     0.037 A 
BRANCH  41  55
ATOM     55  C   UNL A   1      42.325  26.305  27.799  1.00  0.00     0.064 A 
ATOM     56  C   UNL A   1      43.251  26.712  26.828  1.00  0.00     0.173 A 
ATOM     57  C   UNL A   1      41.742  25.037  27.660  1.00  0.00     0.173 A 
ATOM     58  F   UNL A   1      43.824  27.923  26.908  1.00  0.00    -0.203 F 
ATOM     59  C   UNL A   1      43.559  25.893  25.745  1.00  0.00     0.198 A 
ATOM     60  C   UNL A   1      42.071  24.209  26.591  1.00  0.00     0.198 A 
ATOM     61  F   UNL A   1      40.852  24.599  28.563  1.00  0.00    -0.203 F 
ATOM     62  F   UNL A   1      44.410  26.320  24.803  1.00  0.00    -0.200 F 
ATOM     63  C   UNL A   1      42.972  24.640  25.630  1.00  0.00     0.200 A 
ATOM     64  F   UNL A   1      41.509  22.997  26.485  1.00  0.00    -0.200 F 
ATOM     65  F   UNL A   1      43.269  23.854  24.586  1.00  0.00    -0.200 F 
ENDBRANCH  41  55
BRANCH  42  66
ATOM     66  C   UNL A   1      39.367  32.034  35.436  1.00  0.00     0.064 A 
ATOM     67  C   UNL A   1      39.696  33.391  35.539  1.00  0.00     0.173 A 
ATOM     68  C   UNL A   1      38.553  31.479  36.434  1.00  0.00     0.173 A 
ATOM     69  F   UNL A   1      40.490  33.960  34.620  1.00  0.00    -0.203 F 
ATOM     70  C   UNL A   1      39.229  34.163  36.601  1.00  0.00     0.198 A 
ATOM     71  C   UNL A   1      38.066  32.257  37.482  1.00  0.00     0.198 A 
ATOM     72  F   UNL A   1      38.210  30.183  36.379  1.00  0.00    -0.203 F 
ATOM     73  F   UNL A   1      39.580  35.453  36.694  1.00  0.00    -0.200 F 
ATOM     74  C   UNL A   1      38.408  33.598  37.566  1.00  0.00     0.200 A 
ATOM     75  F   UNL A   1      37.261  31.710  38.403  1.00  0.00    -0.200 F 
ATOM     76  F   UNL A   1      37.948  34.345  38.579  1.00  0.00    -0.200 F 
ENDBRANCH  42  66
BRANCH  54  77
ATOM     77  C   UNL A   1      44.755  27.722  34.443  1.00  0.00     0.064 A 
ATOM     78  C   UNL A   1      45.941  28.466  34.513  1.00  0.00     0.173 A 
ATOM     79  C   UNL A   1      44.641  26.583  35.253  1.00  0.00     0.173 A 
ATOM     80  F   UNL A   1      46.102  29.554  33.743  1.00  0.00    -0.203 F 
ATOM     81  C   UNL A   1      46.983  28.072  35.348  1.00  0.00     0.198 A 
ATOM     82  C   UNL A   1      45.675  26.206  36.105  1.00  0.00     0.198 A 
ATOM     83  F   UNL A   1      43.524  25.841  35.224  1.00  0.00    -0.203 F 
ATOM     84  F   UNL A   1      48.125  28.774  35.368  1.00  0.00    -0.200 F 
ATOM     85  C   UNL A   1      46.847  26.948  36.147  1.00  0.00     0.200 A 
ATOM     86  F   UNL A   1      45.539  25.125  36.883  1.00  0.00    -0.200 F 
ATOM     87  F   UNL A   1      47.849  26.572  36.954  1.00  0.00    -0.200 F 
ENDBRANCH  54  77
ENDBRANCH  28  29
ENDBRANCH  21  23
ENDBRANCH  20  21
ENDBRANCH  19  20
ENDBRANCH   1  19
TORSDOF 15
ENDMDL
MODEL 3
REMARK VINA RESULT:     -10.5      2.158      3.757
REMARK SMILES C[NH2+]CCC(=O)N1CC[C@@H](C(=O)OCCOC(=O)c2ccc(-c3c4nc(c(-c5c(F)c(F)c(F)c(F)c5F)c5ccc([nH]5)c(-c5c(F)c(F)c(F)c(F)c5F)c5nc(c(-c6c(F)c(F)c(F)c(F)c6F)c6ccc3[nH]6)C=C5)C=C4)cc2)[C@@H]1C
REMARK SMILES IDX 14 1 13 2 11 3 12 4 10 5 7 6 8 7 82 8 9 9 83 10 5 11 6 12
REMARK SMILES IDX 4 13 3 14 2 15 1 16 15 19 16 20 17 21 18 22 19 23 20 24
REMARK SMILES IDX 81 25 21 26 80 27 22 28 23 29 24 30 74 31 25 32 79 33 73 34
REMARK SMILES IDX 75 35 26 36 78 37 72 38 71 39 27 41 59 42 39 43 58 44 40 45
REMARK SMILES IDX 43 46 57 47 76 48 41 49 42 50 56 52 77 53 44 54 28 55 29 56
REMARK SMILES IDX 37 57 30 58 31 59 35 60 38 61 32 62 33 63 36 64 34 65 60 66
REMARK SMILES IDX 61 67 69 68 62 69 63 70 67 71 70 72 64 73 65 74 68 75 66 76
REMARK SMILES IDX 45 77 46 78 54 79 47 80 48 81 52 82 55 83 49 84 50 85 53 86
REMARK SMILES IDX 51 87
REMARK H PARENT 2 17 2 18 75 40 43 51
REMARK Flexibility Score: inf
ROOT
ATOM      1  C   UNL A   1      31.781  28.288  27.476  1.00  0.00     0.274 C 
ENDROOT
BRANCH   1   2
ATOM      2  O   UNL A   1      32.742  27.454  26.793  1.00  0.00    -0.462 OA
BRANCH   2   3
ATOM      3  C   UNL A   1      32.257  26.388  26.107  1.00  0.00     0.311 C 
ATOM      4  O   UNL A   1      32.096  25.270  26.585  1.00  0.00    -0.252 OA
BRANCH   3   5
ATOM      5  C   UNL A   1      31.928  26.691  24.659  1.00  0.00     0.123 C 
ATOM      6  N   UNL A   1      30.929  28.487  23.468  1.00  0.00    -0.339 N 
ATOM      7  C   UNL A   1      32.223  28.242  22.868  1.00  0.00     0.121 C 
ATOM      8  C   UNL A   1      30.595  27.426  24.411  1.00  0.00     0.096 C 
ATOM      9  C   UNL A   1      32.988  27.579  24.003  1.00  0.00     0.039 C 
ATOM     10  C   UNL A   1      29.562  26.493  23.768  1.00  0.00     0.032 C 
BRANCH   6  11
ATOM     11  C   UNL A   1      30.165  29.572  23.110  1.00  0.00     0.228 C 
ATOM     12  O   UNL A   1      29.800  30.398  23.950  1.00  0.00    -0.275 OA
BRANCH  11  13
ATOM     13  C   UNL A   1      29.588  29.609  21.701  1.00  0.00     0.161 C 
BRANCH  13  14
ATOM     14  C   UNL A   1      28.459  30.589  21.379  1.00  0.00     0.270 C 
BRANCH  14  15
ATOM     15  N   UNL A   1      28.755  32.023  21.269  1.00  0.00    -0.348 N 
ATOM     16  C   UNL A   1      27.741  32.825  20.605  1.00  0.00     0.330 C 
ATOM     17  H   UNL A   1      28.880  32.391  22.211  1.00  0.00     0.346 HD
ATOM     18  H   UNL A   1      29.590  32.090  20.685  1.00  0.00     0.346 HD
ENDBRANCH  14  15
ENDBRANCH  13  14
ENDBRANCH  11  13
ENDBRANCH   6  11
ENDBRANCH   3   5
ENDBRANCH   2   3
ENDBRANCH   1   2
BRANCH   1  19
ATOM     19  C   UNL A   1      31.754  29.710  26.905  1.00  0.00     0.275 C 
BRANCH  19  20
ATOM     20  O   UNL A   1      33.065  30.146  26.499  1.00  0.00    -0.458 OA
BRANCH  20  21
ATOM     21  C   UNL A   1      33.497  31.276  27.104  1.00  0.00     0.338 C 
ATOM     22  O   UNL A   1      32.880  32.318  27.247  1.00  0.00    -0.246 OA
BRANCH  21  23
ATOM     23  C   UNL A   1      34.796  31.024  27.747  1.00  0.00     0.060 A 
ATOM     24  C   UNL A   1      35.033  29.739  28.235  1.00  0.00     0.016 A 
ATOM     25  C   UNL A   1      35.729  32.039  27.949  1.00  0.00     0.016 A 
ATOM     26  C   UNL A   1      36.182  29.461  28.960  1.00  0.00     0.010 A 
ATOM     27  C   UNL A   1      36.906  31.753  28.652  1.00  0.00     0.010 A 
ATOM     28  C   UNL A   1      37.130  30.466  29.172  1.00  0.00    -0.014 A 
BRANCH  28  29
ATOM     29  C   UNL A   1      38.348  30.147  29.952  1.00  0.00     0.031 A 
ATOM     30  C   UNL A   1      39.405  29.259  29.372  1.00  0.00     0.074 A 
ATOM     31  C   UNL A   1      38.513  30.699  31.168  1.00  0.00     0.049 A 
ATOM     32  N   UNL A   1      40.509  28.818  29.921  1.00  0.00    -0.248 NA
ATOM     33  C   UNL A   1      39.194  28.804  27.989  1.00  0.00     0.031 C 
ATOM     34  C   UNL A   1      37.571  31.617  31.810  1.00  0.00     0.029 A 
ATOM     35  N   UNL A   1      39.531  30.571  32.078  1.00  0.00    -0.354 N 
ATOM     36  C   UNL A   1      41.110  28.012  28.963  1.00  0.00     0.074 A 
ATOM     37  C   UNL A   1      40.245  28.018  27.803  1.00  0.00     0.031 C 
ATOM     38  C   UNL A   1      38.056  31.972  33.010  1.00  0.00     0.029 A 
ATOM     39  C   UNL A   1      39.313  31.267  33.241  1.00  0.00     0.049 A 
ATOM     40  H   UNL A   1      40.338  30.033  31.914  1.00  0.00     0.167 HD
ATOM     41  C   UNL A   1      42.277  27.331  29.054  1.00  0.00     0.037 A 
ATOM     42  C   UNL A   1      40.032  31.306  34.377  1.00  0.00     0.037 A 
ATOM     43  C   UNL A   1      43.140  27.351  30.206  1.00  0.00     0.049 A 
ATOM     44  C   UNL A   1      41.302  30.508  34.467  1.00  0.00     0.074 A 
ATOM     45  C   UNL A   1      44.358  26.721  30.384  1.00  0.00     0.029 A 
ATOM     46  N   UNL A   1      42.872  28.041  31.380  1.00  0.00    -0.354 N 
ATOM     47  N   UNL A   1      41.862  29.744  33.560  1.00  0.00    -0.248 NA
ATOM     48  C   UNL A   1      42.035  30.572  35.737  1.00  0.00     0.031 C 
ATOM     49  C   UNL A   1      44.806  26.992  31.683  1.00  0.00     0.029 A 
ATOM     50  C   UNL A   1      43.887  27.828  32.298  1.00  0.00     0.049 A 
ATOM     51  H   UNL A   1      42.076  28.600  31.538  1.00  0.00     0.167 HD
ATOM     52  C   UNL A   1      43.015  29.242  34.145  1.00  0.00     0.074 A 
ATOM     53  C   UNL A   1      43.086  29.805  35.479  1.00  0.00     0.031 C 
ATOM     54  C   UNL A   1      43.932  28.389  33.625  1.00  0.00     0.037 A 
BRANCH  41  55
ATOM     55  C   UNL A   1      42.664  26.471  27.886  1.00  0.00     0.064 A 
ATOM     56  C   UNL A   1      43.549  26.918  26.896  1.00  0.00     0.173 A 
ATOM     57  C   UNL A   1      42.146  25.172  27.768  1.00  0.00     0.173 A 
ATOM     58  F   UNL A   1      44.059  28.157  26.956  1.00  0.00    -0.203 F 
ATOM     59  C   UNL A   1      43.881  26.106  25.814  1.00  0.00     0.198 A 
ATOM     60  C   UNL A   1      42.499  24.354  26.700  1.00  0.00     0.198 A 
ATOM     61  F   UNL A   1      41.296  24.696  28.690  1.00  0.00    -0.203 F 
ATOM     62  F   UNL A   1      44.692  26.569  24.853  1.00  0.00    -0.200 F 
ATOM     63  C   UNL A   1      43.360  24.823  25.719  1.00  0.00     0.200 A 
ATOM     64  F   UNL A   1      42.001  23.112  26.614  1.00  0.00    -0.200 F 
ATOM     65  F   UNL A   1      43.679  24.044  24.677  1.00  0.00    -0.200 F 
ENDBRANCH  41  55
BRANCH  42  66
ATOM     66  C   UNL A   1      39.540  32.110  35.525  1.00  0.00     0.064 A 
ATOM     67  C   UNL A   1      38.630  31.577  36.445  1.00  0.00     0.173 A 
ATOM     68  C   UNL A   1      39.998  33.419  35.738  1.00  0.00     0.173 A 
ATOM     69  F   UNL A   1      38.147  30.338  36.269  1.00  0.00    -0.203 F 
ATOM     70  C   UNL A   1      38.194  32.324  37.537  1.00  0.00     0.198 A 
ATOM     71  C   UNL A   1      39.581  34.155  36.844  1.00  0.00     0.198 A 
ATOM     72  F   UNL A   1      40.872  33.973  34.885  1.00  0.00    -0.203 F 
ATOM     73  F   UNL A   1      37.301  31.803  38.389  1.00  0.00    -0.200 F 
ATOM     74  C   UNL A   1      38.676  33.609  37.741  1.00  0.00     0.200 A 
ATOM     75  F   UNL A   1      40.061  35.390  37.044  1.00  0.00    -0.200 F 
ATOM     76  F   UNL A   1      38.266  34.321  38.799  1.00  0.00    -0.200 F 
ENDBRANCH  42  66
BRANCH  54  77
ATOM     77  C   UNL A   1      45.092  28.020  34.501  1.00  0.00     0.064 A 
ATOM     78  C   UNL A   1      46.281  28.764  34.492  1.00  0.00     0.173 A 
ATOM     79  C   UNL A   1      45.001  26.931  35.381  1.00  0.00     0.173 A 
ATOM     80  F   UNL A   1      46.421  29.803  33.654  1.00  0.00    -0.203 F 
ATOM     81  C   UNL A   1      47.346  28.419  35.320  1.00  0.00     0.198 A 
ATOM     82  C   UNL A   1      46.059  26.604  36.225  1.00  0.00     0.198 A 
ATOM     83  F   UNL A   1      43.883  26.192  35.429  1.00  0.00    -0.203 F 
ATOM     84  F   UNL A   1      48.488  29.118  35.265  1.00  0.00    -0.200 F 
ATOM     85  C   UNL A   1      47.232  27.345  36.189  1.00  0.00     0.200 A 
ATOM     86  F   UNL A   1      45.944  25.573  37.071  1.00  0.00    -0.200 F 
ATOM     87  F   UNL A   1      48.256  27.016  36.988  1.00  0.00    -0.200 F 
ENDBRANCH  54  77
ENDBRANCH  28  29
ENDBRANCH  21  23
ENDBRANCH  20  21
ENDBRANCH  19  20
ENDBRANCH   1  19
TORSDOF 15
ENDMDL
