MODEL 1
REMARK VINA RESULT:     -12.2      0.000      0.000
REMARK SMILES COc1ccc(C(=O)OCCOC(=O)c2ccc(-c3c4nc(c(-c5c(F)c(F)c(F)c(F)c5F)c5ccc([nH]5)c(-c5c(F)c(F)c(F)c(F)c5F)c5nc(c(-c6c(F)c(F)c(F)c(F)c6F)c6ccc3[nH]6)C=C5)C=C4)cc2)cc1Oc1nc(C(C)(C)C)ns1
REMARK SMILES IDX 10 1 9 2 7 3 8 4 6 5 3 6 4 7 79 8 5 9 78 10 2 11 1 12 80 13
REMARK SMILES IDX 81 14 82 15 89 16 83 17 88 18 84 19 85 20 86 21 87 22 11 23
REMARK SMILES IDX 12 24 13 25 14 26 15 27 16 28 77 29 17 30 76 31 18 32 19 33
REMARK SMILES IDX 20 34 70 35 21 36 75 37 69 38 71 39 22 40 74 41 68 42 67 43
REMARK SMILES IDX 23 45 55 46 35 47 54 48 36 49 39 50 53 51 72 52 37 53 38 54
REMARK SMILES IDX 52 56 73 57 40 58 24 59 25 60 33 61 26 62 27 63 31 64 34 65
REMARK SMILES IDX 28 66 29 67 32 68 30 69 56 70 57 71 65 72 58 73 59 74 63 75
REMARK SMILES IDX 66 76 60 77 61 78 64 79 62 80 41 81 42 82 50 83 43 84 44 85
REMARK SMILES IDX 48 86 51 87 45 88 46 89 49 90 47 91
REMARK H PARENT 71 44 39 55
REMARK Flexibility Score: inf
ROOT
ATOM      1  C   UNL A   1      32.883  29.161  24.689  1.00  0.00     0.275 C 
ENDROOT
BRANCH   1   2
ATOM      2  O   UNL A   1      32.129  28.061  24.132  1.00  0.00    -0.458 OA
BRANCH   2   3
ATOM      3  C   UNL A   1      32.864  26.954  23.876  1.00  0.00     0.338 C 
ATOM      4  O   UNL A   1      33.845  26.879  23.158  1.00  0.00    -0.246 OA
BRANCH   3   5
ATOM      5  C   UNL A   1      32.385  25.781  24.635  1.00  0.00     0.064 A 
ATOM      6  C   UNL A   1      31.387  24.008  26.522  1.00  0.00     0.161 A 
ATOM      7  C   UNL A   1      30.505  24.798  25.799  1.00  0.00     0.051 A 
ATOM      8  C   UNL A   1      32.759  23.988  26.213  1.00  0.00     0.173 A 
ATOM      9  C   UNL A   1      31.010  25.689  24.867  1.00  0.00     0.020 A 
ATOM     10  C   UNL A   1      33.264  24.901  25.273  1.00  0.00     0.067 A 
BRANCH   6  11
ATOM     11  O   UNL A   1      30.840  23.289  27.551  1.00  0.00    -0.493 OA
ATOM     12  C   UNL A   1      29.554  22.798  27.151  1.00  0.00     0.278 C 
ENDBRANCH   6  11
BRANCH   8  13
ATOM     13  O   UNL A   1      33.694  23.177  26.821  1.00  0.00    -0.426 OA
BRANCH  13  14
ATOM     14  C   UNL A   1      34.165  22.103  26.188  1.00  0.00     0.298 A 
ATOM     15  N   UNL A   1      33.433  21.032  25.978  1.00  0.00    -0.185 NA
ATOM     16  S   UNL A   1      35.751  21.951  25.556  1.00  0.00     0.025 S 
ATOM     17  C   UNL A   1      34.159  20.163  25.165  1.00  0.00     0.151 A 
ATOM     18  N   UNL A   1      35.434  20.456  24.874  1.00  0.00    -0.172 NA
BRANCH  17  19
ATOM     19  C   UNL A   1      33.516  18.875  24.684  1.00  0.00     0.023 C 
ATOM     20  C   UNL A   1      32.653  18.295  25.816  1.00  0.00     0.019 C 
ATOM     21  C   UNL A   1      32.612  19.136  23.460  1.00  0.00     0.019 C 
ATOM     22  C   UNL A   1      34.567  17.829  24.261  1.00  0.00     0.019 C 
ENDBRANCH  17  19
ENDBRANCH  13  14
ENDBRANCH   8  13
ENDBRANCH   3   5
ENDBRANCH   2   3
ENDBRANCH   1   2
BRANCH   1  23
ATOM     23  C   UNL A   1      32.003  30.095  25.523  1.00  0.00     0.275 C 
BRANCH  23  24
ATOM     24  O   UNL A   1      32.465  30.161  26.887  1.00  0.00    -0.458 OA
BRANCH  24  25
ATOM     25  C   UNL A   1      33.139  31.283  27.215  1.00  0.00     0.338 C 
ATOM     26  O   UNL A   1      32.714  32.428  27.231  1.00  0.00    -0.246 OA
BRANCH  25  27
ATOM     27  C   UNL A   1      34.523  30.971  27.609  1.00  0.00     0.060 A 
ATOM     28  C   UNL A   1      34.873  29.653  27.873  1.00  0.00     0.016 A 
ATOM     29  C   UNL A   1      35.404  32.001  27.932  1.00  0.00     0.016 A 
ATOM     30  C   UNL A   1      36.010  29.374  28.628  1.00  0.00     0.010 A 
ATOM     31  C   UNL A   1      36.627  31.700  28.545  1.00  0.00     0.010 A 
ATOM     32  C   UNL A   1      36.921  30.389  28.960  1.00  0.00    -0.014 A 
BRANCH  32  33
ATOM     33  C   UNL A   1      38.153  30.081  29.752  1.00  0.00     0.031 A 
ATOM     34  C   UNL A   1      39.252  29.223  29.170  1.00  0.00     0.074 A 
ATOM     35  C   UNL A   1      38.307  30.580  30.995  1.00  0.00     0.049 A 
ATOM     36  N   UNL A   1      40.306  28.709  29.760  1.00  0.00    -0.248 NA
ATOM     37  C   UNL A   1      39.146  28.882  27.744  1.00  0.00     0.031 C 
ATOM     38  C   UNL A   1      37.357  31.456  31.682  1.00  0.00     0.029 A 
ATOM     39  N   UNL A   1      39.331  30.435  31.902  1.00  0.00    -0.354 N 
ATOM     40  C   UNL A   1      40.941  27.931  28.798  1.00  0.00     0.074 A 
ATOM     41  C   UNL A   1      40.157  28.040  27.587  1.00  0.00     0.031 C 
ATOM     42  C   UNL A   1      37.870  31.827  32.863  1.00  0.00     0.029 A 
ATOM     43  C   UNL A   1      39.131  31.127  33.072  1.00  0.00     0.049 A 
ATOM     44  H   UNL A   1      40.131  29.888  31.729  1.00  0.00     0.167 HD
ATOM     45  C   UNL A   1      42.072  27.191  28.916  1.00  0.00     0.037 A 
ATOM     46  C   UNL A   1      39.852  31.167  34.208  1.00  0.00     0.037 A 
ATOM     47  C   UNL A   1      42.893  27.140  30.100  1.00  0.00     0.049 A 
ATOM     48  C   UNL A   1      41.085  30.321  34.326  1.00  0.00     0.074 A 
ATOM     49  C   UNL A   1      44.078  26.452  30.303  1.00  0.00     0.029 A 
ATOM     50  N   UNL A   1      42.623  27.819  31.280  1.00  0.00    -0.354 N 
ATOM     51  N   UNL A   1      41.642  29.544  33.431  1.00  0.00    -0.248 NA
ATOM     52  C   UNL A   1      41.772  30.336  35.625  1.00  0.00     0.031 C 
ATOM     53  C   UNL A   1      44.502  26.681  31.616  1.00  0.00     0.029 A 
ATOM     54  C   UNL A   1      43.607  27.550  32.219  1.00  0.00     0.049 A 
ATOM     55  H   UNL A   1      41.846  28.406  31.428  1.00  0.00     0.167 HD
ATOM     56  C   UNL A   1      42.748  28.982  34.052  1.00  0.00     0.074 A 
ATOM     57  C   UNL A   1      42.795  29.525  35.395  1.00  0.00     0.031 C 
ATOM     58  C   UNL A   1      43.641  28.092  33.553  1.00  0.00     0.037 A 
BRANCH  45  59
ATOM     59  C   UNL A   1      42.471  26.339  27.743  1.00  0.00     0.064 A 
ATOM     60  C   UNL A   1      43.420  26.758  26.799  1.00  0.00     0.173 A 
ATOM     61  C   UNL A   1      41.902  25.066  27.576  1.00  0.00     0.173 A 
ATOM     62  F   UNL A   1      43.988  27.968  26.906  1.00  0.00    -0.203 F 
ATOM     63  C   UNL A   1      43.755  25.951  25.713  1.00  0.00     0.198 A 
ATOM     64  C   UNL A   1      42.261  24.250  26.507  1.00  0.00     0.198 A 
ATOM     65  F   UNL A   1      40.997  24.608  28.455  1.00  0.00    -0.203 F 
ATOM     66  F   UNL A   1      44.622  26.396  24.793  1.00  0.00    -0.200 F 
ATOM     67  C   UNL A   1      43.180  24.697  25.570  1.00  0.00     0.200 A 
ATOM     68  F   UNL A   1      41.715  23.032  26.380  1.00  0.00    -0.200 F 
ATOM     69  F   UNL A   1      43.503  23.923  24.525  1.00  0.00    -0.200 F 
ENDBRANCH  45  59
BRANCH  46  70
ATOM     70  C   UNL A   1      39.398  32.025  35.334  1.00  0.00     0.064 A 
ATOM     71  C   UNL A   1      39.762  33.376  35.395  1.00  0.00     0.173 A 
ATOM     72  C   UNL A   1      38.560  31.526  36.343  1.00  0.00     0.173 A 
ATOM     73  F   UNL A   1      40.581  33.891  34.467  1.00  0.00    -0.203 F 
ATOM     74  C   UNL A   1      39.302  34.198  36.421  1.00  0.00     0.198 A 
ATOM     75  C   UNL A   1      38.076  32.355  37.350  1.00  0.00     0.198 A 
ATOM     76  F   UNL A   1      38.184  30.239  36.327  1.00  0.00    -0.203 F 
ATOM     77  F   UNL A   1      39.684  35.481  36.471  1.00  0.00    -0.200 F 
ATOM     78  C   UNL A   1      38.450  33.690  37.391  1.00  0.00     0.200 A 
ATOM     79  F   UNL A   1      37.240  31.865  38.275  1.00  0.00    -0.200 F 
ATOM     80  F   UNL A   1      37.989  34.487  38.365  1.00  0.00    -0.200 F 
ENDBRANCH  46  70
BRANCH  58  81
ATOM     81  C   UNL A   1      44.760  27.672  34.458  1.00  0.00     0.064 A 
ATOM     82  C   UNL A   1      44.656  26.536  35.275  1.00  0.00     0.173 A 
ATOM     83  C   UNL A   1      45.957  28.402  34.496  1.00  0.00     0.173 A 
ATOM     84  F   UNL A   1      43.524  25.816  35.289  1.00  0.00    -0.203 F 
ATOM     85  C   UNL A   1      45.703  26.161  36.113  1.00  0.00     0.198 A 
ATOM     86  C   UNL A   1      47.010  28.010  35.316  1.00  0.00     0.198 A 
ATOM     87  F   UNL A   1      46.106  29.495  33.732  1.00  0.00    -0.203 F 
ATOM     88  F   UNL A   1      45.565  25.100  36.921  1.00  0.00    -0.200 F 
ATOM     89  C   UNL A   1      46.880  26.894  36.129  1.00  0.00     0.200 A 
ATOM     90  F   UNL A   1      48.150  28.715  35.324  1.00  0.00    -0.200 F 
ATOM     91  F   UNL A   1      47.886  26.531  36.937  1.00  0.00    -0.200 F 
ENDBRANCH  58  81
ENDBRANCH  32  33
ENDBRANCH  25  27
ENDBRANCH  24  25
ENDBRANCH  23  24
ENDBRANCH   1  23
TORSDOF 15
ENDMDL
MODEL 2
REMARK VINA RESULT:     -12.0      4.603      9.927
REMARK SMILES COc1ccc(C(=O)OCCOC(=O)c2ccc(-c3c4nc(c(-c5c(F)c(F)c(F)c(F)c5F)c5ccc([nH]5)c(-c5c(F)c(F)c(F)c(F)c5F)c5nc(c(-c6c(F)c(F)c(F)c(F)c6F)c6ccc3[nH]6)C=C5)C=C4)cc2)cc1Oc1nc(C(C)(C)C)ns1
REMARK SMILES IDX 10 1 9 2 7 3 8 4 6 5 3 6 4 7 79 8 5 9 78 10 2 11 1 12 80 13
REMARK SMILES IDX 81 14 82 15 89 16 83 17 88 18 84 19 85 20 86 21 87 22 11 23
REMARK SMILES IDX 12 24 13 25 14 26 15 27 16 28 77 29 17 30 76 31 18 32 19 33
REMARK SMILES IDX 20 34 70 35 21 36 75 37 69 38 71 39 22 40 74 41 68 42 67 43
REMARK SMILES IDX 23 45 55 46 35 47 54 48 36 49 39 50 53 51 72 52 37 53 38 54
REMARK SMILES IDX 52 56 73 57 40 58 24 59 25 60 33 61 26 62 27 63 31 64 34 65
REMARK SMILES IDX 28 66 29 67 32 68 30 69 56 70 57 71 65 72 58 73 59 74 63 75
REMARK SMILES IDX 66 76 60 77 61 78 64 79 62 80 41 81 42 82 50 83 43 84 44 85
REMARK SMILES IDX 48 86 51 87 45 88 46 89 49 90 47 91
REMARK H PARENT 71 44 39 55
REMARK Flexibility Score: inf
ROOT
ATOM      1  C   UNL A   1      35.877  21.466  24.651  1.00  0.00     0.275 C 
ENDROOT
BRANCH   1   2
ATOM      2  O   UNL A   1      35.935  22.874  24.969  1.00  0.00    -0.458 OA
BRANCH   2   3
ATOM      3  C   UNL A   1      35.159  23.656  24.183  1.00  0.00     0.338 C 
ATOM      4  O   UNL A   1      35.161  23.698  22.966  1.00  0.00    -0.246 OA
BRANCH   3   5
ATOM      5  C   UNL A   1      34.204  24.461  24.971  1.00  0.00     0.064 A 
ATOM      6  C   UNL A   1      31.975  25.668  26.099  1.00  0.00     0.161 A 
ATOM      7  C   UNL A   1      32.331  24.389  26.501  1.00  0.00     0.051 A 
ATOM      8  C   UNL A   1      32.804  26.413  25.240  1.00  0.00     0.173 A 
ATOM      9  C   UNL A   1      33.438  23.788  25.927  1.00  0.00     0.020 A 
ATOM     10  C   UNL A   1      33.919  25.792  24.655  1.00  0.00     0.067 A 
BRANCH   6  11
ATOM     11  O   UNL A   1      30.773  26.128  26.565  1.00  0.00    -0.493 OA
ATOM     12  C   UNL A   1      29.716  25.585  25.764  1.00  0.00     0.278 C 
ENDBRANCH   6  11
BRANCH   8  13
ATOM     13  O   UNL A   1      32.572  27.716  24.853  1.00  0.00    -0.426 OA
BRANCH  13  14
ATOM     14  C   UNL A   1      31.642  27.990  23.938  1.00  0.00     0.298 A 
ATOM     15  N   UNL A   1      30.712  28.899  24.131  1.00  0.00    -0.185 NA
ATOM     16  S   UNL A   1      31.517  27.233  22.405  1.00  0.00     0.025 S 
ATOM     17  C   UNL A   1      30.003  29.051  22.940  1.00  0.00     0.151 A 
ATOM     18  N   UNL A   1      30.254  28.218  21.921  1.00  0.00    -0.172 NA
BRANCH  17  19
ATOM     19  C   UNL A   1      28.919  30.109  22.845  1.00  0.00     0.023 C 
ATOM     20  C   UNL A   1      27.557  29.456  23.129  1.00  0.00     0.019 C 
ATOM     21  C   UNL A   1      29.153  31.230  23.881  1.00  0.00     0.019 C 
ATOM     22  C   UNL A   1      28.883  30.774  21.454  1.00  0.00     0.019 C 
ENDBRANCH  17  19
ENDBRANCH  13  14
ENDBRANCH   8  13
ENDBRANCH   3   5
ENDBRANCH   2   3
ENDBRANCH   1   2
BRANCH   1  23
ATOM     23  C   UNL A   1      37.123  20.718  25.129  1.00  0.00     0.275 C 
BRANCH  23  24
ATOM     24  O   UNL A   1      38.274  21.585  25.147  1.00  0.00    -0.458 OA
BRANCH  24  25
ATOM     25  C   UNL A   1      39.173  21.333  26.121  1.00  0.00     0.338 C 
ATOM     26  O   UNL A   1      39.615  20.246  26.462  1.00  0.00    -0.246 OA
BRANCH  25  27
ATOM     27  C   UNL A   1      39.625  22.580  26.759  1.00  0.00     0.060 A 
ATOM     28  C   UNL A   1      39.087  23.790  26.340  1.00  0.00     0.016 A 
ATOM     29  C   UNL A   1      40.732  22.569  27.606  1.00  0.00     0.016 A 
ATOM     30  C   UNL A   1      39.762  24.980  26.605  1.00  0.00     0.010 A 
ATOM     31  C   UNL A   1      41.310  23.781  28.006  1.00  0.00     0.010 A 
ATOM     32  C   UNL A   1      40.874  25.001  27.461  1.00  0.00    -0.014 A 
BRANCH  32  33
ATOM     33  C   UNL A   1      41.583  26.284  27.762  1.00  0.00     0.031 A 
ATOM     34  C   UNL A   1      40.923  27.355  28.599  1.00  0.00     0.074 A 
ATOM     35  C   UNL A   1      42.832  26.498  27.302  1.00  0.00     0.049 A 
ATOM     36  N   UNL A   1      41.304  28.591  28.821  1.00  0.00    -0.248 NA
ATOM     37  C   UNL A   1      39.658  26.998  29.260  1.00  0.00     0.031 C 
ATOM     38  C   UNL A   1      43.620  25.549  26.515  1.00  0.00     0.029 A 
ATOM     39  N   UNL A   1      43.670  27.580  27.441  1.00  0.00    -0.354 N 
ATOM     40  C   UNL A   1      40.296  29.173  29.580  1.00  0.00     0.074 A 
ATOM     41  C   UNL A   1      39.285  28.157  29.784  1.00  0.00     0.031 C 
ATOM     42  C   UNL A   1      44.843  26.055  26.304  1.00  0.00     0.029 A 
ATOM     43  C   UNL A   1      44.892  27.410  26.838  1.00  0.00     0.049 A 
ATOM     44  H   UNL A   1      43.417  28.398  27.927  1.00  0.00     0.167 HD
ATOM     45  C   UNL A   1      40.218  30.439  30.062  1.00  0.00     0.037 A 
ATOM     46  C   UNL A   1      45.927  28.257  26.687  1.00  0.00     0.037 A 
ATOM     47  C   UNL A   1      41.257  31.430  29.922  1.00  0.00     0.049 A 
ATOM     48  C   UNL A   1      45.810  29.660  27.205  1.00  0.00     0.074 A 
ATOM     49  C   UNL A   1      41.288  32.726  30.409  1.00  0.00     0.029 A 
ATOM     50  N   UNL A   1      42.458  31.226  29.258  1.00  0.00    -0.354 N 
ATOM     51  N   UNL A   1      44.828  30.217  27.869  1.00  0.00    -0.248 NA
ATOM     52  C   UNL A   1      46.935  30.562  26.923  1.00  0.00     0.031 C 
ATOM     53  C   UNL A   1      42.488  33.319  30.005  1.00  0.00     0.029 A 
ATOM     54  C   UNL A   1      43.228  32.380  29.306  1.00  0.00     0.049 A 
ATOM     55  H   UNL A   1      42.725  30.387  28.818  1.00  0.00     0.167 HD
ATOM     56  C   UNL A   1      45.216  31.529  28.092  1.00  0.00     0.074 A 
ATOM     57  C   UNL A   1      46.534  31.681  27.511  1.00  0.00     0.031 C 
ATOM     58  C   UNL A   1      44.536  32.520  28.720  1.00  0.00     0.037 A 
BRANCH  45  59
ATOM     59  C   UNL A   1      38.945  30.844  30.753  1.00  0.00     0.064 A 
ATOM     60  C   UNL A   1      38.783  30.747  32.142  1.00  0.00     0.173 A 
ATOM     61  C   UNL A   1      37.874  31.358  30.004  1.00  0.00     0.173 A 
ATOM     62  F   UNL A   1      39.770  30.255  32.905  1.00  0.00    -0.203 F 
ATOM     63  C   UNL A   1      37.583  31.114  32.751  1.00  0.00     0.198 A 
ATOM     64  C   UNL A   1      36.689  31.752  30.618  1.00  0.00     0.198 A 
ATOM     65  F   UNL A   1      37.978  31.483  28.672  1.00  0.00    -0.203 F 
ATOM     66  F   UNL A   1      37.431  30.960  34.074  1.00  0.00    -0.200 F 
ATOM     67  C   UNL A   1      36.540  31.620  31.990  1.00  0.00     0.200 A 
ATOM     68  F   UNL A   1      35.688  32.255  29.882  1.00  0.00    -0.200 F 
ATOM     69  F   UNL A   1      35.388  31.972  32.577  1.00  0.00    -0.200 F 
ENDBRANCH  45  59
BRANCH  46  70
ATOM     70  C   UNL A   1      47.155  27.797  25.987  1.00  0.00     0.064 A 
ATOM     71  C   UNL A   1      48.261  27.335  26.712  1.00  0.00     0.173 A 
ATOM     72  C   UNL A   1      47.231  27.767  24.586  1.00  0.00     0.173 A 
ATOM     73  F   UNL A   1      48.243  27.368  28.052  1.00  0.00    -0.203 F 
ATOM     74  C   UNL A   1      49.397  26.857  26.062  1.00  0.00     0.198 A 
ATOM     75  C   UNL A   1      48.354  27.261  23.938  1.00  0.00     0.198 A 
ATOM     76  F   UNL A   1      46.197  28.198  23.849  1.00  0.00    -0.203 F 
ATOM     77  F   UNL A   1      50.451  26.444  26.777  1.00  0.00    -0.200 F 
ATOM     78  C   UNL A   1      49.437  26.810  24.676  1.00  0.00     0.200 A 
ATOM     79  F   UNL A   1      48.382  27.201  22.599  1.00  0.00    -0.200 F 
ATOM     80  F   UNL A   1      50.522  26.329  24.051  1.00  0.00    -0.200 F 
ENDBRANCH  46  70
BRANCH  58  81
ATOM     81  C   UNL A   1      45.221  33.849  28.832  1.00  0.00     0.064 A 
ATOM     82  C   UNL A   1      45.043  34.850  27.865  1.00  0.00     0.173 A 
ATOM     83  C   UNL A   1      46.050  34.132  29.927  1.00  0.00     0.173 A 
ATOM     84  F   UNL A   1      44.275  34.621  26.789  1.00  0.00    -0.203 F 
ATOM     85  C   UNL A   1      45.690  36.078  27.981  1.00  0.00     0.198 A 
ATOM     86  C   UNL A   1      46.674  35.369  30.053  1.00  0.00     0.198 A 
ATOM     87  F   UNL A   1      46.251  33.208  30.879  1.00  0.00    -0.203 F 
ATOM     88  F   UNL A   1      45.544  37.003  27.023  1.00  0.00    -0.200 F 
ATOM     89  C   UNL A   1      46.500  36.339  29.077  1.00  0.00     0.200 A 
ATOM     90  F   UNL A   1      47.450  35.622  31.116  1.00  0.00    -0.200 F 
ATOM     91  F   UNL A   1      47.121  37.521  29.186  1.00  0.00    -0.200 F 
ENDBRANCH  58  81
ENDBRANCH  32  33
ENDBRANCH  25  27
ENDBRANCH  24  25
ENDBRANCH  23  24
ENDBRANCH   1  23
TORSDOF 15
ENDMDL
MODEL 3
REMARK VINA RESULT:     -12.0      4.617      9.893
REMARK SMILES COc1ccc(C(=O)OCCOC(=O)c2ccc(-c3c4nc(c(-c5c(F)c(F)c(F)c(F)c5F)c5ccc([nH]5)c(-c5c(F)c(F)c(F)c(F)c5F)c5nc(c(-c6c(F)c(F)c(F)c(F)c6F)c6ccc3[nH]6)C=C5)C=C4)cc2)cc1Oc1nc(C(C)(C)C)ns1
REMARK SMILES IDX 10 1 9 2 7 3 8 4 6 5 3 6 4 7 79 8 5 9 78 10 2 11 1 12 80 13
REMARK SMILES IDX 81 14 82 15 89 16 83 17 88 18 84 19 85 20 86 21 87 22 11 23
REMARK SMILES IDX 12 24 13 25 14 26 15 27 16 28 77 29 17 30 76 31 18 32 19 33
REMARK SMILES IDX 20 34 70 35 21 36 75 37 69 38 71 39 22 40 74 41 68 42 67 43
REMARK SMILES IDX 23 45 55 46 35 47 54 48 36 49 39 50 53 51 72 52 37 53 38 54
REMARK SMILES IDX 52 56 73 57 40 58 24 59 25 60 33 61 26 62 27 63 31 64 34 65
REMARK SMILES IDX 28 66 29 67 32 68 30 69 56 70 57 71 65 72 58 73 59 74 63 75
REMARK SMILES IDX 66 76 60 77 61 78 64 79 62 80 41 81 42 82 50 83 43 84 44 85
REMARK SMILES IDX 48 86 51 87 45 88 46 89 49 90 47 91
REMARK H PARENT 71 44 39 55
REMARK Flexibility Score: inf
ROOT
ATOM      1  C   UNL A   1      35.842  21.499  24.622  1.00  0.00     0.275 C 
ENDROOT
BRANCH   1   2
ATOM      2  O   UNL A   1      35.932  22.909  24.923  1.00  0.00    -0.458 OA
BRANCH   2   3
ATOM      3  C   UNL A   1      35.162  23.697  24.138  1.00  0.00     0.338 C 
ATOM      4  O   UNL A   1      35.148  23.724  22.921  1.00  0.00    -0.246 OA
BRANCH   3   5
ATOM      5  C   UNL A   1      34.236  24.534  24.928  1.00  0.00     0.064 A 
ATOM      6  C   UNL A   1      32.048  25.783  26.091  1.00  0.00     0.161 A 
ATOM      7  C   UNL A   1      32.425  24.523  26.534  1.00  0.00     0.051 A 
ATOM      8  C   UNL A   1      32.839  26.492  25.169  1.00  0.00     0.173 A 
ATOM      9  C   UNL A   1      33.511  23.901  25.942  1.00  0.00     0.020 A 
ATOM     10  C   UNL A   1      33.932  25.849  24.567  1.00  0.00     0.067 A 
BRANCH   6  11
ATOM     11  O   UNL A   1      30.863  26.259  26.585  1.00  0.00    -0.493 OA
ATOM     12  C   UNL A   1      29.777  25.575  25.948  1.00  0.00     0.278 C 
ENDBRANCH   6  11
BRANCH   8  13
ATOM     13  O   UNL A   1      32.586  27.776  24.736  1.00  0.00    -0.426 OA
BRANCH  13  14
ATOM     14  C   UNL A   1      31.585  28.016  23.890  1.00  0.00     0.298 A 
ATOM     15  N   UNL A   1      30.723  28.990  24.077  1.00  0.00    -0.185 NA
ATOM     16  S   UNL A   1      31.273  27.126  22.458  1.00  0.00     0.025 S 
ATOM     17  C   UNL A   1      29.908  29.070  22.948  1.00  0.00     0.151 A 
ATOM     18  N   UNL A   1      30.017  28.131  21.999  1.00  0.00    -0.172 NA
BRANCH  17  19
ATOM     19  C   UNL A   1      28.872  30.174  22.851  1.00  0.00     0.023 C 
ATOM     20  C   UNL A   1      27.482  29.583  23.140  1.00  0.00     0.019 C 
ATOM     21  C   UNL A   1      29.157  31.288  23.881  1.00  0.00     0.019 C 
ATOM     22  C   UNL A   1      28.862  30.834  21.457  1.00  0.00     0.019 C 
ENDBRANCH  17  19
ENDBRANCH  13  14
ENDBRANCH   8  13
ENDBRANCH   3   5
ENDBRANCH   2   3
ENDBRANCH   1   2
BRANCH   1  23
ATOM     23  C   UNL A   1      37.082  20.733  25.088  1.00  0.00     0.275 C 
BRANCH  23  24
ATOM     24  O   UNL A   1      38.241  21.590  25.116  1.00  0.00    -0.458 OA
BRANCH  24  25
ATOM     25  C   UNL A   1      39.132  21.323  26.094  1.00  0.00     0.338 C 
ATOM     26  O   UNL A   1      39.561  20.230  26.431  1.00  0.00    -0.246 OA
BRANCH  25  27
ATOM     27  C   UNL A   1      39.594  22.562  26.741  1.00  0.00     0.060 A 
ATOM     28  C   UNL A   1      39.028  23.774  26.366  1.00  0.00     0.016 A 
ATOM     29  C   UNL A   1      40.731  22.546  27.546  1.00  0.00     0.016 A 
ATOM     30  C   UNL A   1      39.700  24.966  26.631  1.00  0.00     0.010 A 
ATOM     31  C   UNL A   1      41.311  23.756  27.949  1.00  0.00     0.010 A 
ATOM     32  C   UNL A   1      40.843  24.982  27.446  1.00  0.00    -0.014 A 
BRANCH  32  33
ATOM     33  C   UNL A   1      41.548  26.267  27.747  1.00  0.00     0.031 A 
ATOM     34  C   UNL A   1      40.883  27.340  28.578  1.00  0.00     0.074 A 
ATOM     35  C   UNL A   1      42.800  26.481  27.292  1.00  0.00     0.049 A 
ATOM     36  N   UNL A   1      41.262  28.577  28.798  1.00  0.00    -0.248 NA
ATOM     37  C   UNL A   1      39.615  26.983  29.233  1.00  0.00     0.031 C 
ATOM     38  C   UNL A   1      43.593  25.531  26.512  1.00  0.00     0.029 A 
ATOM     39  N   UNL A   1      43.635  27.564  27.433  1.00  0.00    -0.354 N 
ATOM     40  C   UNL A   1      40.249  29.159  29.551  1.00  0.00     0.074 A 
ATOM     41  C   UNL A   1      39.238  28.142  29.752  1.00  0.00     0.031 C 
ATOM     42  C   UNL A   1      44.816  26.038  26.306  1.00  0.00     0.029 A 
ATOM     43  C   UNL A   1      44.861  27.394  26.837  1.00  0.00     0.049 A 
ATOM     44  H   UNL A   1      43.379  28.384  27.915  1.00  0.00     0.167 HD
ATOM     45  C   UNL A   1      40.168  30.427  30.029  1.00  0.00     0.037 A 
ATOM     46  C   UNL A   1      45.896  28.242  26.688  1.00  0.00     0.037 A 
ATOM     47  C   UNL A   1      41.206  31.418  29.891  1.00  0.00     0.049 A 
ATOM     48  C   UNL A   1      45.774  29.647  27.201  1.00  0.00     0.074 A 
ATOM     49  C   UNL A   1      41.232  32.715  30.376  1.00  0.00     0.029 A 
ATOM     50  N   UNL A   1      42.411  31.214  29.234  1.00  0.00    -0.354 N 
ATOM     51  N   UNL A   1      44.788  30.204  27.859  1.00  0.00    -0.248 NA
ATOM     52  C   UNL A   1      46.900  30.549  26.923  1.00  0.00     0.031 C 
ATOM     53  C   UNL A   1      42.434  33.309  29.976  1.00  0.00     0.029 A 
ATOM     54  C   UNL A   1      43.178  32.369  29.283  1.00  0.00     0.049 A 
ATOM     55  H   UNL A   1      42.680  30.374  28.797  1.00  0.00     0.167 HD
ATOM     56  C   UNL A   1      45.173  31.517  28.081  1.00  0.00     0.074 A 
ATOM     57  C   UNL A   1      46.494  31.669  27.506  1.00  0.00     0.031 C 
ATOM     58  C   UNL A   1      44.490  32.509  28.703  1.00  0.00     0.037 A 
BRANCH  45  59
ATOM     59  C   UNL A   1      38.891  30.831  30.713  1.00  0.00     0.064 A 
ATOM     60  C   UNL A   1      38.748  30.813  32.107  1.00  0.00     0.173 A 
ATOM     61  C   UNL A   1      37.794  31.266  29.949  1.00  0.00     0.173 A 
ATOM     62  F   UNL A   1      39.760  30.398  32.883  1.00  0.00    -0.203 F 
ATOM     63  C   UNL A   1      37.545  31.178  32.710  1.00  0.00     0.198 A 
ATOM     64  C   UNL A   1      36.605  31.659  30.556  1.00  0.00     0.198 A 
ATOM     65  F   UNL A   1      37.878  31.315  28.611  1.00  0.00    -0.203 F 
ATOM     66  F   UNL A   1      37.414  31.098  34.042  1.00  0.00    -0.200 F 
ATOM     67  C   UNL A   1      36.477  31.604  31.935  1.00  0.00     0.200 A 
ATOM     68  F   UNL A   1      35.579  32.085  29.805  1.00  0.00    -0.200 F 
ATOM     69  F   UNL A   1      35.321  31.954  32.516  1.00  0.00    -0.200 F 
ENDBRANCH  45  59
BRANCH  46  70
ATOM     70  C   UNL A   1      47.127  27.781  25.995  1.00  0.00     0.064 A 
ATOM     71  C   UNL A   1      47.217  27.814  24.598  1.00  0.00     0.173 A 
ATOM     72  C   UNL A   1      48.249  27.342  26.714  1.00  0.00     0.173 A 
ATOM     73  F   UNL A   1      46.161  28.203  23.869  1.00  0.00    -0.203 F 
ATOM     74  C   UNL A   1      48.385  27.428  23.944  1.00  0.00     0.198 A 
ATOM     75  C   UNL A   1      49.426  26.985  26.061  1.00  0.00     0.198 A 
ATOM     76  F   UNL A   1      48.212  27.293  28.053  1.00  0.00    -0.203 F 
ATOM     77  F   UNL A   1      48.437  27.445  22.605  1.00  0.00    -0.200 F 
ATOM     78  C   UNL A   1      49.492  27.025  24.677  1.00  0.00     0.200 A 
ATOM     79  F   UNL A   1      50.499  26.614  26.773  1.00  0.00    -0.200 F 
ATOM     80  F   UNL A   1      50.623  26.676  24.048  1.00  0.00    -0.200 F 
ENDBRANCH  46  70
BRANCH  58  81
ATOM     81  C   UNL A   1      45.172  33.839  28.814  1.00  0.00     0.064 A 
ATOM     82  C   UNL A   1      46.008  34.147  29.898  1.00  0.00     0.173 A 
ATOM     83  C   UNL A   1      45.005  34.810  27.816  1.00  0.00     0.173 A 
ATOM     84  F   UNL A   1      46.184  33.258  30.888  1.00  0.00    -0.203 F 
ATOM     85  C   UNL A   1      46.632  35.388  29.989  1.00  0.00     0.198 A 
ATOM     86  C   UNL A   1      45.651  36.040  27.897  1.00  0.00     0.198 A 
ATOM     87  F   UNL A   1      44.218  34.563  26.758  1.00  0.00    -0.203 F 
ATOM     88  F   UNL A   1      47.388  35.679  31.057  1.00  0.00    -0.200 F 
ATOM     89  C   UNL A   1      46.458  36.331  28.987  1.00  0.00     0.200 A 
ATOM     90  F   UNL A   1      45.488  36.947  26.924  1.00  0.00    -0.200 F 
ATOM     91  F   UNL A   1      47.060  37.525  29.076  1.00  0.00    -0.200 F 
ENDBRANCH  58  81
ENDBRANCH  32  33
ENDBRANCH  25  27
ENDBRANCH  24  25
ENDBRANCH  23  24
ENDBRANCH   1  23
TORSDOF 15
ENDMDL
