MODEL 1
REMARK VINA RESULT:     -11.7      0.000      0.000
REMARK SMILES O=C(NCc1ccc(C(=O)OCCOC(=O)c2ccc(-c3c4nc(c(-c5c(F)c(F)c(F)c(F)c5F)c5ccc([nH]5)c(-c5c(F)c(F)c(F)c(F)c5F)c5nc(c(-c6c(F)c(F)c(F)c(F)c6F)c6ccc3[nH]6)C=C5)C=C4)cc2)o1)N[C@@H]1CCS(=O)(=O)C1
REMARK SMILES IDX 12 1 11 2 9 3 10 4 8 5 5 6 6 7 80 8 7 9 4 10 3 11 1 12 2 13
REMARK SMILES IDX 81 14 82 17 83 18 88 19 84 20 85 21 86 22 87 23 13 24 14 25
REMARK SMILES IDX 15 26 16 27 17 28 18 29 79 30 19 31 78 32 20 33 21 34 22 35
REMARK SMILES IDX 72 36 23 37 77 38 71 39 73 40 24 41 76 42 70 43 69 44 25 46
REMARK SMILES IDX 57 47 37 48 56 49 38 50 41 51 55 52 74 53 39 54 40 55 54 57
REMARK SMILES IDX 75 58 42 59 26 60 27 61 35 62 28 63 29 64 33 65 36 66 30 67
REMARK SMILES IDX 31 68 34 69 32 70 58 71 59 72 67 73 60 74 61 75 65 76 68 77
REMARK SMILES IDX 62 78 63 79 66 80 64 81 43 82 44 83 52 84 45 85 46 86 50 87
REMARK SMILES IDX 53 88 47 89 48 90 51 91 49 92
REMARK H PARENT 3 15 81 16 73 45 41 56
REMARK Flexibility Score: inf
ROOT
ATOM      1  C   UNL A   1      45.583  20.768  24.940  1.00  0.00     0.275 C 
ENDROOT
BRANCH   1   2
ATOM      2  O   UNL A   1      44.349  20.168  24.501  1.00  0.00    -0.456 OA
BRANCH   2   3
ATOM      3  C   UNL A   1      43.831  19.204  25.320  1.00  0.00     0.374 C 
ATOM      4  O   UNL A   1      44.295  18.078  25.437  1.00  0.00    -0.242 OA
BRANCH   3   5
ATOM      5  C   UNL A   1      42.739  19.748  26.097  1.00  0.00     0.211 A 
ATOM      6  C   UNL A   1      40.713  20.604  26.314  1.00  0.00     0.124 A 
ATOM      7  C   UNL A   1      41.152  20.318  27.590  1.00  0.00     0.048 A 
ATOM      8  O   UNL A   1      41.693  20.315  25.415  1.00  0.00    -0.452 OA
ATOM      9  C   UNL A   1      42.451  19.763  27.450  1.00  0.00     0.058 A 
BRANCH   6  10
ATOM     10  C   UNL A   1      39.425  21.082  25.750  1.00  0.00     0.193 C 
BRANCH  10  11
ATOM     11  N   UNL A   1      39.205  22.450  26.158  1.00  0.00    -0.331 N 
ATOM     12  O   UNL A   1      38.156  24.339  26.673  1.00  0.00    -0.249 OA
ATOM     13  C   UNL A   1      38.074  23.170  26.308  1.00  0.00     0.315 C 
ATOM     14  N   UNL A   1      36.888  22.557  26.044  1.00  0.00    -0.334 N 
ATOM     15  H   UNL A   1      40.029  22.947  26.364  1.00  0.00     0.165 HD
ATOM     16  H   UNL A   1      36.874  21.593  25.843  1.00  0.00     0.165 HD
BRANCH  14  17
ATOM     17  C   UNL A   1      35.632  23.305  26.055  1.00  0.00     0.099 C 
ATOM     18  C   UNL A   1      34.406  22.407  25.860  1.00  0.00     0.042 C 
ATOM     19  C   UNL A   1      35.591  24.342  24.936  1.00  0.00     0.161 C 
ATOM     20  C   UNL A   1      34.316  22.054  24.381  1.00  0.00     0.139 C 
ATOM     21  S   UNL A   1      35.021  23.438  23.505  1.00  0.00     0.152 S 
ATOM     22  O   UNL A   1      36.173  22.953  22.772  1.00  0.00    -0.229 OA
ATOM     23  O   UNL A   1      33.954  24.177  22.859  1.00  0.00    -0.229 OA
ENDBRANCH  14  17
ENDBRANCH  10  11
ENDBRANCH   6  10
ENDBRANCH   3   5
ENDBRANCH   2   3
ENDBRANCH   1   2
BRANCH   1  24
ATOM     24  C   UNL A   1      45.614  22.272  24.637  1.00  0.00     0.275 C 
BRANCH  24  25
ATOM     25  O   UNL A   1      44.897  23.039  25.625  1.00  0.00    -0.458 OA
BRANCH  25  26
ATOM     26  C   UNL A   1      43.676  23.482  25.241  1.00  0.00     0.338 C 
ATOM     27  O   UNL A   1      43.047  23.138  24.254  1.00  0.00    -0.246 OA
BRANCH  26  28
ATOM     28  C   UNL A   1      43.116  24.373  26.274  1.00  0.00     0.060 A 
ATOM     29  C   UNL A   1      43.637  25.667  26.363  1.00  0.00     0.016 A 
ATOM     30  C   UNL A   1      42.145  23.942  27.179  1.00  0.00     0.016 A 
ATOM     31  C   UNL A   1      43.186  26.541  27.348  1.00  0.00     0.010 A 
ATOM     32  C   UNL A   1      41.699  24.818  28.178  1.00  0.00     0.010 A 
ATOM     33  C   UNL A   1      42.223  26.119  28.270  1.00  0.00    -0.014 A 
BRANCH  33  34
ATOM     34  C   UNL A   1      41.804  27.040  29.353  1.00  0.00     0.031 A 
ATOM     35  C   UNL A   1      42.573  27.085  30.641  1.00  0.00     0.074 A 
ATOM     36  C   UNL A   1      40.762  27.868  29.161  1.00  0.00     0.049 A 
ATOM     37  N   UNL A   1      42.355  27.804  31.713  1.00  0.00    -0.248 NA
ATOM     38  C   UNL A   1      43.754  26.213  30.732  1.00  0.00     0.031 C 
ATOM     39  C   UNL A   1      39.968  27.956  27.937  1.00  0.00     0.029 A 
ATOM     40  N   UNL A   1      40.192  28.793  30.000  1.00  0.00    -0.354 N 
ATOM     41  C   UNL A   1      43.363  27.468  32.605  1.00  0.00     0.074 A 
ATOM     42  C   UNL A   1      44.185  26.467  31.960  1.00  0.00     0.031 C 
ATOM     43  C   UNL A   1      39.003  28.874  28.107  1.00  0.00     0.029 A 
ATOM     44  C   UNL A   1      39.093  29.413  29.461  1.00  0.00     0.049 A 
ATOM     45  H   UNL A   1      40.537  28.992  30.900  1.00  0.00     0.167 HD
ATOM     46  C   UNL A   1      43.585  27.958  33.849  1.00  0.00     0.037 A 
ATOM     47  C   UNL A   1      38.239  30.299  30.008  1.00  0.00     0.037 A 
ATOM     48  C   UNL A   1      42.771  28.957  34.491  1.00  0.00     0.049 A 
ATOM     49  C   UNL A   1      38.463  30.769  31.418  1.00  0.00     0.074 A 
ATOM     50  C   UNL A   1      42.929  29.528  35.742  1.00  0.00     0.029 A 
ATOM     51  N   UNL A   1      41.639  29.530  33.931  1.00  0.00    -0.354 N 
ATOM     52  N   UNL A   1      39.426  30.458  32.251  1.00  0.00    -0.248 NA
ATOM     53  C   UNL A   1      37.482  31.718  31.964  1.00  0.00     0.031 C 
ATOM     54  C   UNL A   1      41.873  30.421  35.953  1.00  0.00     0.029 A 
ATOM     55  C   UNL A   1      41.078  30.435  34.818  1.00  0.00     0.049 A 
ATOM     56  H   UNL A   1      41.286  29.323  33.035  1.00  0.00     0.167 HD
ATOM     57  C   UNL A   1      39.181  31.184  33.408  1.00  0.00     0.074 A 
ATOM     58  C   UNL A   1      37.982  31.960  33.168  1.00  0.00     0.031 C 
ATOM     59  C   UNL A   1      39.889  31.206  34.563  1.00  0.00     0.037 A 
BRANCH  46  60
ATOM     60  C   UNL A   1      44.753  27.405  34.608  1.00  0.00     0.064 A 
ATOM     61  C   UNL A   1      46.018  28.007  34.547  1.00  0.00     0.173 A 
ATOM     62  C   UNL A   1      44.595  26.284  35.437  1.00  0.00     0.173 A 
ATOM     63  F   UNL A   1      46.220  29.073  33.758  1.00  0.00    -0.203 F 
ATOM     64  C   UNL A   1      47.088  27.495  35.275  1.00  0.00     0.198 A 
ATOM     65  C   UNL A   1      45.663  25.787  36.179  1.00  0.00     0.198 A 
ATOM     66  F   UNL A   1      43.403  25.677  35.531  1.00  0.00    -0.203 F 
ATOM     67  F   UNL A   1      48.298  28.064  35.176  1.00  0.00    -0.200 F 
ATOM     68  C   UNL A   1      46.910  26.390  36.094  1.00  0.00     0.200 A 
ATOM     69  F   UNL A   1      45.486  24.724  36.975  1.00  0.00    -0.200 F 
ATOM     70  F   UNL A   1      47.940  25.901  36.796  1.00  0.00    -0.200 F 
ENDBRANCH  46  60
BRANCH  47  71
ATOM     71  C   UNL A   1      37.084  30.784  29.216  1.00  0.00     0.064 A 
ATOM     72  C   UNL A   1      37.043  32.097  28.729  1.00  0.00     0.173 A 
ATOM     73  C   UNL A   1      35.997  29.944  28.934  1.00  0.00     0.173 A 
ATOM     74  F   UNL A   1      38.048  32.943  29.003  1.00  0.00    -0.203 F 
ATOM     75  C   UNL A   1      35.947  32.556  28.001  1.00  0.00     0.198 A 
ATOM     76  C   UNL A   1      34.914  30.397  28.186  1.00  0.00     0.198 A 
ATOM     77  F   UNL A   1      35.988  28.683  29.390  1.00  0.00    -0.203 F 
ATOM     78  F   UNL A   1      35.905  33.832  27.593  1.00  0.00    -0.200 F 
ATOM     79  C   UNL A   1      34.887  31.705  27.725  1.00  0.00     0.200 A 
ATOM     80  F   UNL A   1      33.890  29.572  27.926  1.00  0.00    -0.200 F 
ATOM     81  F   UNL A   1      33.829  32.151  27.034  1.00  0.00    -0.200 F 
ENDBRANCH  47  71
BRANCH  59  82
ATOM     82  C   UNL A   1      39.408  32.125  35.646  1.00  0.00     0.064 A 
ATOM     83  C   UNL A   1      38.499  31.696  36.622  1.00  0.00     0.173 A 
ATOM     84  C   UNL A   1      39.897  33.437  35.731  1.00  0.00     0.173 A 
ATOM     85  F   UNL A   1      37.993  30.454  36.573  1.00  0.00    -0.203 F 
ATOM     86  C   UNL A   1      38.082  32.553  37.636  1.00  0.00     0.198 A 
ATOM     87  C   UNL A   1      39.495  34.286  36.759  1.00  0.00     0.198 A 
ATOM     88  F   UNL A   1      40.773  33.893  34.822  1.00  0.00    -0.203 F 
ATOM     89  F   UNL A   1      37.185  32.134  38.539  1.00  0.00    -0.200 F 
ATOM     90  C   UNL A   1      38.585  33.844  37.707  1.00  0.00     0.200 A 
ATOM     91  F   UNL A   1      39.988  35.529  36.830  1.00  0.00    -0.200 F 
ATOM     92  F   UNL A   1      38.186  34.667  38.688  1.00  0.00    -0.200 F 
ENDBRANCH  59  82
ENDBRANCH  33  34
ENDBRANCH  26  28
ENDBRANCH  25  26
ENDBRANCH  24  25
ENDBRANCH   1  24
TORSDOF 14
ENDMDL
MODEL 2
REMARK VINA RESULT:     -11.6      5.366     11.636
REMARK SMILES O=C(NCc1ccc(C(=O)OCCOC(=O)c2ccc(-c3c4nc(c(-c5c(F)c(F)c(F)c(F)c5F)c5ccc([nH]5)c(-c5c(F)c(F)c(F)c(F)c5F)c5nc(c(-c6c(F)c(F)c(F)c(F)c6F)c6ccc3[nH]6)C=C5)C=C4)cc2)o1)N[C@@H]1CCS(=O)(=O)C1
REMARK SMILES IDX 12 1 11 2 9 3 10 4 8 5 5 6 6 7 80 8 7 9 4 10 3 11 1 12 2 13
REMARK SMILES IDX 81 14 82 17 83 18 88 19 84 20 85 21 86 22 87 23 13 24 14 25
REMARK SMILES IDX 15 26 16 27 17 28 18 29 79 30 19 31 78 32 20 33 21 34 22 35
REMARK SMILES IDX 72 36 23 37 77 38 71 39 73 40 24 41 76 42 70 43 69 44 25 46
REMARK SMILES IDX 57 47 37 48 56 49 38 50 41 51 55 52 74 53 39 54 40 55 54 57
REMARK SMILES IDX 75 58 42 59 26 60 27 61 35 62 28 63 29 64 33 65 36 66 30 67
REMARK SMILES IDX 31 68 34 69 32 70 58 71 59 72 67 73 60 74 61 75 65 76 68 77
REMARK SMILES IDX 62 78 63 79 66 80 64 81 43 82 44 83 52 84 45 85 46 86 50 87
REMARK SMILES IDX 53 88 47 89 48 90 51 91 49 92
REMARK H PARENT 3 15 81 16 73 45 41 56
REMARK Flexibility Score: inf
ROOT
ATOM      1  C   UNL A   1      33.489  34.069  28.043  1.00  0.00     0.275 C 
ENDROOT
BRANCH   1   2
ATOM      2  O   UNL A   1      32.625  34.616  29.057  1.00  0.00    -0.456 OA
BRANCH   2   3
ATOM      3  C   UNL A   1      32.958  35.861  29.515  1.00  0.00     0.374 C 
ATOM      4  O   UNL A   1      32.911  36.878  28.837  1.00  0.00    -0.242 OA
BRANCH   3   5
ATOM      5  C   UNL A   1      33.258  35.805  30.929  1.00  0.00     0.211 A 
ATOM      6  C   UNL A   1      33.812  34.737  32.783  1.00  0.00     0.124 A 
ATOM      7  C   UNL A   1      33.907  36.083  33.067  1.00  0.00     0.048 A 
ATOM      8  O   UNL A   1      33.364  34.567  31.508  1.00  0.00    -0.452 OA
ATOM      9  C   UNL A   1      33.557  36.769  31.875  1.00  0.00     0.058 A 
BRANCH   6  10
ATOM     10  C   UNL A   1      34.146  33.498  33.532  1.00  0.00     0.193 C 
BRANCH  10  11
ATOM     11  N   UNL A   1      35.092  32.720  32.767  1.00  0.00    -0.331 N 
ATOM     12  O   UNL A   1      36.965  31.670  32.199  1.00  0.00    -0.249 OA
ATOM     13  C   UNL A   1      36.361  32.343  33.028  1.00  0.00     0.315 C 
ATOM     14  N   UNL A   1      36.912  32.732  34.210  1.00  0.00    -0.334 N 
ATOM     15  H   UNL A   1      34.750  32.408  31.899  1.00  0.00     0.165 HD
ATOM     16  H   UNL A   1      36.353  33.193  34.877  1.00  0.00     0.165 HD
BRANCH  14  17
ATOM     17  C   UNL A   1      38.320  32.477  34.508  1.00  0.00     0.099 C 
ATOM     18  C   UNL A   1      38.595  31.012  34.860  1.00  0.00     0.042 C 
ATOM     19  C   UNL A   1      38.796  33.305  35.699  1.00  0.00     0.161 C 
ATOM     20  C   UNL A   1      38.131  30.780  36.292  1.00  0.00     0.139 C 
ATOM     21  S   UNL A   1      38.336  32.340  37.131  1.00  0.00     0.152 S 
ATOM     22  O   UNL A   1      37.028  32.772  37.581  1.00  0.00    -0.229 OA
ATOM     23  O   UNL A   1      39.466  32.243  38.033  1.00  0.00    -0.229 OA
ENDBRANCH  14  17
ENDBRANCH  10  11
ENDBRANCH   6  10
ENDBRANCH   3   5
ENDBRANCH   2   3
ENDBRANCH   1   2
BRANCH   1  24
ATOM     24  C   UNL A   1      34.206  32.806  28.538  1.00  0.00     0.275 C 
BRANCH  24  25
ATOM     25  O   UNL A   1      34.627  31.960  27.450  1.00  0.00    -0.458 OA
BRANCH  25  26
ATOM     26  C   UNL A   1      34.574  30.629  27.696  1.00  0.00     0.338 C 
ATOM     27  O   UNL A   1      33.610  29.894  27.560  1.00  0.00    -0.246 OA
BRANCH  26  28
ATOM     28  C   UNL A   1      35.919  30.127  28.038  1.00  0.00     0.060 A 
ATOM     29  C   UNL A   1      36.109  29.614  29.324  1.00  0.00     0.016 A 
ATOM     30  C   UNL A   1      36.990  30.206  27.147  1.00  0.00     0.016 A 
ATOM     31  C   UNL A   1      37.365  29.170  29.725  1.00  0.00     0.010 A 
ATOM     32  C   UNL A   1      38.257  29.769  27.554  1.00  0.00     0.010 A 
ATOM     33  C   UNL A   1      38.451  29.255  28.848  1.00  0.00    -0.014 A 
BRANCH  33  34
ATOM     34  C   UNL A   1      39.795  28.839  29.315  1.00  0.00     0.031 A 
ATOM     35  C   UNL A   1      40.549  29.696  30.289  1.00  0.00     0.074 A 
ATOM     36  C   UNL A   1      40.316  27.671  28.900  1.00  0.00     0.049 A 
ATOM     37  N   UNL A   1      41.741  29.518  30.800  1.00  0.00    -0.248 NA
ATOM     38  C   UNL A   1      39.867  30.910  30.762  1.00  0.00     0.031 C 
ATOM     39  C   UNL A   1      39.659  26.728  27.997  1.00  0.00     0.029 A 
ATOM     40  N   UNL A   1      41.522  27.082  29.185  1.00  0.00    -0.354 N 
ATOM     41  C   UNL A   1      41.955  30.596  31.647  1.00  0.00     0.074 A 
ATOM     42  C   UNL A   1      40.779  31.436  31.570  1.00  0.00     0.031 C 
ATOM     43  C   UNL A   1      40.475  25.682  27.789  1.00  0.00     0.029 A 
ATOM     44  C   UNL A   1      41.722  25.900  28.518  1.00  0.00     0.049 A 
ATOM     45  H   UNL A   1      42.179  27.469  29.807  1.00  0.00     0.167 HD
ATOM     46  C   UNL A   1      43.034  30.856  32.424  1.00  0.00     0.037 A 
ATOM     47  C   UNL A   1      42.800  25.094  28.480  1.00  0.00     0.037 A 
ATOM     48  C   UNL A   1      44.203  30.021  32.505  1.00  0.00     0.049 A 
ATOM     49  C   UNL A   1      44.016  25.446  29.293  1.00  0.00     0.074 A 
ATOM     50  C   UNL A   1      45.338  30.194  33.279  1.00  0.00     0.029 A 
ATOM     51  N   UNL A   1      44.389  28.853  31.780  1.00  0.00    -0.354 N 
ATOM     52  N   UNL A   1      44.205  26.459  30.101  1.00  0.00    -0.248 NA
ATOM     53  C   UNL A   1      45.167  24.538  29.188  1.00  0.00     0.031 C 
ATOM     54  C   UNL A   1      46.225  29.149  32.996  1.00  0.00     0.029 A 
ATOM     55  C   UNL A   1      45.627  28.304  32.075  1.00  0.00     0.049 A 
ATOM     56  H   UNL A   1      43.737  28.470  31.149  1.00  0.00     0.167 HD
ATOM     57  C   UNL A   1      45.484  26.303  30.617  1.00  0.00     0.074 A 
ATOM     58  C   UNL A   1      46.023  25.090  30.037  1.00  0.00     0.031 C 
ATOM     59  C   UNL A   1      46.148  27.093  31.496  1.00  0.00     0.037 A 
BRANCH  46  60
ATOM     60  C   UNL A   1      43.007  32.112  33.241  1.00  0.00     0.064 A 
ATOM     61  C   UNL A   1      42.510  32.123  34.552  1.00  0.00     0.173 A 
ATOM     62  C   UNL A   1      43.520  33.310  32.721  1.00  0.00     0.173 A 
ATOM     63  F   UNL A   1      41.998  31.005  35.088  1.00  0.00    -0.203 F 
ATOM     64  C   UNL A   1      42.511  33.293  35.307  1.00  0.00     0.198 A 
ATOM     65  C   UNL A   1      43.538  34.473  33.485  1.00  0.00     0.198 A 
ATOM     66  F   UNL A   1      44.010  33.349  31.473  1.00  0.00    -0.203 F 
ATOM     67  F   UNL A   1      42.000  33.289  36.546  1.00  0.00    -0.200 F 
ATOM     68  C   UNL A   1      43.030  34.465  34.776  1.00  0.00     0.200 A 
ATOM     69  F   UNL A   1      44.046  35.602  32.973  1.00  0.00    -0.200 F 
ATOM     70  F   UNL A   1      43.033  35.588  35.505  1.00  0.00    -0.200 F 
ENDBRANCH  46  60
BRANCH  47  71
ATOM     71  C   UNL A   1      42.776  23.882  27.627  1.00  0.00     0.064 A 
ATOM     72  C   UNL A   1      42.406  22.637  28.151  1.00  0.00     0.173 A 
ATOM     73  C   UNL A   1      43.129  23.946  26.271  1.00  0.00     0.173 A 
ATOM     74  F   UNL A   1      42.092  22.526  29.451  1.00  0.00    -0.203 F 
ATOM     75  C   UNL A   1      42.403  21.496  27.351  1.00  0.00     0.198 A 
ATOM     76  C   UNL A   1      43.103  22.810  25.467  1.00  0.00     0.198 A 
ATOM     77  F   UNL A   1      43.502  25.115  25.730  1.00  0.00    -0.203 F 
ATOM     78  F   UNL A   1      42.098  20.307  27.887  1.00  0.00    -0.200 F 
ATOM     79  C   UNL A   1      42.745  21.584  26.009  1.00  0.00     0.200 A 
ATOM     80  F   UNL A   1      43.438  22.900  24.173  1.00  0.00    -0.200 F 
ATOM     81  F   UNL A   1      42.753  20.485  25.244  1.00  0.00    -0.200 F 
ENDBRANCH  47  71
BRANCH  59  82
ATOM     82  C   UNL A   1      47.520  26.654  31.913  1.00  0.00     0.064 A 
ATOM     83  C   UNL A   1      47.710  25.741  32.959  1.00  0.00     0.173 A 
ATOM     84  C   UNL A   1      48.652  27.120  31.229  1.00  0.00     0.173 A 
ATOM     85  F   UNL A   1      46.658  25.278  33.652  1.00  0.00    -0.203 F 
ATOM     86  C   UNL A   1      48.988  25.323  33.318  1.00  0.00     0.198 A 
ATOM     87  C   UNL A   1      49.927  26.684  31.577  1.00  0.00     0.198 A 
ATOM     88  F   UNL A   1      48.520  27.992  30.218  1.00  0.00    -0.203 F 
ATOM     89  F   UNL A   1      49.151  24.476  34.344  1.00  0.00    -0.200 F 
ATOM     90  C   UNL A   1      50.094  25.789  32.623  1.00  0.00     0.200 A 
ATOM     91  F   UNL A   1      50.994  27.129  30.899  1.00  0.00    -0.200 F 
ATOM     92  F   UNL A   1      51.324  25.381  32.967  1.00  0.00    -0.200 F 
ENDBRANCH  59  82
ENDBRANCH  33  34
ENDBRANCH  26  28
ENDBRANCH  25  26
ENDBRANCH  24  25
ENDBRANCH   1  24
TORSDOF 14
ENDMDL
MODEL 3
REMARK VINA RESULT:     -11.6      1.370      2.340
REMARK SMILES O=C(NCc1ccc(C(=O)OCCOC(=O)c2ccc(-c3c4nc(c(-c5c(F)c(F)c(F)c(F)c5F)c5ccc([nH]5)c(-c5c(F)c(F)c(F)c(F)c5F)c5nc(c(-c6c(F)c(F)c(F)c(F)c6F)c6ccc3[nH]6)C=C5)C=C4)cc2)o1)N[C@@H]1CCS(=O)(=O)C1
REMARK SMILES IDX 12 1 11 2 9 3 10 4 8 5 5 6 6 7 80 8 7 9 4 10 3 11 1 12 2 13
REMARK SMILES IDX 81 14 82 17 83 18 88 19 84 20 85 21 86 22 87 23 13 24 14 25
REMARK SMILES IDX 15 26 16 27 17 28 18 29 79 30 19 31 78 32 20 33 21 34 22 35
REMARK SMILES IDX 72 36 23 37 77 38 71 39 73 40 24 41 76 42 70 43 69 44 25 46
REMARK SMILES IDX 57 47 37 48 56 49 38 50 41 51 55 52 74 53 39 54 40 55 54 57
REMARK SMILES IDX 75 58 42 59 26 60 27 61 35 62 28 63 29 64 33 65 36 66 30 67
REMARK SMILES IDX 31 68 34 69 32 70 58 71 59 72 67 73 60 74 61 75 65 76 68 77
REMARK SMILES IDX 62 78 63 79 66 80 64 81 43 82 44 83 52 84 45 85 46 86 50 87
REMARK SMILES IDX 53 88 47 89 48 90 51 91 49 92
REMARK H PARENT 3 15 81 16 73 45 41 56
REMARK Flexibility Score: inf
ROOT
ATOM      1  C   UNL A   1      42.780  21.110  26.128  1.00  0.00     0.275 C 
ENDROOT
BRANCH   1   2
ATOM      2  O   UNL A   1      41.401  21.314  25.766  1.00  0.00    -0.456 OA
BRANCH   2   3
ATOM      3  C   UNL A   1      40.536  21.512  26.806  1.00  0.00     0.374 C 
ATOM      4  O   UNL A   1      40.790  21.249  27.973  1.00  0.00    -0.242 OA
BRANCH   3   5
ATOM      5  C   UNL A   1      39.340  22.177  26.336  1.00  0.00     0.211 A 
ATOM      6  C   UNL A   1      37.310  22.189  25.458  1.00  0.00     0.124 A 
ATOM      7  C   UNL A   1      37.543  23.468  25.918  1.00  0.00     0.048 A 
ATOM      8  O   UNL A   1      38.417  21.421  25.657  1.00  0.00    -0.452 OA
ATOM      9  C   UNL A   1      38.843  23.459  26.486  1.00  0.00     0.058 A 
BRANCH   6  10
ATOM     10  C   UNL A   1      36.130  21.500  24.877  1.00  0.00     0.193 C 
BRANCH  10  11
ATOM     11  N   UNL A   1      35.243  21.095  25.943  1.00  0.00    -0.331 N 
ATOM     12  O   UNL A   1      33.535  21.104  27.362  1.00  0.00    -0.249 OA
ATOM     13  C   UNL A   1      34.118  21.654  26.433  1.00  0.00     0.315 C 
ATOM     14  N   UNL A   1      33.681  22.813  25.866  1.00  0.00    -0.334 N 
ATOM     15  H   UNL A   1      35.506  20.261  26.392  1.00  0.00     0.165 HD
ATOM     16  H   UNL A   1      34.136  23.162  25.065  1.00  0.00     0.165 HD
BRANCH  14  17
ATOM     17  C   UNL A   1      32.548  23.548  26.425  1.00  0.00     0.099 C 
ATOM     18  C   UNL A   1      31.202  23.077  25.866  1.00  0.00     0.042 C 
ATOM     19  C   UNL A   1      32.646  25.040  26.118  1.00  0.00     0.161 C 
ATOM     20  C   UNL A   1      31.044  23.666  24.471  1.00  0.00     0.139 C 
ATOM     21  S   UNL A   1      31.932  25.212  24.489  1.00  0.00     0.152 S 
ATOM     22  O   UNL A   1      32.993  25.121  23.505  1.00  0.00    -0.229 OA
ATOM     23  O   UNL A   1      30.977  26.302  24.491  1.00  0.00    -0.229 OA
ENDBRANCH  14  17
ENDBRANCH  10  11
ENDBRANCH   6  10
ENDBRANCH   3   5
ENDBRANCH   2   3
ENDBRANCH   1   2
BRANCH   1  24
ATOM     24  C   UNL A   1      43.723  21.897  25.209  1.00  0.00     0.275 C 
BRANCH  24  25
ATOM     25  O   UNL A   1      43.166  23.170  24.823  1.00  0.00    -0.458 OA
BRANCH  25  26
ATOM     26  C   UNL A   1      43.948  24.246  25.078  1.00  0.00     0.338 C 
ATOM     27  O   UNL A   1      44.945  24.591  24.466  1.00  0.00    -0.246 OA
BRANCH  26  28
ATOM     28  C   UNL A   1      43.347  25.062  26.150  1.00  0.00     0.060 A 
ATOM     29  C   UNL A   1      43.871  26.341  26.360  1.00  0.00     0.016 A 
ATOM     30  C   UNL A   1      42.332  24.574  26.975  1.00  0.00     0.016 A 
ATOM     31  C   UNL A   1      43.381  27.142  27.386  1.00  0.00     0.010 A 
ATOM     32  C   UNL A   1      41.846  25.376  28.015  1.00  0.00     0.010 A 
ATOM     33  C   UNL A   1      42.374  26.661  28.230  1.00  0.00    -0.014 A 
BRANCH  33  34
ATOM     34  C   UNL A   1      41.911  27.502  29.359  1.00  0.00     0.031 A 
ATOM     35  C   UNL A   1      42.648  27.475  30.666  1.00  0.00     0.074 A 
ATOM     36  C   UNL A   1      40.859  28.323  29.195  1.00  0.00     0.049 A 
ATOM     37  N   UNL A   1      42.390  28.119  31.777  1.00  0.00    -0.248 NA
ATOM     38  C   UNL A   1      43.842  26.619  30.730  1.00  0.00     0.031 C 
ATOM     39  C   UNL A   1      40.094  28.478  27.959  1.00  0.00     0.029 A 
ATOM     40  N   UNL A   1      40.251  29.181  30.077  1.00  0.00    -0.354 N 
ATOM     41  C   UNL A   1      43.382  27.742  32.671  1.00  0.00     0.074 A 
ATOM     42  C   UNL A   1      44.238  26.800  31.983  1.00  0.00     0.031 C 
ATOM     43  C   UNL A   1      39.108  29.366  28.164  1.00  0.00     0.029 A 
ATOM     44  C   UNL A   1      39.155  29.816  29.552  1.00  0.00     0.049 A 
ATOM     45  H   UNL A   1      40.571  29.326  30.997  1.00  0.00     0.167 HD
ATOM     46  C   UNL A   1      43.565  28.153  33.950  1.00  0.00     0.037 A 
ATOM     47  C   UNL A   1      38.272  30.650  30.133  1.00  0.00     0.037 A 
ATOM     48  C   UNL A   1      42.717  29.093  34.634  1.00  0.00     0.049 A 
ATOM     49  C   UNL A   1      38.452  31.030  31.577  1.00  0.00     0.074 A 
ATOM     50  C   UNL A   1      42.834  29.584  35.923  1.00  0.00     0.029 A 
ATOM     51  N   UNL A   1      41.588  29.683  34.084  1.00  0.00    -0.354 N 
ATOM     52  N   UNL A   1      39.400  30.681  32.412  1.00  0.00    -0.248 NA
ATOM     53  C   UNL A   1      37.440  31.924  32.158  1.00  0.00     0.031 C 
ATOM     54  C   UNL A   1      41.756  30.443  36.165  1.00  0.00     0.029 A 
ATOM     55  C   UNL A   1      40.989  30.518  35.013  1.00  0.00     0.049 A 
ATOM     56  H   UNL A   1      41.261  29.529  33.168  1.00  0.00     0.167 HD
ATOM     57  C   UNL A   1      39.113  31.326  33.607  1.00  0.00     0.074 A 
ATOM     58  C   UNL A   1      37.906  32.096  33.388  1.00  0.00     0.031 C 
ATOM     59  C   UNL A   1      39.793  31.284  34.779  1.00  0.00     0.037 A 
BRANCH  46  60
ATOM     60  C   UNL A   1      44.724  27.571  34.701  1.00  0.00     0.064 A 
ATOM     61  C   UNL A   1      44.604  26.373  35.418  1.00  0.00     0.173 A 
ATOM     62  C   UNL A   1      45.978  28.199  34.669  1.00  0.00     0.173 A 
ATOM     63  F   UNL A   1      43.422  25.743  35.487  1.00  0.00    -0.203 F 
ATOM     64  C   UNL A   1      45.695  25.832  36.093  1.00  0.00     0.198 A 
ATOM     65  C   UNL A   1      47.071  27.645  35.329  1.00  0.00     0.198 A 
ATOM     66  F   UNL A   1      46.143  29.345  33.993  1.00  0.00    -0.203 F 
ATOM     67  F   UNL A   1      45.551  24.703  36.801  1.00  0.00    -0.200 F 
ATOM     68  C   UNL A   1      46.929  26.465  36.044  1.00  0.00     0.200 A 
ATOM     69  F   UNL A   1      48.264  28.254  35.274  1.00  0.00    -0.200 F 
ATOM     70  F   UNL A   1      47.978  25.941  36.691  1.00  0.00    -0.200 F 
ENDBRANCH  46  60
BRANCH  47  71
ATOM     71  C   UNL A   1      37.127  31.166  29.345  1.00  0.00     0.064 A 
ATOM     72  C   UNL A   1      37.096  32.495  28.904  1.00  0.00     0.173 A 
ATOM     73  C   UNL A   1      36.040  30.340  29.022  1.00  0.00     0.173 A 
ATOM     74  F   UNL A   1      38.100  33.327  29.218  1.00  0.00    -0.203 F 
ATOM     75  C   UNL A   1      36.011  32.984  28.180  1.00  0.00     0.198 A 
ATOM     76  C   UNL A   1      34.968  30.823  28.278  1.00  0.00     0.198 A 
ATOM     77  F   UNL A   1      36.023  29.065  29.435  1.00  0.00    -0.203 F 
ATOM     78  F   UNL A   1      35.977  34.273  27.815  1.00  0.00    -0.200 F 
ATOM     79  C   UNL A   1      34.951  32.146  27.862  1.00  0.00     0.200 A 
ATOM     80  F   UNL A   1      33.945  30.011  27.978  1.00  0.00    -0.200 F 
ATOM     81  F   UNL A   1      33.902  32.620  27.175  1.00  0.00    -0.200 F 
ENDBRANCH  47  71
BRANCH  59  82
ATOM     82  C   UNL A   1      39.268  32.122  35.907  1.00  0.00     0.064 A 
ATOM     83  C   UNL A   1      38.341  31.615  36.827  1.00  0.00     0.173 A 
ATOM     84  C   UNL A   1      39.734  33.433  36.091  1.00  0.00     0.173 A 
ATOM     85  F   UNL A   1      37.857  30.372  36.683  1.00  0.00    -0.203 F 
ATOM     86  C   UNL A   1      37.884  32.397  37.884  1.00  0.00     0.198 A 
ATOM     87  C   UNL A   1      39.290  34.205  37.162  1.00  0.00     0.198 A 
ATOM     88  F   UNL A   1      40.625  33.960  35.239  1.00  0.00    -0.203 F 
ATOM     89  F   UNL A   1      36.970  31.905  38.732  1.00  0.00    -0.200 F 
ATOM     90  C   UNL A   1      38.363  33.688  38.054  1.00  0.00     0.200 A 
ATOM     91  F   UNL A   1      39.761  35.448  37.329  1.00  0.00    -0.200 F 
ATOM     92  F   UNL A   1      37.925  34.437  39.076  1.00  0.00    -0.200 F 
ENDBRANCH  59  82
ENDBRANCH  33  34
ENDBRANCH  26  28
ENDBRANCH  25  26
ENDBRANCH  24  25
ENDBRANCH   1  24
TORSDOF 14
ENDMDL
