MODEL 1
REMARK VINA RESULT:     -12.1      0.000      0.000
REMARK SMILES COc1ccc(/C=C(/Sc2nc(C)n[nH]2)C(=O)OCCOC(=O)c2ccc(-c3c4nc(c(-c5c(F)c(F)c(F)c(F)c5F)c5ccc([nH]5)c(-c5c(F)c(F)c(F)c(F)c5F)c5nc(c(-c6c(F)c(F)c(F)c(F)c6F)c6ccc3[nH]6)C=C5)C=C4)cc2)cc1OC
REMARK SMILES IDX 19 1 18 2 16 3 17 4 8 5 7 6 6 7 3 8 4 9 88 10 5 11 87 12
REMARK SMILES IDX 2 13 1 14 89 15 90 16 9 17 10 18 11 19 15 20 12 21 14 22
REMARK SMILES IDX 13 24 20 25 21 26 22 27 23 28 24 29 25 30 86 31 26 32 85 33
REMARK SMILES IDX 27 34 28 35 29 36 79 37 30 38 84 39 78 40 80 41 31 42 83 43
REMARK SMILES IDX 77 44 76 45 32 47 64 48 44 49 63 50 45 51 48 52 62 53 81 54
REMARK SMILES IDX 46 55 47 56 61 58 82 59 49 60 33 61 34 62 42 63 35 64 36 65
REMARK SMILES IDX 40 66 43 67 37 68 38 69 41 70 39 71 65 72 66 73 74 74 67 75
REMARK SMILES IDX 68 76 72 77 75 78 69 79 70 80 73 81 71 82 50 83 51 84 59 85
REMARK SMILES IDX 52 86 53 87 57 88 60 89 54 90 55 91 58 92 56 93
REMARK H PARENT 15 23 80 46 48 57
REMARK Flexibility Score: inf
ROOT
ATOM      1  C   UNL A   1      37.323  22.451  24.644  1.00  0.00     0.275 C 
ENDROOT
BRANCH   1   2
ATOM      2  O   UNL A   1      36.348  23.286  25.284  1.00  0.00    -0.458 OA
BRANCH   2   3
ATOM      3  C   UNL A   1      35.083  23.298  24.766  1.00  0.00     0.345 C 
ATOM      4  O   UNL A   1      34.819  23.371  23.586  1.00  0.00    -0.246 OA
BRANCH   3   5
ATOM      5  C   UNL A   1      34.082  23.096  25.876  1.00  0.00     0.101 C 
ATOM      6  C   UNL A   1      32.988  23.876  26.047  1.00  0.00     0.031 C 
BRANCH   6   7
ATOM      7  C   UNL A   1      32.395  25.042  25.329  1.00  0.00    -0.020 A 
ATOM      8  C   UNL A   1      31.086  27.365  24.322  1.00  0.00     0.160 A 
ATOM      9  C   UNL A   1      30.909  26.119  23.716  1.00  0.00     0.051 A 
ATOM     10  C   UNL A   1      31.926  27.473  25.432  1.00  0.00     0.161 A 
ATOM     11  C   UNL A   1      31.554  24.976  24.216  1.00  0.00     0.012 A 
ATOM     12  C   UNL A   1      32.570  26.315  25.912  1.00  0.00     0.058 A 
BRANCH   8  13
ATOM     13  O   UNL A   1      30.322  28.419  23.898  1.00  0.00    -0.493 OA
ATOM     14  C   UNL A   1      30.555  28.750  22.529  1.00  0.00     0.278 C 
ENDBRANCH   8  13
BRANCH  10  15
ATOM     15  O   UNL A   1      32.200  28.588  26.180  1.00  0.00    -0.493 OA
ATOM     16  C   UNL A   1      31.650  28.678  27.486  1.00  0.00     0.278 C 
ENDBRANCH  10  15
ENDBRANCH   6   7
BRANCH   5  17
ATOM     17  S   UNL A   1      34.344  21.601  26.772  1.00  0.00    -0.043 SA
BRANCH  17  18
ATOM     18  C   UNL A   1      33.647  20.394  25.782  1.00  0.00     0.188 A 
ATOM     19  N   UNL A   1      33.560  20.332  24.479  1.00  0.00    -0.206 NA
ATOM     20  N   UNL A   1      32.946  19.374  26.347  1.00  0.00    -0.254 N 
ATOM     21  C   UNL A   1      32.752  19.237  24.286  1.00  0.00     0.148 A 
ATOM     22  N   UNL A   1      32.369  18.607  25.406  1.00  0.00    -0.158 NA
ATOM     23  H   UNL A   1      32.872  19.218  27.316  1.00  0.00     0.192 HD
ATOM     24  C   UNL A   1      32.298  18.825  22.945  1.00  0.00     0.092 C 
ENDBRANCH  17  18
ENDBRANCH   5  17
ENDBRANCH   3   5
ENDBRANCH   2   3
ENDBRANCH   1   2
BRANCH   1  25
ATOM     25  C   UNL A   1      38.224  21.856  25.716  1.00  0.00     0.275 C 
BRANCH  25  26
ATOM     26  O   UNL A   1      38.724  22.897  26.555  1.00  0.00    -0.458 OA
BRANCH  26  27
ATOM     27  C   UNL A   1      39.942  22.684  27.103  1.00  0.00     0.338 C 
ATOM     28  O   UNL A   1      40.363  21.652  27.607  1.00  0.00    -0.246 OA
BRANCH  27  29
ATOM     29  C   UNL A   1      40.639  23.972  27.194  1.00  0.00     0.060 A 
ATOM     30  C   UNL A   1      41.591  24.120  28.209  1.00  0.00     0.016 A 
ATOM     31  C   UNL A   1      40.138  25.068  26.479  1.00  0.00     0.016 A 
ATOM     32  C   UNL A   1      41.880  25.391  28.654  1.00  0.00     0.010 A 
ATOM     33  C   UNL A   1      40.403  26.331  26.942  1.00  0.00     0.010 A 
ATOM     34  C   UNL A   1      41.201  26.464  28.074  1.00  0.00    -0.014 A 
BRANCH  34  35
ATOM     35  C   UNL A   1      41.254  27.748  28.730  1.00  0.00     0.031 A 
ATOM     36  C   UNL A   1      42.401  28.604  28.363  1.00  0.00     0.074 A 
ATOM     37  C   UNL A   1      40.212  28.163  29.474  1.00  0.00     0.049 A 
ATOM     38  N   UNL A   1      43.326  29.074  29.134  1.00  0.00    -0.248 NA
ATOM     39  C   UNL A   1      42.596  28.898  26.936  1.00  0.00     0.031 C 
ATOM     40  C   UNL A   1      38.890  27.541  29.623  1.00  0.00     0.029 A 
ATOM     41  N   UNL A   1      40.090  29.312  30.181  1.00  0.00    -0.354 N 
ATOM     42  C   UNL A   1      44.134  29.853  28.313  1.00  0.00     0.074 A 
ATOM     43  C   UNL A   1      43.738  29.582  26.957  1.00  0.00     0.031 C 
ATOM     44  C   UNL A   1      38.045  28.431  30.193  1.00  0.00     0.029 A 
ATOM     45  C   UNL A   1      38.794  29.623  30.550  1.00  0.00     0.049 A 
ATOM     46  H   UNL A   1      40.861  29.880  30.413  1.00  0.00     0.167 HD
ATOM     47  C   UNL A   1      44.918  30.844  28.814  1.00  0.00     0.037 A 
ATOM     48  C   UNL A   1      38.376  30.828  31.009  1.00  0.00     0.037 A 
ATOM     49  C   UNL A   1      45.152  30.684  30.223  1.00  0.00     0.049 A 
ATOM     50  C   UNL A   1      39.581  31.566  31.479  1.00  0.00     0.074 A 
ATOM     51  C   UNL A   1      45.738  29.700  30.996  1.00  0.00     0.029 A 
ATOM     52  N   UNL A   1      44.430  31.456  31.100  1.00  0.00    -0.354 N 
ATOM     53  N   UNL A   1      40.297  31.206  32.511  1.00  0.00    -0.248 NA
ATOM     54  C   UNL A   1      40.263  32.425  30.519  1.00  0.00     0.031 C 
ATOM     55  C   UNL A   1      44.945  29.637  32.180  1.00  0.00     0.029 A 
ATOM     56  C   UNL A   1      43.950  30.610  32.069  1.00  0.00     0.049 A 
ATOM     57  H   UNL A   1      44.285  32.428  31.046  1.00  0.00     0.167 HD
ATOM     58  C   UNL A   1      41.613  31.456  32.142  1.00  0.00     0.074 A 
ATOM     59  C   UNL A   1      41.524  32.273  30.936  1.00  0.00     0.031 C 
ATOM     60  C   UNL A   1      42.649  30.743  32.676  1.00  0.00     0.037 A 
BRANCH  47  61
ATOM     61  C   UNL A   1      45.183  32.131  28.082  1.00  0.00     0.064 A 
ATOM     62  C   UNL A   1      44.120  33.014  27.826  1.00  0.00     0.173 A 
ATOM     63  C   UNL A   1      46.382  32.395  27.382  1.00  0.00     0.173 A 
ATOM     64  F   UNL A   1      42.927  32.834  28.413  1.00  0.00    -0.203 F 
ATOM     65  C   UNL A   1      44.234  34.051  26.897  1.00  0.00     0.198 A 
ATOM     66  C   UNL A   1      46.511  33.467  26.503  1.00  0.00     0.198 A 
ATOM     67  F   UNL A   1      47.434  31.568  27.433  1.00  0.00    -0.203 F 
ATOM     68  F   UNL A   1      43.160  34.795  26.596  1.00  0.00    -0.200 F 
ATOM     69  C   UNL A   1      45.428  34.277  26.236  1.00  0.00     0.200 A 
ATOM     70  F   UNL A   1      47.671  33.654  25.858  1.00  0.00    -0.200 F 
ATOM     71  F   UNL A   1      45.523  35.234  25.305  1.00  0.00    -0.200 F 
ENDBRANCH  47  61
BRANCH  48  72
ATOM     72  C   UNL A   1      37.087  31.488  30.694  1.00  0.00     0.064 A 
ATOM     73  C   UNL A   1      36.154  31.790  31.697  1.00  0.00     0.173 A 
ATOM     74  C   UNL A   1      36.847  32.056  29.426  1.00  0.00     0.173 A 
ATOM     75  F   UNL A   1      36.339  31.337  32.945  1.00  0.00    -0.203 F 
ATOM     76  C   UNL A   1      35.049  32.611  31.444  1.00  0.00     0.198 A 
ATOM     77  C   UNL A   1      35.739  32.865  29.171  1.00  0.00     0.198 A 
ATOM     78  F   UNL A   1      37.730  31.913  28.426  1.00  0.00    -0.203 F 
ATOM     79  F   UNL A   1      34.203  32.919  32.438  1.00  0.00    -0.200 F 
ATOM     80  C   UNL A   1      34.845  33.150  30.184  1.00  0.00     0.200 A 
ATOM     81  F   UNL A   1      35.579  33.408  27.957  1.00  0.00    -0.200 F 
ATOM     82  F   UNL A   1      33.813  33.974  29.955  1.00  0.00    -0.200 F 
ENDBRANCH  48  72
BRANCH  60  83
ATOM     83  C   UNL A   1      42.338  29.815  33.817  1.00  0.00     0.064 A 
ATOM     84  C   UNL A   1      41.920  28.485  33.634  1.00  0.00     0.173 A 
ATOM     85  C   UNL A   1      42.625  30.224  35.125  1.00  0.00     0.173 A 
ATOM     86  F   UNL A   1      41.738  27.988  32.406  1.00  0.00    -0.203 F 
ATOM     87  C   UNL A   1      41.748  27.621  34.713  1.00  0.00     0.198 A 
ATOM     88  C   UNL A   1      42.488  29.347  36.200  1.00  0.00     0.198 A 
ATOM     89  F   UNL A   1      43.094  31.460  35.354  1.00  0.00    -0.203 F 
ATOM     90  F   UNL A   1      41.340  26.360  34.506  1.00  0.00    -0.200 F 
ATOM     91  C   UNL A   1      42.038  28.052  35.996  1.00  0.00     0.200 A 
ATOM     92  F   UNL A   1      42.820  29.751  37.433  1.00  0.00    -0.200 F 
ATOM     93  F   UNL A   1      41.917  27.210  37.031  1.00  0.00    -0.200 F 
ENDBRANCH  60  83
ENDBRANCH  34  35
ENDBRANCH  27  29
ENDBRANCH  26  27
ENDBRANCH  25  26
ENDBRANCH   1  25
TORSDOF 16
ENDMDL
MODEL 2
REMARK VINA RESULT:     -11.7      4.896      8.029
REMARK SMILES COc1ccc(/C=C(/Sc2nc(C)n[nH]2)C(=O)OCCOC(=O)c2ccc(-c3c4nc(c(-c5c(F)c(F)c(F)c(F)c5F)c5ccc([nH]5)c(-c5c(F)c(F)c(F)c(F)c5F)c5nc(c(-c6c(F)c(F)c(F)c(F)c6F)c6ccc3[nH]6)C=C5)C=C4)cc2)cc1OC
REMARK SMILES IDX 19 1 18 2 16 3 17 4 8 5 7 6 6 7 3 8 4 9 88 10 5 11 87 12
REMARK SMILES IDX 2 13 1 14 89 15 90 16 9 17 10 18 11 19 15 20 12 21 14 22
REMARK SMILES IDX 13 24 20 25 21 26 22 27 23 28 24 29 25 30 86 31 26 32 85 33
REMARK SMILES IDX 27 34 28 35 29 36 79 37 30 38 84 39 78 40 80 41 31 42 83 43
REMARK SMILES IDX 77 44 76 45 32 47 64 48 44 49 63 50 45 51 48 52 62 53 81 54
REMARK SMILES IDX 46 55 47 56 61 58 82 59 49 60 33 61 34 62 42 63 35 64 36 65
REMARK SMILES IDX 40 66 43 67 37 68 38 69 41 70 39 71 65 72 66 73 74 74 67 75
REMARK SMILES IDX 68 76 72 77 75 78 69 79 70 80 73 81 71 82 50 83 51 84 59 85
REMARK SMILES IDX 52 86 53 87 57 88 60 89 54 90 55 91 58 92 56 93
REMARK H PARENT 15 23 80 46 48 57
REMARK Flexibility Score: inf
ROOT
ATOM      1  C   UNL A   1      45.509  22.987  26.391  1.00  0.00     0.275 C 
ENDROOT
BRANCH   1   2
ATOM      2  O   UNL A   1      46.759  23.564  25.988  1.00  0.00    -0.458 OA
BRANCH   2   3
ATOM      3  C   UNL A   1      47.291  24.544  26.778  1.00  0.00     0.345 C 
ATOM      4  O   UNL A   1      48.426  24.552  27.203  1.00  0.00    -0.246 OA
BRANCH   3   5
ATOM      5  C   UNL A   1      46.288  25.658  26.944  1.00  0.00     0.101 C 
ATOM      6  C   UNL A   1      45.931  26.170  28.146  1.00  0.00     0.031 C 
BRANCH   6   7
ATOM      7  C   UNL A   1      46.323  25.919  29.563  1.00  0.00    -0.020 A 
ATOM      8  C   UNL A   1      46.773  25.708  32.371  1.00  0.00     0.160 A 
ATOM      9  C   UNL A   1      47.812  26.039  31.498  1.00  0.00     0.051 A 
ATOM     10  C   UNL A   1      45.497  25.468  31.857  1.00  0.00     0.161 A 
ATOM     11  C   UNL A   1      47.587  26.143  30.115  1.00  0.00     0.012 A 
ATOM     12  C   UNL A   1      45.296  25.570  30.465  1.00  0.00     0.058 A 
BRANCH   8  13
ATOM     13  O   UNL A   1      47.000  25.766  33.719  1.00  0.00    -0.493 OA
ATOM     14  C   UNL A   1      47.310  27.086  34.168  1.00  0.00     0.278 C 
ENDBRANCH   8  13
BRANCH  10  15
ATOM     15  O   UNL A   1      44.351  25.168  32.544  1.00  0.00    -0.493 OA
ATOM     16  C   UNL A   1      44.152  23.830  32.976  1.00  0.00     0.278 C 
ENDBRANCH  10  15
ENDBRANCH   6   7
BRANCH   5  17
ATOM     17  S   UNL A   1      45.815  26.389  25.412  1.00  0.00    -0.043 SA
BRANCH  17  18
ATOM     18  C   UNL A   1      47.284  26.960  24.750  1.00  0.00     0.188 A 
ATOM     19  N   UNL A   1      47.881  26.629  23.635  1.00  0.00    -0.206 NA
ATOM     20  N   UNL A   1      48.081  27.787  25.479  1.00  0.00    -0.254 N 
ATOM     21  C   UNL A   1      49.088  27.278  23.739  1.00  0.00     0.148 A 
ATOM     22  N   UNL A   1      49.244  28.017  24.846  1.00  0.00    -0.158 NA
ATOM     23  H   UNL A   1      47.839  28.166  26.354  1.00  0.00     0.192 HD
ATOM     24  C   UNL A   1      50.149  27.123  22.726  1.00  0.00     0.092 C 
ENDBRANCH  17  18
ENDBRANCH   5  17
ENDBRANCH   3   5
ENDBRANCH   2   3
ENDBRANCH   1   2
BRANCH   1  25
ATOM     25  C   UNL A   1      44.654  22.776  25.151  1.00  0.00     0.275 C 
BRANCH  25  26
ATOM     26  O   UNL A   1      43.452  23.539  25.262  1.00  0.00    -0.458 OA
BRANCH  26  27
ATOM     27  C   UNL A   1      42.397  22.906  25.824  1.00  0.00     0.338 C 
ATOM     28  O   UNL A   1      41.903  21.839  25.490  1.00  0.00    -0.246 OA
BRANCH  27  29
ATOM     29  C   UNL A   1      41.782  23.813  26.800  1.00  0.00     0.060 A 
ATOM     30  C   UNL A   1      40.897  24.781  26.311  1.00  0.00     0.016 A 
ATOM     31  C   UNL A   1      42.303  23.872  28.099  1.00  0.00     0.016 A 
ATOM     32  C   UNL A   1      40.706  25.927  27.052  1.00  0.00     0.010 A 
ATOM     33  C   UNL A   1      42.138  25.023  28.823  1.00  0.00     0.010 A 
ATOM     34  C   UNL A   1      41.412  26.064  28.249  1.00  0.00    -0.014 A 
BRANCH  34  35
ATOM     35  C   UNL A   1      41.470  27.365  28.869  1.00  0.00     0.031 A 
ATOM     36  C   UNL A   1      42.620  28.207  28.477  1.00  0.00     0.074 A 
ATOM     37  C   UNL A   1      40.431  27.804  29.603  1.00  0.00     0.049 A 
ATOM     38  N   UNL A   1      43.548  28.695  29.232  1.00  0.00    -0.248 NA
ATOM     39  C   UNL A   1      42.813  28.461  27.041  1.00  0.00     0.031 C 
ATOM     40  C   UNL A   1      39.108  27.191  29.772  1.00  0.00     0.029 A 
ATOM     41  N   UNL A   1      40.314  28.973  30.278  1.00  0.00    -0.354 N 
ATOM     42  C   UNL A   1      44.357  29.448  28.389  1.00  0.00     0.074 A 
ATOM     43  C   UNL A   1      43.957  29.141  27.042  1.00  0.00     0.031 C 
ATOM     44  C   UNL A   1      38.266  28.099  30.318  1.00  0.00     0.029 A 
ATOM     45  C   UNL A   1      39.020  29.298  30.640  1.00  0.00     0.049 A 
ATOM     46  H   UNL A   1      41.088  29.544  30.493  1.00  0.00     0.167 HD
ATOM     47  C   UNL A   1      45.145  30.450  28.861  1.00  0.00     0.037 A 
ATOM     48  C   UNL A   1      38.608  30.516  31.067  1.00  0.00     0.037 A 
ATOM     49  C   UNL A   1      45.381  30.328  30.274  1.00  0.00     0.049 A 
ATOM     50  C   UNL A   1      39.816  31.263  31.513  1.00  0.00     0.074 A 
ATOM     51  C   UNL A   1      45.965  29.364  31.073  1.00  0.00     0.029 A 
ATOM     52  N   UNL A   1      44.664  31.126  31.131  1.00  0.00    -0.354 N 
ATOM     53  N   UNL A   1      40.532  30.929  32.554  1.00  0.00    -0.248 NA
ATOM     54  C   UNL A   1      40.499  32.093  30.529  1.00  0.00     0.031 C 
ATOM     55  C   UNL A   1      45.174  29.336  32.259  1.00  0.00     0.029 A 
ATOM     56  C   UNL A   1      44.183  30.309  32.123  1.00  0.00     0.049 A 
ATOM     57  H   UNL A   1      44.521  32.096  31.049  1.00  0.00     0.167 HD
ATOM     58  C   UNL A   1      41.848  31.165  32.177  1.00  0.00     0.074 A 
ATOM     59  C   UNL A   1      41.760  31.949  30.948  1.00  0.00     0.031 C 
ATOM     60  C   UNL A   1      42.883  30.463  32.728  1.00  0.00     0.037 A 
BRANCH  47  61
ATOM     61  C   UNL A   1      45.414  31.715  28.093  1.00  0.00     0.064 A 
ATOM     62  C   UNL A   1      44.335  32.522  27.690  1.00  0.00     0.173 A 
ATOM     63  C   UNL A   1      46.661  32.016  27.502  1.00  0.00     0.173 A 
ATOM     64  F   UNL A   1      43.101  32.300  28.165  1.00  0.00    -0.203 F 
ATOM     65  C   UNL A   1      44.487  33.520  26.724  1.00  0.00     0.198 A 
ATOM     66  C   UNL A   1      46.820  33.052  26.585  1.00  0.00     0.198 A 
ATOM     67  F   UNL A   1      47.745  31.255  27.697  1.00  0.00    -0.203 F 
ATOM     68  F   UNL A   1      43.411  34.185  26.281  1.00  0.00    -0.200 F 
ATOM     69  C   UNL A   1      45.728  33.784  26.173  1.00  0.00     0.200 A 
ATOM     70  F   UNL A   1      48.028  33.277  26.048  1.00  0.00    -0.200 F 
ATOM     71  F   UNL A   1      45.865  34.702  25.207  1.00  0.00    -0.200 F 
ENDBRANCH  47  61
BRANCH  48  72
ATOM     72  C   UNL A   1      37.320  31.173  30.736  1.00  0.00     0.064 A 
ATOM     73  C   UNL A   1      36.410  31.546  31.735  1.00  0.00     0.173 A 
ATOM     74  C   UNL A   1      37.062  31.665  29.440  1.00  0.00     0.173 A 
ATOM     75  F   UNL A   1      36.613  31.168  33.005  1.00  0.00    -0.203 F 
ATOM     76  C   UNL A   1      35.309  32.364  31.453  1.00  0.00     0.198 A 
ATOM     77  C   UNL A   1      35.959  32.471  29.157  1.00  0.00     0.198 A 
ATOM     78  F   UNL A   1      37.924  31.450  28.435  1.00  0.00    -0.203 F 
ATOM     79  F   UNL A   1      34.486  32.742  32.442  1.00  0.00    -0.200 F 
ATOM     80  C   UNL A   1      35.087  32.828  30.166  1.00  0.00     0.200 A 
ATOM     81  F   UNL A   1      35.782  32.941  27.914  1.00  0.00    -0.200 F 
ATOM     82  F   UNL A   1      34.060  33.649  29.906  1.00  0.00    -0.200 F 
ENDBRANCH  48  72
BRANCH  60  83
ATOM     83  C   UNL A   1      42.571  29.568  33.895  1.00  0.00     0.064 A 
ATOM     84  C   UNL A   1      42.150  28.235  33.750  1.00  0.00     0.173 A 
ATOM     85  C   UNL A   1      42.859  30.013  35.191  1.00  0.00     0.173 A 
ATOM     86  F   UNL A   1      41.967  27.703  32.537  1.00  0.00    -0.203 F 
ATOM     87  C   UNL A   1      41.977  27.401  34.852  1.00  0.00     0.198 A 
ATOM     88  C   UNL A   1      42.720  29.168  36.290  1.00  0.00     0.198 A 
ATOM     89  F   UNL A   1      43.330  31.255  35.385  1.00  0.00    -0.203 F 
ATOM     90  F   UNL A   1      41.568  26.136  34.682  1.00  0.00    -0.200 F 
ATOM     91  C   UNL A   1      42.269  27.867  36.123  1.00  0.00     0.200 A 
ATOM     92  F   UNL A   1      43.053  29.606  37.512  1.00  0.00    -0.200 F 
ATOM     93  F   UNL A   1      42.147  27.055  37.181  1.00  0.00    -0.200 F 
ENDBRANCH  60  83
ENDBRANCH  34  35
ENDBRANCH  27  29
ENDBRANCH  26  27
ENDBRANCH  25  26
ENDBRANCH   1  25
TORSDOF 16
ENDMDL
MODEL 3
REMARK VINA RESULT:     -11.4      5.336     11.041
REMARK SMILES COc1ccc(/C=C(/Sc2nc(C)n[nH]2)C(=O)OCCOC(=O)c2ccc(-c3c4nc(c(-c5c(F)c(F)c(F)c(F)c5F)c5ccc([nH]5)c(-c5c(F)c(F)c(F)c(F)c5F)c5nc(c(-c6c(F)c(F)c(F)c(F)c6F)c6ccc3[nH]6)C=C5)C=C4)cc2)cc1OC
REMARK SMILES IDX 19 1 18 2 16 3 17 4 8 5 7 6 6 7 3 8 4 9 88 10 5 11 87 12
REMARK SMILES IDX 2 13 1 14 89 15 90 16 9 17 10 18 11 19 15 20 12 21 14 22
REMARK SMILES IDX 13 24 20 25 21 26 22 27 23 28 24 29 25 30 86 31 26 32 85 33
REMARK SMILES IDX 27 34 28 35 29 36 79 37 30 38 84 39 78 40 80 41 31 42 83 43
REMARK SMILES IDX 77 44 76 45 32 47 64 48 44 49 63 50 45 51 48 52 62 53 81 54
REMARK SMILES IDX 46 55 47 56 61 58 82 59 49 60 33 61 34 62 42 63 35 64 36 65
REMARK SMILES IDX 40 66 43 67 37 68 38 69 41 70 39 71 65 72 66 73 74 74 67 75
REMARK SMILES IDX 68 76 72 77 75 78 69 79 70 80 73 81 71 82 50 83 51 84 59 85
REMARK SMILES IDX 52 86 53 87 57 88 60 89 54 90 55 91 58 92 56 93
REMARK H PARENT 15 23 80 46 48 57
REMARK Flexibility Score: inf
ROOT
ATOM      1  C   UNL A   1      35.525  34.295  29.312  1.00  0.00     0.275 C 
ENDROOT
BRANCH   1   2
ATOM      2  O   UNL A   1      35.318  33.462  30.461  1.00  0.00    -0.458 OA
BRANCH   2   3
ATOM      3  C   UNL A   1      36.011  33.765  31.599  1.00  0.00     0.345 C 
ATOM      4  O   UNL A   1      36.935  34.546  31.660  1.00  0.00    -0.246 OA
BRANCH   3   5
ATOM      5  C   UNL A   1      35.378  33.064  32.775  1.00  0.00     0.101 C 
ATOM      6  C   UNL A   1      36.081  32.350  33.687  1.00  0.00     0.031 C 
BRANCH   6   7
ATOM      7  C   UNL A   1      37.522  32.027  33.897  1.00  0.00    -0.020 A 
ATOM      8  C   UNL A   1      40.287  31.750  34.537  1.00  0.00     0.160 A 
ATOM      9  C   UNL A   1      39.855  31.784  33.209  1.00  0.00     0.051 A 
ATOM     10  C   UNL A   1      39.347  31.843  35.565  1.00  0.00     0.161 A 
ATOM     11  C   UNL A   1      38.492  31.922  32.897  1.00  0.00     0.012 A 
ATOM     12  C   UNL A   1      37.983  31.973  35.229  1.00  0.00     0.058 A 
BRANCH   8  13
ATOM     13  O   UNL A   1      41.631  31.767  34.794  1.00  0.00    -0.493 OA
ATOM     14  C   UNL A   1      42.259  32.970  34.353  1.00  0.00     0.278 C 
ENDBRANCH   8  13
BRANCH  10  15
ATOM     15  O   UNL A   1      39.570  31.864  36.917  1.00  0.00    -0.493 OA
ATOM     16  C   UNL A   1      39.898  33.102  37.529  1.00  0.00     0.278 C 
ENDBRANCH  10  15
ENDBRANCH   6   7
BRANCH   5  17
ATOM     17  S   UNL A   1      33.677  33.473  32.983  1.00  0.00    -0.043 SA
BRANCH  17  18
ATOM     18  C   UNL A   1      33.573  35.101  32.472  1.00  0.00     0.188 A 
ATOM     19  N   UNL A   1      34.130  36.171  32.976  1.00  0.00    -0.206 NA
ATOM     20  N   UNL A   1      32.707  35.447  31.482  1.00  0.00    -0.254 N 
ATOM     21  C   UNL A   1      33.540  37.182  32.257  1.00  0.00     0.148 A 
ATOM     22  N   UNL A   1      32.675  36.780  31.315  1.00  0.00    -0.158 NA
ATOM     23  H   UNL A   1      32.175  34.808  30.957  1.00  0.00     0.192 HD
ATOM     24  C   UNL A   1      33.804  38.605  32.544  1.00  0.00     0.092 C 
ENDBRANCH  17  18
ENDBRANCH   5  17
ENDBRANCH   3   5
ENDBRANCH   2   3
ENDBRANCH   1   2
BRANCH   1  25
ATOM     25  C   UNL A   1      35.067  33.535  28.077  1.00  0.00     0.275 C 
BRANCH  25  26
ATOM     26  O   UNL A   1      36.057  32.575  27.708  1.00  0.00    -0.458 OA
BRANCH  26  27
ATOM     27  C   UNL A   1      35.779  31.288  28.016  1.00  0.00     0.338 C 
ATOM     28  O   UNL A   1      34.771  30.655  27.735  1.00  0.00    -0.246 OA
BRANCH  27  29
ATOM     29  C   UNL A   1      36.807  30.802  28.944  1.00  0.00     0.060 A 
ATOM     30  C   UNL A   1      37.970  31.569  29.076  1.00  0.00     0.016 A 
ATOM     31  C   UNL A   1      36.724  29.488  29.425  1.00  0.00     0.016 A 
ATOM     32  C   UNL A   1      39.122  30.943  29.497  1.00  0.00     0.010 A 
ATOM     33  C   UNL A   1      37.877  28.858  29.814  1.00  0.00     0.010 A 
ATOM     34  C   UNL A   1      39.070  29.573  29.762  1.00  0.00    -0.014 A 
BRANCH  34  35
ATOM     35  C   UNL A   1      40.311  28.849  29.894  1.00  0.00     0.031 A 
ATOM     36  C   UNL A   1      40.813  28.693  31.275  1.00  0.00     0.074 A 
ATOM     37  C   UNL A   1      40.837  28.222  28.825  1.00  0.00     0.049 A 
ATOM     38  N   UNL A   1      41.934  29.105  31.769  1.00  0.00    -0.248 NA
ATOM     39  C   UNL A   1      39.908  28.079  32.258  1.00  0.00     0.031 C 
ATOM     40  C   UNL A   1      40.246  28.028  27.496  1.00  0.00     0.029 A 
ATOM     41  N   UNL A   1      41.996  27.523  28.749  1.00  0.00    -0.354 N 
ATOM     42  C   UNL A   1      41.943  28.667  33.088  1.00  0.00     0.074 A 
ATOM     43  C   UNL A   1      40.619  28.187  33.379  1.00  0.00     0.031 C 
ATOM     44  C   UNL A   1      40.953  27.086  26.830  1.00  0.00     0.029 A 
ATOM     45  C   UNL A   1      42.100  26.708  27.637  1.00  0.00     0.049 A 
ATOM     46  H   UNL A   1      42.705  27.591  29.429  1.00  0.00     0.167 HD
ATOM     47  C   UNL A   1      43.102  28.511  33.782  1.00  0.00     0.037 A 
ATOM     48  C   UNL A   1      43.013  25.720  27.472  1.00  0.00     0.037 A 
ATOM     49  C   UNL A   1      44.185  29.250  33.191  1.00  0.00     0.049 A 
ATOM     50  C   UNL A   1      44.123  25.976  28.431  1.00  0.00     0.074 A 
ATOM     51  C   UNL A   1      44.409  30.588  32.932  1.00  0.00     0.029 A 
ATOM     52  N   UNL A   1      45.102  28.571  32.427  1.00  0.00    -0.354 N 
ATOM     53  N   UNL A   1      44.932  26.999  28.349  1.00  0.00    -0.248 NA
ATOM     54  C   UNL A   1      44.033  25.359  29.748  1.00  0.00     0.031 C 
ATOM     55  C   UNL A   1      45.085  30.614  31.677  1.00  0.00     0.029 A 
ATOM     56  C   UNL A   1      45.262  29.292  31.270  1.00  0.00     0.049 A 
ATOM     57  H   UNL A   1      45.558  27.731  32.663  1.00  0.00     0.167 HD
ATOM     58  C   UNL A   1      45.144  27.397  29.663  1.00  0.00     0.074 A 
ATOM     59  C   UNL A   1      44.624  26.306  30.482  1.00  0.00     0.031 C 
ATOM     60  C   UNL A   1      45.454  28.691  29.972  1.00  0.00     0.037 A 
BRANCH  47  61
ATOM     61  C   UNL A   1      43.313  27.419  34.794  1.00  0.00     0.064 A 
ATOM     62  C   UNL A   1      43.568  27.758  36.135  1.00  0.00     0.173 A 
ATOM     63  C   UNL A   1      43.550  26.070  34.447  1.00  0.00     0.173 A 
ATOM     64  F   UNL A   1      43.408  29.019  36.562  1.00  0.00    -0.203 F 
ATOM     65  C   UNL A   1      44.076  26.826  37.043  1.00  0.00     0.198 A 
ATOM     66  C   UNL A   1      43.998  25.130  35.370  1.00  0.00     0.198 A 
ATOM     67  F   UNL A   1      43.469  25.635  33.183  1.00  0.00    -0.203 F 
ATOM     68  F   UNL A   1      44.418  27.220  38.278  1.00  0.00    -0.200 F 
ATOM     69  C   UNL A   1      44.291  25.514  36.661  1.00  0.00     0.200 A 
ATOM     70  F   UNL A   1      44.219  23.869  34.973  1.00  0.00    -0.200 F 
ATOM     71  F   UNL A   1      44.830  24.634  37.515  1.00  0.00    -0.200 F 
ENDBRANCH  47  61
BRANCH  48  72
ATOM     72  C   UNL A   1      42.776  24.404  26.832  1.00  0.00     0.064 A 
ATOM     73  C   UNL A   1      43.439  24.032  25.654  1.00  0.00     0.173 A 
ATOM     74  C   UNL A   1      42.067  23.383  27.500  1.00  0.00     0.173 A 
ATOM     75  F   UNL A   1      44.183  24.928  24.989  1.00  0.00    -0.203 F 
ATOM     76  C   UNL A   1      43.396  22.717  25.175  1.00  0.00     0.198 A 
ATOM     77  C   UNL A   1      42.015  22.076  27.015  1.00  0.00     0.198 A 
ATOM     78  F   UNL A   1      41.483  23.610  28.685  1.00  0.00    -0.203 F 
ATOM     79  F   UNL A   1      44.082  22.384  24.072  1.00  0.00    -0.200 F 
ATOM     80  C   UNL A   1      42.688  21.741  25.857  1.00  0.00     0.200 A 
ATOM     81  F   UNL A   1      41.357  21.137  27.709  1.00  0.00    -0.200 F 
ATOM     82  F   UNL A   1      42.686  20.473  25.424  1.00  0.00    -0.200 F 
ENDBRANCH  48  72
BRANCH  60  83
ATOM     83  C   UNL A   1      45.751  29.626  28.833  1.00  0.00     0.064 A 
ATOM     84  C   UNL A   1      44.760  30.376  28.177  1.00  0.00     0.173 A 
ATOM     85  C   UNL A   1      47.085  29.895  28.503  1.00  0.00     0.173 A 
ATOM     86  F   UNL A   1      43.473  30.259  28.520  1.00  0.00    -0.203 F 
ATOM     87  C   UNL A   1      45.084  31.315  27.200  1.00  0.00     0.198 A 
ATOM     88  C   UNL A   1      47.410  30.860  27.551  1.00  0.00     0.198 A 
ATOM     89  F   UNL A   1      48.077  29.259  29.145  1.00  0.00    -0.203 F 
ATOM     90  F   UNL A   1      44.115  32.010  26.587  1.00  0.00    -0.200 F 
ATOM     91  C   UNL A   1      46.411  31.561  26.892  1.00  0.00     0.200 A 
ATOM     92  F   UNL A   1      48.696  31.132  27.294  1.00  0.00    -0.200 F 
ATOM     93  F   UNL A   1      46.729  32.494  25.986  1.00  0.00    -0.200 F 
ENDBRANCH  60  83
ENDBRANCH  34  35
ENDBRANCH  27  29
ENDBRANCH  26  27
ENDBRANCH  25  26
ENDBRANCH   1  25
TORSDOF 16
ENDMDL
