MODEL 1
REMARK VINA RESULT:     -13.2      0.000      0.000
REMARK SMILES CS(=O)(=O)c1ccc(C(=O)N2C[C@@H](C(=O)OCCOC(=O)c3ccc(-c4c5nc(c(-c6c(F)c(F)c(F)c(F)c6F)c6ccc([nH]6)c(-c6c(F)c(F)c(F)c(F)c6F)c6nc(c(-c7c(F)c(F)c(F)c(F)c7F)c7ccc4[nH]7)C=C6)C=C5)cc3)[C@H](c3ccncc3)C2)cc1
REMARK SMILES IDX 17 1 16 2 14 3 15 4 13 5 11 6 12 7 92 8 85 9 9 10 10 11 8 12
REMARK SMILES IDX 5 13 6 14 94 15 7 16 93 17 2 18 1 19 3 20 4 21 86 22 87 23
REMARK SMILES IDX 91 24 88 25 90 26 89 27 18 28 19 29 20 30 21 31 22 32 23 33
REMARK SMILES IDX 84 34 24 35 83 36 25 37 26 38 27 39 77 40 28 41 82 42 76 43
REMARK SMILES IDX 78 44 29 45 81 46 75 47 74 48 30 50 62 51 42 52 61 53 43 54
REMARK SMILES IDX 46 55 60 56 79 57 44 58 45 59 59 61 80 62 47 63 31 64 32 65
REMARK SMILES IDX 40 66 33 67 34 68 38 69 41 70 35 71 36 72 39 73 37 74 63 75
REMARK SMILES IDX 64 76 72 77 65 78 66 79 70 80 73 81 67 82 68 83 71 84 69 85
REMARK SMILES IDX 48 86 49 87 57 88 50 89 51 90 55 91 58 92 52 93 53 94 56 95
REMARK SMILES IDX 54 96
REMARK H PARENT 78 49 46 60
REMARK Flexibility Score: inf
ROOT
ATOM      1  C   UNL A   1      37.781  19.918  24.693  1.00  0.00     0.274 C 
ENDROOT
BRANCH   1   2
ATOM      2  O   UNL A   1      36.870  20.860  25.301  1.00  0.00    -0.462 OA
BRANCH   2   3
ATOM      3  C   UNL A   1      36.257  21.704  24.429  1.00  0.00     0.311 C 
ATOM      4  O   UNL A   1      36.852  22.381  23.599  1.00  0.00    -0.252 OA
BRANCH   3   5
ATOM      5  C   UNL A   1      34.761  21.754  24.641  1.00  0.00     0.128 C 
ATOM      6  N   UNL A   1      33.137  22.454  26.165  1.00  0.00    -0.337 N 
ATOM      7  C   UNL A   1      34.359  22.919  25.536  1.00  0.00     0.135 C 
ATOM      8  C   UNL A   1      33.179  21.023  26.370  1.00  0.00     0.129 C 
ATOM      9  C   UNL A   1      34.227  20.478  25.377  1.00  0.00     0.055 C 
BRANCH   6  10
ATOM     10  C   UNL A   1      32.121  23.192  26.743  1.00  0.00     0.253 C 
ATOM     11  O   UNL A   1      31.635  22.877  27.829  1.00  0.00    -0.269 OA
BRANCH  10  12
ATOM     12  C   UNL A   1      31.471  24.279  25.959  1.00  0.00     0.040 A 
ATOM     13  C   UNL A   1      30.602  26.339  24.274  1.00  0.00     0.067 A 
ATOM     14  C   UNL A   1      30.491  25.007  23.859  1.00  0.00     0.021 A 
ATOM     15  C   UNL A   1      31.125  26.647  25.528  1.00  0.00     0.021 A 
ATOM     16  C   UNL A   1      30.917  23.978  24.705  1.00  0.00     0.015 A 
ATOM     17  C   UNL A   1      31.590  25.620  26.345  1.00  0.00     0.015 A 
BRANCH  13  18
ATOM     18  S   UNL A   1      30.160  27.615  23.121  1.00  0.00     0.175 S 
ATOM     19  C   UNL A   1      30.873  29.122  23.725  1.00  0.00     0.163 C 
ATOM     20  O   UNL A   1      28.719  27.752  23.191  1.00  0.00    -0.224 OA
ATOM     21  O   UNL A   1      30.832  27.289  21.878  1.00  0.00    -0.224 OA
ENDBRANCH  13  18
ENDBRANCH  10  12
ENDBRANCH   6  10
BRANCH   9  22
ATOM     22  C   UNL A   1      33.802  19.369  24.418  1.00  0.00    -0.039 A 
ATOM     23  C   UNL A   1      34.518  18.159  24.398  1.00  0.00     0.024 A 
ATOM     24  C   UNL A   1      32.674  19.439  23.595  1.00  0.00     0.024 A 
ATOM     25  C   UNL A   1      34.115  17.130  23.560  1.00  0.00     0.111 A 
ATOM     26  C   UNL A   1      32.347  18.354  22.789  1.00  0.00     0.111 A 
ATOM     27  N   UNL A   1      33.048  17.205  22.746  1.00  0.00    -0.265 NA
ENDBRANCH   9  22
ENDBRANCH   3   5
ENDBRANCH   2   3
ENDBRANCH   1   2
BRANCH   1  28
ATOM     28  C   UNL A   1      38.960  19.549  25.601  1.00  0.00     0.275 C 
BRANCH  28  29
ATOM     29  O   UNL A   1      39.862  20.653  25.813  1.00  0.00    -0.458 OA
BRANCH  29  30
ATOM     30  C   UNL A   1      40.470  20.657  27.022  1.00  0.00     0.338 C 
ATOM     31  O   UNL A   1      40.848  19.690  27.657  1.00  0.00    -0.246 OA
BRANCH  30  32
ATOM     32  C   UNL A   1      40.789  22.033  27.436  1.00  0.00     0.060 A 
ATOM     33  C   UNL A   1      40.220  23.071  26.700  1.00  0.00     0.016 A 
ATOM     34  C   UNL A   1      41.749  22.310  28.405  1.00  0.00     0.016 A 
ATOM     35  C   UNL A   1      40.638  24.380  26.868  1.00  0.00     0.010 A 
ATOM     36  C   UNL A   1      42.139  23.640  28.616  1.00  0.00     0.010 A 
ATOM     37  C   UNL A   1      41.600  24.679  27.831  1.00  0.00    -0.014 A 
BRANCH  37  38
ATOM     38  C   UNL A   1      42.071  26.076  27.952  1.00  0.00     0.031 A 
ATOM     39  C   UNL A   1      43.377  26.477  27.336  1.00  0.00     0.074 A 
ATOM     40  C   UNL A   1      41.290  26.996  28.548  1.00  0.00     0.049 A 
ATOM     41  N   UNL A   1      44.024  27.611  27.427  1.00  0.00    -0.248 NA
ATOM     42  C   UNL A   1      44.046  25.465  26.503  1.00  0.00     0.031 C 
ATOM     43  C   UNL A   1      39.954  26.746  29.090  1.00  0.00     0.029 A 
ATOM     44  N   UNL A   1      41.503  28.329  28.787  1.00  0.00    -0.354 N 
ATOM     45  C   UNL A   1      45.192  27.436  26.698  1.00  0.00     0.074 A 
ATOM     46  C   UNL A   1      45.169  26.085  26.176  1.00  0.00     0.031 C 
ATOM     47  C   UNL A   1      39.461  27.891  29.587  1.00  0.00     0.029 A 
ATOM     48  C   UNL A   1      40.475  28.933  29.467  1.00  0.00     0.049 A 
ATOM     49  H   UNL A   1      42.314  28.807  28.499  1.00  0.00     0.167 HD
ATOM     50  C   UNL A   1      46.193  28.325  26.492  1.00  0.00     0.037 A 
ATOM     51  C   UNL A   1      40.381  30.176  29.975  1.00  0.00     0.037 A 
ATOM     52  C   UNL A   1      46.186  29.675  26.995  1.00  0.00     0.049 A 
ATOM     53  C   UNL A   1      41.541  31.116  29.809  1.00  0.00     0.074 A 
ATOM     54  C   UNL A   1      47.150  30.657  26.852  1.00  0.00     0.029 A 
ATOM     55  N   UNL A   1      45.155  30.234  27.738  1.00  0.00    -0.354 N 
ATOM     56  N   UNL A   1      42.672  30.931  29.173  1.00  0.00    -0.248 NA
ATOM     57  C   UNL A   1      41.419  32.433  30.447  1.00  0.00     0.031 C 
ATOM     58  C   UNL A   1      46.723  31.793  27.548  1.00  0.00     0.029 A 
ATOM     59  C   UNL A   1      45.471  31.538  28.082  1.00  0.00     0.049 A 
ATOM     60  H   UNL A   1      44.323  29.769  27.985  1.00  0.00     0.167 HD
ATOM     61  C   UNL A   1      43.389  32.110  29.315  1.00  0.00     0.074 A 
ATOM     62  C   UNL A   1      42.558  33.010  30.087  1.00  0.00     0.031 C 
ATOM     63  C   UNL A   1      44.625  32.419  28.850  1.00  0.00     0.037 A 
BRANCH  50  64
ATOM     64  C   UNL A   1      47.398  27.843  25.740  1.00  0.00     0.064 A 
ATOM     65  C   UNL A   1      48.563  27.410  26.391  1.00  0.00     0.173 A 
ATOM     66  C   UNL A   1      47.386  27.819  24.336  1.00  0.00     0.173 A 
ATOM     67  F   UNL A   1      48.634  27.431  27.730  1.00  0.00    -0.203 F 
ATOM     68  C   UNL A   1      49.681  27.005  25.666  1.00  0.00     0.198 A 
ATOM     69  C   UNL A   1      48.494  27.385  23.615  1.00  0.00     0.198 A 
ATOM     70  F   UNL A   1      46.297  28.220  23.662  1.00  0.00    -0.203 F 
ATOM     71  F   UNL A   1      50.803  26.652  26.307  1.00  0.00    -0.200 F 
ATOM     72  C   UNL A   1      49.644  26.988  24.278  1.00  0.00     0.200 A 
ATOM     73  F   UNL A   1      48.453  27.360  22.274  1.00  0.00    -0.200 F 
ATOM     74  F   UNL A   1      50.722  26.601  23.582  1.00  0.00    -0.200 F 
ENDBRANCH  50  64
BRANCH  51  75
ATOM     75  C   UNL A   1      39.161  30.579  30.721  1.00  0.00     0.064 A 
ATOM     76  C   UNL A   1      39.060  30.376  32.103  1.00  0.00     0.173 A 
ATOM     77  C   UNL A   1      38.077  31.187  30.069  1.00  0.00     0.173 A 
ATOM     78  F   UNL A   1      40.060  29.776  32.766  1.00  0.00    -0.203 F 
ATOM     79  C   UNL A   1      37.920  30.760  32.805  1.00  0.00     0.198 A 
ATOM     80  C   UNL A   1      36.949  31.597  30.776  1.00  0.00     0.198 A 
ATOM     81  F   UNL A   1      38.122  31.401  28.746  1.00  0.00    -0.203 F 
ATOM     82  F   UNL A   1      37.833  30.522  34.121  1.00  0.00    -0.200 F 
ATOM     83  C   UNL A   1      36.869  31.377  32.142  1.00  0.00     0.200 A 
ATOM     84  F   UNL A   1      35.943  32.205  30.133  1.00  0.00    -0.200 F 
ATOM     85  F   UNL A   1      35.776  31.755  32.820  1.00  0.00    -0.200 F 
ENDBRANCH  51  75
BRANCH  63  86
ATOM     86  C   UNL A   1      45.135  33.800  29.137  1.00  0.00     0.064 A 
ATOM     87  C   UNL A   1      44.857  34.879  28.286  1.00  0.00     0.173 A 
ATOM     88  C   UNL A   1      45.883  34.052  30.297  1.00  0.00     0.173 A 
ATOM     89  F   UNL A   1      44.161  34.684  27.155  1.00  0.00    -0.203 F 
ATOM     90  C   UNL A   1      45.329  36.156  28.573  1.00  0.00     0.198 A 
ATOM     91  C   UNL A   1      46.329  35.336  30.596  1.00  0.00     0.198 A 
ATOM     92  F   UNL A   1      46.172  33.054  31.145  1.00  0.00    -0.203 F 
ATOM     93  F   UNL A   1      45.091  37.164  27.722  1.00  0.00    -0.200 F 
ATOM     94  C   UNL A   1      46.058  36.386  29.731  1.00  0.00     0.200 A 
ATOM     95  F   UNL A   1      47.022  35.557  31.721  1.00  0.00    -0.200 F 
ATOM     96  F   UNL A   1      46.506  37.617  30.009  1.00  0.00    -0.200 F 
ENDBRANCH  63  86
ENDBRANCH  37  38
ENDBRANCH  30  32
ENDBRANCH  29  30
ENDBRANCH  28  29
ENDBRANCH   1  28
TORSDOF 15
ENDMDL
MODEL 2
REMARK VINA RESULT:     -12.9      1.420      7.268
REMARK SMILES CS(=O)(=O)c1ccc(C(=O)N2C[C@@H](C(=O)OCCOC(=O)c3ccc(-c4c5nc(c(-c6c(F)c(F)c(F)c(F)c6F)c6ccc([nH]6)c(-c6c(F)c(F)c(F)c(F)c6F)c6nc(c(-c7c(F)c(F)c(F)c(F)c7F)c7ccc4[nH]7)C=C6)C=C5)cc3)[C@H](c3ccncc3)C2)cc1
REMARK SMILES IDX 17 1 16 2 14 3 15 4 13 5 11 6 12 7 92 8 85 9 9 10 10 11 8 12
REMARK SMILES IDX 5 13 6 14 94 15 7 16 93 17 2 18 1 19 3 20 4 21 86 22 87 23
REMARK SMILES IDX 91 24 88 25 90 26 89 27 18 28 19 29 20 30 21 31 22 32 23 33
REMARK SMILES IDX 84 34 24 35 83 36 25 37 26 38 27 39 77 40 28 41 82 42 76 43
REMARK SMILES IDX 78 44 29 45 81 46 75 47 74 48 30 50 62 51 42 52 61 53 43 54
REMARK SMILES IDX 46 55 60 56 79 57 44 58 45 59 59 61 80 62 47 63 31 64 32 65
REMARK SMILES IDX 40 66 33 67 34 68 38 69 41 70 35 71 36 72 39 73 37 74 63 75
REMARK SMILES IDX 64 76 72 77 65 78 66 79 70 80 73 81 67 82 68 83 71 84 69 85
REMARK SMILES IDX 48 86 49 87 57 88 50 89 51 90 55 91 58 92 52 93 53 94 56 95
REMARK SMILES IDX 54 96
REMARK H PARENT 78 49 46 60
REMARK Flexibility Score: inf
ROOT
ATOM      1  C   UNL A   1      38.315  21.053  25.373  1.00  0.00     0.274 C 
ENDROOT
BRANCH   1   2
ATOM      2  O   UNL A   1      36.911  20.782  25.168  1.00  0.00    -0.462 OA
BRANCH   2   3
ATOM      3  C   UNL A   1      36.269  21.676  24.371  1.00  0.00     0.311 C 
ATOM      4  O   UNL A   1      36.832  22.389  23.549  1.00  0.00    -0.252 OA
BRANCH   3   5
ATOM      5  C   UNL A   1      34.785  21.731  24.659  1.00  0.00     0.128 C 
ATOM      6  N   UNL A   1      33.241  22.469  26.245  1.00  0.00    -0.337 N 
ATOM      7  C   UNL A   1      34.428  22.918  25.543  1.00  0.00     0.135 C 
ATOM      8  C   UNL A   1      33.295  21.044  26.484  1.00  0.00     0.129 C 
ATOM      9  C   UNL A   1      34.292  20.475  25.453  1.00  0.00     0.055 C 
BRANCH   6  10
ATOM     10  C   UNL A   1      32.254  23.221  26.855  1.00  0.00     0.253 C 
ATOM     11  O   UNL A   1      31.839  22.947  27.981  1.00  0.00    -0.269 OA
BRANCH  10  12
ATOM     12  C   UNL A   1      31.545  24.271  26.070  1.00  0.00     0.040 A 
ATOM     13  C   UNL A   1      30.566  26.284  24.389  1.00  0.00     0.067 A 
ATOM     14  C   UNL A   1      30.545  24.950  23.964  1.00  0.00     0.021 A 
ATOM     15  C   UNL A   1      31.056  26.616  25.650  1.00  0.00     0.021 A 
ATOM     16  C   UNL A   1      31.026  23.945  24.809  1.00  0.00     0.015 A 
ATOM     17  C   UNL A   1      31.576  25.614  26.466  1.00  0.00     0.015 A 
BRANCH  13  18
ATOM     18  S   UNL A   1      30.058  27.538  23.239  1.00  0.00     0.175 S 
ATOM     19  C   UNL A   1      30.658  29.083  23.866  1.00  0.00     0.163 C 
ATOM     20  O   UNL A   1      28.610  27.577  23.287  1.00  0.00    -0.224 OA
ATOM     21  O   UNL A   1      30.769  27.269  22.004  1.00  0.00    -0.224 OA
ENDBRANCH  13  18
ENDBRANCH  10  12
ENDBRANCH   6  10
BRANCH   9  22
ATOM     22  C   UNL A   1      33.820  19.341  24.545  1.00  0.00    -0.039 A 
ATOM     23  C   UNL A   1      32.657  19.510  23.774  1.00  0.00     0.024 A 
ATOM     24  C   UNL A   1      34.524  18.147  24.358  1.00  0.00     0.024 A 
ATOM     25  C   UNL A   1      32.242  18.503  22.915  1.00  0.00     0.111 A 
ATOM     26  C   UNL A   1      34.031  17.194  23.473  1.00  0.00     0.111 A 
ATOM     27  N   UNL A   1      32.901  17.342  22.755  1.00  0.00    -0.265 NA
ENDBRANCH   9  22
ENDBRANCH   3   5
ENDBRANCH   2   3
ENDBRANCH   1   2
BRANCH   1  28
ATOM     28  C   UNL A   1      39.175  19.784  25.410  1.00  0.00     0.275 C 
BRANCH  28  29
ATOM     29  O   UNL A   1      40.056  19.745  26.549  1.00  0.00    -0.458 OA
BRANCH  29  30
ATOM     30  C   UNL A   1      41.363  19.580  26.243  1.00  0.00     0.338 C 
ATOM     31  O   UNL A   1      41.885  18.592  25.757  1.00  0.00    -0.246 OA
BRANCH  30  32
ATOM     32  C   UNL A   1      42.100  20.843  26.417  1.00  0.00     0.060 A 
ATOM     33  C   UNL A   1      42.400  21.233  27.721  1.00  0.00     0.016 A 
ATOM     34  C   UNL A   1      42.344  21.709  25.356  1.00  0.00     0.016 A 
ATOM     35  C   UNL A   1      42.883  22.501  27.996  1.00  0.00     0.010 A 
ATOM     36  C   UNL A   1      42.881  22.977  25.623  1.00  0.00     0.010 A 
ATOM     37  C   UNL A   1      43.131  23.386  26.948  1.00  0.00    -0.014 A 
BRANCH  37  38
ATOM     38  C   UNL A   1      43.592  24.754  27.270  1.00  0.00     0.031 A 
ATOM     39  C   UNL A   1      42.637  25.737  27.878  1.00  0.00     0.074 A 
ATOM     40  C   UNL A   1      44.884  25.086  27.087  1.00  0.00     0.049 A 
ATOM     41  N   UNL A   1      42.804  27.010  28.126  1.00  0.00    -0.248 NA
ATOM     42  C   UNL A   1      41.317  25.214  28.261  1.00  0.00     0.031 C 
ATOM     43  C   UNL A   1      45.927  24.182  26.601  1.00  0.00     0.029 A 
ATOM     44  N   UNL A   1      45.541  26.271  27.299  1.00  0.00    -0.354 N 
ATOM     45  C   UNL A   1      41.599  27.451  28.655  1.00  0.00     0.074 A 
ATOM     46  C   UNL A   1      40.707  26.310  28.688  1.00  0.00     0.031 C 
ATOM     47  C   UNL A   1      47.095  24.840  26.565  1.00  0.00     0.029 A 
ATOM     48  C   UNL A   1      46.867  26.229  26.949  1.00  0.00     0.049 A 
ATOM     49  H   UNL A   1      45.104  27.072  27.665  1.00  0.00     0.167 HD
ATOM     50  C   UNL A   1      41.270  28.698  29.070  1.00  0.00     0.037 A 
ATOM     51  C   UNL A   1      47.785  27.213  26.903  1.00  0.00     0.037 A 
ATOM     52  C   UNL A   1      42.180  29.816  29.057  1.00  0.00     0.049 A 
ATOM     53  C   UNL A   1      47.372  28.606  27.283  1.00  0.00     0.074 A 
ATOM     54  C   UNL A   1      41.950  31.123  29.447  1.00  0.00     0.029 A 
ATOM     55  N   UNL A   1      43.500  29.752  28.633  1.00  0.00    -0.354 N 
ATOM     56  N   UNL A   1      46.215  29.036  27.726  1.00  0.00    -0.248 NA
ATOM     57  C   UNL A   1      48.389  29.656  27.143  1.00  0.00     0.031 C 
ATOM     58  C   UNL A   1      43.116  31.859  29.215  1.00  0.00     0.029 A 
ATOM     59  C   UNL A   1      44.090  31.002  28.729  1.00  0.00     0.049 A 
ATOM     60  H   UNL A   1      43.950  28.937  28.311  1.00  0.00     0.167 HD
ATOM     61  C   UNL A   1      46.367  30.398  27.935  1.00  0.00     0.074 A 
ATOM     62  C   UNL A   1      47.734  30.723  27.584  1.00  0.00     0.031 C 
ATOM     63  C   UNL A   1      45.456  31.301  28.376  1.00  0.00     0.037 A 
BRANCH  50  64
ATOM     64  C   UNL A   1      39.856  28.925  29.514  1.00  0.00     0.064 A 
ATOM     65  C   UNL A   1      39.457  28.770  30.850  1.00  0.00     0.173 A 
ATOM     66  C   UNL A   1      38.879  29.303  28.579  1.00  0.00     0.173 A 
ATOM     67  F   UNL A   1      40.346  28.392  31.780  1.00  0.00    -0.203 F 
ATOM     68  C   UNL A   1      38.128  28.950  31.226  1.00  0.00     0.198 A 
ATOM     69  C   UNL A   1      37.558  29.512  28.964  1.00  0.00     0.198 A 
ATOM     70  F   UNL A   1      39.206  29.467  27.288  1.00  0.00    -0.203 F 
ATOM     71  F   UNL A   1      37.757  28.738  32.496  1.00  0.00    -0.200 F 
ATOM     72  C   UNL A   1      37.180  29.325  30.284  1.00  0.00     0.200 A 
ATOM     73  F   UNL A   1      36.646  29.884  28.053  1.00  0.00    -0.200 F 
ATOM     74  F   UNL A   1      35.901  29.494  30.648  1.00  0.00    -0.200 F 
ENDBRANCH  50  64
BRANCH  51  75
ATOM     75  C   UNL A   1      49.164  26.915  26.438  1.00  0.00     0.064 A 
ATOM     76  C   UNL A   1      50.162  26.526  27.341  1.00  0.00     0.173 A 
ATOM     77  C   UNL A   1      49.508  27.001  25.080  1.00  0.00     0.173 A 
ATOM     78  F   UNL A   1      49.887  26.453  28.651  1.00  0.00    -0.203 F 
ATOM     79  C   UNL A   1      51.453  26.239  26.905  1.00  0.00     0.198 A 
ATOM     80  C   UNL A   1      50.792  26.686  24.641  1.00  0.00     0.198 A 
ATOM     81  F   UNL A   1      48.591  27.371  24.175  1.00  0.00    -0.203 F 
ATOM     82  F   UNL A   1      52.399  25.904  27.793  1.00  0.00    -0.200 F 
ATOM     83  C   UNL A   1      51.766  26.311  25.555  1.00  0.00     0.200 A 
ATOM     84  F   UNL A   1      51.084  26.743  23.335  1.00  0.00    -0.200 F 
ATOM     85  F   UNL A   1      53.006  26.026  25.136  1.00  0.00    -0.200 F 
ENDBRANCH  51  75
BRANCH  63  86
ATOM     86  C   UNL A   1      45.922  32.718  28.535  1.00  0.00     0.064 A 
ATOM     87  C   UNL A   1      46.524  33.166  29.720  1.00  0.00     0.173 A 
ATOM     88  C   UNL A   1      45.797  33.629  27.475  1.00  0.00     0.173 A 
ATOM     89  F   UNL A   1      46.650  32.338  30.768  1.00  0.00    -0.203 F 
ATOM     90  C   UNL A   1      46.960  34.482  29.846  1.00  0.00     0.198 A 
ATOM     91  C   UNL A   1      46.262  34.935  27.594  1.00  0.00     0.198 A 
ATOM     92  F   UNL A   1      45.233  33.247  26.319  1.00  0.00    -0.203 F 
ATOM     93  F   UNL A   1      47.490  34.902  31.004  1.00  0.00    -0.200 F 
ATOM     94  C   UNL A   1      46.836  35.363  28.781  1.00  0.00     0.200 A 
ATOM     95  F   UNL A   1      46.151  35.780  26.561  1.00  0.00    -0.200 F 
ATOM     96  F   UNL A   1      47.263  36.626  28.903  1.00  0.00    -0.200 F 
ENDBRANCH  63  86
ENDBRANCH  37  38
ENDBRANCH  30  32
ENDBRANCH  29  30
ENDBRANCH  28  29
ENDBRANCH   1  28
TORSDOF 15
ENDMDL
MODEL 3
REMARK VINA RESULT:     -12.9      0.619      7.153
REMARK SMILES CS(=O)(=O)c1ccc(C(=O)N2C[C@@H](C(=O)OCCOC(=O)c3ccc(-c4c5nc(c(-c6c(F)c(F)c(F)c(F)c6F)c6ccc([nH]6)c(-c6c(F)c(F)c(F)c(F)c6F)c6nc(c(-c7c(F)c(F)c(F)c(F)c7F)c7ccc4[nH]7)C=C6)C=C5)cc3)[C@H](c3ccncc3)C2)cc1
REMARK SMILES IDX 17 1 16 2 14 3 15 4 13 5 11 6 12 7 92 8 85 9 9 10 10 11 8 12
REMARK SMILES IDX 5 13 6 14 94 15 7 16 93 17 2 18 1 19 3 20 4 21 86 22 87 23
REMARK SMILES IDX 91 24 88 25 90 26 89 27 18 28 19 29 20 30 21 31 22 32 23 33
REMARK SMILES IDX 84 34 24 35 83 36 25 37 26 38 27 39 77 40 28 41 82 42 76 43
REMARK SMILES IDX 78 44 29 45 81 46 75 47 74 48 30 50 62 51 42 52 61 53 43 54
REMARK SMILES IDX 46 55 60 56 79 57 44 58 45 59 59 61 80 62 47 63 31 64 32 65
REMARK SMILES IDX 40 66 33 67 34 68 38 69 41 70 35 71 36 72 39 73 37 74 63 75
REMARK SMILES IDX 64 76 72 77 65 78 66 79 70 80 73 81 67 82 68 83 71 84 69 85
REMARK SMILES IDX 48 86 49 87 57 88 50 89 51 90 55 91 58 92 52 93 53 94 56 95
REMARK SMILES IDX 54 96
REMARK H PARENT 78 49 46 60
REMARK Flexibility Score: inf
ROOT
ATOM      1  C   UNL A   1      37.457  19.837  24.769  1.00  0.00     0.274 C 
ENDROOT
BRANCH   1   2
ATOM      2  O   UNL A   1      36.667  20.902  25.340  1.00  0.00    -0.462 OA
BRANCH   2   3
ATOM      3  C   UNL A   1      36.117  21.754  24.434  1.00  0.00     0.311 C 
ATOM      4  O   UNL A   1      36.768  22.414  23.633  1.00  0.00    -0.252 OA
BRANCH   3   5
ATOM      5  C   UNL A   1      34.613  21.835  24.570  1.00  0.00     0.128 C 
ATOM      6  N   UNL A   1      32.929  22.605  25.990  1.00  0.00    -0.337 N 
ATOM      7  C   UNL A   1      34.189  23.031  25.411  1.00  0.00     0.135 C 
ATOM      8  C   UNL A   1      32.934  21.180  26.235  1.00  0.00     0.129 C 
ATOM      9  C   UNL A   1      34.020  20.590  25.312  1.00  0.00     0.055 C 
BRANCH   6  10
ATOM     10  C   UNL A   1      31.898  23.377  26.495  1.00  0.00     0.253 C 
ATOM     11  O   UNL A   1      31.193  22.980  27.422  1.00  0.00    -0.269 OA
BRANCH  10  12
ATOM     12  C   UNL A   1      31.511  24.630  25.790  1.00  0.00     0.040 A 
ATOM     13  C   UNL A   1      31.138  26.947  24.263  1.00  0.00     0.067 A 
ATOM     14  C   UNL A   1      30.771  25.701  23.740  1.00  0.00     0.021 A 
ATOM     15  C   UNL A   1      31.672  27.045  25.546  1.00  0.00     0.021 A 
ATOM     16  C   UNL A   1      30.949  24.546  24.508  1.00  0.00     0.015 A 
ATOM     17  C   UNL A   1      31.890  25.885  26.285  1.00  0.00     0.015 A 
BRANCH  13  18
ATOM     18  S   UNL A   1      31.006  28.370  23.209  1.00  0.00     0.175 S 
ATOM     19  C   UNL A   1      32.656  28.823  22.748  1.00  0.00     0.163 C 
ATOM     20  O   UNL A   1      30.469  29.439  24.028  1.00  0.00    -0.224 OA
ATOM     21  O   UNL A   1      30.330  27.923  22.006  1.00  0.00    -0.224 OA
ENDBRANCH  13  18
ENDBRANCH  10  12
ENDBRANCH   6  10
BRANCH   9  22
ATOM     22  C   UNL A   1      33.623  19.462  24.362  1.00  0.00    -0.039 A 
ATOM     23  C   UNL A   1      34.313  18.239  24.413  1.00  0.00     0.024 A 
ATOM     24  C   UNL A   1      32.541  19.531  23.479  1.00  0.00     0.024 A 
ATOM     25  C   UNL A   1      33.933  17.194  23.585  1.00  0.00     0.111 A 
ATOM     26  C   UNL A   1      32.234  18.429  22.687  1.00  0.00     0.111 A 
ATOM     27  N   UNL A   1      32.912  17.266  22.713  1.00  0.00    -0.265 NA
ENDBRANCH   9  22
ENDBRANCH   3   5
ENDBRANCH   2   3
ENDBRANCH   1   2
BRANCH   1  28
ATOM     28  C   UNL A   1      38.910  19.834  25.260  1.00  0.00     0.275 C 
BRANCH  28  29
ATOM     29  O   UNL A   1      39.294  21.086  25.859  1.00  0.00    -0.458 OA
BRANCH  29  30
ATOM     30  C   UNL A   1      40.152  20.972  26.898  1.00  0.00     0.338 C 
ATOM     31  O   UNL A   1      40.634  19.946  27.343  1.00  0.00    -0.246 OA
BRANCH  30  32
ATOM     32  C   UNL A   1      40.593  22.300  27.356  1.00  0.00     0.060 A 
ATOM     33  C   UNL A   1      40.132  23.407  26.644  1.00  0.00     0.016 A 
ATOM     34  C   UNL A   1      41.561  22.459  28.342  1.00  0.00     0.016 A 
ATOM     35  C   UNL A   1      40.666  24.666  26.854  1.00  0.00     0.010 A 
ATOM     36  C   UNL A   1      42.069  23.742  28.596  1.00  0.00     0.010 A 
ATOM     37  C   UNL A   1      41.640  24.847  27.835  1.00  0.00    -0.014 A 
BRANCH  37  38
ATOM     38  C   UNL A   1      42.236  26.191  28.002  1.00  0.00     0.031 A 
ATOM     39  C   UNL A   1      41.504  27.236  28.789  1.00  0.00     0.074 A 
ATOM     40  C   UNL A   1      43.465  26.443  27.514  1.00  0.00     0.049 A 
ATOM     41  N   UNL A   1      41.792  28.501  28.955  1.00  0.00    -0.248 NA
ATOM     42  C   UNL A   1      40.285  26.797  29.484  1.00  0.00     0.031 C 
ATOM     43  C   UNL A   1      44.315  25.473  26.824  1.00  0.00     0.029 A 
ATOM     44  N   UNL A   1      44.215  27.591  27.533  1.00  0.00    -0.354 N 
ATOM     45  C   UNL A   1      40.770  29.019  29.738  1.00  0.00     0.074 A 
ATOM     46  C   UNL A   1      39.851  27.933  30.011  1.00  0.00     0.031 C 
ATOM     47  C   UNL A   1      45.475  26.061  26.497  1.00  0.00     0.029 A 
ATOM     48  C   UNL A   1      45.418  27.466  26.885  1.00  0.00     0.049 A 
ATOM     49  H   UNL A   1      43.920  28.422  27.969  1.00  0.00     0.167 HD
ATOM     50  C   UNL A   1      40.615  30.289  30.183  1.00  0.00     0.037 A 
ATOM     51  C   UNL A   1      46.351  28.394  26.599  1.00  0.00     0.037 A 
ATOM     52  C   UNL A   1      41.554  31.352  29.927  1.00  0.00     0.049 A 
ATOM     53  C   UNL A   1      46.114  29.815  27.025  1.00  0.00     0.074 A 
ATOM     54  C   UNL A   1      41.492  32.675  30.323  1.00  0.00     0.029 A 
ATOM     55  N   UNL A   1      42.733  31.205  29.209  1.00  0.00    -0.354 N 
ATOM     56  N   UNL A   1      45.117  30.318  27.713  1.00  0.00    -0.248 NA
ATOM     57  C   UNL A   1      47.123  30.802  26.622  1.00  0.00     0.031 C 
ATOM     58  C   UNL A   1      42.609  33.339  29.804  1.00  0.00     0.029 A 
ATOM     59  C   UNL A   1      43.394  32.419  29.129  1.00  0.00     0.049 A 
ATOM     60  H   UNL A   1      43.051  30.361  28.814  1.00  0.00     0.167 HD
ATOM     61  C   UNL A   1      45.386  31.672  27.843  1.00  0.00     0.074 A 
ATOM     62  C   UNL A   1      46.648  31.911  27.173  1.00  0.00     0.031 C 
ATOM     63  C   UNL A   1      44.653  32.633  28.459  1.00  0.00     0.037 A 
BRANCH  50  64
ATOM     64  C   UNL A   1      39.358  30.605  30.938  1.00  0.00     0.064 A 
ATOM     65  C   UNL A   1      38.203  31.085  30.302  1.00  0.00     0.173 A 
ATOM     66  C   UNL A   1      39.312  30.428  32.330  1.00  0.00     0.173 A 
ATOM     67  F   UNL A   1      38.199  31.290  28.976  1.00  0.00    -0.203 F 
ATOM     68  C   UNL A   1      37.063  31.407  31.034  1.00  0.00     0.198 A 
ATOM     69  C   UNL A   1      38.161  30.723  33.055  1.00  0.00     0.198 A 
ATOM     70  F   UNL A   1      40.388  29.970  32.990  1.00  0.00    -0.203 F 
ATOM     71  F   UNL A   1      35.992  31.920  30.414  1.00  0.00    -0.200 F 
ATOM     72  C   UNL A   1      37.042  31.222  32.410  1.00  0.00     0.200 A 
ATOM     73  F   UNL A   1      38.139  30.533  34.383  1.00  0.00    -0.200 F 
ATOM     74  F   UNL A   1      35.944  31.537  33.113  1.00  0.00    -0.200 F 
ENDBRANCH  50  64
BRANCH  51  75
ATOM     75  C   UNL A   1      47.565  28.010  25.834  1.00  0.00     0.064 A 
ATOM     76  C   UNL A   1      48.790  27.805  26.480  1.00  0.00     0.173 A 
ATOM     77  C   UNL A   1      47.520  27.826  24.443  1.00  0.00     0.173 A 
ATOM     78  F   UNL A   1      48.888  27.992  27.804  1.00  0.00    -0.203 F 
ATOM     79  C   UNL A   1      49.927  27.437  25.764  1.00  0.00     0.198 A 
ATOM     80  C   UNL A   1      48.651  27.430  23.732  1.00  0.00     0.198 A 
ATOM     81  F   UNL A   1      46.372  28.012  23.776  1.00  0.00    -0.203 F 
ATOM     82  F   UNL A   1      51.097  27.282  26.400  1.00  0.00    -0.200 F 
ATOM     83  C   UNL A   1      49.855  27.242  24.392  1.00  0.00     0.200 A 
ATOM     84  F   UNL A   1      48.571  27.229  22.410  1.00  0.00    -0.200 F 
ATOM     85  F   UNL A   1      50.947  26.879  23.706  1.00  0.00    -0.200 F 
ENDBRANCH  51  75
BRANCH  63  86
ATOM     86  C   UNL A   1      45.219  34.022  28.465  1.00  0.00     0.064 A 
ATOM     87  C   UNL A   1      44.864  34.966  27.490  1.00  0.00     0.173 A 
ATOM     88  C   UNL A   1      46.100  34.424  29.480  1.00  0.00     0.173 A 
ATOM     89  F   UNL A   1      44.039  34.624  26.488  1.00  0.00    -0.203 F 
ATOM     90  C   UNL A   1      45.390  36.254  27.518  1.00  0.00     0.198 A 
ATOM     91  C   UNL A   1      46.600  35.722  29.522  1.00  0.00     0.198 A 
ATOM     92  F   UNL A   1      46.466  33.560  30.439  1.00  0.00    -0.203 F 
ATOM     93  F   UNL A   1      45.074  37.126  26.550  1.00  0.00    -0.200 F 
ATOM     94  C   UNL A   1      46.251  36.634  28.537  1.00  0.00     0.200 A 
ATOM     95  F   UNL A   1      47.423  36.090  30.514  1.00  0.00    -0.200 F 
ATOM     96  F   UNL A   1      46.751  37.876  28.566  1.00  0.00    -0.200 F 
ENDBRANCH  63  86
ENDBRANCH  37  38
ENDBRANCH  30  32
ENDBRANCH  29  30
ENDBRANCH  28  29
ENDBRANCH   1  28
TORSDOF 15
ENDMDL
