MODEL 1
REMARK VINA RESULT:     -12.3      0.000      0.000
REMARK SMILES N#C/C(=C\c1ccc(Oc2ccccc2Cl)c([N+](=O)[O-])c1)C(=O)OCCOC(=O)c1ccc(-c2c3nc(c(-c4c(F)c(F)c(F)c(F)c4F)c4ccc([nH]4)c(-c4c(F)c(F)c(F)c(F)c4F)c4nc(c(-c5c(F)c(F)c(F)c(F)c5F)c5ccc2[nH]5)C=C4)C=C3)cc1
REMARK SMILES IDX 25 1 24 2 22 3 23 4 3 5 4 6 2 7 1 8 5 9 6 10 21 11 7 12
REMARK SMILES IDX 17 13 8 14 18 15 19 16 20 17 9 18 10 19 11 20 15 21 12 22
REMARK SMILES IDX 14 23 16 24 13 25 26 26 27 27 28 28 29 29 30 30 31 31 92 32
REMARK SMILES IDX 32 33 91 34 33 35 34 36 35 37 85 38 36 39 90 40 84 41 86 42
REMARK SMILES IDX 37 43 89 44 83 45 82 46 38 48 70 49 50 50 69 51 51 52 54 53
REMARK SMILES IDX 68 54 87 55 52 56 53 57 67 59 88 60 55 61 39 62 40 63 48 64
REMARK SMILES IDX 41 65 42 66 46 67 49 68 43 69 44 70 47 71 45 72 71 73 72 74
REMARK SMILES IDX 80 75 73 76 74 77 78 78 81 79 75 80 76 81 79 82 77 83 56 84
REMARK SMILES IDX 57 85 65 86 58 87 59 88 63 89 66 90 60 91 61 92 64 93 62 94
REMARK H PARENT 86 47 54 58
REMARK Flexibility Score: inf
ROOT
ATOM      1  C   UNL A   1      35.416  20.720  24.947  1.00  0.00     0.275 C 
ENDROOT
BRANCH   1   2
ATOM      2  O   UNL A   1      34.575  19.554  25.018  1.00  0.00    -0.458 OA
BRANCH   2   3
ATOM      3  C   UNL A   1      33.247  19.780  25.180  1.00  0.00     0.349 C 
ATOM      4  O   UNL A   1      32.409  18.942  25.476  1.00  0.00    -0.245 OA
BRANCH   3   5
ATOM      5  C   UNL A   1      32.933  21.205  24.984  1.00  0.00     0.138 C 
ATOM      6  C   UNL A   1      33.250  22.080  25.970  1.00  0.00     0.035 C 
BRANCH   5   7
ATOM      7  C   UNL A   1      32.541  21.743  23.618  1.00  0.00     0.107 C 
ATOM      8  N   UNL A   1      32.215  22.190  22.484  1.00  0.00    -0.192 NA
ENDBRANCH   5   7
BRANCH   6   9
ATOM      9  C   UNL A   1      33.262  23.548  25.798  1.00  0.00    -0.017 A 
ATOM     10  C   UNL A   1      34.344  24.161  25.160  1.00  0.00     0.012 A 
ATOM     11  C   UNL A   1      32.165  24.337  26.151  1.00  0.00     0.098 A 
ATOM     12  C   UNL A   1      34.304  25.529  24.846  1.00  0.00     0.055 A 
ATOM     13  C   UNL A   1      32.090  25.677  25.733  1.00  0.00     0.312 A 
ATOM     14  C   UNL A   1      33.169  26.313  25.115  1.00  0.00     0.204 A 
BRANCH  13  15
ATOM     15  N   UNL A   1      30.770  26.264  25.844  1.00  0.00     0.066 N 
ATOM     16  O   UNL A   1      30.429  26.675  26.960  1.00  0.00    -0.258 OA
ATOM     17  O   UNL A   1      30.119  26.386  24.797  1.00  0.00    -0.258 OA
ENDBRANCH  13  15
BRANCH  14  18
ATOM     18  O   UNL A   1      33.323  27.620  24.700  1.00  0.00    -0.449 OA
BRANCH  18  19
ATOM     19  C   UNL A   1      33.334  28.648  25.607  1.00  0.00     0.146 A 
ATOM     20  C   UNL A   1      34.387  28.637  26.529  1.00  0.00     0.049 A 
ATOM     21  C   UNL A   1      32.358  29.650  25.673  1.00  0.00     0.083 A 
ATOM     22  C   UNL A   1      34.530  29.684  27.437  1.00  0.00     0.004 A 
ATOM     23  C   UNL A   1      32.521  30.711  26.566  1.00  0.00     0.024 A 
ATOM     24  Cl  UNL A   1      30.964  29.637  24.654  1.00  0.00    -0.080 Cl
ATOM     25  C   UNL A   1      33.613  30.734  27.436  1.00  0.00     0.002 A 
ENDBRANCH  18  19
ENDBRANCH  14  18
ENDBRANCH   6   9
ENDBRANCH   3   5
ENDBRANCH   2   3
ENDBRANCH   1   2
BRANCH   1  26
ATOM     26  C   UNL A   1      36.889  20.311  25.016  1.00  0.00     0.275 C 
BRANCH  26  27
ATOM     27  O   UNL A   1      37.731  21.447  25.306  1.00  0.00    -0.458 OA
BRANCH  27  28
ATOM     28  C   UNL A   1      38.896  21.153  25.926  1.00  0.00     0.338 C 
ATOM     29  O   UNL A   1      39.546  20.125  25.830  1.00  0.00    -0.246 OA
BRANCH  28  30
ATOM     30  C   UNL A   1      39.418  22.329  26.637  1.00  0.00     0.060 A 
ATOM     31  C   UNL A   1      38.964  23.572  26.227  1.00  0.00     0.016 A 
ATOM     32  C   UNL A   1      40.503  22.244  27.503  1.00  0.00     0.016 A 
ATOM     33  C   UNL A   1      39.679  24.720  26.529  1.00  0.00     0.010 A 
ATOM     34  C   UNL A   1      41.124  23.425  27.942  1.00  0.00     0.010 A 
ATOM     35  C   UNL A   1      40.750  24.679  27.422  1.00  0.00    -0.014 A 
BRANCH  35  36
ATOM     36  C   UNL A   1      41.466  25.943  27.758  1.00  0.00     0.031 A 
ATOM     37  C   UNL A   1      40.801  26.984  28.620  1.00  0.00     0.074 A 
ATOM     38  C   UNL A   1      42.735  26.144  27.340  1.00  0.00     0.049 A 
ATOM     39  N   UNL A   1      41.157  28.225  28.845  1.00  0.00    -0.248 NA
ATOM     40  C   UNL A   1      39.562  26.587  29.305  1.00  0.00     0.031 C 
ATOM     41  C   UNL A   1      43.546  25.188  26.581  1.00  0.00     0.029 A 
ATOM     42  N   UNL A   1      43.579  27.216  27.510  1.00  0.00    -0.354 N 
ATOM     43  C   UNL A   1      40.152  28.773  29.631  1.00  0.00     0.074 A 
ATOM     44  C   UNL A   1      39.172  27.732  29.851  1.00  0.00     0.031 C 
ATOM     45  C   UNL A   1      44.778  25.685  26.408  1.00  0.00     0.029 A 
ATOM     46  C   UNL A   1      44.808  27.047  26.917  1.00  0.00     0.049 A 
ATOM     47  H   UNL A   1      43.328  28.026  28.009  1.00  0.00     0.167 HD
ATOM     48  C   UNL A   1      40.057  30.036  30.113  1.00  0.00     0.037 A 
ATOM     49  C   UNL A   1      45.826  27.909  26.738  1.00  0.00     0.037 A 
ATOM     50  C   UNL A   1      41.081  31.038  29.954  1.00  0.00     0.049 A 
ATOM     51  C   UNL A   1      45.668  29.320  27.227  1.00  0.00     0.074 A 
ATOM     52  C   UNL A   1      41.092  32.341  30.421  1.00  0.00     0.029 A 
ATOM     53  N   UNL A   1      42.284  30.840  29.291  1.00  0.00    -0.354 N 
ATOM     54  N   UNL A   1      44.678  29.858  27.896  1.00  0.00    -0.248 NA
ATOM     55  C   UNL A   1      46.758  30.252  26.910  1.00  0.00     0.031 C 
ATOM     56  C   UNL A   1      42.276  32.949  29.993  1.00  0.00     0.029 A 
ATOM     57  C   UNL A   1      43.032  32.008  29.314  1.00  0.00     0.049 A 
ATOM     58  H   UNL A   1      42.565  29.997  28.868  1.00  0.00     0.167 HD
ATOM     59  C   UNL A   1      45.034  31.182  28.102  1.00  0.00     0.074 A 
ATOM     60  C   UNL A   1      46.340  31.361  27.503  1.00  0.00     0.031 C 
ATOM     61  C   UNL A   1      44.338  32.163  28.726  1.00  0.00     0.037 A 
BRANCH  48  62
ATOM     62  C   UNL A   1      38.786  30.433  30.808  1.00  0.00     0.064 A 
ATOM     63  C   UNL A   1      38.651  30.419  32.203  1.00  0.00     0.173 A 
ATOM     64  C   UNL A   1      37.694  30.889  30.050  1.00  0.00     0.173 A 
ATOM     65  F   UNL A   1      39.656  29.983  32.975  1.00  0.00    -0.203 F 
ATOM     66  C   UNL A   1      37.463  30.824  32.812  1.00  0.00     0.198 A 
ATOM     67  C   UNL A   1      36.522  31.323  30.662  1.00  0.00     0.198 A 
ATOM     68  F   UNL A   1      37.770  30.930  28.710  1.00  0.00    -0.203 F 
ATOM     69  F   UNL A   1      37.340  30.761  34.144  1.00  0.00    -0.200 F 
ATOM     70  C   UNL A   1      36.404  31.284  32.042  1.00  0.00     0.200 A 
ATOM     71  F   UNL A   1      35.508  31.783  29.916  1.00  0.00    -0.200 F 
ATOM     72  F   UNL A   1      35.269  31.687  32.630  1.00  0.00    -0.200 F 
ENDBRANCH  48  62
BRANCH  49  73
ATOM     73  C   UNL A   1      47.049  27.485  26.002  1.00  0.00     0.064 A 
ATOM     74  C   UNL A   1      48.150  26.946  26.681  1.00  0.00     0.173 A 
ATOM     75  C   UNL A   1      47.152  27.628  24.608  1.00  0.00     0.173 A 
ATOM     76  F   UNL A   1      48.117  26.815  28.016  1.00  0.00    -0.203 F 
ATOM     77  C   UNL A   1      49.311  26.585  25.999  1.00  0.00     0.198 A 
ATOM     78  C   UNL A   1      48.297  27.228  23.923  1.00  0.00     0.198 A 
ATOM     79  F   UNL A   1      46.132  28.143  23.906  1.00  0.00    -0.203 F 
ATOM     80  F   UNL A   1      50.370  26.127  26.680  1.00  0.00    -0.200 F 
ATOM     81  C   UNL A   1      49.380  26.718  24.620  1.00  0.00     0.200 A 
ATOM     82  F   UNL A   1      48.351  27.342  22.589  1.00  0.00    -0.200 F 
ATOM     83  F   UNL A   1      50.494  26.365  23.964  1.00  0.00    -0.200 F 
ENDBRANCH  49  73
BRANCH  61  84
ATOM     84  C   UNL A   1      45.004  33.502  28.840  1.00  0.00     0.064 A 
ATOM     85  C   UNL A   1      44.817  34.506  27.878  1.00  0.00     0.173 A 
ATOM     86  C   UNL A   1      45.822  33.793  29.943  1.00  0.00     0.173 A 
ATOM     87  F   UNL A   1      44.060  34.271  26.796  1.00  0.00    -0.203 F 
ATOM     88  C   UNL A   1      45.450  35.740  28.000  1.00  0.00     0.198 A 
ATOM     89  C   UNL A   1      46.425  35.039  30.079  1.00  0.00     0.198 A 
ATOM     90  F   UNL A   1      46.029  32.869  30.893  1.00  0.00    -0.203 F 
ATOM     91  F   UNL A   1      45.303  36.663  27.040  1.00  0.00    -0.200 F 
ATOM     92  C   UNL A   1      46.245  36.007  29.104  1.00  0.00     0.200 A 
ATOM     93  F   UNL A   1      47.182  35.302  31.154  1.00  0.00    -0.200 F 
ATOM     94  F   UNL A   1      46.849  37.199  29.222  1.00  0.00    -0.200 F 
ENDBRANCH  61  84
ENDBRANCH  35  36
ENDBRANCH  28  30
ENDBRANCH  27  28
ENDBRANCH  26  27
ENDBRANCH   1  26
TORSDOF 16
ENDMDL
MODEL 2
REMARK VINA RESULT:     -12.2      5.342      9.730
REMARK SMILES N#C/C(=C\c1ccc(Oc2ccccc2Cl)c([N+](=O)[O-])c1)C(=O)OCCOC(=O)c1ccc(-c2c3nc(c(-c4c(F)c(F)c(F)c(F)c4F)c4ccc([nH]4)c(-c4c(F)c(F)c(F)c(F)c4F)c4nc(c(-c5c(F)c(F)c(F)c(F)c5F)c5ccc2[nH]5)C=C4)C=C3)cc1
REMARK SMILES IDX 25 1 24 2 22 3 23 4 3 5 4 6 2 7 1 8 5 9 6 10 21 11 7 12
REMARK SMILES IDX 17 13 8 14 18 15 19 16 20 17 9 18 10 19 11 20 15 21 12 22
REMARK SMILES IDX 14 23 16 24 13 25 26 26 27 27 28 28 29 29 30 30 31 31 92 32
REMARK SMILES IDX 32 33 91 34 33 35 34 36 35 37 85 38 36 39 90 40 84 41 86 42
REMARK SMILES IDX 37 43 89 44 83 45 82 46 38 48 70 49 50 50 69 51 51 52 54 53
REMARK SMILES IDX 68 54 87 55 52 56 53 57 67 59 88 60 55 61 39 62 40 63 48 64
REMARK SMILES IDX 41 65 42 66 46 67 49 68 43 69 44 70 47 71 45 72 71 73 72 74
REMARK SMILES IDX 80 75 73 76 74 77 78 78 81 79 75 80 76 81 79 82 77 83 56 84
REMARK SMILES IDX 57 85 65 86 58 87 59 88 63 89 66 90 60 91 61 92 64 93 62 94
REMARK H PARENT 86 47 54 58
REMARK Flexibility Score: inf
ROOT
ATOM      1  C   UNL A   1      33.959  34.943  28.400  1.00  0.00     0.275 C 
ENDROOT
BRANCH   1   2
ATOM      2  O   UNL A   1      33.494  33.598  28.622  1.00  0.00    -0.458 OA
BRANCH   2   3
ATOM      3  C   UNL A   1      32.657  33.090  27.684  1.00  0.00     0.349 C 
ATOM      4  O   UNL A   1      31.815  33.717  27.060  1.00  0.00    -0.245 OA
BRANCH   3   5
ATOM      5  C   UNL A   1      32.918  31.656  27.474  1.00  0.00     0.138 C 
ATOM      6  C   UNL A   1      31.958  30.900  26.888  1.00  0.00     0.035 C 
BRANCH   5   7
ATOM      7  C   UNL A   1      34.317  31.081  27.628  1.00  0.00     0.107 C 
ATOM      8  N   UNL A   1      35.478  30.605  27.755  1.00  0.00    -0.192 NA
ENDBRANCH   5   7
BRANCH   6   9
ATOM      9  C   UNL A   1      32.186  29.540  26.359  1.00  0.00    -0.017 A 
ATOM     10  C   UNL A   1      31.909  28.429  27.162  1.00  0.00     0.012 A 
ATOM     11  C   UNL A   1      32.563  29.321  25.032  1.00  0.00     0.098 A 
ATOM     12  C   UNL A   1      31.968  27.131  26.628  1.00  0.00     0.055 A 
ATOM     13  C   UNL A   1      32.510  28.030  24.481  1.00  0.00     0.312 A 
ATOM     14  C   UNL A   1      32.257  26.906  25.272  1.00  0.00     0.204 A 
BRANCH  13  15
ATOM     15  N   UNL A   1      32.568  27.995  23.034  1.00  0.00     0.066 N 
ATOM     16  O   UNL A   1      33.564  27.467  22.524  1.00  0.00    -0.258 OA
ATOM     17  O   UNL A   1      31.579  28.419  22.421  1.00  0.00    -0.258 OA
ENDBRANCH  13  15
BRANCH  14  18
ATOM     18  O   UNL A   1      32.234  25.566  24.946  1.00  0.00    -0.449 OA
BRANCH  18  19
ATOM     19  C   UNL A   1      33.186  24.708  25.433  1.00  0.00     0.146 A 
ATOM     20  C   UNL A   1      34.482  24.890  24.937  1.00  0.00     0.049 A 
ATOM     21  C   UNL A   1      32.924  23.677  26.343  1.00  0.00     0.083 A 
ATOM     22  C   UNL A   1      35.533  24.122  25.435  1.00  0.00     0.004 A 
ATOM     23  C   UNL A   1      33.984  22.928  26.858  1.00  0.00     0.024 A 
ATOM     24  Cl  UNL A   1      31.323  23.317  26.883  1.00  0.00    -0.080 Cl
ATOM     25  C   UNL A   1      35.288  23.161  26.415  1.00  0.00     0.002 A 
ENDBRANCH  18  19
ENDBRANCH  14  18
ENDBRANCH   6   9
ENDBRANCH   3   5
ENDBRANCH   2   3
ENDBRANCH   1   2
BRANCH   1  26
ATOM     26  C   UNL A   1      33.137  35.928  29.234  1.00  0.00     0.275 C 
BRANCH  26  27
ATOM     27  O   UNL A   1      32.521  35.268  30.360  1.00  0.00    -0.458 OA
BRANCH  27  28
ATOM     28  C   UNL A   1      32.730  35.862  31.557  1.00  0.00     0.338 C 
ATOM     29  O   UNL A   1      32.098  36.785  32.045  1.00  0.00    -0.246 OA
BRANCH  28  30
ATOM     30  C   UNL A   1      33.746  35.134  32.328  1.00  0.00     0.060 A 
ATOM     31  C   UNL A   1      35.008  35.699  32.410  1.00  0.00     0.016 A 
ATOM     32  C   UNL A   1      33.552  33.821  32.746  1.00  0.00     0.016 A 
ATOM     33  C   UNL A   1      36.109  34.924  32.739  1.00  0.00     0.010 A 
ATOM     34  C   UNL A   1      34.645  33.088  33.238  1.00  0.00     0.010 A 
ATOM     35  C   UNL A   1      35.950  33.617  33.196  1.00  0.00    -0.014 A 
BRANCH  35  36
ATOM     36  C   UNL A   1      37.156  32.830  33.585  1.00  0.00     0.031 A 
ATOM     37  C   UNL A   1      37.779  33.019  34.943  1.00  0.00     0.074 A 
ATOM     38  C   UNL A   1      37.669  31.902  32.747  1.00  0.00     0.049 A 
ATOM     39  N   UNL A   1      38.938  32.603  35.389  1.00  0.00    -0.248 NA
ATOM     40  C   UNL A   1      37.008  33.795  35.926  1.00  0.00     0.031 C 
ATOM     41  C   UNL A   1      37.120  31.536  31.438  1.00  0.00     0.029 A 
ATOM     42  N   UNL A   1      38.763  31.080  32.876  1.00  0.00    -0.354 N 
ATOM     43  C   UNL A   1      39.065  33.127  36.669  1.00  0.00     0.074 A 
ATOM     44  C   UNL A   1      37.864  33.889  36.934  1.00  0.00     0.031 C 
ATOM     45  C   UNL A   1      37.833  30.529  30.919  1.00  0.00     0.029 A 
ATOM     46  C   UNL A   1      38.973  30.269  31.786  1.00  0.00     0.049 A 
ATOM     47  H   UNL A   1      39.340  31.072  33.673  1.00  0.00     0.167 HD
ATOM     48  C   UNL A   1      40.099  32.990  37.534  1.00  0.00     0.037 A 
ATOM     49  C   UNL A   1      39.999  29.454  31.477  1.00  0.00     0.037 A 
ATOM     50  C   UNL A   1      41.252  32.161  37.287  1.00  0.00     0.049 A 
ATOM     51  C   UNL A   1      41.160  29.370  32.425  1.00  0.00     0.074 A 
ATOM     52  C   UNL A   1      42.344  31.937  38.107  1.00  0.00     0.029 A 
ATOM     53  N   UNL A   1      41.451  31.405  36.140  1.00  0.00    -0.354 N 
ATOM     54  N   UNL A   1      41.314  29.936  33.598  1.00  0.00    -0.248 NA
ATOM     55  C   UNL A   1      42.304  28.556  31.995  1.00  0.00     0.031 C 
ATOM     56  C   UNL A   1      43.231  31.091  37.433  1.00  0.00     0.029 A 
ATOM     57  C   UNL A   1      42.663  30.736  36.221  1.00  0.00     0.049 A 
ATOM     58  H   UNL A   1      40.824  31.352  35.382  1.00  0.00     0.167 HD
ATOM     59  C   UNL A   1      42.557  29.528  34.056  1.00  0.00     0.074 A 
ATOM     60  C   UNL A   1      43.108  28.652  33.043  1.00  0.00     0.031 C 
ATOM     61  C   UNL A   1      43.189  29.855  35.209  1.00  0.00     0.037 A 
BRANCH  48  62
ATOM     62  C   UNL A   1      40.067  33.791  38.804  1.00  0.00     0.064 A 
ATOM     63  C   UNL A   1      39.430  33.340  39.968  1.00  0.00     0.173 A 
ATOM     64  C   UNL A   1      40.742  35.023  38.864  1.00  0.00     0.173 A 
ATOM     65  F   UNL A   1      38.761  32.178  39.965  1.00  0.00    -0.203 F 
ATOM     66  C   UNL A   1      39.449  34.100  41.137  1.00  0.00     0.198 A 
ATOM     67  C   UNL A   1      40.788  35.763  40.042  1.00  0.00     0.198 A 
ATOM     68  F   UNL A   1      41.376  35.501  37.782  1.00  0.00    -0.203 F 
ATOM     69  F   UNL A   1      38.797  33.670  42.225  1.00  0.00    -0.200 F 
ATOM     70  C   UNL A   1      40.136  35.306  41.175  1.00  0.00     0.200 A 
ATOM     71  F   UNL A   1      41.466  36.919  40.079  1.00  0.00    -0.200 F 
ATOM     72  F   UNL A   1      40.165  36.028  42.304  1.00  0.00    -0.200 F 
ENDBRANCH  48  62
BRANCH  49  73
ATOM     73  C   UNL A   1      40.009  28.714  30.185  1.00  0.00     0.064 A 
ATOM     74  C   UNL A   1      39.420  27.447  30.074  1.00  0.00     0.173 A 
ATOM     75  C   UNL A   1      40.623  29.247  29.040  1.00  0.00     0.173 A 
ATOM     76  F   UNL A   1      38.846  26.878  31.144  1.00  0.00    -0.203 F 
ATOM     77  C   UNL A   1      39.463  26.735  28.876  1.00  0.00     0.198 A 
ATOM     78  C   UNL A   1      40.629  28.553  27.832  1.00  0.00     0.198 A 
ATOM     79  F   UNL A   1      41.208  30.453  29.089  1.00  0.00    -0.203 F 
ATOM     80  F   UNL A   1      38.944  25.502  28.813  1.00  0.00    -0.200 F 
ATOM     81  C   UNL A   1      40.059  27.293  27.754  1.00  0.00     0.200 A 
ATOM     82  F   UNL A   1      41.190  29.105  26.748  1.00  0.00    -0.200 F 
ATOM     83  F   UNL A   1      40.095  26.611  26.601  1.00  0.00    -0.200 F 
ENDBRANCH  49  73
BRANCH  61  84
ATOM     84  C   UNL A   1      44.523  29.217  35.459  1.00  0.00     0.064 A 
ATOM     85  C   UNL A   1      45.722  29.840  35.085  1.00  0.00     0.173 A 
ATOM     86  C   UNL A   1      44.600  27.974  36.106  1.00  0.00     0.173 A 
ATOM     87  F   UNL A   1      45.700  31.019  34.447  1.00  0.00    -0.203 F 
ATOM     88  C   UNL A   1      46.950  29.227  35.321  1.00  0.00     0.198 A 
ATOM     89  C   UNL A   1      45.830  27.380  36.371  1.00  0.00     0.198 A 
ATOM     90  F   UNL A   1      43.483  27.339  36.489  1.00  0.00    -0.203 F 
ATOM     91  F   UNL A   1      48.080  29.812  34.904  1.00  0.00    -0.200 F 
ATOM     92  C   UNL A   1      47.002  28.002  35.971  1.00  0.00     0.200 A 
ATOM     93  F   UNL A   1      45.881  26.204  37.012  1.00  0.00    -0.200 F 
ATOM     94  F   UNL A   1      48.186  27.417  36.202  1.00  0.00    -0.200 F 
ENDBRANCH  61  84
ENDBRANCH  35  36
ENDBRANCH  28  30
ENDBRANCH  27  28
ENDBRANCH  26  27
ENDBRANCH   1  26
TORSDOF 16
ENDMDL
MODEL 3
REMARK VINA RESULT:     -12.2      4.610      8.782
REMARK SMILES N#C/C(=C\c1ccc(Oc2ccccc2Cl)c([N+](=O)[O-])c1)C(=O)OCCOC(=O)c1ccc(-c2c3nc(c(-c4c(F)c(F)c(F)c(F)c4F)c4ccc([nH]4)c(-c4c(F)c(F)c(F)c(F)c4F)c4nc(c(-c5c(F)c(F)c(F)c(F)c5F)c5ccc2[nH]5)C=C4)C=C3)cc1
REMARK SMILES IDX 25 1 24 2 22 3 23 4 3 5 4 6 2 7 1 8 5 9 6 10 21 11 7 12
REMARK SMILES IDX 17 13 8 14 18 15 19 16 20 17 9 18 10 19 11 20 15 21 12 22
REMARK SMILES IDX 14 23 16 24 13 25 26 26 27 27 28 28 29 29 30 30 31 31 92 32
REMARK SMILES IDX 32 33 91 34 33 35 34 36 35 37 85 38 36 39 90 40 84 41 86 42
REMARK SMILES IDX 37 43 89 44 83 45 82 46 38 48 70 49 50 50 69 51 51 52 54 53
REMARK SMILES IDX 68 54 87 55 52 56 53 57 67 59 88 60 55 61 39 62 40 63 48 64
REMARK SMILES IDX 41 65 42 66 46 67 49 68 43 69 44 70 47 71 45 72 71 73 72 74
REMARK SMILES IDX 80 75 73 76 74 77 78 78 81 79 75 80 76 81 79 82 77 83 56 84
REMARK SMILES IDX 57 85 65 86 58 87 59 88 63 89 66 90 60 91 61 92 64 93 62 94
REMARK H PARENT 86 47 54 58
REMARK Flexibility Score: inf
ROOT
ATOM      1  C   UNL A   1      42.641  20.452  26.162  1.00  0.00     0.275 C 
ENDROOT
BRANCH   1   2
ATOM      2  O   UNL A   1      41.362  20.896  25.675  1.00  0.00    -0.458 OA
BRANCH   2   3
ATOM      3  C   UNL A   1      40.385  21.049  26.604  1.00  0.00     0.349 C 
ATOM      4  O   UNL A   1      40.420  20.638  27.754  1.00  0.00    -0.245 OA
BRANCH   3   5
ATOM      5  C   UNL A   1      39.260  21.823  26.055  1.00  0.00     0.138 C 
ATOM      6  C   UNL A   1      38.309  21.171  25.342  1.00  0.00     0.035 C 
BRANCH   5   7
ATOM      7  C   UNL A   1      38.993  23.250  26.508  1.00  0.00     0.107 C 
ATOM      8  N   UNL A   1      38.771  24.433  26.883  1.00  0.00    -0.192 NA
ENDBRANCH   5   7
BRANCH   6   9
ATOM      9  C   UNL A   1      36.999  21.753  24.987  1.00  0.00    -0.017 A 
ATOM     10  C   UNL A   1      36.877  22.530  23.831  1.00  0.00     0.012 A 
ATOM     11  C   UNL A   1      35.842  21.456  25.711  1.00  0.00     0.098 A 
ATOM     12  C   UNL A   1      35.614  22.960  23.391  1.00  0.00     0.055 A 
ATOM     13  C   UNL A   1      34.577  21.797  25.202  1.00  0.00     0.312 A 
ATOM     14  C   UNL A   1      34.436  22.591  24.061  1.00  0.00     0.204 A 
BRANCH  13  15
ATOM     15  N   UNL A   1      33.471  21.123  25.852  1.00  0.00     0.066 N 
ATOM     16  O   UNL A   1      32.709  21.821  26.532  1.00  0.00    -0.258 OA
ATOM     17  O   UNL A   1      33.325  19.917  25.607  1.00  0.00    -0.258 OA
ENDBRANCH  13  15
BRANCH  14  18
ATOM     18  O   UNL A   1      33.305  23.090  23.449  1.00  0.00    -0.449 OA
BRANCH  18  19
ATOM     19  C   UNL A   1      33.201  24.423  23.148  1.00  0.00     0.146 A 
ATOM     20  C   UNL A   1      32.986  24.728  21.799  1.00  0.00     0.049 A 
ATOM     21  C   UNL A   1      33.329  25.454  24.086  1.00  0.00     0.083 A 
ATOM     22  C   UNL A   1      32.784  26.050  21.407  1.00  0.00     0.004 A 
ATOM     23  C   UNL A   1      33.099  26.775  23.693  1.00  0.00     0.024 A 
ATOM     24  Cl  UNL A   1      33.732  25.145  25.736  1.00  0.00    -0.080 Cl
ATOM     25  C   UNL A   1      32.813  27.069  22.358  1.00  0.00     0.002 A 
ENDBRANCH  18  19
ENDBRANCH  14  18
ENDBRANCH   6   9
ENDBRANCH   3   5
ENDBRANCH   2   3
ENDBRANCH   1   2
BRANCH   1  26
ATOM     26  C   UNL A   1      43.766  21.200  25.442  1.00  0.00     0.275 C 
BRANCH  26  27
ATOM     27  O   UNL A   1      44.138  22.396  26.159  1.00  0.00    -0.458 OA
BRANCH  27  28
ATOM     28  C   UNL A   1      43.834  23.556  25.533  1.00  0.00     0.338 C 
ATOM     29  O   UNL A   1      44.009  23.830  24.357  1.00  0.00    -0.246 OA
BRANCH  28  30
ATOM     30  C   UNL A   1      43.076  24.444  26.425  1.00  0.00     0.060 A 
ATOM     31  C   UNL A   1      43.278  25.808  26.287  1.00  0.00     0.016 A 
ATOM     32  C   UNL A   1      42.383  23.960  27.530  1.00  0.00     0.016 A 
ATOM     33  C   UNL A   1      42.952  26.678  27.315  1.00  0.00     0.010 A 
ATOM     34  C   UNL A   1      41.905  24.867  28.492  1.00  0.00     0.010 A 
ATOM     35  C   UNL A   1      42.226  26.236  28.420  1.00  0.00    -0.014 A 
BRANCH  35  36
ATOM     36  C   UNL A   1      41.853  27.213  29.484  1.00  0.00     0.031 A 
ATOM     37  C   UNL A   1      42.679  27.320  30.738  1.00  0.00     0.074 A 
ATOM     38  C   UNL A   1      40.805  28.048  29.311  1.00  0.00     0.049 A 
ATOM     39  N   UNL A   1      42.406  27.938  31.861  1.00  0.00    -0.248 NA
ATOM     40  C   UNL A   1      43.977  26.627  30.741  1.00  0.00     0.031 C 
ATOM     41  C   UNL A   1      39.967  28.130  28.110  1.00  0.00     0.029 A 
ATOM     42  N   UNL A   1      40.270  29.005  30.140  1.00  0.00    -0.354 N 
ATOM     43  C   UNL A   1      43.456  27.645  32.722  1.00  0.00     0.074 A 
ATOM     44  C   UNL A   1      44.377  26.799  31.994  1.00  0.00     0.031 C 
ATOM     45  C   UNL A   1      39.075  29.118  28.254  1.00  0.00     0.029 A 
ATOM     46  C   UNL A   1      39.179  29.648  29.605  1.00  0.00     0.049 A 
ATOM     47  H   UNL A   1      40.633  29.210  31.032  1.00  0.00     0.167 HD
ATOM     48  C   UNL A   1      43.625  28.042  34.007  1.00  0.00     0.037 A 
ATOM     49  C   UNL A   1      38.312  30.519  30.155  1.00  0.00     0.037 A 
ATOM     50  C   UNL A   1      42.740  28.951  34.692  1.00  0.00     0.049 A 
ATOM     51  C   UNL A   1      38.486  30.892  31.599  1.00  0.00     0.074 A 
ATOM     52  C   UNL A   1      42.833  29.432  35.986  1.00  0.00     0.029 A 
ATOM     53  N   UNL A   1      41.612  29.531  34.129  1.00  0.00    -0.354 N 
ATOM     54  N   UNL A   1      39.434  30.545  32.435  1.00  0.00    -0.248 NA
ATOM     55  C   UNL A   1      37.453  31.756  32.184  1.00  0.00     0.031 C 
ATOM     56  C   UNL A   1      41.730  30.258  36.225  1.00  0.00     0.029 A 
ATOM     57  C   UNL A   1      40.985  30.343  35.061  1.00  0.00     0.049 A 
ATOM     58  H   UNL A   1      41.303  29.386  33.205  1.00  0.00     0.167 HD
ATOM     59  C   UNL A   1      39.127  31.166  33.636  1.00  0.00     0.074 A 
ATOM     60  C   UNL A   1      37.915  31.927  33.414  1.00  0.00     0.031 C 
ATOM     61  C   UNL A   1      39.787  31.106  34.818  1.00  0.00     0.037 A 
BRANCH  48  62
ATOM     62  C   UNL A   1      44.771  27.457  34.781  1.00  0.00     0.064 A 
ATOM     63  C   UNL A   1      46.018  28.089  34.879  1.00  0.00     0.173 A 
ATOM     64  C   UNL A   1      44.590  26.255  35.486  1.00  0.00     0.173 A 
ATOM     65  F   UNL A   1      46.250  29.232  34.219  1.00  0.00    -0.203 F 
ATOM     66  C   UNL A   1      47.049  27.528  35.634  1.00  0.00     0.198 A 
ATOM     67  C   UNL A   1      45.610  25.715  36.265  1.00  0.00     0.198 A 
ATOM     68  F   UNL A   1      43.414  25.609  35.434  1.00  0.00    -0.203 F 
ATOM     69  F   UNL A   1      48.246  28.127  35.678  1.00  0.00    -0.200 F 
ATOM     70  C   UNL A   1      46.840  26.348  36.333  1.00  0.00     0.200 A 
ATOM     71  F   UNL A   1      45.399  24.584  36.953  1.00  0.00    -0.200 F 
ATOM     72  F   UNL A   1      47.827  25.819  37.070  1.00  0.00    -0.200 F 
ENDBRANCH  48  62
BRANCH  49  73
ATOM     73  C   UNL A   1      37.163  31.038  29.362  1.00  0.00     0.064 A 
ATOM     74  C   UNL A   1      37.140  32.362  28.905  1.00  0.00     0.173 A 
ATOM     75  C   UNL A   1      36.055  30.228  29.062  1.00  0.00     0.173 A 
ATOM     76  F   UNL A   1      38.159  33.187  29.189  1.00  0.00    -0.203 F 
ATOM     77  C   UNL A   1      36.048  32.861  28.196  1.00  0.00     0.198 A 
ATOM     78  C   UNL A   1      34.983  30.716  28.318  1.00  0.00     0.198 A 
ATOM     79  F   UNL A   1      36.019  28.954  29.479  1.00  0.00    -0.203 F 
ATOM     80  F   UNL A   1      36.026  34.147  27.821  1.00  0.00    -0.200 F 
ATOM     81  C   UNL A   1      34.975  32.035  27.896  1.00  0.00     0.200 A 
ATOM     82  F   UNL A   1      33.958  29.907  28.016  1.00  0.00    -0.200 F 
ATOM     83  F   UNL A   1      33.928  32.513  27.210  1.00  0.00    -0.200 F 
ENDBRANCH  49  73
BRANCH  61  84
ATOM     84  C   UNL A   1      39.239  31.930  35.945  1.00  0.00     0.064 A 
ATOM     85  C   UNL A   1      38.275  31.426  36.830  1.00  0.00     0.173 A 
ATOM     86  C   UNL A   1      39.707  33.237  36.156  1.00  0.00     0.173 A 
ATOM     87  F   UNL A   1      37.783  30.190  36.659  1.00  0.00    -0.203 F 
ATOM     88  C   UNL A   1      37.776  32.210  37.866  1.00  0.00     0.198 A 
ATOM     89  C   UNL A   1      39.231  34.006  37.213  1.00  0.00     0.198 A 
ATOM     90  F   UNL A   1      40.632  33.764  35.341  1.00  0.00    -0.203 F 
ATOM     91  F   UNL A   1      36.814  31.729  38.664  1.00  0.00    -0.200 F 
ATOM     92  C   UNL A   1      38.260  33.495  38.061  1.00  0.00     0.200 A 
ATOM     93  F   UNL A   1      39.710  35.241  37.410  1.00  0.00    -0.200 F 
ATOM     94  F   UNL A   1      37.782  34.246  39.063  1.00  0.00    -0.200 F 
ENDBRANCH  61  84
ENDBRANCH  35  36
ENDBRANCH  28  30
ENDBRANCH  27  28
ENDBRANCH  26  27
ENDBRANCH   1  26
TORSDOF 16
ENDMDL
