MODEL 1
REMARK VINA RESULT:     -11.9      0.000      0.000
REMARK SMILES COc1ncccc1C(=O)N[C@@](C)(C(=O)OCCOC(=O)c1ccc(-c2c3nc(c(-c4c(F)c(F)c(F)c(F)c4F)c4ccc([nH]4)c(-c4c(F)c(F)c(F)c(F)c4F)c4nc(c(-c5c(F)c(F)c(F)c(F)c5F)c5ccc2[nH]5)C=C4)C=C3)cc1)C(F)(F)F
REMARK SMILES IDX 17 1 16 2 14 3 15 4 12 5 13 6 11 7 9 8 10 9 8 11 3 12 4 13
REMARK SMILES IDX 5 14 7 15 6 16 2 17 1 18 85 19 86 20 87 21 88 22 18 23 19 24
REMARK SMILES IDX 20 25 21 26 22 27 23 28 84 29 24 30 83 31 25 32 26 33 27 34
REMARK SMILES IDX 77 35 28 36 82 37 76 38 78 39 29 40 81 41 75 42 74 43 30 45
REMARK SMILES IDX 62 46 42 47 61 48 43 49 46 50 60 51 79 52 44 53 45 54 59 56
REMARK SMILES IDX 80 57 47 58 31 59 32 60 40 61 33 62 34 63 38 64 41 65 35 66
REMARK SMILES IDX 36 67 39 68 37 69 63 70 64 71 72 72 65 73 66 74 70 75 73 76
REMARK SMILES IDX 67 77 68 78 71 79 69 80 48 81 49 82 57 83 50 84 51 85 55 86
REMARK SMILES IDX 58 87 52 88 53 89 56 90 54 91
REMARK H PARENT 11 10 78 44 46 55
REMARK Flexibility Score: inf
ROOT
ATOM      1  C   UNL A   1      31.197  28.934  24.377  1.00  0.00     0.274 C 
ENDROOT
BRANCH   1   2
ATOM      2  O   UNL A   1      31.883  27.798  24.950  1.00  0.00    -0.460 OA
BRANCH   2   3
ATOM      3  C   UNL A   1      31.535  26.566  24.465  1.00  0.00     0.341 C 
ATOM      4  O   UNL A   1      30.461  26.325  23.931  1.00  0.00    -0.249 OA
BRANCH   3   5
ATOM      5  C   UNL A   1      32.571  25.503  24.855  1.00  0.00     0.231 C 
ATOM      6  C   UNL A   1      33.780  26.291  25.412  1.00  0.00     0.058 C 
BRANCH   5   7
ATOM      7  N   UNL A   1      33.103  24.808  23.616  1.00  0.00    -0.329 N 
ATOM      8  C   UNL A   1      33.876  23.831  23.062  1.00  0.00     0.257 C 
ATOM      9  O   UNL A   1      33.732  23.817  21.834  1.00  0.00    -0.269 OA
ATOM     10  H   UNL A   1      32.701  25.286  22.855  1.00  0.00     0.165 HD
BRANCH   8  11
ATOM     11  C   UNL A   1      34.822  22.855  23.681  1.00  0.00     0.101 A 
ATOM     12  C   UNL A   1      34.333  21.802  24.477  1.00  0.00     0.226 A 
ATOM     13  N   UNL A   1      35.107  20.900  25.145  1.00  0.00    -0.221 NA
ATOM     14  C   UNL A   1      36.436  20.995  25.002  1.00  0.00     0.115 A 
ATOM     15  C   UNL A   1      36.205  22.880  23.553  1.00  0.00     0.021 A 
ATOM     16  C   UNL A   1      37.025  21.954  24.210  1.00  0.00     0.021 A 
BRANCH  12  17
ATOM     17  O   UNL A   1      32.996  21.593  24.684  1.00  0.00    -0.480 OA
ATOM     18  C   UNL A   1      32.598  20.397  24.017  1.00  0.00     0.280 C 
ENDBRANCH  12  17
ENDBRANCH   8  11
ENDBRANCH   5   7
BRANCH   5  19
ATOM     19  C   UNL A   1      31.969  24.722  26.021  1.00  0.00     0.422 C 
ATOM     20  F   UNL A   1      32.897  24.036  26.725  1.00  0.00    -0.168 F 
ATOM     21  F   UNL A   1      31.338  25.559  26.883  1.00  0.00    -0.168 F 
ATOM     22  F   UNL A   1      31.036  23.826  25.625  1.00  0.00    -0.168 F 
ENDBRANCH   5  19
ENDBRANCH   3   5
ENDBRANCH   2   3
ENDBRANCH   1   2
BRANCH   1  23
ATOM     23  C   UNL A   1      31.442  30.175  25.225  1.00  0.00     0.275 C 
BRANCH  23  24
ATOM     24  O   UNL A   1      32.752  30.077  25.807  1.00  0.00    -0.458 OA
BRANCH  24  25
ATOM     25  C   UNL A   1      33.001  30.942  26.814  1.00  0.00     0.338 C 
ATOM     26  O   UNL A   1      32.275  31.828  27.235  1.00  0.00    -0.246 OA
BRANCH  25  27
ATOM     27  C   UNL A   1      34.336  30.669  27.367  1.00  0.00     0.060 A 
ATOM     28  C   UNL A   1      34.735  29.358  27.631  1.00  0.00     0.016 A 
ATOM     29  C   UNL A   1      35.155  31.739  27.724  1.00  0.00     0.016 A 
ATOM     30  C   UNL A   1      35.924  29.120  28.320  1.00  0.00     0.010 A 
ATOM     31  C   UNL A   1      36.378  31.492  28.353  1.00  0.00     0.010 A 
ATOM     32  C   UNL A   1      36.757  30.183  28.700  1.00  0.00    -0.014 A 
BRANCH  32  33
ATOM     33  C   UNL A   1      37.971  29.953  29.534  1.00  0.00     0.031 A 
ATOM     34  C   UNL A   1      39.116  29.148  28.975  1.00  0.00     0.074 A 
ATOM     35  C   UNL A   1      38.079  30.464  30.775  1.00  0.00     0.049 A 
ATOM     36  N   UNL A   1      40.151  28.635  29.593  1.00  0.00    -0.248 NA
ATOM     37  C   UNL A   1      39.087  28.874  27.530  1.00  0.00     0.031 C 
ATOM     38  C   UNL A   1      37.092  31.318  31.433  1.00  0.00     0.029 A 
ATOM     39  N   UNL A   1      39.085  30.343  31.704  1.00  0.00    -0.354 N 
ATOM     40  C   UNL A   1      40.843  27.906  28.634  1.00  0.00     0.074 A 
ATOM     41  C   UNL A   1      40.126  28.065  27.386  1.00  0.00     0.031 C 
ATOM     42  C   UNL A   1      37.564  31.690  32.635  1.00  0.00     0.029 A 
ATOM     43  C   UNL A   1      38.844  31.027  32.870  1.00  0.00     0.049 A 
ATOM     44  H   UNL A   1      39.902  29.816  31.548  1.00  0.00     0.167 HD
ATOM     45  C   UNL A   1      41.967  27.166  28.784  1.00  0.00     0.037 A 
ATOM     46  C   UNL A   1      39.552  31.086  34.014  1.00  0.00     0.037 A 
ATOM     47  C   UNL A   1      42.730  27.077  30.002  1.00  0.00     0.049 A 
ATOM     48  C   UNL A   1      40.802  30.263  34.158  1.00  0.00     0.074 A 
ATOM     49  C   UNL A   1      43.886  26.355  30.248  1.00  0.00     0.029 A 
ATOM     50  N   UNL A   1      42.431  27.762  31.168  1.00  0.00    -0.354 N 
ATOM     51  N   UNL A   1      41.385  29.484  33.281  1.00  0.00    -0.248 NA
ATOM     52  C   UNL A   1      41.470  30.301  35.467  1.00  0.00     0.031 C 
ATOM     53  C   UNL A   1      44.280  26.594  31.571  1.00  0.00     0.029 A 
ATOM     54  C   UNL A   1      43.384  27.486  32.136  1.00  0.00     0.049 A 
ATOM     55  H   UNL A   1      41.656  28.356  31.292  1.00  0.00     0.167 HD
ATOM     56  C   UNL A   1      42.487  28.942  33.928  1.00  0.00     0.074 A 
ATOM     57  C   UNL A   1      42.506  29.499  35.265  1.00  0.00     0.031 C 
ATOM     58  C   UNL A   1      43.394  28.051  33.459  1.00  0.00     0.037 A 
BRANCH  45  59
ATOM     59  C   UNL A   1      42.424  26.357  27.606  1.00  0.00     0.064 A 
ATOM     60  C   UNL A   1      43.403  26.824  26.719  1.00  0.00     0.173 A 
ATOM     61  C   UNL A   1      41.893  25.076  27.387  1.00  0.00     0.173 A 
ATOM     62  F   UNL A   1      43.933  28.045  26.882  1.00  0.00    -0.203 F 
ATOM     63  C   UNL A   1      43.818  26.047  25.640  1.00  0.00     0.198 A 
ATOM     64  C   UNL A   1      42.327  24.292  26.323  1.00  0.00     0.198 A 
ATOM     65  F   UNL A   1      40.960  24.581  28.214  1.00  0.00    -0.203 F 
ATOM     66  F   UNL A   1      44.729  26.526  24.781  1.00  0.00    -0.200 F 
ATOM     67  C   UNL A   1      43.284  24.780  25.447  1.00  0.00     0.200 A 
ATOM     68  F   UNL A   1      41.821  23.063  26.147  1.00  0.00    -0.200 F 
ATOM     69  F   UNL A   1      43.691  24.030  24.413  1.00  0.00    -0.200 F 
ENDBRANCH  45  59
BRANCH  46  70
ATOM     70  C   UNL A   1      39.081  31.944  35.131  1.00  0.00     0.064 A 
ATOM     71  C   UNL A   1      38.377  31.389  36.207  1.00  0.00     0.173 A 
ATOM     72  C   UNL A   1      39.328  33.324  35.151  1.00  0.00     0.173 A 
ATOM     73  F   UNL A   1      38.093  30.079  36.217  1.00  0.00    -0.203 F 
ATOM     74  C   UNL A   1      37.936  32.184  37.263  1.00  0.00     0.198 A 
ATOM     75  C   UNL A   1      38.909  34.113  36.219  1.00  0.00     0.198 A 
ATOM     76  F   UNL A   1      39.993  33.902  34.140  1.00  0.00    -0.203 F 
ATOM     77  F   UNL A   1      37.237  31.634  38.266  1.00  0.00    -0.200 F 
ATOM     78  C   UNL A   1      38.210  33.543  37.273  1.00  0.00     0.200 A 
ATOM     79  F   UNL A   1      39.186  35.424  36.230  1.00  0.00    -0.200 F 
ATOM     80  F   UNL A   1      37.795  34.305  38.293  1.00  0.00    -0.200 F 
ENDBRANCH  46  70
BRANCH  58  81
ATOM     81  C   UNL A   1      44.493  27.641  34.391  1.00  0.00     0.064 A 
ATOM     82  C   UNL A   1      45.689  28.368  34.473  1.00  0.00     0.173 A 
ATOM     83  C   UNL A   1      44.338  26.527  35.229  1.00  0.00     0.173 A 
ATOM     84  F   UNL A   1      45.889  29.430  33.678  1.00  0.00    -0.203 F 
ATOM     85  C   UNL A   1      46.702  27.981  35.347  1.00  0.00     0.198 A 
ATOM     86  C   UNL A   1      45.345  26.155  36.116  1.00  0.00     0.198 A 
ATOM     87  F   UNL A   1      43.210  25.802  35.187  1.00  0.00    -0.203 F 
ATOM     88  F   UNL A   1      47.853  28.666  35.382  1.00  0.00    -0.200 F 
ATOM     89  C   UNL A   1      46.527  26.878  36.171  1.00  0.00     0.200 A 
ATOM     90  F   UNL A   1      45.173  25.092  36.914  1.00  0.00    -0.200 F 
ATOM     91  F   UNL A   1      47.502  26.507  37.010  1.00  0.00    -0.200 F 
ENDBRANCH  58  81
ENDBRANCH  32  33
ENDBRANCH  25  27
ENDBRANCH  24  25
ENDBRANCH  23  24
ENDBRANCH   1  23
TORSDOF 15
ENDMDL
MODEL 2
REMARK VINA RESULT:     -11.8      0.280      1.664
REMARK SMILES COc1ncccc1C(=O)N[C@@](C)(C(=O)OCCOC(=O)c1ccc(-c2c3nc(c(-c4c(F)c(F)c(F)c(F)c4F)c4ccc([nH]4)c(-c4c(F)c(F)c(F)c(F)c4F)c4nc(c(-c5c(F)c(F)c(F)c(F)c5F)c5ccc2[nH]5)C=C4)C=C3)cc1)C(F)(F)F
REMARK SMILES IDX 17 1 16 2 14 3 15 4 12 5 13 6 11 7 9 8 10 9 8 11 3 12 4 13
REMARK SMILES IDX 5 14 7 15 6 16 2 17 1 18 85 19 86 20 87 21 88 22 18 23 19 24
REMARK SMILES IDX 20 25 21 26 22 27 23 28 84 29 24 30 83 31 25 32 26 33 27 34
REMARK SMILES IDX 77 35 28 36 82 37 76 38 78 39 29 40 81 41 75 42 74 43 30 45
REMARK SMILES IDX 62 46 42 47 61 48 43 49 46 50 60 51 79 52 44 53 45 54 59 56
REMARK SMILES IDX 80 57 47 58 31 59 32 60 40 61 33 62 34 63 38 64 41 65 35 66
REMARK SMILES IDX 36 67 39 68 37 69 63 70 64 71 72 72 65 73 66 74 70 75 73 76
REMARK SMILES IDX 67 77 68 78 71 79 69 80 48 81 49 82 57 83 50 84 51 85 55 86
REMARK SMILES IDX 58 87 52 88 53 89 56 90 54 91
REMARK H PARENT 11 10 78 44 46 55
REMARK Flexibility Score: inf
ROOT
ATOM      1  C   UNL A   1      31.410  28.928  24.406  1.00  0.00     0.274 C 
ENDROOT
BRANCH   1   2
ATOM      2  O   UNL A   1      31.554  27.633  25.032  1.00  0.00    -0.460 OA
BRANCH   2   3
ATOM      3  C   UNL A   1      31.298  26.543  24.244  1.00  0.00     0.341 C 
ATOM      4  O   UNL A   1      30.395  26.497  23.419  1.00  0.00    -0.249 OA
BRANCH   3   5
ATOM      5  C   UNL A   1      32.151  25.339  24.669  1.00  0.00     0.231 C 
ATOM      6  C   UNL A   1      33.313  25.931  25.500  1.00  0.00     0.058 C 
BRANCH   5   7
ATOM      7  N   UNL A   1      32.821  24.716  23.459  1.00  0.00    -0.329 N 
ATOM      8  C   UNL A   1      33.703  23.814  22.944  1.00  0.00     0.257 C 
ATOM      9  O   UNL A   1      33.650  23.820  21.709  1.00  0.00    -0.269 OA
ATOM     10  H   UNL A   1      32.439  25.182  22.680  1.00  0.00     0.165 HD
BRANCH   8  11
ATOM     11  C   UNL A   1      34.675  22.897  23.612  1.00  0.00     0.101 A 
ATOM     12  C   UNL A   1      34.212  21.844  24.424  1.00  0.00     0.226 A 
ATOM     13  N   UNL A   1      35.006  20.994  25.135  1.00  0.00    -0.221 NA
ATOM     14  C   UNL A   1      36.333  21.143  25.021  1.00  0.00     0.115 A 
ATOM     15  C   UNL A   1      36.058  22.979  23.517  1.00  0.00     0.021 A 
ATOM     16  C   UNL A   1      36.901  22.107  24.219  1.00  0.00     0.021 A 
BRANCH  12  17
ATOM     17  O   UNL A   1      32.880  21.583  24.603  1.00  0.00    -0.480 OA
ATOM     18  C   UNL A   1      32.546  20.364  23.941  1.00  0.00     0.280 C 
ENDBRANCH  12  17
ENDBRANCH   8  11
ENDBRANCH   5   7
BRANCH   5  19
ATOM     19  C   UNL A   1      31.288  24.518  25.624  1.00  0.00     0.422 C 
ATOM     20  F   UNL A   1      30.652  23.497  25.007  1.00  0.00    -0.168 F 
ATOM     21  F   UNL A   1      32.045  23.987  26.617  1.00  0.00    -0.168 F 
ATOM     22  F   UNL A   1      30.336  25.257  26.239  1.00  0.00    -0.168 F 
ENDBRANCH   5  19
ENDBRANCH   3   5
ENDBRANCH   2   3
ENDBRANCH   1   2
BRANCH   1  23
ATOM     23  C   UNL A   1      31.528  30.030  25.451  1.00  0.00     0.275 C 
BRANCH  23  24
ATOM     24  O   UNL A   1      32.899  30.111  25.873  1.00  0.00    -0.458 OA
BRANCH  24  25
ATOM     25  C   UNL A   1      33.148  31.002  26.857  1.00  0.00     0.338 C 
ATOM     26  O   UNL A   1      32.423  31.903  27.250  1.00  0.00    -0.246 OA
BRANCH  25  27
ATOM     27  C   UNL A   1      34.479  30.739  27.423  1.00  0.00     0.060 A 
ATOM     28  C   UNL A   1      34.930  29.430  27.584  1.00  0.00     0.016 A 
ATOM     29  C   UNL A   1      35.239  31.809  27.896  1.00  0.00     0.016 A 
ATOM     30  C   UNL A   1      36.111  29.183  28.284  1.00  0.00     0.010 A 
ATOM     31  C   UNL A   1      36.455  31.560  28.536  1.00  0.00     0.010 A 
ATOM     32  C   UNL A   1      36.884  30.243  28.779  1.00  0.00    -0.014 A 
BRANCH  32  33
ATOM     33  C   UNL A   1      38.086  29.993  29.625  1.00  0.00     0.031 A 
ATOM     34  C   UNL A   1      39.233  29.187  29.070  1.00  0.00     0.074 A 
ATOM     35  C   UNL A   1      38.183  30.488  30.874  1.00  0.00     0.049 A 
ATOM     36  N   UNL A   1      40.255  28.658  29.695  1.00  0.00    -0.248 NA
ATOM     37  C   UNL A   1      39.220  28.931  27.622  1.00  0.00     0.031 C 
ATOM     38  C   UNL A   1      37.194  31.342  31.530  1.00  0.00     0.029 A 
ATOM     39  N   UNL A   1      39.176  30.348  31.814  1.00  0.00    -0.354 N 
ATOM     40  C   UNL A   1      40.953  27.936  28.736  1.00  0.00     0.074 A 
ATOM     41  C   UNL A   1      40.254  28.116  27.481  1.00  0.00     0.031 C 
ATOM     42  C   UNL A   1      37.654  31.695  32.742  1.00  0.00     0.029 A 
ATOM     43  C   UNL A   1      38.925  31.019  32.985  1.00  0.00     0.049 A 
ATOM     44  H   UNL A   1      39.991  29.817  31.661  1.00  0.00     0.167 HD
ATOM     45  C   UNL A   1      42.071  27.185  28.890  1.00  0.00     0.037 A 
ATOM     46  C   UNL A   1      39.619  31.058  34.139  1.00  0.00     0.037 A 
ATOM     47  C   UNL A   1      42.817  27.075  30.116  1.00  0.00     0.049 A 
ATOM     48  C   UNL A   1      40.861  30.224  34.288  1.00  0.00     0.074 A 
ATOM     49  C   UNL A   1      43.964  26.341  30.368  1.00  0.00     0.029 A 
ATOM     50  N   UNL A   1      42.509  27.748  31.288  1.00  0.00    -0.354 N 
ATOM     51  N   UNL A   1      41.450  29.452  33.408  1.00  0.00    -0.248 NA
ATOM     52  C   UNL A   1      41.513  30.241  35.605  1.00  0.00     0.031 C 
ATOM     53  C   UNL A   1      44.343  26.560  31.698  1.00  0.00     0.029 A 
ATOM     54  C   UNL A   1      43.448  27.453  32.263  1.00  0.00     0.049 A 
ATOM     55  H   UNL A   1      41.737  28.346  31.410  1.00  0.00     0.167 HD
ATOM     56  C   UNL A   1      42.539  28.893  34.062  1.00  0.00     0.074 A 
ATOM     57  C   UNL A   1      42.546  29.433  35.406  1.00  0.00     0.031 C 
ATOM     58  C   UNL A   1      43.445  28.001  33.594  1.00  0.00     0.037 A 
BRANCH  45  59
ATOM     59  C   UNL A   1      42.536  26.388  27.708  1.00  0.00     0.064 A 
ATOM     60  C   UNL A   1      43.509  26.870  26.823  1.00  0.00     0.173 A 
ATOM     61  C   UNL A   1      42.019  25.102  27.483  1.00  0.00     0.173 A 
ATOM     62  F   UNL A   1      44.025  28.096  26.991  1.00  0.00    -0.203 F 
ATOM     63  C   UNL A   1      43.932  26.103  25.739  1.00  0.00     0.198 A 
ATOM     64  C   UNL A   1      42.462  24.328  26.415  1.00  0.00     0.198 A 
ATOM     65  F   UNL A   1      41.093  24.592  28.309  1.00  0.00    -0.203 F 
ATOM     66  F   UNL A   1      44.836  26.597  24.883  1.00  0.00    -0.200 F 
ATOM     67  C   UNL A   1      43.413  24.831  25.541  1.00  0.00     0.200 A 
ATOM     68  F   UNL A   1      41.970  23.094  26.233  1.00  0.00    -0.200 F 
ATOM     69  F   UNL A   1      43.827  24.091  24.503  1.00  0.00    -0.200 F 
ENDBRANCH  45  59
BRANCH  46  70
ATOM     70  C   UNL A   1      39.141  31.907  35.260  1.00  0.00     0.064 A 
ATOM     71  C   UNL A   1      39.453  33.271  35.303  1.00  0.00     0.173 A 
ATOM     72  C   UNL A   1      38.361  31.379  36.299  1.00  0.00     0.173 A 
ATOM     73  F   UNL A   1      40.220  33.813  34.346  1.00  0.00    -0.203 F 
ATOM     74  C   UNL A   1      39.005  34.078  36.347  1.00  0.00     0.198 A 
ATOM     75  C   UNL A   1      37.892  32.192  37.328  1.00  0.00     0.198 A 
ATOM     76  F   UNL A   1      38.041  30.077  36.304  1.00  0.00    -0.203 F 
ATOM     77  F   UNL A   1      39.344  35.374  36.382  1.00  0.00    -0.200 F 
ATOM     78  C   UNL A   1      38.218  33.540  37.354  1.00  0.00     0.200 A 
ATOM     79  F   UNL A   1      37.122  31.670  38.293  1.00  0.00    -0.200 F 
ATOM     80  F   UNL A   1      37.777  34.318  38.351  1.00  0.00    -0.200 F 
ENDBRANCH  46  70
BRANCH  58  81
ATOM     81  C   UNL A   1      44.529  27.571  34.534  1.00  0.00     0.064 A 
ATOM     82  C   UNL A   1      44.382  26.441  35.350  1.00  0.00     0.173 A 
ATOM     83  C   UNL A   1      45.737  28.282  34.600  1.00  0.00     0.173 A 
ATOM     84  F   UNL A   1      43.238  25.740  35.333  1.00  0.00    -0.203 F 
ATOM     85  C   UNL A   1      45.400  26.047  36.215  1.00  0.00     0.198 A 
ATOM     86  C   UNL A   1      46.760  27.873  35.453  1.00  0.00     0.198 A 
ATOM     87  F   UNL A   1      45.924  29.369  33.838  1.00  0.00    -0.203 F 
ATOM     88  F   UNL A   1      45.225  24.986  37.015  1.00  0.00    -0.200 F 
ATOM     89  C   UNL A   1      46.589  26.761  36.263  1.00  0.00     0.200 A 
ATOM     90  F   UNL A   1      47.909  28.562  35.495  1.00  0.00    -0.200 F 
ATOM     91  F   UNL A   1      47.566  26.382  37.097  1.00  0.00    -0.200 F 
ENDBRANCH  58  81
ENDBRANCH  32  33
ENDBRANCH  25  27
ENDBRANCH  24  25
ENDBRANCH  23  24
ENDBRANCH   1  23
TORSDOF 15
ENDMDL
MODEL 3
REMARK VINA RESULT:     -11.7      0.636      1.945
REMARK SMILES COc1ncccc1C(=O)N[C@@](C)(C(=O)OCCOC(=O)c1ccc(-c2c3nc(c(-c4c(F)c(F)c(F)c(F)c4F)c4ccc([nH]4)c(-c4c(F)c(F)c(F)c(F)c4F)c4nc(c(-c5c(F)c(F)c(F)c(F)c5F)c5ccc2[nH]5)C=C4)C=C3)cc1)C(F)(F)F
REMARK SMILES IDX 17 1 16 2 14 3 15 4 12 5 13 6 11 7 9 8 10 9 8 11 3 12 4 13
REMARK SMILES IDX 5 14 7 15 6 16 2 17 1 18 85 19 86 20 87 21 88 22 18 23 19 24
REMARK SMILES IDX 20 25 21 26 22 27 23 28 84 29 24 30 83 31 25 32 26 33 27 34
REMARK SMILES IDX 77 35 28 36 82 37 76 38 78 39 29 40 81 41 75 42 74 43 30 45
REMARK SMILES IDX 62 46 42 47 61 48 43 49 46 50 60 51 79 52 44 53 45 54 59 56
REMARK SMILES IDX 80 57 47 58 31 59 32 60 40 61 33 62 34 63 38 64 41 65 35 66
REMARK SMILES IDX 36 67 39 68 37 69 63 70 64 71 72 72 65 73 66 74 70 75 73 76
REMARK SMILES IDX 67 77 68 78 71 79 69 80 48 81 49 82 57 83 50 84 51 85 55 86
REMARK SMILES IDX 58 87 52 88 53 89 56 90 54 91
REMARK H PARENT 11 10 78 44 46 55
REMARK Flexibility Score: inf
ROOT
ATOM      1  C   UNL A   1      31.308  29.348  24.476  1.00  0.00     0.274 C 
ENDROOT
BRANCH   1   2
ATOM      2  O   UNL A   1      32.195  28.237  24.215  1.00  0.00    -0.460 OA
BRANCH   2   3
ATOM      3  C   UNL A   1      31.605  27.015  24.030  1.00  0.00     0.341 C 
ATOM      4  O   UNL A   1      30.503  26.863  23.520  1.00  0.00    -0.249 OA
BRANCH   3   5
ATOM      5  C   UNL A   1      32.407  25.902  24.718  1.00  0.00     0.231 C 
ATOM      6  C   UNL A   1      33.598  26.614  25.400  1.00  0.00     0.058 C 
BRANCH   5   7
ATOM      7  N   UNL A   1      33.042  24.994  23.682  1.00  0.00    -0.329 N 
ATOM      8  C   UNL A   1      33.374  23.737  23.273  1.00  0.00     0.257 C 
ATOM      9  O   UNL A   1      33.863  23.772  22.138  1.00  0.00    -0.269 OA
ATOM     10  H   UNL A   1      33.365  25.594  22.972  1.00  0.00     0.165 HD
BRANCH   8  11
ATOM     11  C   UNL A   1      33.260  22.416  23.961  1.00  0.00     0.101 A 
ATOM     12  C   UNL A   1      33.953  22.181  25.164  1.00  0.00     0.226 A 
ATOM     13  N   UNL A   1      33.976  20.996  25.837  1.00  0.00    -0.221 NA
ATOM     14  C   UNL A   1      33.251  19.985  25.339  1.00  0.00     0.115 A 
ATOM     15  C   UNL A   1      32.508  21.337  23.514  1.00  0.00     0.021 A 
ATOM     16  C   UNL A   1      32.495  20.112  24.196  1.00  0.00     0.021 A 
BRANCH  12  17
ATOM     17  O   UNL A   1      34.712  23.141  25.776  1.00  0.00    -0.480 OA
ATOM     18  C   UNL A   1      36.082  22.744  25.752  1.00  0.00     0.280 C 
ENDBRANCH  12  17
ENDBRANCH   8  11
ENDBRANCH   5   7
BRANCH   5  19
ATOM     19  C   UNL A   1      31.515  25.355  25.830  1.00  0.00     0.422 C 
ATOM     20  F   UNL A   1      30.631  24.434  25.386  1.00  0.00    -0.168 F 
ATOM     21  F   UNL A   1      32.262  24.770  26.800  1.00  0.00    -0.168 F 
ATOM     22  F   UNL A   1      30.796  26.321  26.449  1.00  0.00    -0.168 F 
ENDBRANCH   5  19
ENDBRANCH   3   5
ENDBRANCH   2   3
ENDBRANCH   1   2
BRANCH   1  23
ATOM     23  C   UNL A   1      31.571  29.910  25.868  1.00  0.00     0.275 C 
BRANCH  23  24
ATOM     24  O   UNL A   1      32.956  30.282  25.954  1.00  0.00    -0.458 OA
BRANCH  24  25
ATOM     25  C   UNL A   1      33.247  31.208  26.893  1.00  0.00     0.338 C 
ATOM     26  O   UNL A   1      32.559  32.152  27.249  1.00  0.00    -0.246 OA
BRANCH  25  27
ATOM     27  C   UNL A   1      34.573  30.924  27.459  1.00  0.00     0.060 A 
ATOM     28  C   UNL A   1      35.003  29.607  27.620  1.00  0.00     0.016 A 
ATOM     29  C   UNL A   1      35.351  31.981  27.930  1.00  0.00     0.016 A 
ATOM     30  C   UNL A   1      36.180  29.342  28.320  1.00  0.00     0.010 A 
ATOM     31  C   UNL A   1      36.563  31.713  28.571  1.00  0.00     0.010 A 
ATOM     32  C   UNL A   1      36.971  30.389  28.815  1.00  0.00    -0.014 A 
BRANCH  32  33
ATOM     33  C   UNL A   1      38.168  30.121  29.661  1.00  0.00     0.031 A 
ATOM     34  C   UNL A   1      39.304  29.300  29.104  1.00  0.00     0.074 A 
ATOM     35  C   UNL A   1      38.271  30.611  30.911  1.00  0.00     0.049 A 
ATOM     36  N   UNL A   1      40.318  28.755  29.728  1.00  0.00    -0.248 NA
ATOM     37  C   UNL A   1      39.288  29.048  27.655  1.00  0.00     0.031 C 
ATOM     38  C   UNL A   1      37.294  31.476  31.569  1.00  0.00     0.029 A 
ATOM     39  N   UNL A   1      39.262  30.454  31.851  1.00  0.00    -0.354 N 
ATOM     40  C   UNL A   1      41.007  28.026  28.767  1.00  0.00     0.074 A 
ATOM     41  C   UNL A   1      40.311  28.218  27.512  1.00  0.00     0.031 C 
ATOM     42  C   UNL A   1      37.758  31.820  32.782  1.00  0.00     0.029 A 
ATOM     43  C   UNL A   1      39.020  31.126  33.023  1.00  0.00     0.049 A 
ATOM     44  H   UNL A   1      40.069  29.911  31.697  1.00  0.00     0.167 HD
ATOM     45  C   UNL A   1      42.113  27.258  28.920  1.00  0.00     0.037 A 
ATOM     46  C   UNL A   1      39.714  31.152  34.178  1.00  0.00     0.037 A 
ATOM     47  C   UNL A   1      42.858  27.135  30.146  1.00  0.00     0.049 A 
ATOM     48  C   UNL A   1      40.943  30.300  34.326  1.00  0.00     0.074 A 
ATOM     49  C   UNL A   1      43.994  26.384  30.397  1.00  0.00     0.029 A 
ATOM     50  N   UNL A   1      42.558  27.808  31.320  1.00  0.00    -0.354 N 
ATOM     51  N   UNL A   1      41.522  29.522  33.444  1.00  0.00    -0.248 NA
ATOM     52  C   UNL A   1      41.595  30.304  35.643  1.00  0.00     0.031 C 
ATOM     53  C   UNL A   1      44.375  26.594  31.728  1.00  0.00     0.029 A 
ATOM     54  C   UNL A   1      43.492  27.498  32.295  1.00  0.00     0.049 A 
ATOM     55  H   UNL A   1      41.794  28.418  31.442  1.00  0.00     0.167 HD
ATOM     56  C   UNL A   1      42.603  28.946  34.097  1.00  0.00     0.074 A 
ATOM     57  C   UNL A   1      42.616  29.482  35.442  1.00  0.00     0.031 C 
ATOM     58  C   UNL A   1      43.496  28.042  33.627  1.00  0.00     0.037 A 
BRANCH  45  59
ATOM     59  C   UNL A   1      42.568  26.458  27.736  1.00  0.00     0.064 A 
ATOM     60  C   UNL A   1      42.036  25.194  27.446  1.00  0.00     0.173 A 
ATOM     61  C   UNL A   1      43.529  26.986  26.860  1.00  0.00     0.173 A 
ATOM     62  F   UNL A   1      41.122  24.644  28.258  1.00  0.00    -0.203 F 
ATOM     63  C   UNL A   1      42.468  24.477  26.332  1.00  0.00     0.198 A 
ATOM     64  C   UNL A   1      43.940  26.278  25.735  1.00  0.00     0.198 A 
ATOM     65  F   UNL A   1      44.061  28.196  27.090  1.00  0.00    -0.203 F 
ATOM     66  F   UNL A   1      41.974  23.254  26.092  1.00  0.00    -0.200 F 
ATOM     67  C   UNL A   1      43.414  25.022  25.475  1.00  0.00     0.200 A 
ATOM     68  F   UNL A   1      44.843  26.812  24.901  1.00  0.00    -0.200 F 
ATOM     69  F   UNL A   1      43.822  24.334  24.400  1.00  0.00    -0.200 F 
ENDBRANCH  45  59
BRANCH  46  70
ATOM     70  C   UNL A   1      39.247  32.004  35.301  1.00  0.00     0.064 A 
ATOM     71  C   UNL A   1      39.589  33.360  35.356  1.00  0.00     0.173 A 
ATOM     72  C   UNL A   1      38.448  31.488  36.332  1.00  0.00     0.173 A 
ATOM     73  F   UNL A   1      40.376  33.891  34.407  1.00  0.00    -0.203 F 
ATOM     74  C   UNL A   1      39.153  34.171  36.401  1.00  0.00     0.198 A 
ATOM     75  C   UNL A   1      37.990  32.304  37.362  1.00  0.00     0.198 A 
ATOM     76  F   UNL A   1      38.098  30.193  36.325  1.00  0.00    -0.203 F 
ATOM     77  F   UNL A   1      39.521  35.458  36.447  1.00  0.00    -0.200 F 
ATOM     78  C   UNL A   1      38.345  33.644  37.399  1.00  0.00     0.200 A 
ATOM     79  F   UNL A   1      37.201  31.794  38.318  1.00  0.00    -0.200 F 
ATOM     80  F   UNL A   1      37.916  34.426  38.398  1.00  0.00    -0.200 F 
ENDBRANCH  46  70
BRANCH  58  81
ATOM     81  C   UNL A   1      44.574  27.595  34.567  1.00  0.00     0.064 A 
ATOM     82  C   UNL A   1      45.760  28.326  34.717  1.00  0.00     0.173 A 
ATOM     83  C   UNL A   1      44.407  26.438  35.342  1.00  0.00     0.173 A 
ATOM     84  F   UNL A   1      45.971  29.429  33.983  1.00  0.00    -0.203 F 
ATOM     85  C   UNL A   1      46.753  27.904  35.599  1.00  0.00     0.198 A 
ATOM     86  C   UNL A   1      45.393  26.030  36.237  1.00  0.00     0.198 A 
ATOM     87  F   UNL A   1      43.287  25.707  35.233  1.00  0.00    -0.203 F 
ATOM     88  F   UNL A   1      47.896  28.595  35.700  1.00  0.00    -0.200 F 
ATOM     89  C   UNL A   1      46.566  26.759  36.360  1.00  0.00     0.200 A 
ATOM     90  F   UNL A   1      45.210  24.926  36.975  1.00  0.00    -0.200 F 
ATOM     91  F   UNL A   1      47.522  26.353  37.207  1.00  0.00    -0.200 F 
ENDBRANCH  58  81
ENDBRANCH  32  33
ENDBRANCH  25  27
ENDBRANCH  24  25
ENDBRANCH  23  24
ENDBRANCH   1  23
TORSDOF 15
ENDMDL
