MODEL 1
REMARK VINA RESULT:     -11.9      0.000      0.000
REMARK SMILES CSCC[C@H](NC(=O)N[C@@H]1CCCCC1(C)C)C(=O)OCCOC(=O)c1ccc(-c2c3nc(c(-c4c(F)c(F)c(F)c(F)c4F)c4ccc([nH]4)c(-c4c(F)c(F)c(F)c(F)c4F)c4nc(c(-c5c(F)c(F)c(F)c(F)c5F)c5ccc2[nH]5)C=C4)C=C3)cc1
REMARK SMILES IDX 21 1 20 2 18 3 19 4 5 5 4 6 3 7 2 8 1 9 6 10 7 11 8 13 9 14
REMARK SMILES IDX 10 16 11 17 15 18 12 19 14 20 16 21 17 22 13 23 22 24 23 25
REMARK SMILES IDX 24 26 25 27 26 28 27 29 88 30 28 31 87 32 29 33 30 34 31 35
REMARK SMILES IDX 81 36 32 37 86 38 80 39 82 40 33 41 85 42 79 43 78 44 34 46
REMARK SMILES IDX 66 47 46 48 65 49 47 50 50 51 64 52 83 53 48 54 49 55 63 57
REMARK SMILES IDX 84 58 51 59 35 60 36 61 44 62 37 63 38 64 42 65 45 66 39 67
REMARK SMILES IDX 40 68 43 69 41 70 67 71 68 72 76 73 69 74 70 75 74 76 77 77
REMARK SMILES IDX 71 78 72 79 75 80 73 81 52 82 53 83 61 84 54 85 55 86 59 87
REMARK SMILES IDX 62 88 56 89 57 90 60 91 58 92
REMARK H PARENT 6 12 9 15 82 45 50 56
REMARK Flexibility Score: inf
ROOT
ATOM      1  C   UNL A   1      32.116  28.133  26.379  1.00  0.00     0.274 C 
ENDROOT
BRANCH   1   2
ATOM      2  O   UNL A   1      31.570  27.567  25.166  1.00  0.00    -0.461 OA
BRANCH   2   3
ATOM      3  C   UNL A   1      32.318  27.789  24.048  1.00  0.00     0.328 C 
ATOM      4  O   UNL A   1      33.540  27.888  24.066  1.00  0.00    -0.250 OA
BRANCH   3   5
ATOM      5  C   UNL A   1      31.501  27.660  22.742  1.00  0.00     0.194 C 
BRANCH   5   6
ATOM      6  C   UNL A   1      30.013  27.374  22.987  1.00  0.00     0.048 C 
BRANCH   6   7
ATOM      7  C   UNL A   1      29.002  28.523  22.997  1.00  0.00     0.072 C 
BRANCH   7   8
ATOM      8  S   UNL A   1      29.654  29.939  22.041  1.00  0.00    -0.165 SA
ATOM      9  C   UNL A   1      28.115  30.509  21.282  1.00  0.00     0.085 C 
ENDBRANCH   7   8
ENDBRANCH   6   7
ENDBRANCH   5   6
BRANCH   5  10
ATOM     10  N   UNL A   1      32.165  26.952  21.618  1.00  0.00    -0.325 N 
ATOM     11  C   UNL A   1      32.777  25.815  21.293  1.00  0.00     0.315 C 
ATOM     12  H   UNL A   1      32.145  27.536  20.826  1.00  0.00     0.166 HD
ATOM     13  O   UNL A   1      33.087  25.682  20.105  1.00  0.00    -0.249 OA
ATOM     14  N   UNL A   1      33.088  24.808  22.111  1.00  0.00    -0.335 N 
ATOM     15  H   UNL A   1      33.413  24.010  21.634  1.00  0.00     0.165 HD
BRANCH  14  16
ATOM     16  C   UNL A   1      33.050  24.632  23.554  1.00  0.00     0.089 C 
ATOM     17  C   UNL A   1      34.482  24.386  24.066  1.00  0.00     0.025 C 
ATOM     18  C   UNL A   1      32.062  23.545  24.076  1.00  0.00    -0.015 C 
ATOM     19  C   UNL A   1      34.976  22.989  23.710  1.00  0.00     0.002 C 
ATOM     20  C   UNL A   1      32.594  22.132  23.769  1.00  0.00     0.008 C 
ATOM     21  C   UNL A   1      31.885  23.729  25.609  1.00  0.00     0.013 C 
ATOM     22  C   UNL A   1      30.660  23.725  23.457  1.00  0.00     0.013 C 
ATOM     23  C   UNL A   1      34.036  21.911  24.232  1.00  0.00     0.001 C 
ENDBRANCH  14  16
ENDBRANCH   5  10
ENDBRANCH   3   5
ENDBRANCH   2   3
ENDBRANCH   1   2
BRANCH   1  24
ATOM     24  C   UNL A   1      31.834  29.636  26.505  1.00  0.00     0.275 C 
BRANCH  24  25
ATOM     25  O   UNL A   1      32.981  30.445  26.164  1.00  0.00    -0.458 OA
BRANCH  25  26
ATOM     26  C   UNL A   1      33.290  31.419  27.046  1.00  0.00     0.338 C 
ATOM     27  O   UNL A   1      32.548  32.301  27.467  1.00  0.00    -0.246 OA
BRANCH  26  28
ATOM     28  C   UNL A   1      34.625  31.198  27.622  1.00  0.00     0.060 A 
ATOM     29  C   UNL A   1      34.922  29.896  28.005  1.00  0.00     0.016 A 
ATOM     30  C   UNL A   1      35.505  32.225  27.951  1.00  0.00     0.016 A 
ATOM     31  C   UNL A   1      36.080  29.586  28.699  1.00  0.00     0.010 A 
ATOM     32  C   UNL A   1      36.690  31.917  28.646  1.00  0.00     0.010 A 
ATOM     33  C   UNL A   1      36.981  30.594  29.027  1.00  0.00    -0.014 A 
BRANCH  33  34
ATOM     34  C   UNL A   1      38.143  30.231  29.870  1.00  0.00     0.031 A 
ATOM     35  C   UNL A   1      39.227  29.372  29.290  1.00  0.00     0.074 A 
ATOM     36  C   UNL A   1      38.307  30.782  31.088  1.00  0.00     0.049 A 
ATOM     37  N   UNL A   1      40.270  28.845  29.876  1.00  0.00    -0.248 NA
ATOM     38  C   UNL A   1      39.134  29.090  27.849  1.00  0.00     0.031 C 
ATOM     39  C   UNL A   1      37.416  31.767  31.698  1.00  0.00     0.029 A 
ATOM     40  N   UNL A   1      39.298  30.602  32.021  1.00  0.00    -0.354 N 
ATOM     41  C   UNL A   1      40.934  28.132  28.888  1.00  0.00     0.074 A 
ATOM     42  C   UNL A   1      40.191  28.313  27.659  1.00  0.00     0.031 C 
ATOM     43  C   UNL A   1      37.899  32.104  32.906  1.00  0.00     0.029 A 
ATOM     44  C   UNL A   1      39.089  31.304  33.183  1.00  0.00     0.049 A 
ATOM     45  H   UNL A   1      40.082  30.025  31.873  1.00  0.00     0.167 HD
ATOM     46  C   UNL A   1      42.055  27.382  29.007  1.00  0.00     0.037 A 
ATOM     47  C   UNL A   1      39.753  31.263  34.355  1.00  0.00     0.037 A 
ATOM     48  C   UNL A   1      42.798  27.225  30.227  1.00  0.00     0.049 A 
ATOM     49  C   UNL A   1      40.926  30.328  34.498  1.00  0.00     0.074 A 
ATOM     50  C   UNL A   1      43.912  26.440  30.467  1.00  0.00     0.029 A 
ATOM     51  N   UNL A   1      42.504  27.877  31.416  1.00  0.00    -0.354 N 
ATOM     52  N   UNL A   1      41.489  29.563  33.595  1.00  0.00    -0.248 NA
ATOM     53  C   UNL A   1      41.538  30.231  35.832  1.00  0.00     0.031 C 
ATOM     54  C   UNL A   1      44.271  26.591  31.811  1.00  0.00     0.029 A 
ATOM     55  C   UNL A   1      43.405  27.500  32.397  1.00  0.00     0.049 A 
ATOM     56  H   UNL A   1      41.763  28.513  31.542  1.00  0.00     0.167 HD
ATOM     57  C   UNL A   1      42.525  28.903  34.244  1.00  0.00     0.074 A 
ATOM     58  C   UNL A   1      42.525  29.373  35.614  1.00  0.00     0.031 C 
ATOM     59  C   UNL A   1      43.392  27.984  33.753  1.00  0.00     0.037 A 
BRANCH  46  60
ATOM     60  C   UNL A   1      42.495  26.617  27.797  1.00  0.00     0.064 A 
ATOM     61  C   UNL A   1      43.444  27.122  26.899  1.00  0.00     0.173 A 
ATOM     62  C   UNL A   1      41.955  25.347  27.541  1.00  0.00     0.173 A 
ATOM     63  F   UNL A   1      43.970  28.342  27.089  1.00  0.00    -0.203 F 
ATOM     64  C   UNL A   1      43.824  26.391  25.777  1.00  0.00     0.198 A 
ATOM     65  C   UNL A   1      42.353  24.610  26.431  1.00  0.00     0.198 A 
ATOM     66  F   UNL A   1      41.040  24.822  28.371  1.00  0.00    -0.203 F 
ATOM     67  F   UNL A   1      44.703  26.909  24.907  1.00  0.00    -0.200 F 
ATOM     68  C   UNL A   1      43.282  25.135  25.546  1.00  0.00     0.200 A 
ATOM     69  F   UNL A   1      41.831  23.394  26.213  1.00  0.00    -0.200 F 
ATOM     70  F   UNL A   1      43.649  24.432  24.465  1.00  0.00    -0.200 F 
ENDBRANCH  46  60
BRANCH  47  71
ATOM     71  C   UNL A   1      39.280  32.067  35.512  1.00  0.00     0.064 A 
ATOM     72  C   UNL A   1      39.726  33.379  35.718  1.00  0.00     0.173 A 
ATOM     73  C   UNL A   1      38.395  31.524  36.458  1.00  0.00     0.173 A 
ATOM     74  F   UNL A   1      40.600  33.931  34.864  1.00  0.00    -0.203 F 
ATOM     75  C   UNL A   1      39.314  34.112  36.830  1.00  0.00     0.198 A 
ATOM     76  C   UNL A   1      37.961  32.268  37.552  1.00  0.00     0.198 A 
ATOM     77  F   UNL A   1      37.948  30.267  36.315  1.00  0.00    -0.203 F 
ATOM     78  F   UNL A   1      39.795  35.348  37.031  1.00  0.00    -0.200 F 
ATOM     79  C   UNL A   1      38.427  33.559  37.742  1.00  0.00     0.200 A 
ATOM     80  F   UNL A   1      37.099  31.730  38.425  1.00  0.00    -0.200 F 
ATOM     81  F   UNL A   1      38.033  34.265  38.810  1.00  0.00    -0.200 F 
ENDBRANCH  47  71
BRANCH  59  82
ATOM     82  C   UNL A   1      44.428  27.446  34.694  1.00  0.00     0.064 A 
ATOM     83  C   UNL A   1      44.215  26.264  35.417  1.00  0.00     0.173 A 
ATOM     84  C   UNL A   1      45.663  28.095  34.838  1.00  0.00     0.173 A 
ATOM     85  F   UNL A   1      43.044  25.617  35.324  1.00  0.00    -0.203 F 
ATOM     86  C   UNL A   1      45.198  25.760  36.265  1.00  0.00     0.198 A 
ATOM     87  C   UNL A   1      46.651  27.576  35.668  1.00  0.00     0.198 A 
ATOM     88  F   UNL A   1      45.915  29.227  34.162  1.00  0.00    -0.203 F 
ATOM     89  F   UNL A   1      44.961  24.649  36.976  1.00  0.00    -0.200 F 
ATOM     90  C   UNL A   1      46.417  26.411  36.385  1.00  0.00     0.200 A 
ATOM     91  F   UNL A   1      47.832  28.201  35.774  1.00  0.00    -0.200 F 
ATOM     92  F   UNL A   1      47.363  25.921  37.196  1.00  0.00    -0.200 F 
ENDBRANCH  59  82
ENDBRANCH  33  34
ENDBRANCH  26  28
ENDBRANCH  25  26
ENDBRANCH  24  25
ENDBRANCH   1  24
TORSDOF 16
ENDMDL
MODEL 2
REMARK VINA RESULT:     -11.8      1.476      2.667
REMARK SMILES CSCC[C@H](NC(=O)N[C@@H]1CCCCC1(C)C)C(=O)OCCOC(=O)c1ccc(-c2c3nc(c(-c4c(F)c(F)c(F)c(F)c4F)c4ccc([nH]4)c(-c4c(F)c(F)c(F)c(F)c4F)c4nc(c(-c5c(F)c(F)c(F)c(F)c5F)c5ccc2[nH]5)C=C4)C=C3)cc1
REMARK SMILES IDX 21 1 20 2 18 3 19 4 5 5 4 6 3 7 2 8 1 9 6 10 7 11 8 13 9 14
REMARK SMILES IDX 10 16 11 17 15 18 12 19 14 20 16 21 17 22 13 23 22 24 23 25
REMARK SMILES IDX 24 26 25 27 26 28 27 29 88 30 28 31 87 32 29 33 30 34 31 35
REMARK SMILES IDX 81 36 32 37 86 38 80 39 82 40 33 41 85 42 79 43 78 44 34 46
REMARK SMILES IDX 66 47 46 48 65 49 47 50 50 51 64 52 83 53 48 54 49 55 63 57
REMARK SMILES IDX 84 58 51 59 35 60 36 61 44 62 37 63 38 64 42 65 45 66 39 67
REMARK SMILES IDX 40 68 43 69 41 70 67 71 68 72 76 73 69 74 70 75 74 76 77 77
REMARK SMILES IDX 71 78 72 79 75 80 73 81 52 82 53 83 61 84 54 85 55 86 59 87
REMARK SMILES IDX 62 88 56 89 57 90 60 91 58 92
REMARK H PARENT 6 12 9 15 82 45 50 56
REMARK Flexibility Score: inf
ROOT
ATOM      1  C   UNL A   1      31.637  28.993  25.241  1.00  0.00     0.274 C 
ENDROOT
BRANCH   1   2
ATOM      2  O   UNL A   1      32.140  27.640  25.318  1.00  0.00    -0.461 OA
BRANCH   2   3
ATOM      3  C   UNL A   1      31.456  26.828  26.174  1.00  0.00     0.328 C 
ATOM      4  O   UNL A   1      31.046  27.198  27.268  1.00  0.00    -0.250 OA
BRANCH   3   5
ATOM      5  C   UNL A   1      31.046  25.484  25.528  1.00  0.00     0.194 C 
BRANCH   5   6
ATOM      6  C   UNL A   1      30.324  25.656  24.184  1.00  0.00     0.048 C 
BRANCH   6   7
ATOM      7  C   UNL A   1      30.928  25.065  22.907  1.00  0.00     0.072 C 
BRANCH   7   8
ATOM      8  S   UNL A   1      31.760  26.378  21.944  1.00  0.00    -0.165 SA
ATOM      9  C   UNL A   1      33.477  26.010  22.378  1.00  0.00     0.085 C 
ENDBRANCH   7   8
ENDBRANCH   6   7
ENDBRANCH   5   6
BRANCH   5  10
ATOM     10  N   UNL A   1      30.545  24.437  26.453  1.00  0.00    -0.325 N 
ATOM     11  C   UNL A   1      30.723  23.167  26.816  1.00  0.00     0.315 C 
ATOM     12  H   UNL A   1      29.817  24.819  26.994  1.00  0.00     0.166 HD
ATOM     13  O   UNL A   1      30.051  22.774  27.775  1.00  0.00    -0.249 OA
ATOM     14  N   UNL A   1      31.546  22.279  26.256  1.00  0.00    -0.335 N 
ATOM     15  H   UNL A   1      31.617  21.442  26.769  1.00  0.00     0.165 HD
BRANCH  14  16
ATOM     16  C   UNL A   1      32.361  22.280  25.052  1.00  0.00     0.089 C 
ATOM     17  C   UNL A   1      32.043  21.016  24.230  1.00  0.00     0.025 C 
ATOM     18  C   UNL A   1      33.896  22.443  25.276  1.00  0.00    -0.015 C 
ATOM     19  C   UNL A   1      32.633  19.764  24.868  1.00  0.00     0.002 C 
ATOM     20  C   UNL A   1      34.501  21.153  25.864  1.00  0.00     0.008 C 
ATOM     21  C   UNL A   1      34.565  22.774  23.912  1.00  0.00     0.013 C 
ATOM     22  C   UNL A   1      34.198  23.637  26.205  1.00  0.00     0.013 C 
ATOM     23  C   UNL A   1      34.136  19.895  25.074  1.00  0.00     0.001 C 
ENDBRANCH  14  16
ENDBRANCH   5  10
ENDBRANCH   3   5
ENDBRANCH   2   3
ENDBRANCH   1   2
BRANCH   1  24
ATOM     24  C   UNL A   1      32.704  30.037  25.603  1.00  0.00     0.275 C 
BRANCH  24  25
ATOM     25  O   UNL A   1      32.604  30.476  26.975  1.00  0.00    -0.458 OA
BRANCH  25  26
ATOM     26  C   UNL A   1      33.254  31.622  27.270  1.00  0.00     0.338 C 
ATOM     27  O   UNL A   1      32.794  32.759  27.266  1.00  0.00    -0.246 OA
BRANCH  26  28
ATOM     28  C   UNL A   1      34.595  31.339  27.804  1.00  0.00     0.060 A 
ATOM     29  C   UNL A   1      34.794  30.066  28.324  1.00  0.00     0.016 A 
ATOM     30  C   UNL A   1      35.583  32.306  27.965  1.00  0.00     0.016 A 
ATOM     31  C   UNL A   1      35.958  29.726  28.994  1.00  0.00     0.010 A 
ATOM     32  C   UNL A   1      36.775  31.966  28.634  1.00  0.00     0.010 A 
ATOM     33  C   UNL A   1      36.965  30.673  29.155  1.00  0.00    -0.014 A 
BRANCH  33  34
ATOM     34  C   UNL A   1      38.138  30.297  29.979  1.00  0.00     0.031 A 
ATOM     35  C   UNL A   1      39.206  29.433  29.377  1.00  0.00     0.074 A 
ATOM     36  C   UNL A   1      38.324  30.839  31.197  1.00  0.00     0.049 A 
ATOM     37  N   UNL A   1      40.255  28.897  29.944  1.00  0.00    -0.248 NA
ATOM     38  C   UNL A   1      39.090  29.161  27.936  1.00  0.00     0.031 C 
ATOM     39  C   UNL A   1      37.449  31.826  31.827  1.00  0.00     0.029 A 
ATOM     40  N   UNL A   1      39.327  30.647  32.115  1.00  0.00    -0.354 N 
ATOM     41  C   UNL A   1      40.900  28.185  28.943  1.00  0.00     0.074 A 
ATOM     42  C   UNL A   1      40.139  28.378  27.726  1.00  0.00     0.031 C 
ATOM     43  C   UNL A   1      37.952  32.152  33.029  1.00  0.00     0.029 A 
ATOM     44  C   UNL A   1      39.141  31.343  33.284  1.00  0.00     0.049 A 
ATOM     45  H   UNL A   1      40.105  30.065  31.951  1.00  0.00     0.167 HD
ATOM     46  C   UNL A   1      42.017  27.427  29.040  1.00  0.00     0.037 A 
ATOM     47  C   UNL A   1      39.822  31.290  34.445  1.00  0.00     0.037 A 
ATOM     48  C   UNL A   1      42.777  27.257  30.248  1.00  0.00     0.049 A 
ATOM     49  C   UNL A   1      40.991  30.347  34.565  1.00  0.00     0.074 A 
ATOM     50  C   UNL A   1      43.889  26.463  30.466  1.00  0.00     0.029 A 
ATOM     51  N   UNL A   1      42.505  27.903  31.445  1.00  0.00    -0.354 N 
ATOM     52  N   UNL A   1      41.535  29.583  33.649  1.00  0.00    -0.248 NA
ATOM     53  C   UNL A   1      41.622  30.238  35.888  1.00  0.00     0.031 C 
ATOM     54  C   UNL A   1      44.270  26.604  31.806  1.00  0.00     0.029 A 
ATOM     55  C   UNL A   1      43.418  27.515  32.410  1.00  0.00     0.049 A 
ATOM     56  H   UNL A   1      41.771  28.544  31.586  1.00  0.00     0.167 HD
ATOM     57  C   UNL A   1      42.575  28.913  34.278  1.00  0.00     0.074 A 
ATOM     58  C   UNL A   1      42.600  29.375  35.651  1.00  0.00     0.031 C 
ATOM     59  C   UNL A   1      43.429  27.991  33.768  1.00  0.00     0.037 A 
BRANCH  46  60
ATOM     60  C   UNL A   1      42.433  26.666  27.820  1.00  0.00     0.064 A 
ATOM     61  C   UNL A   1      41.922  25.395  27.523  1.00  0.00     0.173 A 
ATOM     62  C   UNL A   1      43.359  27.229  26.928  1.00  0.00     0.173 A 
ATOM     63  F   UNL A   1      41.053  24.805  28.359  1.00  0.00    -0.203 F 
ATOM     64  C   UNL A   1      42.338  24.706  26.387  1.00  0.00     0.198 A 
ATOM     65  C   UNL A   1      43.756  26.548  25.782  1.00  0.00     0.198 A 
ATOM     66  F   UNL A   1      43.879  28.441  27.171  1.00  0.00    -0.203 F 
ATOM     67  F   UNL A   1      41.870  23.475  26.141  1.00  0.00    -0.200 F 
ATOM     68  C   UNL A   1      43.250  25.285  25.515  1.00  0.00     0.200 A 
ATOM     69  F   UNL A   1      44.633  27.111  24.940  1.00  0.00    -0.200 F 
ATOM     70  F   UNL A   1      43.649  24.621  24.421  1.00  0.00    -0.200 F 
ENDBRANCH  46  60
BRANCH  47  71
ATOM     71  C   UNL A   1      39.371  32.091  35.614  1.00  0.00     0.064 A 
ATOM     72  C   UNL A   1      39.879  33.374  35.857  1.00  0.00     0.173 A 
ATOM     73  C   UNL A   1      38.447  31.571  36.534  1.00  0.00     0.173 A 
ATOM     74  F   UNL A   1      40.792  33.901  35.027  1.00  0.00    -0.203 F 
ATOM     75  C   UNL A   1      39.487  34.102  36.979  1.00  0.00     0.198 A 
ATOM     76  C   UNL A   1      38.034  32.311  37.639  1.00  0.00     0.198 A 
ATOM     77  F   UNL A   1      37.942  30.341  36.357  1.00  0.00    -0.203 F 
ATOM     78  F   UNL A   1      40.024  35.307  37.215  1.00  0.00    -0.200 F 
ATOM     79  C   UNL A   1      38.560  33.573  37.866  1.00  0.00     0.200 A 
ATOM     80  F   UNL A   1      37.134  31.797  38.488  1.00  0.00    -0.200 F 
ATOM     81  F   UNL A   1      38.185  34.273  38.945  1.00  0.00    -0.200 F 
ENDBRANCH  47  71
BRANCH  59  82
ATOM     82  C   UNL A   1      44.475  27.440  34.691  1.00  0.00     0.064 A 
ATOM     83  C   UNL A   1      45.708  28.085  34.866  1.00  0.00     0.173 A 
ATOM     84  C   UNL A   1      44.223  26.283  35.441  1.00  0.00     0.173 A 
ATOM     85  F   UNL A   1      46.000  29.187  34.159  1.00  0.00    -0.203 F 
ATOM     86  C   UNL A   1      46.658  27.579  35.749  1.00  0.00     0.198 A 
ATOM     87  C   UNL A   1      45.166  25.793  36.339  1.00  0.00     0.198 A 
ATOM     88  F   UNL A   1      43.056  25.633  35.311  1.00  0.00    -0.203 F 
ATOM     89  F   UNL A   1      47.844  28.189  35.874  1.00  0.00    -0.200 F 
ATOM     90  C   UNL A   1      46.385  26.438  36.489  1.00  0.00     0.200 A 
ATOM     91  F   UNL A   1      44.895  24.696  37.061  1.00  0.00    -0.200 F 
ATOM     92  F   UNL A   1      47.298  25.957  37.343  1.00  0.00    -0.200 F 
ENDBRANCH  59  82
ENDBRANCH  33  34
ENDBRANCH  26  28
ENDBRANCH  25  26
ENDBRANCH  24  25
ENDBRANCH   1  24
TORSDOF 16
ENDMDL
MODEL 3
REMARK VINA RESULT:     -11.8      4.815      9.999
REMARK SMILES CSCC[C@H](NC(=O)N[C@@H]1CCCCC1(C)C)C(=O)OCCOC(=O)c1ccc(-c2c3nc(c(-c4c(F)c(F)c(F)c(F)c4F)c4ccc([nH]4)c(-c4c(F)c(F)c(F)c(F)c4F)c4nc(c(-c5c(F)c(F)c(F)c(F)c5F)c5ccc2[nH]5)C=C4)C=C3)cc1
REMARK SMILES IDX 21 1 20 2 18 3 19 4 5 5 4 6 3 7 2 8 1 9 6 10 7 11 8 13 9 14
REMARK SMILES IDX 10 16 11 17 15 18 12 19 14 20 16 21 17 22 13 23 22 24 23 25
REMARK SMILES IDX 24 26 25 27 26 28 27 29 88 30 28 31 87 32 29 33 30 34 31 35
REMARK SMILES IDX 81 36 32 37 86 38 80 39 82 40 33 41 85 42 79 43 78 44 34 46
REMARK SMILES IDX 66 47 46 48 65 49 47 50 50 51 64 52 83 53 48 54 49 55 63 57
REMARK SMILES IDX 84 58 51 59 35 60 36 61 44 62 37 63 38 64 42 65 45 66 39 67
REMARK SMILES IDX 40 68 43 69 41 70 67 71 68 72 76 73 69 74 70 75 74 76 77 77
REMARK SMILES IDX 71 78 72 79 75 80 73 81 52 82 53 83 61 84 54 85 55 86 59 87
REMARK SMILES IDX 62 88 56 89 57 90 60 91 58 92
REMARK H PARENT 6 12 9 15 82 45 50 56
REMARK Flexibility Score: inf
ROOT
ATOM      1  C   UNL A   1      36.028  20.333  25.014  1.00  0.00     0.274 C 
ENDROOT
BRANCH   1   2
ATOM      2  O   UNL A   1      34.999  21.347  24.966  1.00  0.00    -0.461 OA
BRANCH   2   3
ATOM      3  C   UNL A   1      34.211  21.410  26.077  1.00  0.00     0.328 C 
ATOM      4  O   UNL A   1      34.608  21.828  27.159  1.00  0.00    -0.250 OA
BRANCH   3   5
ATOM      5  C   UNL A   1      32.721  21.133  25.774  1.00  0.00     0.194 C 
BRANCH   5   6
ATOM      6  C   UNL A   1      32.452  20.832  24.293  1.00  0.00     0.048 C 
BRANCH   6   7
ATOM      7  C   UNL A   1      32.476  19.388  23.786  1.00  0.00     0.072 C 
BRANCH   7   8
ATOM      8  S   UNL A   1      32.647  18.234  25.194  1.00  0.00    -0.165 SA
ATOM      9  C   UNL A   1      33.234  16.775  24.303  1.00  0.00     0.085 C 
ENDBRANCH   7   8
ENDBRANCH   6   7
ENDBRANCH   5   6
BRANCH   5  10
ATOM     10  N   UNL A   1      31.735  21.975  26.498  1.00  0.00    -0.325 N 
ATOM     11  C   UNL A   1      31.218  23.202  26.545  1.00  0.00     0.315 C 
ATOM     12  H   UNL A   1      31.309  21.428  27.196  1.00  0.00     0.166 HD
ATOM     13  O   UNL A   1      30.288  23.372  27.339  1.00  0.00    -0.249 OA
ATOM     14  N   UNL A   1      31.597  24.262  25.829  1.00  0.00    -0.335 N 
ATOM     15  H   UNL A   1      30.989  25.030  25.926  1.00  0.00     0.165 HD
BRANCH  14  16
ATOM     16  C   UNL A   1      32.713  24.528  24.935  1.00  0.00     0.089 C 
ATOM     17  C   UNL A   1      33.851  25.187  25.737  1.00  0.00     0.025 C 
ATOM     18  C   UNL A   1      32.370  25.347  23.652  1.00  0.00    -0.015 C 
ATOM     19  C   UNL A   1      33.529  26.635  26.088  1.00  0.00     0.002 C 
ATOM     20  C   UNL A   1      32.106  26.824  24.003  1.00  0.00     0.008 C 
ATOM     21  C   UNL A   1      33.562  25.237  22.660  1.00  0.00     0.013 C 
ATOM     22  C   UNL A   1      31.147  24.751  22.924  1.00  0.00     0.013 C 
ATOM     23  C   UNL A   1      33.215  27.457  24.846  1.00  0.00     0.001 C 
ENDBRANCH  14  16
ENDBRANCH   5  10
ENDBRANCH   3   5
ENDBRANCH   2   3
ENDBRANCH   1   2
BRANCH   1  24
ATOM     24  C   UNL A   1      37.419  20.892  24.686  1.00  0.00     0.275 C 
BRANCH  24  25
ATOM     25  O   UNL A   1      37.903  21.800  25.699  1.00  0.00    -0.458 OA
BRANCH  25  26
ATOM     26  C   UNL A   1      39.117  21.508  26.213  1.00  0.00     0.338 C 
ATOM     27  O   UNL A   1      39.736  20.455  26.102  1.00  0.00    -0.246 OA
BRANCH  26  28
ATOM     28  C   UNL A   1      39.738  22.706  26.798  1.00  0.00     0.060 A 
ATOM     29  C   UNL A   1      39.374  23.924  26.238  1.00  0.00     0.016 A 
ATOM     30  C   UNL A   1      40.768  22.664  27.734  1.00  0.00     0.016 A 
ATOM     31  C   UNL A   1      40.002  25.107  26.593  1.00  0.00     0.010 A 
ATOM     32  C   UNL A   1      41.403  23.863  28.110  1.00  0.00     0.010 A 
ATOM     33  C   UNL A   1      41.024  25.091  27.536  1.00  0.00    -0.014 A 
BRANCH  33  34
ATOM     34  C   UNL A   1      41.742  26.361  27.795  1.00  0.00     0.031 A 
ATOM     35  C   UNL A   1      41.086  27.411  28.641  1.00  0.00     0.074 A 
ATOM     36  C   UNL A   1      43.022  26.518  27.407  1.00  0.00     0.049 A 
ATOM     37  N   UNL A   1      41.481  28.630  28.902  1.00  0.00    -0.248 NA
ATOM     38  C   UNL A   1      39.830  27.026  29.302  1.00  0.00     0.031 C 
ATOM     39  C   UNL A   1      43.831  25.507  26.729  1.00  0.00     0.029 A 
ATOM     40  N   UNL A   1      43.871  27.587  27.548  1.00  0.00    -0.354 N 
ATOM     41  C   UNL A   1      40.501  29.174  29.720  1.00  0.00     0.074 A 
ATOM     42  C   UNL A   1      39.505  28.145  29.934  1.00  0.00     0.031 C 
ATOM     43  C   UNL A   1      45.060  26.004  26.511  1.00  0.00     0.029 A 
ATOM     44  C   UNL A   1      45.100  27.391  26.966  1.00  0.00     0.049 A 
ATOM     45  H   UNL A   1      43.624  28.415  28.020  1.00  0.00     0.167 HD
ATOM     46  C   UNL A   1      40.436  30.425  30.231  1.00  0.00     0.037 A 
ATOM     47  C   UNL A   1      46.118  28.253  26.775  1.00  0.00     0.037 A 
ATOM     48  C   UNL A   1      41.440  31.435  30.031  1.00  0.00     0.049 A 
ATOM     49  C   UNL A   1      45.971  29.675  27.247  1.00  0.00     0.074 A 
ATOM     50  C   UNL A   1      41.440  32.751  30.456  1.00  0.00     0.029 A 
ATOM     51  N   UNL A   1      42.633  31.232  29.353  1.00  0.00    -0.354 N 
ATOM     52  N   UNL A   1      44.992  30.226  27.923  1.00  0.00    -0.248 NA
ATOM     53  C   UNL A   1      47.059  30.604  26.905  1.00  0.00     0.031 C 
ATOM     54  C   UNL A   1      42.620  33.355  30.004  1.00  0.00     0.029 A 
ATOM     55  C   UNL A   1      43.370  32.404  29.333  1.00  0.00     0.049 A 
ATOM     56  H   UNL A   1      42.914  30.380  28.946  1.00  0.00     0.167 HD
ATOM     57  C   UNL A   1      45.348  31.557  28.097  1.00  0.00     0.074 A 
ATOM     58  C   UNL A   1      46.644  31.728  27.472  1.00  0.00     0.031 C 
ATOM     59  C   UNL A   1      44.660  32.551  28.711  1.00  0.00     0.037 A 
BRANCH  46  60
ATOM     60  C   UNL A   1      39.198  30.789  30.991  1.00  0.00     0.064 A 
ATOM     61  C   UNL A   1      39.096  30.616  32.377  1.00  0.00     0.173 A 
ATOM     62  C   UNL A   1      38.095  31.329  30.310  1.00  0.00     0.173 A 
ATOM     63  F   UNL A   1      40.115  30.080  33.067  1.00  0.00    -0.203 F 
ATOM     64  C   UNL A   1      37.926  30.952  33.054  1.00  0.00     0.198 A 
ATOM     65  C   UNL A   1      36.937  31.685  30.993  1.00  0.00     0.198 A 
ATOM     66  F   UNL A   1      38.144  31.510  28.982  1.00  0.00    -0.203 F 
ATOM     67  F   UNL A   1      37.833  30.740  34.374  1.00  0.00    -0.200 F 
ATOM     68  C   UNL A   1      36.851  31.491  32.363  1.00  0.00     0.200 A 
ATOM     69  F   UNL A   1      35.901  32.209  30.323  1.00  0.00    -0.200 F 
ATOM     70  F   UNL A   1      35.726  31.814  33.016  1.00  0.00    -0.200 F 
ENDBRANCH  46  60
BRANCH  47  71
ATOM     71  C   UNL A   1      47.333  27.822  26.033  1.00  0.00     0.064 A 
ATOM     72  C   UNL A   1      47.365  27.812  24.632  1.00  0.00     0.173 A 
ATOM     73  C   UNL A   1      48.477  27.376  26.714  1.00  0.00     0.173 A 
ATOM     74  F   UNL A   1      46.285  28.193  23.935  1.00  0.00    -0.203 F 
ATOM     75  C   UNL A   1      48.491  27.363  23.942  1.00  0.00     0.198 A 
ATOM     76  C   UNL A   1      49.611  26.957  26.024  1.00  0.00     0.198 A 
ATOM     77  F   UNL A   1      48.493  27.351  28.056  1.00  0.00    -0.203 F 
ATOM     78  F   UNL A   1      48.478  27.317  22.603  1.00  0.00    -0.200 F 
ATOM     79  C   UNL A   1      49.615  26.943  24.638  1.00  0.00     0.200 A 
ATOM     80  F   UNL A   1      50.696  26.557  26.702  1.00  0.00    -0.200 F 
ATOM     81  F   UNL A   1      50.695  26.511  23.973  1.00  0.00    -0.200 F 
ENDBRANCH  47  71
BRANCH  59  82
ATOM     82  C   UNL A   1      45.306  33.904  28.759  1.00  0.00     0.064 A 
ATOM     83  C   UNL A   1      46.187  34.257  29.791  1.00  0.00     0.173 A 
ATOM     84  C   UNL A   1      45.077  34.837  27.738  1.00  0.00     0.173 A 
ATOM     85  F   UNL A   1      46.425  33.402  30.797  1.00  0.00    -0.203 F 
ATOM     86  C   UNL A   1      46.803  35.506  29.807  1.00  0.00     0.198 A 
ATOM     87  C   UNL A   1      45.712  36.075  27.745  1.00  0.00     0.198 A 
ATOM     88  F   UNL A   1      44.246  34.543  26.726  1.00  0.00    -0.203 F 
ATOM     89  F   UNL A   1      47.612  35.838  30.822  1.00  0.00    -0.200 F 
ATOM     90  C   UNL A   1      46.571  36.410  28.782  1.00  0.00     0.200 A 
ATOM     91  F   UNL A   1      45.495  36.944  26.748  1.00  0.00    -0.200 F 
ATOM     92  F   UNL A   1      47.169  37.609  28.796  1.00  0.00    -0.200 F 
ENDBRANCH  59  82
ENDBRANCH  33  34
ENDBRANCH  26  28
ENDBRANCH  25  26
ENDBRANCH  24  25
ENDBRANCH   1  24
TORSDOF 16
ENDMDL
