MODEL 1
REMARK VINA RESULT:     -13.5      0.000      0.000
REMARK SMILES Cc1ccc(S(=O)(=O)Nc2cc(C(=O)OCCOC(=O)c3ccc(-c4c5nc(c(-c6c(F)c(F)c(F)c(F)c6F)c6ccc([nH]6)c(-c6c(F)c(F)c(F)c(F)c6F)c6nc(c(-c7c(F)c(F)c(F)c(F)c7F)c7ccc4[nH]7)C=C6)C=C5)cc3)ccc2C)c(Br)c1
REMARK SMILES IDX 16 1 15 2 13 3 14 4 12 5 10 6 11 7 86 8 85 9 87 10 84 11
REMARK SMILES IDX 9 12 6 14 7 15 8 16 5 17 1 18 2 19 3 20 90 21 4 22 88 23
REMARK SMILES IDX 89 24 17 25 18 26 19 27 20 28 21 29 22 30 83 31 23 32 82 33
REMARK SMILES IDX 24 34 25 35 26 36 76 37 27 38 81 39 75 40 77 41 28 42 80 43
REMARK SMILES IDX 74 44 73 45 29 47 61 48 41 49 60 50 42 51 45 52 59 53 78 54
REMARK SMILES IDX 43 55 44 56 58 58 79 59 46 60 30 61 31 62 39 63 32 64 33 65
REMARK SMILES IDX 37 66 40 67 34 68 35 69 38 70 36 71 62 72 63 73 71 74 64 75
REMARK SMILES IDX 65 76 69 77 72 78 66 79 67 80 70 81 68 82 47 83 48 84 56 85
REMARK SMILES IDX 49 86 50 87 54 88 57 89 51 90 52 91 55 92 53 93
REMARK H PARENT 9 13 77 46 45 57
REMARK Flexibility Score: inf
ROOT
ATOM      1  C   UNL A   1      43.998  18.710  25.105  1.00  0.00     0.275 C 
ENDROOT
BRANCH   1   2
ATOM      2  O   UNL A   1      43.330  19.429  26.159  1.00  0.00    -0.458 OA
BRANCH   2   3
ATOM      3  C   UNL A   1      41.863  19.775  26.021  1.00  0.00     0.338 C 
ATOM      4  O   UNL A   1      41.427  18.617  25.748  1.00  0.00    -0.246 OA
BRANCH   3   5
ATOM      5  C   UNL A   1      40.971  21.713  26.282  1.00  0.00     0.062 A 
ATOM      6  C   UNL A   1      38.827  23.388  26.719  1.00  0.00     0.053 A 
ATOM      7  C   UNL A   1      39.476  22.170  26.304  1.00  0.00     0.042 A 
ATOM      8  C   UNL A   1      39.615  24.473  27.061  1.00  0.00    -0.027 A 
ATOM      9  C   UNL A   1      40.991  24.300  26.953  1.00  0.00     0.006 A 
ATOM     10  C   UNL A   1      39.154  25.848  27.444  1.00  0.00     0.046 C 
ATOM     11  C   UNL A   1      41.594  23.059  26.597  1.00  0.00     0.016 A 
BRANCH   6  12
ATOM     12  N   UNL A   1      37.385  23.435  26.599  1.00  0.00    -0.279 N 
ATOM     13  H   UNL A   1      36.905  23.878  27.336  1.00  0.00     0.180 HD
BRANCH  12  14
ATOM     14  S   UNL A   1      36.402  22.812  25.328  1.00  0.00     0.263 S 
ATOM     15  O   UNL A   1      36.277  21.414  25.680  1.00  0.00    -0.201 OA
ATOM     16  O   UNL A   1      37.011  23.210  24.075  1.00  0.00    -0.201 OA
BRANCH  14  17
ATOM     17  C   UNL A   1      34.777  23.540  25.381  1.00  0.00     0.101 A 
ATOM     18  C   UNL A   1      31.213  26.018  25.852  1.00  0.00     0.044 C 
ATOM     19  C   UNL A   1      32.338  25.062  25.578  1.00  0.00    -0.050 A 
ATOM     20  C   UNL A   1      33.590  25.579  25.762  1.00  0.00     0.005 A 
ATOM     21  C   UNL A   1      32.310  23.742  25.182  1.00  0.00     0.020 A 
ATOM     22  C   UNL A   1      34.784  24.879  25.650  1.00  0.00     0.024 A 
ATOM     23  C   UNL A   1      33.525  22.978  25.069  1.00  0.00     0.038 A 
ATOM     24  Br  UNL A   1      33.301  21.237  24.361  1.00  0.00    -0.049 Br
ENDBRANCH  14  17
ENDBRANCH  12  14
ENDBRANCH   6  12
ENDBRANCH   3   5
ENDBRANCH   2   3
ENDBRANCH   1   2
BRANCH   1  25
ATOM     25  C   UNL A   1      45.406  19.277  24.903  1.00  0.00     0.275 C 
BRANCH  25  26
ATOM     26  O   UNL A   1      45.502  20.265  23.840  1.00  0.00    -0.458 OA
BRANCH  26  27
ATOM     27  C   UNL A   1      45.028  21.536  23.988  1.00  0.00     0.338 C 
ATOM     28  O   UNL A   1      44.246  22.071  23.222  1.00  0.00    -0.246 OA
BRANCH  27  29
ATOM     29  C   UNL A   1      45.808  22.329  24.969  1.00  0.00     0.060 A 
ATOM     30  C   UNL A   1      45.059  22.465  26.610  1.00  0.00     0.016 A 
ATOM     31  C   UNL A   1      46.715  23.713  24.277  1.00  0.00     0.016 A 
ATOM     32  C   UNL A   1      45.174  24.050  27.555  1.00  0.00     0.010 A 
ATOM     33  C   UNL A   1      46.780  25.312  25.206  1.00  0.00     0.010 A 
ATOM     34  C   UNL A   1      46.021  25.476  26.855  1.00  0.00    -0.014 A 
BRANCH  34  35
ATOM     35  C   UNL A   1      45.660  26.842  27.324  1.00  0.00     0.031 A 
ATOM     36  C   UNL A   1      44.357  27.535  27.024  1.00  0.00     0.074 A 
ATOM     37  C   UNL A   1      46.382  27.181  28.424  1.00  0.00     0.049 A 
ATOM     38  N   UNL A   1      43.803  28.322  27.882  1.00  0.00    -0.248 NA
ATOM     39  C   UNL A   1      43.450  27.285  25.900  1.00  0.00     0.031 C 
ATOM     40  C   UNL A   1      46.049  28.021  29.569  1.00  0.00     0.029 A 
ATOM     41  N   UNL A   1      47.765  27.032  28.535  1.00  0.00    -0.354 N 
ATOM     42  C   UNL A   1      42.443  28.418  27.638  1.00  0.00     0.074 A 
ATOM     43  C   UNL A   1      42.268  27.744  26.376  1.00  0.00     0.031 C 
ATOM     44  C   UNL A   1      47.176  28.554  30.072  1.00  0.00     0.029 A 
ATOM     45  C   UNL A   1      48.247  28.187  29.169  1.00  0.00     0.049 A 
ATOM     46  H   UNL A   1      48.300  26.264  28.228  1.00  0.00     0.167 HD
ATOM     47  C   UNL A   1      41.703  28.990  28.642  1.00  0.00     0.037 A 
ATOM     48  C   UNL A   1      48.954  29.068  28.400  1.00  0.00     0.037 A 
ATOM     49  C   UNL A   1      42.588  29.904  29.355  1.00  0.00     0.049 A 
ATOM     50  C   UNL A   1      48.166  30.347  28.139  1.00  0.00     0.074 A 
ATOM     51  C   UNL A   1      43.163  30.032  30.603  1.00  0.00     0.029 A 
ATOM     52  N   UNL A   1      43.227  30.812  28.534  1.00  0.00    -0.354 N 
ATOM     53  N   UNL A   1      46.871  30.467  28.312  1.00  0.00    -0.248 NA
ATOM     54  C   UNL A   1      48.777  31.618  27.770  1.00  0.00     0.031 C 
ATOM     55  C   UNL A   1      44.293  30.905  30.447  1.00  0.00     0.029 A 
ATOM     56  C   UNL A   1      44.343  31.333  29.127  1.00  0.00     0.049 A 
ATOM     57  H   UNL A   1      42.917  31.055  27.632  1.00  0.00     0.167 HD
ATOM     58  C   UNL A   1      46.481  31.772  28.145  1.00  0.00     0.074 A 
ATOM     59  C   UNL A   1      47.717  32.449  27.806  1.00  0.00     0.031 C 
ATOM     60  C   UNL A   1      45.188  32.196  28.313  1.00  0.00     0.037 A 
BRANCH  47  61
ATOM     61  C   UNL A   1      40.258  28.811  29.065  1.00  0.00     0.064 A 
ATOM     62  C   UNL A   1      39.212  29.276  28.222  1.00  0.00     0.173 A 
ATOM     63  C   UNL A   1      39.841  28.390  30.339  1.00  0.00     0.173 A 
ATOM     64  F   UNL A   1      39.454  29.678  26.966  1.00  0.00    -0.203 F 
ATOM     65  C   UNL A   1      37.879  29.369  28.637  1.00  0.00     0.198 A 
ATOM     66  C   UNL A   1      38.495  28.464  30.747  1.00  0.00     0.198 A 
ATOM     67  F   UNL A   1      40.726  27.925  31.230  1.00  0.00    -0.203 F 
ATOM     68  F   UNL A   1      36.955  29.875  27.806  1.00  0.00    -0.200 F 
ATOM     69  C   UNL A   1      37.520  28.970  29.903  1.00  0.00     0.200 A 
ATOM     70  F   UNL A   1      38.146  28.068  31.980  1.00  0.00    -0.200 F 
ATOM     71  F   UNL A   1      36.246  29.077  30.310  1.00  0.00    -0.200 F 
ENDBRANCH  47  61
BRANCH  48  72
ATOM     72  C   UNL A   1      49.946  28.329  27.546  1.00  0.00     0.064 A 
ATOM     73  C   UNL A   1      51.070  27.792  28.230  1.00  0.00     0.173 A 
ATOM     74  C   UNL A   1      49.643  27.751  26.308  1.00  0.00     0.173 A 
ATOM     75  F   UNL A   1      51.433  28.311  29.415  1.00  0.00    -0.203 F 
ATOM     76  C   UNL A   1      51.726  26.638  27.798  1.00  0.00     0.198 A 
ATOM     77  C   UNL A   1      50.356  26.630  25.841  1.00  0.00     0.198 A 
ATOM     78  F   UNL A   1      48.572  28.158  25.611  1.00  0.00    -0.203 F 
ATOM     79  F   UNL A   1      52.655  26.064  28.576  1.00  0.00    -0.200 F 
ATOM     80  C   UNL A   1      51.352  26.043  26.611  1.00  0.00     0.200 A 
ATOM     81  F   UNL A   1      49.974  26.022  24.706  1.00  0.00    -0.200 F 
ATOM     82  F   UNL A   1      51.903  24.877  26.235  1.00  0.00    -0.200 F 
ENDBRANCH  48  72
BRANCH  60  83
ATOM     83  C   UNL A   1      44.548  33.437  27.682  1.00  0.00     0.064 A 
ATOM     84  C   UNL A   1      44.102  33.507  26.353  1.00  0.00     0.173 A 
ATOM     85  C   UNL A   1      44.187  34.570  28.473  1.00  0.00     0.173 A 
ATOM     86  F   UNL A   1      44.210  32.470  25.517  1.00  0.00    -0.203 F 
ATOM     87  C   UNL A   1      43.451  34.632  25.836  1.00  0.00     0.198 A 
ATOM     88  C   UNL A   1      43.439  35.639  27.982  1.00  0.00     0.198 A 
ATOM     89  F   UNL A   1      44.505  34.672  29.772  1.00  0.00    -0.203 F 
ATOM     90  F   UNL A   1      43.127  34.662  24.537  1.00  0.00    -0.200 F 
ATOM     91  C   UNL A   1      43.101  35.688  26.651  1.00  0.00     0.200 A 
ATOM     92  F   UNL A   1      43.030  36.606  28.818  1.00  0.00    -0.200 F 
ATOM     93  F   UNL A   1      42.425  36.735  26.162  1.00  0.00    -0.200 F 
ENDBRANCH  60  83
ENDBRANCH  34  35
ENDBRANCH  27  29
ENDBRANCH  26  27
ENDBRANCH  25  26
ENDBRANCH   1  25
TORSDOF 14
ENDMDL
MODEL 2
REMARK VINA RESULT:     -12.6      5.093     10.928
REMARK SMILES Cc1ccc(S(=O)(=O)Nc2cc(C(=O)OCCOC(=O)c3ccc(-c4c5nc(c(-c6c(F)c(F)c(F)c(F)c6F)c6ccc([nH]6)c(-c6c(F)c(F)c(F)c(F)c6F)c6nc(c(-c7c(F)c(F)c(F)c(F)c7F)c7ccc4[nH]7)C=C6)C=C5)cc3)ccc2C)c(Br)c1
REMARK SMILES IDX 16 1 15 2 13 3 14 4 12 5 10 6 11 7 86 8 85 9 87 10 84 11
REMARK SMILES IDX 9 12 6 14 7 15 8 16 5 17 1 18 2 19 3 20 90 21 4 22 88 23
REMARK SMILES IDX 89 24 17 25 18 26 19 27 20 28 21 29 22 30 83 31 23 32 82 33
REMARK SMILES IDX 24 34 25 35 26 36 76 37 27 38 81 39 75 40 77 41 28 42 80 43
REMARK SMILES IDX 74 44 73 45 29 47 61 48 41 49 60 50 42 51 45 52 59 53 78 54
REMARK SMILES IDX 43 55 44 56 58 58 79 59 46 60 30 61 31 62 39 63 32 64 33 65
REMARK SMILES IDX 37 66 40 67 34 68 35 69 38 70 36 71 62 72 63 73 71 74 64 75
REMARK SMILES IDX 65 76 69 77 72 78 66 79 67 80 70 81 68 82 47 83 48 84 56 85
REMARK SMILES IDX 49 86 50 87 54 88 57 89 51 90 52 91 55 92 53 93
REMARK H PARENT 9 13 77 46 45 57
REMARK Flexibility Score: inf
ROOT
ATOM      1  C   UNL A   1      33.339  30.519  27.243  1.00  0.00     0.275 C 
ENDROOT
BRANCH   1   2
ATOM      2  O   UNL A   1      33.725  29.747  26.091  1.00  0.00    -0.458 OA
BRANCH   2   3
ATOM      3  C   UNL A   1      32.679  28.974  25.318  1.00  0.00     0.338 C 
ATOM      4  O   UNL A   1      31.684  29.719  25.562  1.00  0.00    -0.246 OA
BRANCH   3   5
ATOM      5  C   UNL A   1      32.990  27.179  24.177  1.00  0.00     0.062 A 
ATOM      6  C   UNL A   1      34.076  24.676  23.788  1.00  0.00     0.053 A 
ATOM      7  C   UNL A   1      33.995  25.997  24.361  1.00  0.00     0.042 A 
ATOM      8  C   UNL A   1      33.205  24.347  22.764  1.00  0.00    -0.027 A 
ATOM      9  C   UNL A   1      32.324  25.342  22.353  1.00  0.00     0.006 A 
ATOM     10  C   UNL A   1      33.164  23.069  21.979  1.00  0.00     0.046 C 
ATOM     11  C   UNL A   1      32.236  26.615  22.988  1.00  0.00     0.016 A 
BRANCH   6  12
ATOM     12  N   UNL A   1      35.173  23.839  24.224  1.00  0.00    -0.279 N 
ATOM     13  H   UNL A   1      36.008  23.919  23.708  1.00  0.00     0.180 HD
BRANCH  12  14
ATOM     14  S   UNL A   1      35.203  22.720  25.534  1.00  0.00     0.263 S 
ATOM     15  O   UNL A   1      34.398  23.384  26.537  1.00  0.00    -0.201 OA
ATOM     16  O   UNL A   1      36.590  22.395  25.794  1.00  0.00    -0.201 OA
BRANCH  14  17
ATOM     17  C   UNL A   1      34.380  21.207  25.082  1.00  0.00     0.101 A 
ATOM     18  C   UNL A   1      33.178  17.200  23.828  1.00  0.00     0.044 C 
ATOM     19  C   UNL A   1      33.423  18.595  24.328  1.00  0.00    -0.050 A 
ATOM     20  C   UNL A   1      34.736  18.903  24.554  1.00  0.00     0.005 A 
ATOM     21  C   UNL A   1      32.536  19.618  24.585  1.00  0.00     0.020 A 
ATOM     22  C   UNL A   1      35.226  20.143  24.942  1.00  0.00     0.024 A 
ATOM     23  C   UNL A   1      33.006  20.923  24.974  1.00  0.00     0.038 A 
ATOM     24  Br  UNL A   1      31.640  22.149  25.435  1.00  0.00    -0.049 Br
ENDBRANCH  14  17
ENDBRANCH  12  14
ENDBRANCH   6  12
ENDBRANCH   3   5
ENDBRANCH   2   3
ENDBRANCH   1   2
BRANCH   1  25
ATOM     25  C   UNL A   1      34.580  31.133  27.896  1.00  0.00     0.275 C 
BRANCH  25  26
ATOM     26  O   UNL A   1      34.594  32.587  27.897  1.00  0.00    -0.458 OA
BRANCH  26  27
ATOM     27  C   UNL A   1      34.110  33.315  28.946  1.00  0.00     0.338 C 
ATOM     28  O   UNL A   1      33.087  33.977  28.909  1.00  0.00    -0.246 OA
BRANCH  27  29
ATOM     29  C   UNL A   1      35.114  33.508  30.021  1.00  0.00     0.060 A 
ATOM     30  C   UNL A   1      36.744  34.052  29.457  1.00  0.00     0.016 A 
ATOM     31  C   UNL A   1      34.972  32.374  31.403  1.00  0.00     0.016 A 
ATOM     32  C   UNL A   1      38.272  33.396  30.263  1.00  0.00     0.010 A 
ATOM     33  C   UNL A   1      36.508  31.681  32.170  1.00  0.00     0.010 A 
ATOM     34  C   UNL A   1      38.161  32.205  31.608  1.00  0.00    -0.014 A 
BRANCH  34  35
ATOM     35  C   UNL A   1      39.309  31.295  31.876  1.00  0.00     0.031 A 
ATOM     36  C   UNL A   1      39.423  29.886  31.357  1.00  0.00     0.074 A 
ATOM     37  C   UNL A   1      40.423  32.003  32.193  1.00  0.00     0.049 A 
ATOM     38  N   UNL A   1      40.564  29.384  31.025  1.00  0.00    -0.248 NA
ATOM     39  C   UNL A   1      38.334  28.990  30.953  1.00  0.00     0.031 C 
ATOM     40  C   UNL A   1      41.835  31.731  31.951  1.00  0.00     0.029 A 
ATOM     41  N   UNL A   1      40.458  33.038  33.129  1.00  0.00    -0.354 N 
ATOM     42  C   UNL A   1      40.389  28.343  30.129  1.00  0.00     0.074 A 
ATOM     43  C   UNL A   1      38.963  28.134  30.113  1.00  0.00     0.031 C 
ATOM     44  C   UNL A   1      42.573  32.327  32.904  1.00  0.00     0.029 A 
ATOM     45  C   UNL A   1      41.640  32.875  33.868  1.00  0.00     0.049 A 
ATOM     46  H   UNL A   1      39.784  33.745  33.250  1.00  0.00     0.167 HD
ATOM     47  C   UNL A   1      41.526  27.920  29.488  1.00  0.00     0.037 A 
ATOM     48  C   UNL A   1      41.513  32.446  35.158  1.00  0.00     0.037 A 
ATOM     49  C   UNL A   1      42.647  28.204  30.378  1.00  0.00     0.049 A 
ATOM     50  C   UNL A   1      41.998  31.011  35.326  1.00  0.00     0.074 A 
ATOM     51  C   UNL A   1      43.763  29.016  30.416  1.00  0.00     0.029 A 
ATOM     52  N   UNL A   1      42.489  27.693  31.650  1.00  0.00    -0.354 N 
ATOM     53  N   UNL A   1      42.184  30.171  34.335  1.00  0.00    -0.248 NA
ATOM     54  C   UNL A   1      42.418  30.438  36.599  1.00  0.00     0.031 C 
ATOM     55  C   UNL A   1      44.146  29.121  31.797  1.00  0.00     0.029 A 
ATOM     56  C   UNL A   1      43.294  28.327  32.554  1.00  0.00     0.049 A 
ATOM     57  H   UNL A   1      41.873  26.960  31.878  1.00  0.00     0.167 HD
ATOM     58  C   UNL A   1      42.771  29.016  34.786  1.00  0.00     0.074 A 
ATOM     59  C   UNL A   1      42.894  29.239  36.213  1.00  0.00     0.031 C 
ATOM     60  C   UNL A   1      43.122  27.980  33.958  1.00  0.00     0.037 A 
BRANCH  47  61
ATOM     61  C   UNL A   1      41.747  27.279  28.132  1.00  0.00     0.064 A 
ATOM     62  C   UNL A   1      42.092  25.902  28.048  1.00  0.00     0.173 A 
ATOM     63  C   UNL A   1      41.836  27.980  26.917  1.00  0.00     0.173 A 
ATOM     64  F   UNL A   1      42.022  25.099  29.119  1.00  0.00    -0.203 F 
ATOM     65  C   UNL A   1      42.544  25.297  26.871  1.00  0.00     0.198 A 
ATOM     66  C   UNL A   1      42.270  27.363  25.728  1.00  0.00     0.198 A 
ATOM     67  F   UNL A   1      41.534  29.284  26.856  1.00  0.00    -0.203 F 
ATOM     68  F   UNL A   1      42.910  24.005  26.882  1.00  0.00    -0.200 F 
ATOM     69  C   UNL A   1      42.641  26.029  25.710  1.00  0.00     0.200 A 
ATOM     70  F   UNL A   1      42.357  28.077  24.597  1.00  0.00    -0.200 F 
ATOM     71  F   UNL A   1      43.093  25.455  24.586  1.00  0.00    -0.200 F 
ENDBRANCH  47  61
BRANCH  48  72
ATOM     72  C   UNL A   1      40.411  33.202  35.848  1.00  0.00     0.064 A 
ATOM     73  C   UNL A   1      39.261  32.441  36.191  1.00  0.00     0.173 A 
ATOM     74  C   UNL A   1      40.598  34.392  36.559  1.00  0.00     0.173 A 
ATOM     75  F   UNL A   1      39.006  31.296  35.536  1.00  0.00    -0.203 F 
ATOM     76  C   UNL A   1      38.463  32.749  37.294  1.00  0.00     0.198 A 
ATOM     77  C   UNL A   1      39.745  34.737  37.626  1.00  0.00     0.198 A 
ATOM     78  F   UNL A   1      41.680  35.153  36.339  1.00  0.00    -0.203 F 
ATOM     79  F   UNL A   1      37.506  31.896  37.688  1.00  0.00    -0.200 F 
ATOM     80  C   UNL A   1      38.720  33.889  38.026  1.00  0.00     0.200 A 
ATOM     81  F   UNL A   1      40.012  35.824  38.368  1.00  0.00    -0.200 F 
ATOM     82  F   UNL A   1      38.028  34.144  39.148  1.00  0.00    -0.200 F 
ENDBRANCH  48  72
BRANCH  60  83
ATOM     83  C   UNL A   1      43.284  26.510  34.358  1.00  0.00     0.064 A 
ATOM     84  C   UNL A   1      42.257  25.721  34.899  1.00  0.00     0.173 A 
ATOM     85  C   UNL A   1      44.464  25.776  34.028  1.00  0.00     0.173 A 
ATOM     86  F   UNL A   1      41.031  26.208  35.116  1.00  0.00    -0.203 F 
ATOM     87  C   UNL A   1      42.421  24.360  35.178  1.00  0.00     0.198 A 
ATOM     88  C   UNL A   1      44.582  24.398  34.204  1.00  0.00     0.198 A 
ATOM     89  F   UNL A   1      45.542  26.356  33.480  1.00  0.00    -0.203 F 
ATOM     90  F   UNL A   1      41.427  23.688  35.771  1.00  0.00    -0.200 F 
ATOM     91  C   UNL A   1      43.573  23.694  34.814  1.00  0.00     0.200 A 
ATOM     92  F   UNL A   1      45.673  23.760  33.753  1.00  0.00    -0.200 F 
ATOM     93  F   UNL A   1      43.699  22.378  35.030  1.00  0.00    -0.200 F 
ENDBRANCH  60  83
ENDBRANCH  34  35
ENDBRANCH  27  29
ENDBRANCH  26  27
ENDBRANCH  25  26
ENDBRANCH   1  25
TORSDOF 14
ENDMDL
MODEL 3
REMARK VINA RESULT:     -12.5      5.627     11.003
REMARK SMILES Cc1ccc(S(=O)(=O)Nc2cc(C(=O)OCCOC(=O)c3ccc(-c4c5nc(c(-c6c(F)c(F)c(F)c(F)c6F)c6ccc([nH]6)c(-c6c(F)c(F)c(F)c(F)c6F)c6nc(c(-c7c(F)c(F)c(F)c(F)c7F)c7ccc4[nH]7)C=C6)C=C5)cc3)ccc2C)c(Br)c1
REMARK SMILES IDX 16 1 15 2 13 3 14 4 12 5 10 6 11 7 86 8 85 9 87 10 84 11
REMARK SMILES IDX 9 12 6 14 7 15 8 16 5 17 1 18 2 19 3 20 90 21 4 22 88 23
REMARK SMILES IDX 89 24 17 25 18 26 19 27 20 28 21 29 22 30 83 31 23 32 82 33
REMARK SMILES IDX 24 34 25 35 26 36 76 37 27 38 81 39 75 40 77 41 28 42 80 43
REMARK SMILES IDX 74 44 73 45 29 47 61 48 41 49 60 50 42 51 45 52 59 53 78 54
REMARK SMILES IDX 43 55 44 56 58 58 79 59 46 60 30 61 31 62 39 63 32 64 33 65
REMARK SMILES IDX 37 66 40 67 34 68 35 69 38 70 36 71 62 72 63 73 71 74 64 75
REMARK SMILES IDX 65 76 69 77 72 78 66 79 67 80 70 81 68 82 47 83 48 84 56 85
REMARK SMILES IDX 49 86 50 87 54 88 57 89 51 90 52 91 55 92 53 93
REMARK H PARENT 9 13 77 46 45 57
REMARK Flexibility Score: inf
ROOT
ATOM      1  C   UNL A   1      33.963  32.000  28.056  1.00  0.00     0.275 C 
ENDROOT
BRANCH   1   2
ATOM      2  O   UNL A   1      35.156  31.259  27.738  1.00  0.00    -0.458 OA
BRANCH   2   3
ATOM      3  C   UNL A   1      35.064  29.780  27.432  1.00  0.00     0.338 C 
ATOM      4  O   UNL A   1      36.107  29.401  28.044  1.00  0.00    -0.246 OA
BRANCH   3   5
ATOM      5  C   UNL A   1      33.524  28.795  26.301  1.00  0.00     0.062 A 
ATOM      6  C   UNL A   1      31.465  26.986  26.017  1.00  0.00     0.053 A 
ATOM      7  C   UNL A   1      32.660  27.530  26.611  1.00  0.00     0.042 A 
ATOM      8  C   UNL A   1      30.985  27.562  24.853  1.00  0.00    -0.027 A 
ATOM      9  C   UNL A   1      31.722  28.622  24.335  1.00  0.00     0.006 A 
ATOM     10  C   UNL A   1      29.812  27.113  24.032  1.00  0.00     0.046 C 
ATOM     11  C   UNL A   1      32.865  29.169  24.987  1.00  0.00     0.016 A 
BRANCH   6  12
ATOM     12  N   UNL A   1      30.938  25.771  26.602  1.00  0.00    -0.279 N 
ATOM     13  H   UNL A   1      30.244  25.890  27.290  1.00  0.00     0.180 HD
BRANCH  12  14
ATOM     14  S   UNL A   1      31.372  24.143  26.245  1.00  0.00     0.263 S 
ATOM     15  O   UNL A   1      30.600  23.863  25.053  1.00  0.00    -0.201 OA
ATOM     16  O   UNL A   1      31.176  23.368  27.453  1.00  0.00    -0.201 OA
BRANCH  14  17
ATOM     17  C   UNL A   1      33.098  24.034  25.822  1.00  0.00     0.101 A 
ATOM     18  C   UNL A   1      37.429  23.511  25.618  1.00  0.00     0.044 C 
ATOM     19  C   UNL A   1      35.943  23.691  25.506  1.00  0.00    -0.050 A 
ATOM     20  C   UNL A   1      35.228  23.269  26.592  1.00  0.00     0.005 A 
ATOM     21  C   UNL A   1      35.184  24.223  24.485  1.00  0.00     0.020 A 
ATOM     22  C   UNL A   1      33.855  23.397  26.764  1.00  0.00     0.024 A 
ATOM     23  C   UNL A   1      33.760  24.387  24.631  1.00  0.00     0.038 A 
ATOM     24  Br  UNL A   1      32.871  24.986  23.071  1.00  0.00    -0.049 Br
ENDBRANCH  14  17
ENDBRANCH  12  14
ENDBRANCH   6  12
ENDBRANCH   3   5
ENDBRANCH   2   3
ENDBRANCH   1   2
BRANCH   1  25
ATOM     25  C   UNL A   1      34.321  33.223  28.905  1.00  0.00     0.275 C 
BRANCH  25  26
ATOM     26  O   UNL A   1      34.188  33.012  30.337  1.00  0.00    -0.458 OA
BRANCH  26  27
ATOM     27  C   UNL A   1      34.166  34.049  31.223  1.00  0.00     0.338 C 
ATOM     28  O   UNL A   1      33.346  34.951  31.205  1.00  0.00    -0.246 OA
BRANCH  27  29
ATOM     29  C   UNL A   1      35.427  34.171  31.996  1.00  0.00     0.060 A 
ATOM     30  C   UNL A   1      36.900  34.515  31.005  1.00  0.00     0.016 A 
ATOM     31  C   UNL A   1      35.539  33.108  33.436  1.00  0.00     0.016 A 
ATOM     32  C   UNL A   1      38.515  33.727  31.437  1.00  0.00     0.010 A 
ATOM     33  C   UNL A   1      37.147  32.281  33.831  1.00  0.00     0.010 A 
ATOM     34  C   UNL A   1      38.641  32.603  32.838  1.00  0.00    -0.014 A 
BRANCH  34  35
ATOM     35  C   UNL A   1      39.727  31.584  32.862  1.00  0.00     0.031 A 
ATOM     36  C   UNL A   1      39.627  30.211  32.252  1.00  0.00     0.074 A 
ATOM     37  C   UNL A   1      40.938  32.174  33.034  1.00  0.00     0.049 A 
ATOM     38  N   UNL A   1      40.649  29.642  31.711  1.00  0.00    -0.248 NA
ATOM     39  C   UNL A   1      38.409  29.440  31.981  1.00  0.00     0.031 C 
ATOM     40  C   UNL A   1      42.264  31.803  32.550  1.00  0.00     0.029 A 
ATOM     41  N   UNL A   1      41.217  33.132  34.009  1.00  0.00    -0.354 N 
ATOM     42  C   UNL A   1      40.239  28.685  30.796  1.00  0.00     0.074 A 
ATOM     43  C   UNL A   1      38.815  28.596  31.002  1.00  0.00     0.031 C 
ATOM     44  C   UNL A   1      43.194  32.267  33.401  1.00  0.00     0.029 A 
ATOM     45  C   UNL A   1      42.480  32.820  34.534  1.00  0.00     0.049 A 
ATOM     46  H   UNL A   1      40.639  33.882  34.278  1.00  0.00     0.167 HD
ATOM     47  C   UNL A   1      41.217  28.217  29.956  1.00  0.00     0.037 A 
ATOM     48  C   UNL A   1      42.518  32.312  35.802  1.00  0.00     0.037 A 
ATOM     49  C   UNL A   1      42.485  28.343  30.666  1.00  0.00     0.049 A 
ATOM     50  C   UNL A   1      42.888  30.833  35.806  1.00  0.00     0.074 A 
ATOM     51  C   UNL A   1      43.664  29.054  30.567  1.00  0.00     0.029 A 
ATOM     52  N   UNL A   1      42.483  27.757  31.915  1.00  0.00    -0.354 N 
ATOM     53  N   UNL A   1      42.837  30.054  34.751  1.00  0.00    -0.248 NA
ATOM     54  C   UNL A   1      43.448  30.138  36.958  1.00  0.00     0.031 C 
ATOM     55  C   UNL A   1      44.268  29.029  31.871  1.00  0.00     0.029 A 
ATOM     56  C   UNL A   1      43.476  28.256  32.711  1.00  0.00     0.049 A 
ATOM     57  H   UNL A   1      41.845  27.063  32.199  1.00  0.00     0.167 HD
ATOM     58  C   UNL A   1      43.377  28.824  35.034  1.00  0.00     0.074 A 
ATOM     59  C   UNL A   1      43.743  28.934  36.432  1.00  0.00     0.031 C 
ATOM     60  C   UNL A   1      43.495  27.825  34.102  1.00  0.00     0.037 A 
BRANCH  47  61
ATOM     61  C   UNL A   1      41.161  27.658  28.548  1.00  0.00     0.064 A 
ATOM     62  C   UNL A   1      40.632  26.358  28.323  1.00  0.00     0.173 A 
ATOM     63  C   UNL A   1      41.777  28.241  27.428  1.00  0.00     0.173 A 
ATOM     64  F   UNL A   1      39.986  25.691  29.289  1.00  0.00    -0.203 F 
ATOM     65  C   UNL A   1      40.763  25.678  27.107  1.00  0.00     0.198 A 
ATOM     66  C   UNL A   1      41.889  27.564  26.198  1.00  0.00     0.198 A 
ATOM     67  F   UNL A   1      42.314  29.467  27.502  1.00  0.00    -0.203 F 
ATOM     68  F   UNL A   1      40.291  24.427  26.988  1.00  0.00    -0.200 F 
ATOM     69  C   UNL A   1      41.398  26.277  26.045  1.00  0.00     0.200 A 
ATOM     70  F   UNL A   1      42.503  28.153  25.162  1.00  0.00    -0.200 F 
ATOM     71  F   UNL A   1      41.542  25.620  24.885  1.00  0.00    -0.200 F 
ENDBRANCH  47  61
BRANCH  48  72
ATOM     72  C   UNL A   1      41.613  33.105  36.704  1.00  0.00     0.064 A 
ATOM     73  C   UNL A   1      42.100  34.380  37.099  1.00  0.00     0.173 A 
ATOM     74  C   UNL A   1      40.230  32.918  36.793  1.00  0.00     0.173 A 
ATOM     75  F   UNL A   1      43.420  34.626  37.059  1.00  0.00    -0.203 F 
ATOM     76  C   UNL A   1      41.249  35.449  37.381  1.00  0.00     0.198 A 
ATOM     77  C   UNL A   1      39.379  33.982  37.149  1.00  0.00     0.198 A 
ATOM     78  F   UNL A   1      39.672  31.764  36.396  1.00  0.00    -0.203 F 
ATOM     79  F   UNL A   1      41.754  36.678  37.563  1.00  0.00    -0.200 F 
ATOM     80  C   UNL A   1      39.883  35.255  37.385  1.00  0.00     0.200 A 
ATOM     81  F   UNL A   1      38.047  33.810  37.118  1.00  0.00    -0.200 F 
ATOM     82  F   UNL A   1      39.051  36.294  37.552  1.00  0.00    -0.200 F 
ENDBRANCH  48  72
BRANCH  60  83
ATOM     83  C   UNL A   1      43.580  26.322  34.385  1.00  0.00     0.064 A 
ATOM     84  C   UNL A   1      42.524  25.555  34.901  1.00  0.00     0.173 A 
ATOM     85  C   UNL A   1      44.704  25.549  33.962  1.00  0.00     0.173 A 
ATOM     86  F   UNL A   1      41.337  26.093  35.194  1.00  0.00    -0.203 F 
ATOM     87  C   UNL A   1      42.615  24.169  35.072  1.00  0.00     0.198 A 
ATOM     88  C   UNL A   1      44.744  24.157  34.030  1.00  0.00     0.198 A 
ATOM     89  F   UNL A   1      45.798  26.106  33.422  1.00  0.00    -0.203 F 
ATOM     90  F   UNL A   1      41.599  23.512  35.646  1.00  0.00    -0.200 F 
ATOM     91  C   UNL A   1      43.713  23.467  34.620  1.00  0.00     0.200 A 
ATOM     92  F   UNL A   1      45.781  23.493  33.496  1.00  0.00    -0.200 F 
ATOM     93  F   UNL A   1      43.766  22.134  34.732  1.00  0.00    -0.200 F 
ENDBRANCH  60  83
ENDBRANCH  34  35
ENDBRANCH  27  29
ENDBRANCH  26  27
ENDBRANCH  25  26
ENDBRANCH   1  25
TORSDOF 14
ENDMDL
