MODEL 1
REMARK VINA RESULT:     -10.7      0.000      0.000
REMARK SMILES C[C@@H](Sc1nncn1C)[C@@H](C)C(=O)OCCOC(=O)c1ccc(-c2c3nc(c(-c4c(F)c(F)c(F)c(F)c4F)c4ccc([nH]4)c(-c4c(F)c(F)c(F)c(F)c4F)c4nc(c(-c5c(F)c(F)c(F)c(F)c5F)c5ccc2[nH]5)C=C4)C=C3)cc1
REMARK SMILES IDX 15 1 14 2 12 3 13 4 10 5 11 6 2 7 1 8 3 9 4 10 5 11 8 12
REMARK SMILES IDX 6 13 7 14 9 15 16 16 17 17 18 18 19 19 20 20 21 21 82 22
REMARK SMILES IDX 22 23 81 24 23 25 24 26 25 27 75 28 26 29 80 30 74 31 76 32
REMARK SMILES IDX 27 33 79 34 73 35 72 36 28 38 60 39 40 40 59 41 41 42 44 43
REMARK SMILES IDX 58 44 77 45 42 46 43 47 57 49 78 50 45 51 29 52 30 53 38 54
REMARK SMILES IDX 31 55 32 56 36 57 39 58 33 59 34 60 37 61 35 62 61 63 62 64
REMARK SMILES IDX 70 65 63 66 64 67 68 68 71 69 65 70 66 71 69 72 67 73 46 74
REMARK SMILES IDX 47 75 55 76 48 77 49 78 53 79 56 80 50 81 51 82 54 83 52 84
REMARK H PARENT 76 37 44 48
REMARK Flexibility Score: inf
ROOT
ATOM      1  C   UNL A   1      31.719  28.334  25.986  1.00  0.00     0.274 C 
ENDROOT
BRANCH   1   2
ATOM      2  O   UNL A   1      32.136  27.270  25.108  1.00  0.00    -0.462 OA
BRANCH   2   3
ATOM      3  C   UNL A   1      33.386  26.789  25.327  1.00  0.00     0.309 C 
ATOM      4  O   UNL A   1      34.072  27.048  26.310  1.00  0.00    -0.252 OA
BRANCH   3   5
ATOM      5  C   UNL A   1      33.928  25.954  24.179  1.00  0.00     0.109 C 
ATOM      6  C   UNL A   1      33.497  26.674  22.897  1.00  0.00     0.021 C 
BRANCH   5   7
ATOM      7  C   UNL A   1      33.553  24.451  24.207  1.00  0.00     0.065 C 
ATOM      8  C   UNL A   1      34.451  23.631  23.271  1.00  0.00     0.021 C 
BRANCH   7   9
ATOM      9  S   UNL A   1      33.768  23.788  25.917  1.00  0.00    -0.082 SA
BRANCH   9  10
ATOM     10  C   UNL A   1      32.133  23.492  26.389  1.00  0.00     0.191 A 
ATOM     11  N   UNL A   1      31.394  24.242  27.174  1.00  0.00    -0.124 NA
ATOM     12  N   UNL A   1      31.398  22.427  25.952  1.00  0.00    -0.312 N 
ATOM     13  N   UNL A   1      30.147  23.663  27.254  1.00  0.00    -0.138 NA
ATOM     14  C   UNL A   1      30.166  22.576  26.517  1.00  0.00     0.226 A 
ATOM     15  C   UNL A   1      31.790  21.372  25.058  1.00  0.00     0.153 C 
ENDBRANCH   9  10
ENDBRANCH   7   9
ENDBRANCH   5   7
ENDBRANCH   3   5
ENDBRANCH   2   3
ENDBRANCH   1   2
BRANCH   1  16
ATOM     16  C   UNL A   1      31.960  29.699  25.344  1.00  0.00     0.275 C 
BRANCH  16  17
ATOM     17  O   UNL A   1      33.237  30.208  25.767  1.00  0.00    -0.458 OA
BRANCH  17  18
ATOM     18  C   UNL A   1      33.207  31.116  26.766  1.00  0.00     0.338 C 
ATOM     19  O   UNL A   1      32.388  31.999  26.947  1.00  0.00    -0.246 OA
BRANCH  18  20
ATOM     20  C   UNL A   1      34.384  30.924  27.634  1.00  0.00     0.060 A 
ATOM     21  C   UNL A   1      35.266  31.974  27.901  1.00  0.00     0.016 A 
ATOM     22  C   UNL A   1      34.648  29.644  28.122  1.00  0.00     0.016 A 
ATOM     23  C   UNL A   1      36.442  31.739  28.612  1.00  0.00     0.010 A 
ATOM     24  C   UNL A   1      35.791  29.423  28.892  1.00  0.00     0.010 A 
ATOM     25  C   UNL A   1      36.708  30.462  29.124  1.00  0.00    -0.014 A 
BRANCH  25  26
ATOM     26  C   UNL A   1      37.951  30.190  29.885  1.00  0.00     0.031 A 
ATOM     27  C   UNL A   1      39.000  29.285  29.306  1.00  0.00     0.074 A 
ATOM     28  C   UNL A   1      38.118  30.720  31.111  1.00  0.00     0.049 A 
ATOM     29  N   UNL A   1      40.061  28.771  29.874  1.00  0.00    -0.248 NA
ATOM     30  C   UNL A   1      38.826  28.898  27.897  1.00  0.00     0.031 C 
ATOM     31  C   UNL A   1      37.190  31.639  31.770  1.00  0.00     0.029 A 
ATOM     32  N   UNL A   1      39.123  30.543  32.029  1.00  0.00    -0.354 N 
ATOM     33  C   UNL A   1      40.658  27.971  28.909  1.00  0.00     0.074 A 
ATOM     34  C   UNL A   1      39.839  28.062  27.718  1.00  0.00     0.031 C 
ATOM     35  C   UNL A   1      37.666  31.945  32.987  1.00  0.00     0.029 A 
ATOM     36  C   UNL A   1      38.898  31.196  33.216  1.00  0.00     0.049 A 
ATOM     37  H   UNL A   1      39.927  30.003  31.854  1.00  0.00     0.167 HD
ATOM     38  C   UNL A   1      41.785  27.230  29.012  1.00  0.00     0.037 A 
ATOM     39  C   UNL A   1      39.583  31.159  34.374  1.00  0.00     0.037 A 
ATOM     40  C   UNL A   1      42.611  27.167  30.190  1.00  0.00     0.049 A 
ATOM     41  C   UNL A   1      40.808  30.295  34.476  1.00  0.00     0.074 A 
ATOM     42  C   UNL A   1      43.788  26.468  30.385  1.00  0.00     0.029 A 
ATOM     43  N   UNL A   1      42.341  27.834  31.377  1.00  0.00    -0.354 N 
ATOM     44  N   UNL A   1      41.358  29.529  33.566  1.00  0.00    -0.248 NA
ATOM     45  C   UNL A   1      41.499  30.278  35.773  1.00  0.00     0.031 C 
ATOM     46  C   UNL A   1      44.214  26.683  31.701  1.00  0.00     0.029 A 
ATOM     47  C   UNL A   1      43.322  27.548  32.313  1.00  0.00     0.049 A 
ATOM     48  H   UNL A   1      41.567  28.423  31.531  1.00  0.00     0.167 HD
ATOM     49  C   UNL A   1      42.465  28.952  34.171  1.00  0.00     0.074 A 
ATOM     50  C   UNL A   1      42.518  29.468  35.524  1.00  0.00     0.031 C 
ATOM     51  C   UNL A   1      43.356  28.071  33.654  1.00  0.00     0.037 A 
BRANCH  38  52
ATOM     52  C   UNL A   1      42.183  26.403  27.826  1.00  0.00     0.064 A 
ATOM     53  C   UNL A   1      43.189  26.816  26.942  1.00  0.00     0.173 A 
ATOM     54  C   UNL A   1      41.571  25.161  27.593  1.00  0.00     0.173 A 
ATOM     55  F   UNL A   1      43.792  28.002  27.111  1.00  0.00    -0.203 F 
ATOM     56  C   UNL A   1      43.555  26.023  25.856  1.00  0.00     0.198 A 
ATOM     57  C   UNL A   1      41.956  24.362  26.521  1.00  0.00     0.198 A 
ATOM     58  F   UNL A   1      40.603  24.721  28.411  1.00  0.00    -0.203 F 
ATOM     59  F   UNL A   1      44.490  26.457  24.999  1.00  0.00    -0.200 F 
ATOM     60  C   UNL A   1      42.944  24.796  25.650  1.00  0.00     0.200 A 
ATOM     61  F   UNL A   1      41.369  23.173  26.328  1.00  0.00    -0.200 F 
ATOM     62  F   UNL A   1      43.300  24.034  24.606  1.00  0.00    -0.200 F 
ENDBRANCH  38  52
BRANCH  39  63
ATOM     63  C   UNL A   1      39.103  31.947  35.537  1.00  0.00     0.064 A 
ATOM     64  C   UNL A   1      38.275  31.366  36.506  1.00  0.00     0.173 A 
ATOM     65  C   UNL A   1      39.469  33.289  35.707  1.00  0.00     0.173 A 
ATOM     66  F   UNL A   1      37.878  30.093  36.371  1.00  0.00    -0.203 F 
ATOM     67  C   UNL A   1      37.824  32.103  37.600  1.00  0.00     0.198 A 
ATOM     68  C   UNL A   1      39.039  34.017  36.814  1.00  0.00     0.198 A 
ATOM     69  F   UNL A   1      40.259  33.891  34.805  1.00  0.00    -0.203 F 
ATOM     70  F   UNL A   1      37.004  31.535  38.493  1.00  0.00    -0.200 F 
ATOM     71  C   UNL A   1      38.213  33.425  37.757  1.00  0.00     0.200 A 
ATOM     72  F   UNL A   1      39.426  35.291  36.968  1.00  0.00    -0.200 F 
ATOM     73  F   UNL A   1      37.785  34.130  38.813  1.00  0.00    -0.200 F 
ENDBRANCH  39  63
BRANCH  51  74
ATOM     74  C   UNL A   1      44.476  27.632  34.548  1.00  0.00     0.064 A 
ATOM     75  C   UNL A   1      45.679  28.351  34.620  1.00  0.00     0.173 A 
ATOM     76  C   UNL A   1      44.334  26.499  35.362  1.00  0.00     0.173 A 
ATOM     77  F   UNL A   1      45.867  29.431  33.848  1.00  0.00    -0.203 F 
ATOM     78  C   UNL A   1      46.707  27.936  35.463  1.00  0.00     0.198 A 
ATOM     79  C   UNL A   1      45.354  26.103  36.221  1.00  0.00     0.198 A 
ATOM     80  F   UNL A   1      43.200  25.783  35.331  1.00  0.00    -0.203 F 
ATOM     81  F   UNL A   1      47.863  28.613  35.487  1.00  0.00    -0.200 F 
ATOM     82  C   UNL A   1      46.542  26.818  36.267  1.00  0.00     0.200 A 
ATOM     83  F   UNL A   1      45.190  25.027  37.003  1.00  0.00    -0.200 F 
ATOM     84  F   UNL A   1      47.531  26.423  37.079  1.00  0.00    -0.200 F 
ENDBRANCH  51  74
ENDBRANCH  25  26
ENDBRANCH  18  20
ENDBRANCH  17  18
ENDBRANCH  16  17
ENDBRANCH   1  16
TORSDOF 14
ENDMDL
MODEL 2
REMARK VINA RESULT:     -10.6      1.977      3.056
REMARK SMILES C[C@@H](Sc1nncn1C)[C@@H](C)C(=O)OCCOC(=O)c1ccc(-c2c3nc(c(-c4c(F)c(F)c(F)c(F)c4F)c4ccc([nH]4)c(-c4c(F)c(F)c(F)c(F)c4F)c4nc(c(-c5c(F)c(F)c(F)c(F)c5F)c5ccc2[nH]5)C=C4)C=C3)cc1
REMARK SMILES IDX 15 1 14 2 12 3 13 4 10 5 11 6 2 7 1 8 3 9 4 10 5 11 8 12
REMARK SMILES IDX 6 13 7 14 9 15 16 16 17 17 18 18 19 19 20 20 21 21 82 22
REMARK SMILES IDX 22 23 81 24 23 25 24 26 25 27 75 28 26 29 80 30 74 31 76 32
REMARK SMILES IDX 27 33 79 34 73 35 72 36 28 38 60 39 40 40 59 41 41 42 44 43
REMARK SMILES IDX 58 44 77 45 42 46 43 47 57 49 78 50 45 51 29 52 30 53 38 54
REMARK SMILES IDX 31 55 32 56 36 57 39 58 33 59 34 60 37 61 35 62 61 63 62 64
REMARK SMILES IDX 70 65 63 66 64 67 68 68 71 69 65 70 66 71 69 72 67 73 46 74
REMARK SMILES IDX 47 75 55 76 48 77 49 78 53 79 56 80 50 81 51 82 54 83 52 84
REMARK H PARENT 76 37 44 48
REMARK Flexibility Score: inf
ROOT
ATOM      1  C   UNL A   1      31.937  28.439  27.567  1.00  0.00     0.274 C 
ENDROOT
BRANCH   1   2
ATOM      2  O   UNL A   1      31.065  27.349  27.204  1.00  0.00    -0.462 OA
BRANCH   2   3
ATOM      3  C   UNL A   1      31.620  26.399  26.410  1.00  0.00     0.309 C 
ATOM      4  O   UNL A   1      32.824  26.266  26.215  1.00  0.00    -0.252 OA
BRANCH   3   5
ATOM      5  C   UNL A   1      30.599  25.544  25.677  1.00  0.00     0.109 C 
ATOM      6  C   UNL A   1      30.957  24.091  26.003  1.00  0.00     0.021 C 
BRANCH   5   7
ATOM      7  C   UNL A   1      30.452  25.827  24.161  1.00  0.00     0.065 C 
ATOM      8  C   UNL A   1      30.483  24.529  23.343  1.00  0.00     0.021 C 
BRANCH   7   9
ATOM      9  S   UNL A   1      28.836  26.659  23.836  1.00  0.00    -0.082 SA
BRANCH   9  10
ATOM     10  C   UNL A   1      29.328  28.042  22.925  1.00  0.00     0.191 A 
ATOM     11  N   UNL A   1      30.474  28.207  22.305  1.00  0.00    -0.124 NA
ATOM     12  N   UNL A   1      28.535  29.134  22.714  1.00  0.00    -0.312 N 
ATOM     13  N   UNL A   1      30.436  29.430  21.671  1.00  0.00    -0.138 NA
ATOM     14  C   UNL A   1      29.268  29.972  21.927  1.00  0.00     0.226 A 
ATOM     15  C   UNL A   1      27.194  29.371  23.175  1.00  0.00     0.153 C 
ENDBRANCH   9  10
ENDBRANCH   7   9
ENDBRANCH   5   7
ENDBRANCH   3   5
ENDBRANCH   2   3
ENDBRANCH   1   2
BRANCH   1  16
ATOM     16  C   UNL A   1      31.814  29.592  26.574  1.00  0.00     0.275 C 
BRANCH  16  17
ATOM     17  O   UNL A   1      33.119  30.133  26.304  1.00  0.00    -0.458 OA
BRANCH  17  18
ATOM     18  C   UNL A   1      33.479  31.200  27.050  1.00  0.00     0.338 C 
ATOM     19  O   UNL A   1      32.886  32.255  27.177  1.00  0.00    -0.246 OA
BRANCH  18  20
ATOM     20  C   UNL A   1      34.780  30.929  27.692  1.00  0.00     0.060 A 
ATOM     21  C   UNL A   1      35.152  29.634  28.058  1.00  0.00     0.016 A 
ATOM     22  C   UNL A   1      35.604  32.010  28.004  1.00  0.00     0.016 A 
ATOM     23  C   UNL A   1      36.323  29.418  28.782  1.00  0.00     0.010 A 
ATOM     24  C   UNL A   1      36.810  31.787  28.669  1.00  0.00     0.010 A 
ATOM     25  C   UNL A   1      37.168  30.494  29.084  1.00  0.00    -0.014 A 
BRANCH  25  26
ATOM     26  C   UNL A   1      38.420  30.287  29.851  1.00  0.00     0.031 A 
ATOM     27  C   UNL A   1      39.513  29.429  29.282  1.00  0.00     0.074 A 
ATOM     28  C   UNL A   1      38.557  30.833  31.074  1.00  0.00     0.049 A 
ATOM     29  N   UNL A   1      40.595  28.971  29.859  1.00  0.00    -0.248 NA
ATOM     30  C   UNL A   1      39.364  29.024  27.876  1.00  0.00     0.031 C 
ATOM     31  C   UNL A   1      37.583  31.712  31.722  1.00  0.00     0.029 A 
ATOM     32  N   UNL A   1      39.566  30.712  31.997  1.00  0.00    -0.354 N 
ATOM     33  C   UNL A   1      41.233  28.193  28.902  1.00  0.00     0.074 A 
ATOM     34  C   UNL A   1      40.415  28.235  27.707  1.00  0.00     0.031 C 
ATOM     35  C   UNL A   1      38.040  32.050  32.938  1.00  0.00     0.029 A 
ATOM     36  C   UNL A   1      39.305  31.362  33.177  1.00  0.00     0.049 A 
ATOM     37  H   UNL A   1      40.395  30.210  31.828  1.00  0.00     0.167 HD
ATOM     38  C   UNL A   1      42.395  27.508  29.014  1.00  0.00     0.037 A 
ATOM     39  C   UNL A   1      39.987  31.367  34.338  1.00  0.00     0.037 A 
ATOM     40  C   UNL A   1      43.218  27.493  30.196  1.00  0.00     0.049 A 
ATOM     41  C   UNL A   1      41.251  30.563  34.451  1.00  0.00     0.074 A 
ATOM     42  C   UNL A   1      44.427  26.852  30.399  1.00  0.00     0.029 A 
ATOM     43  N   UNL A   1      42.912  28.155  31.377  1.00  0.00    -0.354 N 
ATOM     44  N   UNL A   1      41.841  29.818  33.548  1.00  0.00    -0.248 NA
ATOM     45  C   UNL A   1      41.938  30.589  35.750  1.00  0.00     0.031 C 
ATOM     46  C   UNL A   1      44.836  27.098  31.715  1.00  0.00     0.029 A 
ATOM     47  C   UNL A   1      43.902  27.923  32.318  1.00  0.00     0.049 A 
ATOM     48  H   UNL A   1      42.110  28.708  31.523  1.00  0.00     0.167 HD
ATOM     49  C   UNL A   1      42.972  29.299  34.162  1.00  0.00     0.074 A 
ATOM     50  C   UNL A   1      42.996  29.827  35.511  1.00  0.00     0.031 C 
ATOM     51  C   UNL A   1      43.906  28.458  33.655  1.00  0.00     0.037 A 
BRANCH  38  52
ATOM     52  C   UNL A   1      42.836  26.692  27.836  1.00  0.00     0.064 A 
ATOM     53  C   UNL A   1      42.370  25.386  27.626  1.00  0.00     0.173 A 
ATOM     54  C   UNL A   1      43.711  27.239  26.884  1.00  0.00     0.173 A 
ATOM     55  F   UNL A   1      41.548  24.812  28.516  1.00  0.00    -0.203 F 
ATOM     56  C   UNL A   1      42.779  24.651  26.515  1.00  0.00     0.198 A 
ATOM     57  C   UNL A   1      44.098  26.511  25.763  1.00  0.00     0.198 A 
ATOM     58  F   UNL A   1      44.183  28.485  27.039  1.00  0.00    -0.203 F 
ATOM     59  F   UNL A   1      42.355  23.390  26.357  1.00  0.00    -0.200 F 
ATOM     60  C   UNL A   1      43.636  25.215  25.583  1.00  0.00     0.200 A 
ATOM     61  F   UNL A   1      44.921  27.061  24.860  1.00  0.00    -0.200 F 
ATOM     62  F   UNL A   1      44.026  24.507  24.513  1.00  0.00    -0.200 F 
ENDBRANCH  38  52
BRANCH  39  63
ATOM     63  C   UNL A   1      39.465  32.139  35.494  1.00  0.00     0.064 A 
ATOM     64  C   UNL A   1      38.593  31.550  36.418  1.00  0.00     0.173 A 
ATOM     65  C   UNL A   1      39.836  33.476  35.701  1.00  0.00     0.173 A 
ATOM     66  F   UNL A   1      38.191  30.283  36.244  1.00  0.00    -0.203 F 
ATOM     67  C   UNL A   1      38.102  32.273  37.504  1.00  0.00     0.198 A 
ATOM     68  C   UNL A   1      39.366  34.189  36.802  1.00  0.00     0.198 A 
ATOM     69  F   UNL A   1      40.668  34.084  34.843  1.00  0.00    -0.203 F 
ATOM     70  F   UNL A   1      37.241  31.698  38.353  1.00  0.00    -0.200 F 
ATOM     71  C   UNL A   1      38.496  33.588  37.700  1.00  0.00     0.200 A 
ATOM     72  F   UNL A   1      39.757  35.457  36.994  1.00  0.00    -0.200 F 
ATOM     73  F   UNL A   1      38.030  34.280  38.748  1.00  0.00    -0.200 F 
ENDBRANCH  39  63
BRANCH  51  74
ATOM     74  C   UNL A   1      45.043  28.079  34.556  1.00  0.00     0.064 A 
ATOM     75  C   UNL A   1      44.988  26.931  35.359  1.00  0.00     0.173 A 
ATOM     76  C   UNL A   1      46.210  28.856  34.593  1.00  0.00     0.173 A 
ATOM     77  F   UNL A   1      43.886  26.166  35.370  1.00  0.00    -0.203 F 
ATOM     78  C   UNL A   1      46.056  26.586  36.183  1.00  0.00     0.198 A 
ATOM     79  C   UNL A   1      47.284  28.494  35.399  1.00  0.00     0.198 A 
ATOM     80  F   UNL A   1      46.310  29.961  33.838  1.00  0.00    -0.203 F 
ATOM     81  F   UNL A   1      45.968  25.507  36.973  1.00  0.00    -0.200 F 
ATOM     82  C   UNL A   1      47.205  27.363  36.197  1.00  0.00     0.200 A 
ATOM     83  F   UNL A   1      48.397  29.241  35.406  1.00  0.00    -0.200 F 
ATOM     84  F   UNL A   1      48.232  27.027  36.989  1.00  0.00    -0.200 F 
ENDBRANCH  51  74
ENDBRANCH  25  26
ENDBRANCH  18  20
ENDBRANCH  17  18
ENDBRANCH  16  17
ENDBRANCH   1  16
TORSDOF 14
ENDMDL
MODEL 3
REMARK VINA RESULT:     -10.6      4.649      9.808
REMARK SMILES C[C@@H](Sc1nncn1C)[C@@H](C)C(=O)OCCOC(=O)c1ccc(-c2c3nc(c(-c4c(F)c(F)c(F)c(F)c4F)c4ccc([nH]4)c(-c4c(F)c(F)c(F)c(F)c4F)c4nc(c(-c5c(F)c(F)c(F)c(F)c5F)c5ccc2[nH]5)C=C4)C=C3)cc1
REMARK SMILES IDX 15 1 14 2 12 3 13 4 10 5 11 6 2 7 1 8 3 9 4 10 5 11 8 12
REMARK SMILES IDX 6 13 7 14 9 15 16 16 17 17 18 18 19 19 20 20 21 21 82 22
REMARK SMILES IDX 22 23 81 24 23 25 24 26 25 27 75 28 26 29 80 30 74 31 76 32
REMARK SMILES IDX 27 33 79 34 73 35 72 36 28 38 60 39 40 40 59 41 41 42 44 43
REMARK SMILES IDX 58 44 77 45 42 46 43 47 57 49 78 50 45 51 29 52 30 53 38 54
REMARK SMILES IDX 31 55 32 56 36 57 39 58 33 59 34 60 37 61 35 62 61 63 62 64
REMARK SMILES IDX 70 65 63 66 64 67 68 68 71 69 65 70 66 71 69 72 67 73 46 74
REMARK SMILES IDX 47 75 55 76 48 77 49 78 53 79 56 80 50 81 51 82 54 83 52 84
REMARK H PARENT 76 37 44 48
REMARK Flexibility Score: inf
ROOT
ATOM      1  C   UNL A   1      35.640  33.899  28.714  1.00  0.00     0.274 C 
ENDROOT
BRANCH   1   2
ATOM      2  O   UNL A   1      36.346  33.193  29.754  1.00  0.00    -0.462 OA
BRANCH   2   3
ATOM      3  C   UNL A   1      37.456  33.813  30.228  1.00  0.00     0.309 C 
ATOM      4  O   UNL A   1      38.510  33.931  29.610  1.00  0.00    -0.252 OA
BRANCH   3   5
ATOM      5  C   UNL A   1      37.325  34.281  31.669  1.00  0.00     0.109 C 
ATOM      6  C   UNL A   1      38.738  34.230  32.257  1.00  0.00     0.021 C 
BRANCH   5   7
ATOM      7  C   UNL A   1      36.265  33.537  32.521  1.00  0.00     0.065 C 
ATOM      8  C   UNL A   1      36.925  32.666  33.599  1.00  0.00     0.021 C 
BRANCH   7   9
ATOM      9  S   UNL A   1      35.179  34.762  33.373  1.00  0.00    -0.082 SA
BRANCH   9  10
ATOM     10  C   UNL A   1      34.059  35.171  32.123  1.00  0.00     0.191 A 
ATOM     11  N   UNL A   1      33.474  34.340  31.291  1.00  0.00    -0.124 NA
ATOM     12  N   UNL A   1      33.619  36.441  31.883  1.00  0.00    -0.312 N 
ATOM     13  N   UNL A   1      32.630  35.076  30.488  1.00  0.00    -0.138 NA
ATOM     14  C   UNL A   1      32.730  36.333  30.855  1.00  0.00     0.226 A 
ATOM     15  C   UNL A   1      33.968  37.656  32.568  1.00  0.00     0.153 C 
ENDBRANCH   9  10
ENDBRANCH   7   9
ENDBRANCH   5   7
ENDBRANCH   3   5
ENDBRANCH   2   3
ENDBRANCH   1   2
BRANCH   1  16
ATOM     16  C   UNL A   1      34.650  32.977  28.003  1.00  0.00     0.275 C 
BRANCH  16  17
ATOM     17  O   UNL A   1      34.539  31.742  28.729  1.00  0.00    -0.458 OA
BRANCH  17  18
ATOM     18  C   UNL A   1      34.765  30.617  28.016  1.00  0.00     0.338 C 
ATOM     19  O   UNL A   1      34.023  30.085  27.210  1.00  0.00    -0.246 OA
BRANCH  18  20
ATOM     20  C   UNL A   1      36.076  30.056  28.392  1.00  0.00     0.060 A 
ATOM     21  C   UNL A   1      36.289  29.494  29.653  1.00  0.00     0.016 A 
ATOM     22  C   UNL A   1      37.132  30.172  27.488  1.00  0.00     0.016 A 
ATOM     23  C   UNL A   1      37.568  29.093  30.036  1.00  0.00     0.010 A 
ATOM     24  C   UNL A   1      38.398  29.707  27.845  1.00  0.00     0.010 A 
ATOM     25  C   UNL A   1      38.632  29.186  29.129  1.00  0.00    -0.014 A 
BRANCH  25  26
ATOM     26  C   UNL A   1      40.000  28.762  29.513  1.00  0.00     0.031 A 
ATOM     27  C   UNL A   1      40.854  29.667  30.354  1.00  0.00     0.074 A 
ATOM     28  C   UNL A   1      40.489  27.588  29.073  1.00  0.00     0.049 A 
ATOM     29  N   UNL A   1      42.128  29.576  30.643  1.00  0.00    -0.248 NA
ATOM     30  C   UNL A   1      40.187  30.839  30.943  1.00  0.00     0.031 C 
ATOM     31  C   UNL A   1      39.749  26.608  28.279  1.00  0.00     0.029 A 
ATOM     32  N   UNL A   1      41.735  27.031  29.217  1.00  0.00    -0.354 N 
ATOM     33  C   UNL A   1      42.422  30.695  31.410  1.00  0.00     0.074 A 
ATOM     34  C   UNL A   1      41.197  31.456  31.539  1.00  0.00     0.031 C 
ATOM     35  C   UNL A   1      40.554  25.569  28.004  1.00  0.00     0.029 A 
ATOM     36  C   UNL A   1      41.881  25.841  28.548  1.00  0.00     0.049 A 
ATOM     37  H   UNL A   1      42.453  27.443  29.750  1.00  0.00     0.167 HD
ATOM     38  C   UNL A   1      43.609  31.052  31.954  1.00  0.00     0.037 A 
ATOM     39  C   UNL A   1      42.973  25.078  28.356  1.00  0.00     0.037 A 
ATOM     40  C   UNL A   1      44.818  30.277  31.846  1.00  0.00     0.049 A 
ATOM     41  C   UNL A   1      44.288  25.518  28.934  1.00  0.00     0.074 A 
ATOM     42  C   UNL A   1      46.064  30.538  32.386  1.00  0.00     0.029 A 
ATOM     43  N   UNL A   1      44.927  29.082  31.148  1.00  0.00    -0.354 N 
ATOM     44  N   UNL A   1      44.564  26.584  29.645  1.00  0.00    -0.248 NA
ATOM     45  C   UNL A   1      45.448  24.655  28.670  1.00  0.00     0.031 C 
ATOM     46  C   UNL A   1      46.938  29.520  31.986  1.00  0.00     0.029 A 
ATOM     47  C   UNL A   1      46.225  28.604  31.229  1.00  0.00     0.049 A 
ATOM     48  H   UNL A   1      44.191  28.640  30.666  1.00  0.00     0.167 HD
ATOM     49  C   UNL A   1      45.920  26.514  29.926  1.00  0.00     0.074 A 
ATOM     50  C   UNL A   1      46.411  25.292  29.322  1.00  0.00     0.031 C 
ATOM     51  C   UNL A   1      46.692  27.386  30.620  1.00  0.00     0.037 A 
BRANCH  38  52
ATOM     52  C   UNL A   1      43.669  32.353  32.697  1.00  0.00     0.064 A 
ATOM     53  C   UNL A   1      43.465  32.423  34.082  1.00  0.00     0.173 A 
ATOM     54  C   UNL A   1      43.971  33.543  32.015  1.00  0.00     0.173 A 
ATOM     55  F   UNL A   1      43.156  31.318  34.775  1.00  0.00    -0.203 F 
ATOM     56  C   UNL A   1      43.543  33.641  34.755  1.00  0.00     0.198 A 
ATOM     57  C   UNL A   1      44.071  34.753  32.694  1.00  0.00     0.198 A 
ATOM     58  F   UNL A   1      44.177  33.528  30.690  1.00  0.00    -0.203 F 
ATOM     59  F   UNL A   1      43.302  33.691  36.072  1.00  0.00    -0.200 F 
ATOM     60  C   UNL A   1      43.852  34.802  34.063  1.00  0.00     0.200 A 
ATOM     61  F   UNL A   1      44.377  35.873  32.025  1.00  0.00    -0.200 F 
ATOM     62  F   UNL A   1      43.929  35.971  34.714  1.00  0.00    -0.200 F 
ENDBRANCH  38  52
BRANCH  39  63
ATOM     63  C   UNL A   1      42.868  23.834  27.553  1.00  0.00     0.064 A 
ATOM     64  C   UNL A   1      42.477  22.626  28.147  1.00  0.00     0.173 A 
ATOM     65  C   UNL A   1      43.146  23.829  26.179  1.00  0.00     0.173 A 
ATOM     66  F   UNL A   1      42.226  22.578  29.463  1.00  0.00    -0.203 F 
ATOM     67  C   UNL A   1      42.376  21.457  27.396  1.00  0.00     0.198 A 
ATOM     68  C   UNL A   1      43.020  22.665  25.425  1.00  0.00     0.198 A 
ATOM     69  F   UNL A   1      43.526  24.959  25.566  1.00  0.00    -0.203 F 
ATOM     70  F   UNL A   1      42.035  20.308  27.994  1.00  0.00    -0.200 F 
ATOM     71  C   UNL A   1      42.639  21.479  26.034  1.00  0.00     0.200 A 
ATOM     72  F   UNL A   1      43.265  22.692  24.107  1.00  0.00    -0.200 F 
ATOM     73  F   UNL A   1      42.535  20.356  25.312  1.00  0.00    -0.200 F 
ENDBRANCH  39  63
BRANCH  51  74
ATOM     74  C   UNL A   1      48.140  27.033  30.783  1.00  0.00     0.064 A 
ATOM     75  C   UNL A   1      48.576  26.188  31.815  1.00  0.00     0.173 A 
ATOM     76  C   UNL A   1      49.096  27.521  29.880  1.00  0.00     0.173 A 
ATOM     77  F   UNL A   1      47.701  25.712  32.712  1.00  0.00    -0.203 F 
ATOM     78  C   UNL A   1      49.923  25.861  31.947  1.00  0.00     0.198 A 
ATOM     79  C   UNL A   1      50.437  27.172  30.002  1.00  0.00     0.198 A 
ATOM     80  F   UNL A   1      48.726  28.328  28.875  1.00  0.00    -0.203 F 
ATOM     81  F   UNL A   1      50.324  25.086  32.963  1.00  0.00    -0.200 F 
ATOM     82  C   UNL A   1      50.851  26.347  31.038  1.00  0.00     0.200 A 
ATOM     83  F   UNL A   1      51.332  27.635  29.118  1.00  0.00    -0.200 F 
ATOM     84  F   UNL A   1      52.146  26.028  31.165  1.00  0.00    -0.200 F 
ENDBRANCH  51  74
ENDBRANCH  25  26
ENDBRANCH  18  20
ENDBRANCH  17  18
ENDBRANCH  16  17
ENDBRANCH   1  16
TORSDOF 14
ENDMDL
