MODEL 1
REMARK VINA RESULT:     -12.5      0.000      0.000
REMARK SMILES Cc1ccn2c([C@@H]3C[C@H]3C(=O)OCCOC(=O)c3ccc(-c4c5nc(c(-c6c(F)c(F)c(F)c(F)c6F)c6ccc([nH]6)c(-c6c(F)c(F)c(F)c(F)c6F)c6nc(c(-c7c(F)c(F)c(F)c(F)c7F)c7ccc4[nH]7)C=C6)C=C5)cc3)nnc2c1
REMARK SMILES IDX 14 1 13 2 12 3 10 4 11 5 9 6 7 7 8 8 6 9 1 10 2 11 3 12
REMARK SMILES IDX 84 13 4 14 83 15 5 16 82 17 81 18 15 19 16 20 17 21 18 22
REMARK SMILES IDX 19 23 80 24 20 25 79 26 21 27 22 28 23 29 73 30 24 31 78 32
REMARK SMILES IDX 72 33 74 34 25 35 77 36 71 37 70 38 26 40 58 41 38 42 57 43
REMARK SMILES IDX 39 44 42 45 56 46 75 47 40 48 41 49 55 51 76 52 43 53 27 54
REMARK SMILES IDX 28 55 36 56 29 57 30 58 34 59 37 60 31 61 32 62 35 63 33 64
REMARK SMILES IDX 59 65 60 66 68 67 61 68 62 69 66 70 69 71 63 72 64 73 67 74
REMARK SMILES IDX 65 75 44 76 45 77 53 78 46 79 47 80 51 81 54 82 48 83 49 84
REMARK SMILES IDX 52 85 50 86
REMARK H PARENT 74 39 42 50
REMARK Flexibility Score: inf
ROOT
ATOM      1  C   UNL A   1      34.410  34.018  28.001  1.00  0.00     0.275 C 
ENDROOT
BRANCH   1   2
ATOM      2  C   UNL A   1      34.218  34.055  29.523  1.00  0.00     0.274 C 
BRANCH   2   3
ATOM      3  O   UNL A   1      32.984  34.737  29.862  1.00  0.00    -0.462 OA
BRANCH   3   4
ATOM      4  C   UNL A   1      33.133  35.837  30.660  1.00  0.00     0.309 C 
ATOM      5  O   UNL A   1      32.904  36.980  30.337  1.00  0.00    -0.252 OA
BRANCH   4   6
ATOM      6  C   UNL A   1      33.516  35.501  32.065  1.00  0.00     0.110 C 
ATOM      7  C   UNL A   1      34.920  35.609  32.607  1.00  0.00     0.073 C 
ATOM      8  C   UNL A   1      33.858  36.586  33.038  1.00  0.00     0.028 C 
BRANCH   7   9
ATOM      9  C   UNL A   1      35.505  34.564  33.570  1.00  0.00     0.141 A 
ATOM     10  C   UNL A   1      40.087  31.473  34.161  1.00  0.00     0.044 C 
ATOM     11  C   UNL A   1      38.716  32.054  33.951  1.00  0.00    -0.046 A 
ATOM     12  C   UNL A   1      38.203  32.199  32.587  1.00  0.00     0.022 A 
ATOM     13  C   UNL A   1      37.979  32.491  34.993  1.00  0.00     0.053 A 
ATOM     14  C   UNL A   1      37.104  32.951  32.363  1.00  0.00     0.095 A 
ATOM     15  C   UNL A   1      36.801  33.251  34.759  1.00  0.00     0.161 A 
ATOM     16  N   UNL A   1      36.458  33.560  33.443  1.00  0.00    -0.286 N 
ATOM     17  N   UNL A   1      35.959  33.827  35.582  1.00  0.00    -0.130 NA
ATOM     18  N   UNL A   1      35.153  34.647  34.841  1.00  0.00    -0.134 NA
ENDBRANCH   7   9
ENDBRANCH   4   6
ENDBRANCH   3   4
ENDBRANCH   2   3
ENDBRANCH   1   2
BRANCH   1  19
ATOM     19  O   UNL A   1      35.456  33.078  27.702  1.00  0.00    -0.458 OA
BRANCH  19  20
ATOM     20  C   UNL A   1      35.105  31.777  27.834  1.00  0.00     0.338 C 
ATOM     21  O   UNL A   1      34.202  31.193  27.264  1.00  0.00    -0.246 OA
BRANCH  20  22
ATOM     22  C   UNL A   1      36.275  31.116  28.442  1.00  0.00     0.060 A 
ATOM     23  C   UNL A   1      37.376  31.821  28.950  1.00  0.00     0.016 A 
ATOM     24  C   UNL A   1      36.344  29.744  28.261  1.00  0.00     0.016 A 
ATOM     25  C   UNL A   1      38.602  31.167  29.126  1.00  0.00     0.010 A 
ATOM     26  C   UNL A   1      37.562  29.117  28.452  1.00  0.00     0.010 A 
ATOM     27  C   UNL A   1      38.721  29.819  28.787  1.00  0.00    -0.014 A 
BRANCH  27  28
ATOM     28  C   UNL A   1      39.977  29.065  28.954  1.00  0.00     0.031 A 
ATOM     29  C   UNL A   1      40.353  28.828  30.382  1.00  0.00     0.074 A 
ATOM     30  C   UNL A   1      40.671  28.422  27.976  1.00  0.00     0.049 A 
ATOM     31  N   UNL A   1      41.505  29.031  30.934  1.00  0.00    -0.248 NA
ATOM     32  C   UNL A   1      39.329  28.341  31.324  1.00  0.00     0.031 C 
ATOM     33  C   UNL A   1      40.350  28.274  26.556  1.00  0.00     0.029 A 
ATOM     34  N   UNL A   1      41.825  27.680  28.077  1.00  0.00    -0.354 N 
ATOM     35  C   UNL A   1      41.389  28.596  32.249  1.00  0.00     0.074 A 
ATOM     36  C   UNL A   1      40.022  28.204  32.452  1.00  0.00     0.031 C 
ATOM     37  C   UNL A   1      41.153  27.344  25.979  1.00  0.00     0.029 A 
ATOM     38  C   UNL A   1      42.172  26.950  26.934  1.00  0.00     0.049 A 
ATOM     39  H   UNL A   1      42.370  27.664  28.897  1.00  0.00     0.167 HD
ATOM     40  C   UNL A   1      42.460  28.482  33.074  1.00  0.00     0.037 A 
ATOM     41  C   UNL A   1      43.233  26.110  26.767  1.00  0.00     0.037 A 
ATOM     42  C   UNL A   1      43.528  29.350  32.675  1.00  0.00     0.049 A 
ATOM     43  C   UNL A   1      44.225  26.454  27.807  1.00  0.00     0.074 A 
ATOM     44  C   UNL A   1      43.613  30.722  32.530  1.00  0.00     0.029 A 
ATOM     45  N   UNL A   1      44.585  28.842  31.963  1.00  0.00    -0.354 N 
ATOM     46  N   UNL A   1      44.919  27.553  27.824  1.00  0.00    -0.248 NA
ATOM     47  C   UNL A   1      44.153  25.725  29.060  1.00  0.00     0.031 C 
ATOM     48  C   UNL A   1      44.353  30.916  31.329  1.00  0.00     0.029 A 
ATOM     49  C   UNL A   1      44.743  29.659  30.868  1.00  0.00     0.049 A 
ATOM     50  H   UNL A   1      45.123  28.050  32.190  1.00  0.00     0.167 HD
ATOM     51  C   UNL A   1      44.993  27.887  29.163  1.00  0.00     0.074 A 
ATOM     52  C   UNL A   1      44.575  26.686  29.883  1.00  0.00     0.031 C 
ATOM     53  C   UNL A   1      45.117  29.185  29.559  1.00  0.00     0.037 A 
BRANCH  40  54
ATOM     54  C   UNL A   1      42.577  27.415  34.115  1.00  0.00     0.064 A 
ATOM     55  C   UNL A   1      43.148  26.171  33.801  1.00  0.00     0.173 A 
ATOM     56  C   UNL A   1      41.903  27.497  35.355  1.00  0.00     0.173 A 
ATOM     57  F   UNL A   1      43.778  25.987  32.631  1.00  0.00    -0.203 F 
ATOM     58  C   UNL A   1      43.021  25.073  34.656  1.00  0.00     0.198 A 
ATOM     59  C   UNL A   1      41.814  26.411  36.221  1.00  0.00     0.198 A 
ATOM     60  F   UNL A   1      41.233  28.600  35.718  1.00  0.00    -0.203 F 
ATOM     61  F   UNL A   1      43.502  23.880  34.279  1.00  0.00    -0.200 F 
ATOM     62  C   UNL A   1      42.353  25.193  35.862  1.00  0.00     0.200 A 
ATOM     63  F   UNL A   1      41.144  26.541  37.376  1.00  0.00    -0.200 F 
ATOM     64  F   UNL A   1      42.190  24.128  36.658  1.00  0.00    -0.200 F 
ENDBRANCH  40  54
BRANCH  41  65
ATOM     65  C   UNL A   1      43.427  24.883  25.943  1.00  0.00     0.064 A 
ATOM     66  C   UNL A   1      44.580  24.714  25.145  1.00  0.00     0.173 A 
ATOM     67  C   UNL A   1      42.678  23.722  26.197  1.00  0.00     0.173 A 
ATOM     68  F   UNL A   1      45.376  25.759  24.874  1.00  0.00    -0.203 F 
ATOM     69  C   UNL A   1      44.987  23.456  24.683  1.00  0.00     0.198 A 
ATOM     70  C   UNL A   1      43.084  22.465  25.733  1.00  0.00     0.198 A 
ATOM     71  F   UNL A   1      41.599  23.770  26.993  1.00  0.00    -0.203 F 
ATOM     72  F   UNL A   1      46.134  23.328  24.001  1.00  0.00    -0.200 F 
ATOM     73  C   UNL A   1      44.248  22.329  24.995  1.00  0.00     0.200 A 
ATOM     74  F   UNL A   1      42.382  21.374  26.071  1.00  0.00    -0.200 F 
ATOM     75  F   UNL A   1      44.678  21.113  24.629  1.00  0.00    -0.200 F 
ENDBRANCH  41  65
BRANCH  53  76
ATOM     76  C   UNL A   1      45.413  30.233  28.515  1.00  0.00     0.064 A 
ATOM     77  C   UNL A   1      44.434  30.882  27.739  1.00  0.00     0.173 A 
ATOM     78  C   UNL A   1      46.724  30.721  28.426  1.00  0.00     0.173 A 
ATOM     79  F   UNL A   1      43.141  30.546  27.828  1.00  0.00    -0.203 F 
ATOM     80  C   UNL A   1      44.761  31.949  26.901  1.00  0.00     0.198 A 
ATOM     81  C   UNL A   1      47.040  31.814  27.622  1.00  0.00     0.198 A 
ATOM     82  F   UNL A   1      47.696  30.175  29.173  1.00  0.00    -0.203 F 
ATOM     83  F   UNL A   1      43.810  32.550  26.173  1.00  0.00    -0.200 F 
ATOM     84  C   UNL A   1      46.061  32.423  26.855  1.00  0.00     0.200 A 
ATOM     85  F   UNL A   1      48.289  32.300  27.622  1.00  0.00    -0.200 F 
ATOM     86  F   UNL A   1      46.365  33.486  26.097  1.00  0.00    -0.200 F 
ENDBRANCH  53  76
ENDBRANCH  27  28
ENDBRANCH  20  22
ENDBRANCH  19  20
ENDBRANCH   1  19
TORSDOF 12
ENDMDL
MODEL 2
REMARK VINA RESULT:     -12.4      4.500     11.768
REMARK SMILES Cc1ccn2c([C@@H]3C[C@H]3C(=O)OCCOC(=O)c3ccc(-c4c5nc(c(-c6c(F)c(F)c(F)c(F)c6F)c6ccc([nH]6)c(-c6c(F)c(F)c(F)c(F)c6F)c6nc(c(-c7c(F)c(F)c(F)c(F)c7F)c7ccc4[nH]7)C=C6)C=C5)cc3)nnc2c1
REMARK SMILES IDX 14 1 13 2 12 3 10 4 11 5 9 6 7 7 8 8 6 9 1 10 2 11 3 12
REMARK SMILES IDX 84 13 4 14 83 15 5 16 82 17 81 18 15 19 16 20 17 21 18 22
REMARK SMILES IDX 19 23 80 24 20 25 79 26 21 27 22 28 23 29 73 30 24 31 78 32
REMARK SMILES IDX 72 33 74 34 25 35 77 36 71 37 70 38 26 40 58 41 38 42 57 43
REMARK SMILES IDX 39 44 42 45 56 46 75 47 40 48 41 49 55 51 76 52 43 53 27 54
REMARK SMILES IDX 28 55 36 56 29 57 30 58 34 59 37 60 31 61 32 62 35 63 33 64
REMARK SMILES IDX 59 65 60 66 68 67 61 68 62 69 66 70 69 71 63 72 64 73 67 74
REMARK SMILES IDX 65 75 44 76 45 77 53 78 46 79 47 80 51 81 54 82 48 83 49 84
REMARK SMILES IDX 52 85 50 86
REMARK H PARENT 74 39 42 50
REMARK Flexibility Score: inf
ROOT
ATOM      1  C   UNL A   1      41.081  20.763  26.371  1.00  0.00     0.275 C 
ENDROOT
BRANCH   1   2
ATOM      2  C   UNL A   1      41.987  19.527  26.291  1.00  0.00     0.274 C 
BRANCH   2   3
ATOM      3  O   UNL A   1      42.654  19.469  25.005  1.00  0.00    -0.462 OA
BRANCH   3   4
ATOM      4  C   UNL A   1      43.984  19.155  25.058  1.00  0.00     0.309 C 
ATOM      5  O   UNL A   1      44.444  18.078  25.363  1.00  0.00    -0.252 OA
BRANCH   4   6
ATOM      6  C   UNL A   1      44.872  20.260  24.585  1.00  0.00     0.110 C 
ATOM      7  C   UNL A   1      45.808  21.034  25.481  1.00  0.00     0.073 C 
ATOM      8  C   UNL A   1      46.350  20.051  24.476  1.00  0.00     0.028 C 
BRANCH   7   9
ATOM      9  C   UNL A   1      46.013  22.549  25.331  1.00  0.00     0.141 A 
ATOM     10  C   UNL A   1      47.614  26.910  28.384  1.00  0.00     0.044 C 
ATOM     11  C   UNL A   1      46.921  25.859  27.562  1.00  0.00    -0.046 A 
ATOM     12  C   UNL A   1      46.066  24.877  28.232  1.00  0.00     0.022 A 
ATOM     13  C   UNL A   1      47.115  25.777  26.230  1.00  0.00     0.053 A 
ATOM     14  C   UNL A   1      45.653  23.781  27.560  1.00  0.00     0.095 A 
ATOM     15  C   UNL A   1      46.648  24.642  25.513  1.00  0.00     0.161 A 
ATOM     16  N   UNL A   1      46.027  23.615  26.223  1.00  0.00    -0.286 N 
ATOM     17  N   UNL A   1      46.760  24.303  24.251  1.00  0.00    -0.130 NA
ATOM     18  N   UNL A   1      46.365  22.998  24.139  1.00  0.00    -0.134 NA
ENDBRANCH   7   9
ENDBRANCH   4   6
ENDBRANCH   3   4
ENDBRANCH   2   3
ENDBRANCH   1   2
BRANCH   1  19
ATOM     19  O   UNL A   1      41.784  21.790  27.091  1.00  0.00    -0.458 OA
BRANCH  19  20
ATOM     20  C   UNL A   1      42.156  22.856  26.343  1.00  0.00     0.338 C 
ATOM     21  O   UNL A   1      42.538  22.851  25.187  1.00  0.00    -0.246 OA
BRANCH  20  22
ATOM     22  C   UNL A   1      41.596  24.032  27.033  1.00  0.00     0.060 A 
ATOM     23  C   UNL A   1      40.598  24.845  26.477  1.00  0.00     0.016 A 
ATOM     24  C   UNL A   1      42.287  24.444  28.162  1.00  0.00     0.016 A 
ATOM     25  C   UNL A   1      40.404  26.144  26.965  1.00  0.00     0.010 A 
ATOM     26  C   UNL A   1      42.071  25.726  28.633  1.00  0.00     0.010 A 
ATOM     27  C   UNL A   1      41.212  26.623  27.996  1.00  0.00    -0.014 A 
BRANCH  27  28
ATOM     28  C   UNL A   1      41.059  27.975  28.563  1.00  0.00     0.031 A 
ATOM     29  C   UNL A   1      42.137  28.927  28.151  1.00  0.00     0.074 A 
ATOM     30  C   UNL A   1      39.970  28.460  29.219  1.00  0.00     0.049 A 
ATOM     31  N   UNL A   1      42.827  29.710  28.916  1.00  0.00    -0.248 NA
ATOM     32  C   UNL A   1      42.527  29.003  26.731  1.00  0.00     0.031 C 
ATOM     33  C   UNL A   1      38.688  27.809  29.493  1.00  0.00     0.029 A 
ATOM     34  N   UNL A   1      39.759  29.715  29.738  1.00  0.00    -0.354 N 
ATOM     35  C   UNL A   1      43.648  30.452  28.075  1.00  0.00     0.074 A 
ATOM     36  C   UNL A   1      43.448  29.963  26.740  1.00  0.00     0.031 C 
ATOM     37  C   UNL A   1      37.778  28.713  29.934  1.00  0.00     0.029 A 
ATOM     38  C   UNL A   1      38.448  29.982  30.151  1.00  0.00     0.049 A 
ATOM     39  H   UNL A   1      40.480  30.381  29.815  1.00  0.00     0.167 HD
ATOM     40  C   UNL A   1      44.375  31.509  28.516  1.00  0.00     0.037 A 
ATOM     41  C   UNL A   1      37.951  31.144  30.665  1.00  0.00     0.037 A 
ATOM     42  C   UNL A   1      44.649  31.412  29.920  1.00  0.00     0.049 A 
ATOM     43  C   UNL A   1      39.103  31.923  31.165  1.00  0.00     0.074 A 
ATOM     44  C   UNL A   1      45.311  30.465  30.679  1.00  0.00     0.029 A 
ATOM     45  N   UNL A   1      43.892  32.129  30.811  1.00  0.00    -0.354 N 
ATOM     46  N   UNL A   1      39.809  31.600  32.208  1.00  0.00    -0.248 NA
ATOM     47  C   UNL A   1      39.713  32.869  30.249  1.00  0.00     0.031 C 
ATOM     48  C   UNL A   1      44.514  30.315  31.850  1.00  0.00     0.029 A 
ATOM     49  C   UNL A   1      43.471  31.238  31.768  1.00  0.00     0.049 A 
ATOM     50  H   UNL A   1      43.691  33.092  30.772  1.00  0.00     0.167 HD
ATOM     51  C   UNL A   1      41.103  31.939  31.860  1.00  0.00     0.074 A 
ATOM     52  C   UNL A   1      40.973  32.789  30.679  1.00  0.00     0.031 C 
ATOM     53  C   UNL A   1      42.171  31.279  32.390  1.00  0.00     0.037 A 
BRANCH  40  54
ATOM     54  C   UNL A   1      44.641  32.721  27.682  1.00  0.00     0.064 A 
ATOM     55  C   UNL A   1      45.826  32.828  26.937  1.00  0.00     0.173 A 
ATOM     56  C   UNL A   1      43.871  33.900  27.803  1.00  0.00     0.173 A 
ATOM     57  F   UNL A   1      46.640  31.771  26.796  1.00  0.00    -0.203 F 
ATOM     58  C   UNL A   1      46.231  34.043  26.378  1.00  0.00     0.198 A 
ATOM     59  C   UNL A   1      44.258  35.100  27.211  1.00  0.00     0.198 A 
ATOM     60  F   UNL A   1      42.775  33.948  28.574  1.00  0.00    -0.203 F 
ATOM     61  F   UNL A   1      47.412  34.125  25.751  1.00  0.00    -0.200 F 
ATOM     62  C   UNL A   1      45.449  35.177  26.518  1.00  0.00     0.200 A 
ATOM     63  F   UNL A   1      43.499  36.193  27.376  1.00  0.00    -0.200 F 
ATOM     64  F   UNL A   1      45.861  36.352  26.025  1.00  0.00    -0.200 F 
ENDBRANCH  40  54
BRANCH  41  65
ATOM     65  C   UNL A   1      36.606  31.782  30.596  1.00  0.00     0.064 A 
ATOM     66  C   UNL A   1      35.817  31.951  31.755  1.00  0.00     0.173 A 
ATOM     67  C   UNL A   1      36.232  32.549  29.479  1.00  0.00     0.173 A 
ATOM     68  F   UNL A   1      36.117  31.286  32.881  1.00  0.00    -0.203 F 
ATOM     69  C   UNL A   1      34.762  32.871  31.809  1.00  0.00     0.198 A 
ATOM     70  C   UNL A   1      35.176  33.466  29.533  1.00  0.00     0.198 A 
ATOM     71  F   UNL A   1      36.955  32.502  28.350  1.00  0.00    -0.203 F 
ATOM     72  F   UNL A   1      34.094  33.061  32.956  1.00  0.00    -0.200 F 
ATOM     73  C   UNL A   1      34.455  33.642  30.703  1.00  0.00     0.200 A 
ATOM     74  F   UNL A   1      34.909  34.235  28.468  1.00  0.00    -0.200 F 
ATOM     75  F   UNL A   1      33.502  34.582  30.775  1.00  0.00    -0.200 F 
ENDBRANCH  41  65
BRANCH  53  76
ATOM     76  C   UNL A   1      41.935  30.333  33.541  1.00  0.00     0.064 A 
ATOM     77  C   UNL A   1      41.582  28.977  33.397  1.00  0.00     0.173 A 
ATOM     78  C   UNL A   1      42.255  30.775  34.832  1.00  0.00     0.173 A 
ATOM     79  F   UNL A   1      41.350  28.444  32.192  1.00  0.00    -0.203 F 
ATOM     80  C   UNL A   1      41.529  28.121  34.497  1.00  0.00     0.198 A 
ATOM     81  C   UNL A   1      42.244  29.907  35.922  1.00  0.00     0.198 A 
ATOM     82  F   UNL A   1      42.644  32.044  35.030  1.00  0.00    -0.203 F 
ATOM     83  F   UNL A   1      41.189  26.834  34.333  1.00  0.00    -0.200 F 
ATOM     84  C   UNL A   1      41.875  28.583  35.755  1.00  0.00     0.200 A 
ATOM     85  F   UNL A   1      42.630  30.348  37.127  1.00  0.00    -0.200 F 
ATOM     86  F   UNL A   1      41.883  27.746  36.803  1.00  0.00    -0.200 F 
ENDBRANCH  53  76
ENDBRANCH  27  28
ENDBRANCH  20  22
ENDBRANCH  19  20
ENDBRANCH   1  19
TORSDOF 12
ENDMDL
MODEL 3
REMARK VINA RESULT:     -12.1      3.264      5.255
REMARK SMILES Cc1ccn2c([C@@H]3C[C@H]3C(=O)OCCOC(=O)c3ccc(-c4c5nc(c(-c6c(F)c(F)c(F)c(F)c6F)c6ccc([nH]6)c(-c6c(F)c(F)c(F)c(F)c6F)c6nc(c(-c7c(F)c(F)c(F)c(F)c7F)c7ccc4[nH]7)C=C6)C=C5)cc3)nnc2c1
REMARK SMILES IDX 14 1 13 2 12 3 10 4 11 5 9 6 7 7 8 8 6 9 1 10 2 11 3 12
REMARK SMILES IDX 84 13 4 14 83 15 5 16 82 17 81 18 15 19 16 20 17 21 18 22
REMARK SMILES IDX 19 23 80 24 20 25 79 26 21 27 22 28 23 29 73 30 24 31 78 32
REMARK SMILES IDX 72 33 74 34 25 35 77 36 71 37 70 38 26 40 58 41 38 42 57 43
REMARK SMILES IDX 39 44 42 45 56 46 75 47 40 48 41 49 55 51 76 52 43 53 27 54
REMARK SMILES IDX 28 55 36 56 29 57 30 58 34 59 37 60 31 61 32 62 35 63 33 64
REMARK SMILES IDX 59 65 60 66 68 67 61 68 62 69 66 70 69 71 63 72 64 73 67 74
REMARK SMILES IDX 65 75 44 76 45 77 53 78 46 79 47 80 51 81 54 82 48 83 49 84
REMARK SMILES IDX 52 85 50 86
REMARK H PARENT 74 39 42 50
REMARK Flexibility Score: inf
ROOT
ATOM      1  C   UNL A   1      32.926  31.350  27.247  1.00  0.00     0.275 C 
ENDROOT
BRANCH   1   2
ATOM      2  C   UNL A   1      32.160  30.084  26.841  1.00  0.00     0.274 C 
BRANCH   2   3
ATOM      3  O   UNL A   1      32.438  29.744  25.459  1.00  0.00    -0.462 OA
BRANCH   3   4
ATOM      4  C   UNL A   1      31.377  29.230  24.766  1.00  0.00     0.309 C 
ATOM      5  O   UNL A   1      30.484  29.873  24.263  1.00  0.00    -0.252 OA
BRANCH   4   6
ATOM      6  C   UNL A   1      31.458  27.750  24.572  1.00  0.00     0.110 C 
ATOM      7  C   UNL A   1      30.779  26.743  25.467  1.00  0.00     0.073 C 
ATOM      8  C   UNL A   1      30.274  26.985  24.069  1.00  0.00     0.028 C 
BRANCH   7   9
ATOM      9  C   UNL A   1      31.457  25.424  25.870  1.00  0.00     0.141 A 
ATOM     10  C   UNL A   1      36.531  23.156  25.990  1.00  0.00     0.044 C 
ATOM     11  C   UNL A   1      35.106  23.572  25.751  1.00  0.00    -0.046 A 
ATOM     12  C   UNL A   1      34.788  24.388  24.577  1.00  0.00     0.022 A 
ATOM     13  C   UNL A   1      34.130  23.250  26.625  1.00  0.00     0.053 A 
ATOM     14  C   UNL A   1      33.581  24.987  24.487  1.00  0.00     0.095 A 
ATOM     15  C   UNL A   1      32.847  23.851  26.510  1.00  0.00     0.161 A 
ATOM     16  N   UNL A   1      32.643  24.796  25.505  1.00  0.00    -0.286 N 
ATOM     17  N   UNL A   1      31.770  23.752  27.251  1.00  0.00    -0.130 NA
ATOM     18  N   UNL A   1      30.905  24.734  26.853  1.00  0.00    -0.134 NA
ENDBRANCH   7   9
ENDBRANCH   4   6
ENDBRANCH   3   4
ENDBRANCH   2   3
ENDBRANCH   1   2
BRANCH   1  19
ATOM     19  O   UNL A   1      34.115  30.950  27.949  1.00  0.00    -0.458 OA
BRANCH  19  20
ATOM     20  C   UNL A   1      35.157  31.807  27.836  1.00  0.00     0.338 C 
ATOM     21  O   UNL A   1      35.109  33.005  27.626  1.00  0.00    -0.246 OA
BRANCH  20  22
ATOM     22  C   UNL A   1      36.304  31.110  28.445  1.00  0.00     0.060 A 
ATOM     23  C   UNL A   1      37.383  31.782  29.039  1.00  0.00     0.016 A 
ATOM     24  C   UNL A   1      36.385  29.752  28.179  1.00  0.00     0.016 A 
ATOM     25  C   UNL A   1      38.603  31.119  29.219  1.00  0.00     0.010 A 
ATOM     26  C   UNL A   1      37.597  29.115  28.376  1.00  0.00     0.010 A 
ATOM     27  C   UNL A   1      38.739  29.795  28.799  1.00  0.00    -0.014 A 
BRANCH  27  28
ATOM     28  C   UNL A   1      39.991  29.034  28.965  1.00  0.00     0.031 A 
ATOM     29  C   UNL A   1      40.367  28.795  30.393  1.00  0.00     0.074 A 
ATOM     30  C   UNL A   1      40.680  28.385  27.988  1.00  0.00     0.049 A 
ATOM     31  N   UNL A   1      41.521  28.991  30.944  1.00  0.00    -0.248 NA
ATOM     32  C   UNL A   1      39.341  28.315  31.337  1.00  0.00     0.031 C 
ATOM     33  C   UNL A   1      40.357  28.239  26.568  1.00  0.00     0.029 A 
ATOM     34  N   UNL A   1      41.829  27.636  28.088  1.00  0.00    -0.354 N 
ATOM     35  C   UNL A   1      41.403  28.558  32.259  1.00  0.00     0.074 A 
ATOM     36  C   UNL A   1      40.034  28.174  32.464  1.00  0.00     0.031 C 
ATOM     37  C   UNL A   1      41.153  27.304  25.991  1.00  0.00     0.029 A 
ATOM     38  C   UNL A   1      42.171  26.903  26.945  1.00  0.00     0.049 A 
ATOM     39  H   UNL A   1      42.375  27.617  28.907  1.00  0.00     0.167 HD
ATOM     40  C   UNL A   1      42.474  28.438  33.084  1.00  0.00     0.037 A 
ATOM     41  C   UNL A   1      43.226  26.057  26.777  1.00  0.00     0.037 A 
ATOM     42  C   UNL A   1      43.548  29.298  32.683  1.00  0.00     0.049 A 
ATOM     43  C   UNL A   1      44.221  26.394  27.816  1.00  0.00     0.074 A 
ATOM     44  C   UNL A   1      43.641  30.670  32.537  1.00  0.00     0.029 A 
ATOM     45  N   UNL A   1      44.600  28.783  31.970  1.00  0.00    -0.354 N 
ATOM     46  N   UNL A   1      44.922  27.489  27.831  1.00  0.00    -0.248 NA
ATOM     47  C   UNL A   1      44.145  25.667  29.070  1.00  0.00     0.031 C 
ATOM     48  C   UNL A   1      44.381  30.858  31.335  1.00  0.00     0.029 A 
ATOM     49  C   UNL A   1      44.763  29.598  30.875  1.00  0.00     0.049 A 
ATOM     50  H   UNL A   1      45.133  27.988  32.198  1.00  0.00     0.167 HD
ATOM     51  C   UNL A   1      44.999  27.824  29.171  1.00  0.00     0.074 A 
ATOM     52  C   UNL A   1      44.574  26.626  29.891  1.00  0.00     0.031 C 
ATOM     53  C   UNL A   1      45.132  29.121  29.565  1.00  0.00     0.037 A 
BRANCH  40  54
ATOM     54  C   UNL A   1      42.586  27.371  34.126  1.00  0.00     0.064 A 
ATOM     55  C   UNL A   1      43.160  26.128  33.815  1.00  0.00     0.173 A 
ATOM     56  C   UNL A   1      41.903  27.452  35.360  1.00  0.00     0.173 A 
ATOM     57  F   UNL A   1      43.798  25.944  32.649  1.00  0.00    -0.203 F 
ATOM     58  C   UNL A   1      43.029  25.029  34.668  1.00  0.00     0.198 A 
ATOM     59  C   UNL A   1      41.810  26.365  36.226  1.00  0.00     0.198 A 
ATOM     60  F   UNL A   1      41.229  28.554  35.719  1.00  0.00    -0.203 F 
ATOM     61  F   UNL A   1      43.513  23.836  34.295  1.00  0.00    -0.200 F 
ATOM     62  C   UNL A   1      42.353  25.148  35.871  1.00  0.00     0.200 A 
ATOM     63  F   UNL A   1      41.131  26.494  37.376  1.00  0.00    -0.200 F 
ATOM     64  F   UNL A   1      42.185  24.083  36.664  1.00  0.00    -0.200 F 
ENDBRANCH  40  54
BRANCH  41  65
ATOM     65  C   UNL A   1      43.411  24.828  25.954  1.00  0.00     0.064 A 
ATOM     66  C   UNL A   1      44.531  24.679  25.106  1.00  0.00     0.173 A 
ATOM     67  C   UNL A   1      42.701  23.652  26.249  1.00  0.00     0.173 A 
ATOM     68  F   UNL A   1      45.290  25.739  24.794  1.00  0.00    -0.203 F 
ATOM     69  C   UNL A   1      44.946  23.426  24.636  1.00  0.00     0.198 A 
ATOM     70  C   UNL A   1      43.115  22.401  25.777  1.00  0.00     0.198 A 
ATOM     71  F   UNL A   1      41.658  23.682  27.092  1.00  0.00    -0.203 F 
ATOM     72  F   UNL A   1      46.065  23.319  23.905  1.00  0.00    -0.200 F 
ATOM     73  C   UNL A   1      44.248  22.285  24.988  1.00  0.00     0.200 A 
ATOM     74  F   UNL A   1      42.454  21.297  26.153  1.00  0.00    -0.200 F 
ATOM     75  F   UNL A   1      44.689  21.077  24.611  1.00  0.00    -0.200 F 
ENDBRANCH  41  65
BRANCH  53  76
ATOM     76  C   UNL A   1      45.434  30.166  28.520  1.00  0.00     0.064 A 
ATOM     77  C   UNL A   1      44.457  30.828  27.751  1.00  0.00     0.173 A 
ATOM     78  C   UNL A   1      46.750  30.640  28.424  1.00  0.00     0.173 A 
ATOM     79  F   UNL A   1      43.162  30.506  27.847  1.00  0.00    -0.203 F 
ATOM     80  C   UNL A   1      44.792  31.891  26.912  1.00  0.00     0.198 A 
ATOM     81  C   UNL A   1      47.074  31.730  27.619  1.00  0.00     0.198 A 
ATOM     82  F   UNL A   1      47.720  30.082  29.166  1.00  0.00    -0.203 F 
ATOM     83  F   UNL A   1      43.843  32.504  26.189  1.00  0.00    -0.200 F 
ATOM     84  C   UNL A   1      46.097  32.350  26.859  1.00  0.00     0.200 A 
ATOM     85  F   UNL A   1      48.328  32.202  27.612  1.00  0.00    -0.200 F 
ATOM     86  F   UNL A   1      46.409  33.410  26.099  1.00  0.00    -0.200 F 
ENDBRANCH  53  76
ENDBRANCH  27  28
ENDBRANCH  20  22
ENDBRANCH  19  20
ENDBRANCH   1  19
TORSDOF 12
ENDMDL
