MODEL 1
REMARK VINA RESULT:     -12.3      0.000      0.000
REMARK SMILES C[C@H]1[C@@H](C(=O)OCCOC(=O)c2ccc(-c3c4nc(c(-c5c(F)c(F)c(F)c(F)c5F)c5ccc([nH]5)c(-c5c(F)c(F)c(F)c(F)c5F)c5nc(c(-c6c(F)c(F)c(F)c(F)c6F)c6ccc3[nH]6)C=C5)C=C4)cc2)CC[N@@H+]1Cc1cc(F)c(F)c(F)c1
REMARK SMILES IDX 7 1 6 2 4 3 5 4 3 5 1 6 2 7 77 8 75 9 76 10 78 12 79 13
REMARK SMILES IDX 80 14 87 15 81 16 85 17 82 18 83 19 86 20 84 21 8 22 9 23
REMARK SMILES IDX 10 24 11 25 12 26 13 27 74 28 14 29 73 30 15 31 16 32 17 33
REMARK SMILES IDX 67 34 18 35 72 36 66 37 68 38 19 39 71 40 65 41 64 42 20 44
REMARK SMILES IDX 52 45 32 46 51 47 33 48 36 49 50 50 69 51 34 52 35 53 49 55
REMARK SMILES IDX 70 56 37 57 21 58 22 59 30 60 23 61 24 62 28 63 31 64 25 65
REMARK SMILES IDX 26 66 29 67 27 68 53 69 54 70 62 71 55 72 56 73 60 74 63 75
REMARK SMILES IDX 57 76 58 77 61 78 59 79 38 80 39 81 47 82 40 83 41 84 45 85
REMARK SMILES IDX 48 86 42 87 43 88 46 89 44 90
REMARK H PARENT 77 11 68 43 36 54
REMARK Flexibility Score: inf
ROOT
ATOM      1  C   UNL A   1      31.721  28.607  24.453  1.00  0.00     0.274 C 
ENDROOT
BRANCH   1   2
ATOM      2  O   UNL A   1      30.763  27.547  24.646  1.00  0.00    -0.462 OA
BRANCH   2   3
ATOM      3  C   UNL A   1      31.089  26.561  25.519  1.00  0.00     0.315 C 
ATOM      4  O   UNL A   1      30.415  26.236  26.489  1.00  0.00    -0.252 OA
BRANCH   3   5
ATOM      5  C   UNL A   1      32.346  25.818  25.113  1.00  0.00     0.162 C 
ATOM      6  C   UNL A   1      30.925  24.274  23.564  1.00  0.00     0.076 C 
ATOM      7  C   UNL A   1      32.286  24.888  23.897  1.00  0.00     0.195 C 
ATOM      8  N   UNL A   1      33.203  23.783  24.223  1.00  0.00    -0.328 N 
ATOM      9  C   UNL A   1      32.913  24.982  26.256  1.00  0.00     0.083 C 
ATOM     10  C   UNL A   1      33.193  23.613  25.670  1.00  0.00     0.263 C 
ATOM     11  H   UNL A   1      32.845  22.937  23.779  1.00  0.00     0.348 HD
BRANCH   8  12
ATOM     12  C   UNL A   1      34.520  23.797  23.590  1.00  0.00     0.299 C 
BRANCH  12  13
ATOM     13  C   UNL A   1      35.689  23.221  24.361  1.00  0.00     0.012 A 
ATOM     14  C   UNL A   1      36.477  24.052  25.173  1.00  0.00     0.052 A 
ATOM     15  C   UNL A   1      36.043  21.868  24.246  1.00  0.00     0.052 A 
ATOM     16  C   UNL A   1      37.583  23.536  25.849  1.00  0.00     0.162 A 
ATOM     17  C   UNL A   1      37.144  21.365  24.942  1.00  0.00     0.162 A 
ATOM     18  F   UNL A   1      38.327  24.356  26.603  1.00  0.00    -0.204 F 
ATOM     19  C   UNL A   1      37.917  22.195  25.739  1.00  0.00     0.194 A 
ATOM     20  F   UNL A   1      37.449  20.066  24.824  1.00  0.00    -0.204 F 
ATOM     21  F   UNL A   1      38.981  21.707  26.391  1.00  0.00    -0.200 F 
ENDBRANCH  12  13
ENDBRANCH   8  12
ENDBRANCH   3   5
ENDBRANCH   2   3
ENDBRANCH   1   2
BRANCH   1  22
ATOM     22  C   UNL A   1      31.688  29.519  25.672  1.00  0.00     0.275 C 
BRANCH  22  23
ATOM     23  O   UNL A   1      32.970  30.165  25.789  1.00  0.00    -0.458 OA
BRANCH  23  24
ATOM     24  C   UNL A   1      33.113  31.002  26.838  1.00  0.00     0.338 C 
ATOM     25  O   UNL A   1      32.320  31.835  27.243  1.00  0.00    -0.246 OA
BRANCH  24  26
ATOM     26  C   UNL A   1      34.423  30.773  27.473  1.00  0.00     0.060 A 
ATOM     27  C   UNL A   1      34.805  29.498  27.902  1.00  0.00     0.016 A 
ATOM     28  C   UNL A   1      35.235  31.878  27.730  1.00  0.00     0.016 A 
ATOM     29  C   UNL A   1      35.975  29.339  28.646  1.00  0.00     0.010 A 
ATOM     30  C   UNL A   1      36.449  31.698  28.392  1.00  0.00     0.010 A 
ATOM     31  C   UNL A   1      36.824  30.432  28.874  1.00  0.00    -0.014 A 
BRANCH  31  32
ATOM     32  C   UNL A   1      38.118  30.293  29.595  1.00  0.00     0.031 A 
ATOM     33  C   UNL A   1      39.199  29.415  29.028  1.00  0.00     0.074 A 
ATOM     34  C   UNL A   1      38.292  30.872  30.798  1.00  0.00     0.049 A 
ATOM     35  N   UNL A   1      40.232  28.880  29.625  1.00  0.00    -0.248 NA
ATOM     36  C   UNL A   1      39.087  29.079  27.600  1.00  0.00     0.031 C 
ATOM     37  C   UNL A   1      37.352  31.787  31.446  1.00  0.00     0.029 A 
ATOM     38  N   UNL A   1      39.315  30.750  31.706  1.00  0.00    -0.354 N 
ATOM     39  C   UNL A   1      40.857  28.094  28.667  1.00  0.00     0.074 A 
ATOM     40  C   UNL A   1      40.097  28.234  27.442  1.00  0.00     0.031 C 
ATOM     41  C   UNL A   1      37.839  32.143  32.643  1.00  0.00     0.029 A 
ATOM     42  C   UNL A   1      39.076  31.411  32.885  1.00  0.00     0.049 A 
ATOM     43  H   UNL A   1      40.138  30.239  31.529  1.00  0.00     0.167 HD
ATOM     44  C   UNL A   1      41.956  27.316  28.808  1.00  0.00     0.037 A 
ATOM     45  C   UNL A   1      39.738  31.380  34.058  1.00  0.00     0.037 A 
ATOM     46  C   UNL A   1      42.735  27.226  30.015  1.00  0.00     0.049 A 
ATOM     47  C   UNL A   1      40.939  30.492  34.202  1.00  0.00     0.074 A 
ATOM     48  C   UNL A   1      43.874  26.478  30.257  1.00  0.00     0.029 A 
ATOM     49  N   UNL A   1      42.461  27.926  31.181  1.00  0.00    -0.354 N 
ATOM     50  N   UNL A   1      41.482  29.690  33.318  1.00  0.00    -0.248 NA
ATOM     51  C   UNL A   1      41.606  30.484  35.511  1.00  0.00     0.031 C 
ATOM     52  C   UNL A   1      44.276  26.707  31.578  1.00  0.00     0.029 A 
ATOM     53  C   UNL A   1      43.406  27.624  32.146  1.00  0.00     0.049 A 
ATOM     54  H   UNL A   1      41.706  28.545  31.304  1.00  0.00     0.167 HD
ATOM     55  C   UNL A   1      42.558  29.094  33.957  1.00  0.00     0.074 A 
ATOM     56  C   UNL A   1      42.598  29.630  35.302  1.00  0.00     0.031 C 
ATOM     57  C   UNL A   1      43.433  28.180  33.474  1.00  0.00     0.037 A 
BRANCH  44  58
ATOM     58  C   UNL A   1      42.369  26.470  27.641  1.00  0.00     0.064 A 
ATOM     59  C   UNL A   1      43.374  26.871  26.751  1.00  0.00     0.173 A 
ATOM     60  C   UNL A   1      41.782  25.209  27.445  1.00  0.00     0.173 A 
ATOM     61  F   UNL A   1      43.955  28.072  26.888  1.00  0.00    -0.203 F 
ATOM     62  C   UNL A   1      43.767  26.049  25.697  1.00  0.00     0.198 A 
ATOM     63  C   UNL A   1      42.193  24.380  26.405  1.00  0.00     0.198 A 
ATOM     64  F   UNL A   1      40.818  24.776  28.272  1.00  0.00    -0.203 F 
ATOM     65  F   UNL A   1      44.707  26.466  24.838  1.00  0.00    -0.200 F 
ATOM     66  C   UNL A   1      43.181  24.802  25.530  1.00  0.00     0.200 A 
ATOM     67  F   UNL A   1      41.632  23.172  26.250  1.00  0.00    -0.200 F 
ATOM     68  F   UNL A   1      43.567  24.008  24.520  1.00  0.00    -0.200 F 
ENDBRANCH  44  58
BRANCH  45  69
ATOM     69  C   UNL A   1      39.233  32.181  35.201  1.00  0.00     0.064 A 
ATOM     70  C   UNL A   1      38.430  31.595  36.188  1.00  0.00     0.173 A 
ATOM     71  C   UNL A   1      39.576  33.533  35.352  1.00  0.00     0.173 A 
ATOM     72  F   UNL A   1      38.057  30.313  36.072  1.00  0.00    -0.203 F 
ATOM     73  C   UNL A   1      37.988  32.333  37.284  1.00  0.00     0.198 A 
ATOM     74  C   UNL A   1      39.157  34.262  36.461  1.00  0.00     0.198 A 
ATOM     75  F   UNL A   1      40.345  34.137  34.433  1.00  0.00    -0.203 F 
ATOM     76  F   UNL A   1      37.200  31.757  38.202  1.00  0.00    -0.200 F 
ATOM     77  C   UNL A   1      38.360  33.662  37.425  1.00  0.00     0.200 A 
ATOM     78  F   UNL A   1      39.531  35.541  36.600  1.00  0.00    -0.200 F 
ATOM     79  F   UNL A   1      37.950  34.366  38.488  1.00  0.00    -0.200 F 
ENDBRANCH  45  69
BRANCH  57  80
ATOM     80  C   UNL A   1      44.531  27.732  34.388  1.00  0.00     0.064 A 
ATOM     81  C   UNL A   1      44.386  26.602  35.205  1.00  0.00     0.173 A 
ATOM     82  C   UNL A   1      45.756  28.412  34.408  1.00  0.00     0.173 A 
ATOM     83  F   UNL A   1      43.225  25.931  35.230  1.00  0.00    -0.203 F 
ATOM     84  C   UNL A   1      45.431  26.175  36.019  1.00  0.00     0.198 A 
ATOM     85  C   UNL A   1      46.804  27.972  35.209  1.00  0.00     0.198 A 
ATOM     86  F   UNL A   1      45.939  29.497  33.640  1.00  0.00    -0.203 F 
ATOM     87  F   UNL A   1      45.266  25.108  36.813  1.00  0.00    -0.200 F 
ATOM     88  C   UNL A   1      46.640  26.855  36.016  1.00  0.00     0.200 A 
ATOM     89  F   UNL A   1      47.975  28.625  35.200  1.00  0.00    -0.200 F 
ATOM     90  F   UNL A   1      47.647  26.436  36.795  1.00  0.00    -0.200 F 
ENDBRANCH  57  80
ENDBRANCH  31  32
ENDBRANCH  24  26
ENDBRANCH  23  24
ENDBRANCH  22  23
ENDBRANCH   1  22
TORSDOF 13
ENDMDL
MODEL 2
REMARK VINA RESULT:     -12.3      0.646      1.824
REMARK SMILES C[C@H]1[C@@H](C(=O)OCCOC(=O)c2ccc(-c3c4nc(c(-c5c(F)c(F)c(F)c(F)c5F)c5ccc([nH]5)c(-c5c(F)c(F)c(F)c(F)c5F)c5nc(c(-c6c(F)c(F)c(F)c(F)c6F)c6ccc3[nH]6)C=C5)C=C4)cc2)CC[N@@H+]1Cc1cc(F)c(F)c(F)c1
REMARK SMILES IDX 7 1 6 2 4 3 5 4 3 5 1 6 2 7 77 8 75 9 76 10 78 12 79 13
REMARK SMILES IDX 80 14 87 15 81 16 85 17 82 18 83 19 86 20 84 21 8 22 9 23
REMARK SMILES IDX 10 24 11 25 12 26 13 27 74 28 14 29 73 30 15 31 16 32 17 33
REMARK SMILES IDX 67 34 18 35 72 36 66 37 68 38 19 39 71 40 65 41 64 42 20 44
REMARK SMILES IDX 52 45 32 46 51 47 33 48 36 49 50 50 69 51 34 52 35 53 49 55
REMARK SMILES IDX 70 56 37 57 21 58 22 59 30 60 23 61 24 62 28 63 31 64 25 65
REMARK SMILES IDX 26 66 29 67 27 68 53 69 54 70 62 71 55 72 56 73 60 74 63 75
REMARK SMILES IDX 57 76 58 77 61 78 59 79 38 80 39 81 47 82 40 83 41 84 45 85
REMARK SMILES IDX 48 86 42 87 43 88 46 89 44 90
REMARK H PARENT 77 11 68 43 36 54
REMARK Flexibility Score: inf
ROOT
ATOM      1  C   UNL A   1      31.395  29.347  24.477  1.00  0.00     0.274 C 
ENDROOT
BRANCH   1   2
ATOM      2  O   UNL A   1      30.568  28.183  24.273  1.00  0.00    -0.462 OA
BRANCH   2   3
ATOM      3  C   UNL A   1      30.894  27.357  23.247  1.00  0.00     0.315 C 
ATOM      4  O   UNL A   1      30.767  27.634  22.060  1.00  0.00    -0.252 OA
BRANCH   3   5
ATOM      5  C   UNL A   1      31.536  26.069  23.719  1.00  0.00     0.162 C 
ATOM      6  C   UNL A   1      33.893  27.156  23.454  1.00  0.00     0.076 C 
ATOM      7  C   UNL A   1      33.016  26.093  24.118  1.00  0.00     0.195 C 
ATOM      8  N   UNL A   1      33.535  24.775  23.716  1.00  0.00    -0.328 N 
ATOM      9  C   UNL A   1      31.394  24.947  22.695  1.00  0.00     0.083 C 
ATOM     10  C   UNL A   1      32.773  24.336  22.553  1.00  0.00     0.263 C 
ATOM     11  H   UNL A   1      34.515  24.890  23.456  1.00  0.00     0.348 HD
BRANCH   8  12
ATOM     12  C   UNL A   1      33.725  23.779  24.768  1.00  0.00     0.299 C 
BRANCH  12  13
ATOM     13  C   UNL A   1      35.112  23.209  24.969  1.00  0.00     0.012 A 
ATOM     14  C   UNL A   1      35.348  21.838  24.772  1.00  0.00     0.052 A 
ATOM     15  C   UNL A   1      36.177  24.014  25.403  1.00  0.00     0.052 A 
ATOM     16  C   UNL A   1      36.614  21.299  25.001  1.00  0.00     0.162 A 
ATOM     17  C   UNL A   1      37.441  23.460  25.612  1.00  0.00     0.162 A 
ATOM     18  F   UNL A   1      36.804  19.985  24.822  1.00  0.00    -0.204 F 
ATOM     19  C   UNL A   1      37.662  22.105  25.417  1.00  0.00     0.194 A 
ATOM     20  F   UNL A   1      38.442  24.256  26.012  1.00  0.00    -0.204 F 
ATOM     21  F   UNL A   1      38.875  21.579  25.636  1.00  0.00    -0.200 F 
ENDBRANCH  12  13
ENDBRANCH   8  12
ENDBRANCH   3   5
ENDBRANCH   2   3
ENDBRANCH   1   2
BRANCH   1  22
ATOM     22  C   UNL A   1      31.779  29.417  25.949  1.00  0.00     0.275 C 
BRANCH  22  23
ATOM     23  O   UNL A   1      33.095  29.994  26.047  1.00  0.00    -0.458 OA
BRANCH  23  24
ATOM     24  C   UNL A   1      33.213  31.053  26.875  1.00  0.00     0.338 C 
ATOM     25  O   UNL A   1      32.442  31.989  27.005  1.00  0.00    -0.246 OA
BRANCH  24  26
ATOM     26  C   UNL A   1      34.460  30.933  27.650  1.00  0.00     0.060 A 
ATOM     27  C   UNL A   1      35.285  32.042  27.869  1.00  0.00     0.016 A 
ATOM     28  C   UNL A   1      34.855  29.665  28.075  1.00  0.00     0.016 A 
ATOM     29  C   UNL A   1      36.537  31.869  28.461  1.00  0.00     0.010 A 
ATOM     30  C   UNL A   1      36.065  29.512  28.749  1.00  0.00     0.010 A 
ATOM     31  C   UNL A   1      36.928  30.607  28.933  1.00  0.00    -0.014 A 
BRANCH  31  32
ATOM     32  C   UNL A   1      38.220  30.392  29.639  1.00  0.00     0.031 A 
ATOM     33  C   UNL A   1      39.248  29.466  29.052  1.00  0.00     0.074 A 
ATOM     34  C   UNL A   1      38.437  30.949  30.846  1.00  0.00     0.049 A 
ATOM     35  N   UNL A   1      40.258  28.872  29.632  1.00  0.00    -0.248 NA
ATOM     36  C   UNL A   1      39.104  29.152  27.621  1.00  0.00     0.031 C 
ATOM     37  C   UNL A   1      37.552  31.904  31.514  1.00  0.00     0.029 A 
ATOM     38  N   UNL A   1      39.461  30.763  31.741  1.00  0.00    -0.354 N 
ATOM     39  C   UNL A   1      40.831  28.064  28.658  1.00  0.00     0.074 A 
ATOM     40  C   UNL A   1      40.067  28.257  27.443  1.00  0.00     0.031 C 
ATOM     41  C   UNL A   1      38.069  32.221  32.709  1.00  0.00     0.029 A 
ATOM     42  C   UNL A   1      39.270  31.423  32.930  1.00  0.00     0.049 A 
ATOM     43  H   UNL A   1      40.255  30.212  31.550  1.00  0.00     0.167 HD
ATOM     44  C   UNL A   1      41.890  27.229  28.779  1.00  0.00     0.037 A 
ATOM     45  C   UNL A   1      39.941  31.345  34.095  1.00  0.00     0.037 A 
ATOM     46  C   UNL A   1      42.676  27.085  29.977  1.00  0.00     0.049 A 
ATOM     47  C   UNL A   1      41.095  30.394  34.216  1.00  0.00     0.074 A 
ATOM     48  C   UNL A   1      43.776  26.277  30.199  1.00  0.00     0.029 A 
ATOM     49  N   UNL A   1      42.450  27.786  31.153  1.00  0.00    -0.354 N 
ATOM     50  N   UNL A   1      41.587  29.575  33.319  1.00  0.00    -0.248 NA
ATOM     51  C   UNL A   1      41.774  30.337  35.518  1.00  0.00     0.031 C 
ATOM     52  C   UNL A   1      44.203  26.470  31.518  1.00  0.00     0.029 A 
ATOM     53  C   UNL A   1      43.388  27.424  32.105  1.00  0.00     0.049 A 
ATOM     54  H   UNL A   1      41.730  28.442  31.291  1.00  0.00     0.167 HD
ATOM     55  C   UNL A   1      42.637  28.916  33.940  1.00  0.00     0.074 A 
ATOM     56  C   UNL A   1      42.719  29.435  35.290  1.00  0.00     0.031 C 
ATOM     57  C   UNL A   1      43.458  27.963  33.437  1.00  0.00     0.037 A 
BRANCH  44  58
ATOM     58  C   UNL A   1      42.245  26.375  27.599  1.00  0.00     0.064 A 
ATOM     59  C   UNL A   1      43.263  26.732  26.704  1.00  0.00     0.173 A 
ATOM     60  C   UNL A   1      41.590  25.150  27.395  1.00  0.00     0.173 A 
ATOM     61  F   UNL A   1      43.909  27.899  26.848  1.00  0.00    -0.203 F 
ATOM     62  C   UNL A   1      43.601  25.902  25.638  1.00  0.00     0.198 A 
ATOM     63  C   UNL A   1      41.947  24.312  26.343  1.00  0.00     0.198 A 
ATOM     64  F   UNL A   1      40.613  24.760  28.227  1.00  0.00    -0.203 F 
ATOM     65  F   UNL A   1      44.554  26.278  24.773  1.00  0.00    -0.200 F 
ATOM     66  C   UNL A   1      42.948  24.690  25.462  1.00  0.00     0.200 A 
ATOM     67  F   UNL A   1      41.320  23.138  26.180  1.00  0.00    -0.200 F 
ATOM     68  F   UNL A   1      43.282  23.888  24.440  1.00  0.00    -0.200 F 
ENDBRANCH  44  58
BRANCH  45  69
ATOM     69  C   UNL A   1      39.490  32.159  35.251  1.00  0.00     0.064 A 
ATOM     70  C   UNL A   1      39.922  33.482  35.409  1.00  0.00     0.173 A 
ATOM     71  C   UNL A   1      38.590  31.646  36.197  1.00  0.00     0.173 A 
ATOM     72  F   UNL A   1      40.802  34.006  34.544  1.00  0.00    -0.203 F 
ATOM     73  C   UNL A   1      39.469  34.262  36.471  1.00  0.00     0.198 A 
ATOM     74  C   UNL A   1      38.116  32.435  37.242  1.00  0.00     0.198 A 
ATOM     75  F   UNL A   1      38.146  30.384  36.086  1.00  0.00    -0.203 F 
ATOM     76  F   UNL A   1      39.916  35.517  36.615  1.00  0.00    -0.200 F 
ATOM     77  C   UNL A   1      38.559  33.742  37.380  1.00  0.00     0.200 A 
ATOM     78  F   UNL A   1      37.227  31.932  38.108  1.00  0.00    -0.200 F 
ATOM     79  F   UNL A   1      38.110  34.498  38.390  1.00  0.00    -0.200 F 
ENDBRANCH  45  69
BRANCH  57  80
ATOM     80  C   UNL A   1      44.540  27.450  34.336  1.00  0.00     0.064 A 
ATOM     81  C   UNL A   1      44.350  26.312  35.132  1.00  0.00     0.173 A 
ATOM     82  C   UNL A   1      45.795  28.073  34.358  1.00  0.00     0.173 A 
ATOM     83  F   UNL A   1      43.159  25.694  35.153  1.00  0.00    -0.203 F 
ATOM     84  C   UNL A   1      45.379  25.822  35.930  1.00  0.00     0.198 A 
ATOM     85  C   UNL A   1      46.828  27.570  35.144  1.00  0.00     0.198 A 
ATOM     86  F   UNL A   1      46.022  29.162  33.609  1.00  0.00    -0.203 F 
ATOM     87  F   UNL A   1      45.172  24.749  36.706  1.00  0.00    -0.200 F 
ATOM     88  C   UNL A   1      46.618  26.447  35.931  1.00  0.00     0.200 A 
ATOM     89  F   UNL A   1      48.027  28.170  35.138  1.00  0.00    -0.200 F 
ATOM     90  F   UNL A   1      47.611  25.969  36.694  1.00  0.00    -0.200 F 
ENDBRANCH  57  80
ENDBRANCH  31  32
ENDBRANCH  24  26
ENDBRANCH  23  24
ENDBRANCH  22  23
ENDBRANCH   1  22
TORSDOF 13
ENDMDL
MODEL 3
REMARK VINA RESULT:     -12.2      1.289      1.844
REMARK SMILES C[C@H]1[C@@H](C(=O)OCCOC(=O)c2ccc(-c3c4nc(c(-c5c(F)c(F)c(F)c(F)c5F)c5ccc([nH]5)c(-c5c(F)c(F)c(F)c(F)c5F)c5nc(c(-c6c(F)c(F)c(F)c(F)c6F)c6ccc3[nH]6)C=C5)C=C4)cc2)CC[N@@H+]1Cc1cc(F)c(F)c(F)c1
REMARK SMILES IDX 7 1 6 2 4 3 5 4 3 5 1 6 2 7 77 8 75 9 76 10 78 12 79 13
REMARK SMILES IDX 80 14 87 15 81 16 85 17 82 18 83 19 86 20 84 21 8 22 9 23
REMARK SMILES IDX 10 24 11 25 12 26 13 27 74 28 14 29 73 30 15 31 16 32 17 33
REMARK SMILES IDX 67 34 18 35 72 36 66 37 68 38 19 39 71 40 65 41 64 42 20 44
REMARK SMILES IDX 52 45 32 46 51 47 33 48 36 49 50 50 69 51 34 52 35 53 49 55
REMARK SMILES IDX 70 56 37 57 21 58 22 59 30 60 23 61 24 62 28 63 31 64 25 65
REMARK SMILES IDX 26 66 29 67 27 68 53 69 54 70 62 71 55 72 56 73 60 74 63 75
REMARK SMILES IDX 57 76 58 77 61 78 59 79 38 80 39 81 47 82 40 83 41 84 45 85
REMARK SMILES IDX 48 86 42 87 43 88 46 89 44 90
REMARK H PARENT 77 11 68 43 36 54
REMARK Flexibility Score: inf
ROOT
ATOM      1  C   UNL A   1      31.064  29.306  24.636  1.00  0.00     0.274 C 
ENDROOT
BRANCH   1   2
ATOM      2  O   UNL A   1      31.740  28.941  23.416  1.00  0.00    -0.462 OA
BRANCH   2   3
ATOM      3  C   UNL A   1      31.122  28.050  22.601  1.00  0.00     0.315 C 
ATOM      4  O   UNL A   1      30.100  28.277  21.965  1.00  0.00    -0.252 OA
BRANCH   3   5
ATOM      5  C   UNL A   1      31.890  26.750  22.473  1.00  0.00     0.162 C 
ATOM      6  C   UNL A   1      30.349  25.670  24.280  1.00  0.00     0.076 C 
ATOM      7  C   UNL A   1      31.288  25.481  23.088  1.00  0.00     0.195 C 
ATOM      8  N   UNL A   1      32.448  24.704  23.556  1.00  0.00    -0.328 N 
ATOM      9  C   UNL A   1      33.304  26.860  23.035  1.00  0.00     0.083 C 
ATOM     10  C   UNL A   1      33.494  25.649  23.925  1.00  0.00     0.263 C 
ATOM     11  H   UNL A   1      32.160  24.176  24.381  1.00  0.00     0.348 HD
BRANCH   8  12
ATOM     12  C   UNL A   1      32.872  23.572  22.735  1.00  0.00     0.299 C 
BRANCH  12  13
ATOM     13  C   UNL A   1      33.159  22.256  23.426  1.00  0.00     0.012 A 
ATOM     14  C   UNL A   1      34.315  22.107  24.211  1.00  0.00     0.052 A 
ATOM     15  C   UNL A   1      32.315  21.146  23.263  1.00  0.00     0.052 A 
ATOM     16  C   UNL A   1      34.607  20.883  24.812  1.00  0.00     0.162 A 
ATOM     17  C   UNL A   1      32.615  19.934  23.885  1.00  0.00     0.162 A 
ATOM     18  F   UNL A   1      35.726  20.766  25.540  1.00  0.00    -0.204 F 
ATOM     19  C   UNL A   1      33.760  19.796  24.655  1.00  0.00     0.194 A 
ATOM     20  F   UNL A   1      31.783  18.896  23.723  1.00  0.00    -0.204 F 
ATOM     21  F   UNL A   1      34.049  18.624  25.236  1.00  0.00    -0.200 F 
ENDBRANCH  12  13
ENDBRANCH   8  12
ENDBRANCH   3   5
ENDBRANCH   2   3
ENDBRANCH   1   2
BRANCH   1  22
ATOM     22  C   UNL A   1      31.954  28.931  25.814  1.00  0.00     0.275 C 
BRANCH  22  23
ATOM     23  O   UNL A   1      33.117  29.780  25.791  1.00  0.00    -0.458 OA
BRANCH  23  24
ATOM     24  C   UNL A   1      33.129  30.787  26.692  1.00  0.00     0.338 C 
ATOM     25  O   UNL A   1      32.284  31.650  26.858  1.00  0.00    -0.246 OA
BRANCH  24  26
ATOM     26  C   UNL A   1      34.360  30.708  27.498  1.00  0.00     0.060 A 
ATOM     27  C   UNL A   1      35.167  31.834  27.696  1.00  0.00     0.016 A 
ATOM     28  C   UNL A   1      34.759  29.460  27.975  1.00  0.00     0.016 A 
ATOM     29  C   UNL A   1      36.407  31.696  28.321  1.00  0.00     0.010 A 
ATOM     30  C   UNL A   1      35.956  29.346  28.681  1.00  0.00     0.010 A 
ATOM     31  C   UNL A   1      36.802  30.456  28.846  1.00  0.00    -0.014 A 
BRANCH  31  32
ATOM     32  C   UNL A   1      38.079  30.282  29.587  1.00  0.00     0.031 A 
ATOM     33  C   UNL A   1      39.162  29.408  29.016  1.00  0.00     0.074 A 
ATOM     34  C   UNL A   1      38.237  30.826  30.809  1.00  0.00     0.049 A 
ATOM     35  N   UNL A   1      40.177  28.845  29.618  1.00  0.00    -0.248 NA
ATOM     36  C   UNL A   1      39.073  29.113  27.577  1.00  0.00     0.031 C 
ATOM     37  C   UNL A   1      37.295  31.733  31.464  1.00  0.00     0.029 A 
ATOM     38  N   UNL A   1      39.241  30.666  31.732  1.00  0.00    -0.354 N 
ATOM     39  C   UNL A   1      40.812  28.078  28.649  1.00  0.00     0.074 A 
ATOM     40  C   UNL A   1      40.076  28.260  27.415  1.00  0.00     0.031 C 
ATOM     41  C   UNL A   1      37.763  32.051  32.679  1.00  0.00     0.029 A 
ATOM     42  C   UNL A   1      38.988  31.298  32.924  1.00  0.00     0.049 A 
ATOM     43  H   UNL A   1      40.062  30.151  31.556  1.00  0.00     0.167 HD
ATOM     44  C   UNL A   1      41.899  27.284  28.789  1.00  0.00     0.037 A 
ATOM     45  C   UNL A   1      39.626  31.227  34.108  1.00  0.00     0.037 A 
ATOM     46  C   UNL A   1      42.654  27.151  30.008  1.00  0.00     0.049 A 
ATOM     47  C   UNL A   1      40.815  30.321  34.249  1.00  0.00     0.074 A 
ATOM     48  C   UNL A   1      43.780  26.384  30.250  1.00  0.00     0.029 A 
ATOM     49  N   UNL A   1      42.365  27.822  31.188  1.00  0.00    -0.354 N 
ATOM     50  N   UNL A   1      41.366  29.538  33.354  1.00  0.00    -0.248 NA
ATOM     51  C   UNL A   1      41.456  30.269  35.570  1.00  0.00     0.031 C 
ATOM     52  C   UNL A   1      44.159  26.572  31.585  1.00  0.00     0.029 A 
ATOM     53  C   UNL A   1      43.289  27.482  32.162  1.00  0.00     0.049 A 
ATOM     54  H   UNL A   1      41.615  28.446  31.314  1.00  0.00     0.167 HD
ATOM     55  C   UNL A   1      42.423  28.912  33.997  1.00  0.00     0.074 A 
ATOM     56  C   UNL A   1      42.443  29.410  35.356  1.00  0.00     0.031 C 
ATOM     57  C   UNL A   1      43.297  28.001  33.504  1.00  0.00     0.037 A 
BRANCH  44  58
ATOM     58  C   UNL A   1      42.324  26.465  27.607  1.00  0.00     0.064 A 
ATOM     59  C   UNL A   1      43.329  26.895  26.730  1.00  0.00     0.173 A 
ATOM     60  C   UNL A   1      41.751  25.203  27.384  1.00  0.00     0.173 A 
ATOM     61  F   UNL A   1      43.898  28.098  26.893  1.00  0.00    -0.203 F 
ATOM     62  C   UNL A   1      43.734  26.097  25.661  1.00  0.00     0.198 A 
ATOM     63  C   UNL A   1      42.174  24.399  26.329  1.00  0.00     0.198 A 
ATOM     64  F   UNL A   1      40.789  24.744  28.198  1.00  0.00    -0.203 F 
ATOM     65  F   UNL A   1      44.673  26.541  24.814  1.00  0.00    -0.200 F 
ATOM     66  C   UNL A   1      43.161  24.848  25.466  1.00  0.00     0.200 A 
ATOM     67  F   UNL A   1      41.625  23.189  26.148  1.00  0.00    -0.200 F 
ATOM     68  F   UNL A   1      43.559  24.079  24.443  1.00  0.00    -0.200 F 
ENDBRANCH  44  58
BRANCH  45  69
ATOM     69  C   UNL A   1      39.109  32.002  35.263  1.00  0.00     0.064 A 
ATOM     70  C   UNL A   1      38.345  31.380  36.259  1.00  0.00     0.173 A 
ATOM     71  C   UNL A   1      39.401  33.365  35.416  1.00  0.00     0.173 A 
ATOM     72  F   UNL A   1      38.020  30.085  36.142  1.00  0.00    -0.203 F 
ATOM     73  C   UNL A   1      37.892  32.095  37.366  1.00  0.00     0.198 A 
ATOM     74  C   UNL A   1      38.972  34.072  36.536  1.00  0.00     0.198 A 
ATOM     75  F   UNL A   1      40.132  34.004  34.489  1.00  0.00    -0.203 F 
ATOM     76  F   UNL A   1      37.141  31.484  38.292  1.00  0.00    -0.200 F 
ATOM     77  C   UNL A   1      38.214  33.437  37.509  1.00  0.00     0.200 A 
ATOM     78  F   UNL A   1      39.298  35.364  36.676  1.00  0.00    -0.200 F 
ATOM     79  F   UNL A   1      37.794  34.119  38.582  1.00  0.00    -0.200 F 
ENDBRANCH  45  69
BRANCH  57  80
ATOM     80  C   UNL A   1      44.372  27.516  34.427  1.00  0.00     0.064 A 
ATOM     81  C   UNL A   1      44.212  26.347  35.184  1.00  0.00     0.173 A 
ATOM     82  C   UNL A   1      45.592  28.201  34.512  1.00  0.00     0.173 A 
ATOM     83  F   UNL A   1      43.055  25.670  35.144  1.00  0.00    -0.203 F 
ATOM     84  C   UNL A   1      45.236  25.887  36.005  1.00  0.00     0.198 A 
ATOM     85  C   UNL A   1      46.620  27.728  35.321  1.00  0.00     0.198 A 
ATOM     86  F   UNL A   1      45.788  29.322  33.803  1.00  0.00    -0.203 F 
ATOM     87  F   UNL A   1      45.057  24.782  36.742  1.00  0.00    -0.200 F 
ATOM     88  C   UNL A   1      46.441  26.573  36.068  1.00  0.00     0.200 A 
ATOM     89  F   UNL A   1      47.786  28.387  35.376  1.00  0.00    -0.200 F 
ATOM     90  F   UNL A   1      47.429  26.122  36.854  1.00  0.00    -0.200 F 
ENDBRANCH  57  80
ENDBRANCH  31  32
ENDBRANCH  24  26
ENDBRANCH  23  24
ENDBRANCH  22  23
ENDBRANCH   1  22
TORSDOF 13
ENDMDL
