MODEL 1
REMARK VINA RESULT:     -12.4      0.000      0.000
REMARK SMILES Cc1ccc(N2CC[C@H]([NH+]3CCOCC3)[C@H](CCC(=O)OCCOC(=O)c3ccc(-c4c5nc(c(-c6c(F)c(F)c(F)c(F)c6F)c6ccc([nH]6)c(-c6c(F)c(F)c(F)c(F)c6F)c6nc(c(-c7c(F)c(F)c(F)c(F)c7F)c7ccc4[nH]7)C=C6)C=C5)cc3)C2)nc1
REMARK SMILES IDX 22 1 21 2 19 3 20 4 18 5 17 6 16 7 6 8 7 9 90 10 8 11 9 12
REMARK SMILES IDX 5 13 1 14 2 15 3 16 92 17 4 18 91 19 10 20 11 21 15 22 12 24
REMARK SMILES IDX 14 25 13 26 23 27 24 28 25 29 26 30 27 31 28 32 89 33 29 34
REMARK SMILES IDX 88 35 30 36 31 37 32 38 82 39 33 40 87 41 81 42 83 43 34 44
REMARK SMILES IDX 86 45 80 46 79 47 35 49 67 50 47 51 66 52 48 53 51 54 65 55
REMARK SMILES IDX 84 56 49 57 50 58 64 60 85 61 52 62 36 63 37 64 45 65 38 66
REMARK SMILES IDX 39 67 43 68 46 69 40 70 41 71 44 72 42 73 68 74 69 75 77 76
REMARK SMILES IDX 70 77 71 78 75 79 78 80 72 81 73 82 76 83 74 84 53 85 54 86
REMARK SMILES IDX 62 87 55 88 56 89 60 90 63 91 57 92 58 93 61 94 59 95
REMARK H PARENT 10 23 83 48 51 59
REMARK Flexibility Score: inf
ROOT
ATOM      1  C   UNL A   1      31.647  28.614  26.742  1.00  0.00     0.274 C 
ENDROOT
BRANCH   1   2
ATOM      2  O   UNL A   1      31.616  27.488  25.850  1.00  0.00    -0.462 OA
BRANCH   2   3
ATOM      3  C   UNL A   1      31.976  26.300  26.401  1.00  0.00     0.305 C 
ATOM      4  O   UNL A   1      31.211  25.497  26.921  1.00  0.00    -0.252 OA
BRANCH   3   5
ATOM      5  C   UNL A   1      33.410  25.967  26.086  1.00  0.00     0.123 C 
BRANCH   5   6
ATOM      6  C   UNL A   1      33.902  26.078  24.655  1.00  0.00     0.023 C 
BRANCH   6   7
ATOM      7  C   UNL A   1      34.238  24.824  23.817  1.00  0.00     0.067 C 
ATOM      8  N   UNL A   1      32.016  24.678  22.696  1.00  0.00    -0.356 N 
ATOM      9  C   UNL A   1      31.700  23.385  23.282  1.00  0.00     0.124 C 
ATOM     10  C   UNL A   1      33.434  24.961  22.479  1.00  0.00     0.127 C 
ATOM     11  C   UNL A   1      32.425  23.201  24.614  1.00  0.00     0.087 C 
ATOM     12  C   UNL A   1      33.934  23.392  24.407  1.00  0.00     0.190 C 
BRANCH   8  13
ATOM     13  C   UNL A   1      31.100  25.693  22.920  1.00  0.00     0.128 A 
ATOM     14  C   UNL A   1      27.988  28.594  23.330  1.00  0.00     0.046 C 
ATOM     15  C   UNL A   1      29.112  27.620  23.185  1.00  0.00    -0.033 A 
ATOM     16  C   UNL A   1      30.282  27.926  22.498  1.00  0.00     0.009 A 
ATOM     17  C   UNL A   1      29.029  26.357  23.748  1.00  0.00     0.117 A 
ATOM     18  C   UNL A   1      31.285  26.960  22.374  1.00  0.00     0.047 A 
ATOM     19  N   UNL A   1      29.978  25.405  23.618  1.00  0.00    -0.239 NA
ENDBRANCH   8  13
BRANCH  12  20
ATOM     20  N   UNL A   1      34.815  22.883  25.481  1.00  0.00    -0.328 N 
ATOM     21  C   UNL A   1      36.239  23.285  25.340  1.00  0.00     0.291 C 
ATOM     22  C   UNL A   1      34.775  21.466  25.852  1.00  0.00     0.291 C 
ATOM     23  H   UNL A   1      34.356  23.363  26.255  1.00  0.00     0.348 HD
ATOM     24  C   UNL A   1      37.170  22.284  24.620  1.00  0.00     0.221 C 
ATOM     25  C   UNL A   1      35.698  20.522  25.078  1.00  0.00     0.221 C 
ATOM     26  O   UNL A   1      37.055  20.961  25.151  1.00  0.00    -0.370 OA
ENDBRANCH  12  20
ENDBRANCH   6   7
ENDBRANCH   5   6
ENDBRANCH   3   5
ENDBRANCH   2   3
ENDBRANCH   1   2
BRANCH   1  27
ATOM     27  C   UNL A   1      31.796  29.894  25.920  1.00  0.00     0.275 C 
BRANCH  27  28
ATOM     28  O   UNL A   1      33.155  30.372  25.994  1.00  0.00    -0.458 OA
BRANCH  28  29
ATOM     29  C   UNL A   1      33.389  31.323  26.928  1.00  0.00     0.338 C 
ATOM     30  O   UNL A   1      32.685  32.273  27.221  1.00  0.00    -0.246 OA
BRANCH  29  31
ATOM     31  C   UNL A   1      34.662  31.044  27.609  1.00  0.00     0.060 A 
ATOM     32  C   UNL A   1      34.956  29.751  28.044  1.00  0.00     0.016 A 
ATOM     33  C   UNL A   1      35.515  32.101  27.921  1.00  0.00     0.016 A 
ATOM     34  C   UNL A   1      36.064  29.520  28.851  1.00  0.00     0.010 A 
ATOM     35  C   UNL A   1      36.687  31.847  28.636  1.00  0.00     0.010 A 
ATOM     36  C   UNL A   1      36.966  30.555  29.116  1.00  0.00    -0.014 A 
BRANCH  36  37
ATOM     37  C   UNL A   1      38.222  30.283  29.858  1.00  0.00     0.031 A 
ATOM     38  C   UNL A   1      39.275  29.395  29.262  1.00  0.00     0.074 A 
ATOM     39  C   UNL A   1      38.397  30.815  31.083  1.00  0.00     0.049 A 
ATOM     40  N   UNL A   1      40.317  28.848  29.834  1.00  0.00    -0.248 NA
ATOM     41  C   UNL A   1      39.131  29.067  27.835  1.00  0.00     0.031 C 
ATOM     42  C   UNL A   1      37.470  31.734  31.747  1.00  0.00     0.029 A 
ATOM     43  N   UNL A   1      39.410  30.653  31.994  1.00  0.00    -0.354 N 
ATOM     44  C   UNL A   1      40.922  28.074  28.854  1.00  0.00     0.074 A 
ATOM     45  C   UNL A   1      40.136  28.223  27.648  1.00  0.00     0.031 C 
ATOM     46  C   UNL A   1      37.965  32.072  32.946  1.00  0.00     0.029 A 
ATOM     47  C   UNL A   1      39.191  31.318  33.176  1.00  0.00     0.049 A 
ATOM     48  H   UNL A   1      40.215  30.114  31.818  1.00  0.00     0.167 HD
ATOM     49  C   UNL A   1      42.031  27.303  28.964  1.00  0.00     0.037 A 
ATOM     50  C   UNL A   1      39.865  31.278  34.340  1.00  0.00     0.037 A 
ATOM     51  C   UNL A   1      42.823  27.199  30.163  1.00  0.00     0.049 A 
ATOM     52  C   UNL A   1      41.054  30.370  34.453  1.00  0.00     0.074 A 
ATOM     53  C   UNL A   1      43.979  26.469  30.374  1.00  0.00     0.029 A 
ATOM     54  N   UNL A   1      42.541  27.856  31.352  1.00  0.00    -0.354 N 
ATOM     55  N   UNL A   1      41.591  29.597  33.543  1.00  0.00    -0.248 NA
ATOM     56  C   UNL A   1      41.710  30.304  35.765  1.00  0.00     0.031 C 
ATOM     57  C   UNL A   1      44.377  26.655  31.704  1.00  0.00     0.029 A 
ATOM     58  C   UNL A   1      43.487  27.529  32.310  1.00  0.00     0.049 A 
ATOM     59  H   UNL A   1      41.779  28.463  31.495  1.00  0.00     0.167 HD
ATOM     60  C   UNL A   1      42.645  28.949  34.168  1.00  0.00     0.074 A 
ATOM     61  C   UNL A   1      42.688  29.441  35.530  1.00  0.00     0.031 C 
ATOM     62  C   UNL A   1      43.496  28.022  33.663  1.00  0.00     0.037 A 
BRANCH  49  63
ATOM     63  C   UNL A   1      42.429  26.482  27.774  1.00  0.00     0.064 A 
ATOM     64  C   UNL A   1      43.389  26.925  26.854  1.00  0.00     0.173 A 
ATOM     65  C   UNL A   1      41.859  25.215  27.572  1.00  0.00     0.173 A 
ATOM     66  F   UNL A   1      43.951  28.134  26.994  1.00  0.00    -0.203 F 
ATOM     67  C   UNL A   1      43.750  26.138  25.763  1.00  0.00     0.198 A 
ATOM     68  C   UNL A   1      42.240  24.421  26.494  1.00  0.00     0.198 A 
ATOM     69  F   UNL A   1      40.938  24.744  28.425  1.00  0.00    -0.203 F 
ATOM     70  F   UNL A   1      44.642  26.596  24.874  1.00  0.00    -0.200 F 
ATOM     71  C   UNL A   1      43.181  24.884  25.587  1.00  0.00     0.200 A 
ATOM     72  F   UNL A   1      41.695  23.207  26.331  1.00  0.00    -0.200 F 
ATOM     73  F   UNL A   1      43.534  24.127  24.539  1.00  0.00    -0.200 F 
ENDBRANCH  49  63
BRANCH  50  74
ATOM     74  C   UNL A   1      39.383  32.074  35.497  1.00  0.00     0.064 A 
ATOM     75  C   UNL A   1      38.511  31.517  36.440  1.00  0.00     0.173 A 
ATOM     76  C   UNL A   1      39.807  33.397  35.698  1.00  0.00     0.173 A 
ATOM     77  F   UNL A   1      38.059  30.266  36.277  1.00  0.00    -0.203 F 
ATOM     78  C   UNL A   1      38.079  32.254  37.541  1.00  0.00     0.198 A 
ATOM     79  C   UNL A   1      39.396  34.123  36.813  1.00  0.00     0.198 A 
ATOM     80  F   UNL A   1      40.641  33.977  34.822  1.00  0.00    -0.203 F 
ATOM     81  F   UNL A   1      37.218  31.710  38.412  1.00  0.00    -0.200 F 
ATOM     82  C   UNL A   1      38.528  33.552  37.732  1.00  0.00     0.200 A 
ATOM     83  F   UNL A   1      39.845  35.371  37.001  1.00  0.00    -0.200 F 
ATOM     84  F   UNL A   1      38.121  34.256  38.797  1.00  0.00    -0.200 F 
ENDBRANCH  50  74
BRANCH  62  85
ATOM     85  C   UNL A   1      44.538  27.487  34.595  1.00  0.00     0.064 A 
ATOM     86  C   UNL A   1      44.318  26.317  35.335  1.00  0.00     0.173 A 
ATOM     87  C   UNL A   1      45.775  28.133  34.729  1.00  0.00     0.173 A 
ATOM     88  F   UNL A   1      43.141  25.678  35.254  1.00  0.00    -0.203 F 
ATOM     89  C   UNL A   1      45.296  25.822  36.193  1.00  0.00     0.198 A 
ATOM     90  C   UNL A   1      46.759  27.621  35.569  1.00  0.00     0.198 A 
ATOM     91  F   UNL A   1      46.031  29.254  34.039  1.00  0.00    -0.203 F 
ATOM     92  F   UNL A   1      45.052  24.724  36.923  1.00  0.00    -0.200 F 
ATOM     93  C   UNL A   1      46.517  26.470  36.303  1.00  0.00     0.200 A 
ATOM     94  F   UNL A   1      47.942  28.244  35.671  1.00  0.00    -0.200 F 
ATOM     95  F   UNL A   1      47.459  25.990  37.127  1.00  0.00    -0.200 F 
ENDBRANCH  62  85
ENDBRANCH  36  37
ENDBRANCH  29  31
ENDBRANCH  28  29
ENDBRANCH  27  28
ENDBRANCH   1  27
TORSDOF 15
ENDMDL
MODEL 2
REMARK VINA RESULT:     -12.4      0.284      1.591
REMARK SMILES Cc1ccc(N2CC[C@H]([NH+]3CCOCC3)[C@H](CCC(=O)OCCOC(=O)c3ccc(-c4c5nc(c(-c6c(F)c(F)c(F)c(F)c6F)c6ccc([nH]6)c(-c6c(F)c(F)c(F)c(F)c6F)c6nc(c(-c7c(F)c(F)c(F)c(F)c7F)c7ccc4[nH]7)C=C6)C=C5)cc3)C2)nc1
REMARK SMILES IDX 22 1 21 2 19 3 20 4 18 5 17 6 16 7 6 8 7 9 90 10 8 11 9 12
REMARK SMILES IDX 5 13 1 14 2 15 3 16 92 17 4 18 91 19 10 20 11 21 15 22 12 24
REMARK SMILES IDX 14 25 13 26 23 27 24 28 25 29 26 30 27 31 28 32 89 33 29 34
REMARK SMILES IDX 88 35 30 36 31 37 32 38 82 39 33 40 87 41 81 42 83 43 34 44
REMARK SMILES IDX 86 45 80 46 79 47 35 49 67 50 47 51 66 52 48 53 51 54 65 55
REMARK SMILES IDX 84 56 49 57 50 58 64 60 85 61 52 62 36 63 37 64 45 65 38 66
REMARK SMILES IDX 39 67 43 68 46 69 40 70 41 71 44 72 42 73 68 74 69 75 77 76
REMARK SMILES IDX 70 77 71 78 75 79 78 80 72 81 73 82 76 83 74 84 53 85 54 86
REMARK SMILES IDX 62 87 55 88 56 89 60 90 63 91 57 92 58 93 61 94 59 95
REMARK H PARENT 10 23 83 48 51 59
REMARK Flexibility Score: inf
ROOT
ATOM      1  C   UNL A   1      31.414  28.714  25.982  1.00  0.00     0.274 C 
ENDROOT
BRANCH   1   2
ATOM      2  O   UNL A   1      32.333  27.737  25.467  1.00  0.00    -0.462 OA
BRANCH   2   3
ATOM      3  C   UNL A   1      32.405  26.579  26.172  1.00  0.00     0.305 C 
ATOM      4  O   UNL A   1      31.509  26.110  26.864  1.00  0.00    -0.252 OA
BRANCH   3   5
ATOM      5  C   UNL A   1      33.644  25.801  25.813  1.00  0.00     0.123 C 
BRANCH   5   6
ATOM      6  C   UNL A   1      34.070  25.711  24.360  1.00  0.00     0.023 C 
BRANCH   6   7
ATOM      7  C   UNL A   1      34.159  24.354  23.627  1.00  0.00     0.067 C 
ATOM      8  N   UNL A   1      31.845  24.427  22.702  1.00  0.00    -0.356 N 
ATOM      9  C   UNL A   1      31.414  23.247  23.435  1.00  0.00     0.124 C 
ATOM     10  C   UNL A   1      33.263  24.486  22.348  1.00  0.00     0.127 C 
ATOM     11  C   UNL A   1      32.225  23.080  24.718  1.00  0.00     0.087 C 
ATOM     12  C   UNL A   1      33.721  23.036  24.378  1.00  0.00     0.190 C 
BRANCH   8  13
ATOM     13  C   UNL A   1      31.097  25.577  22.895  1.00  0.00     0.128 A 
ATOM     14  C   UNL A   1      28.455  28.918  23.245  1.00  0.00     0.046 C 
ATOM     15  C   UNL A   1      29.420  27.785  23.115  1.00  0.00    -0.033 A 
ATOM     16  C   UNL A   1      30.573  27.869  22.341  1.00  0.00     0.009 A 
ATOM     17  C   UNL A   1      29.199  26.590  23.782  1.00  0.00     0.117 A 
ATOM     18  C   UNL A   1      31.420  26.761  22.239  1.00  0.00     0.047 A 
ATOM     19  N   UNL A   1      29.995  25.504  23.675  1.00  0.00    -0.239 NA
ENDBRANCH   8  13
BRANCH  12  20
ATOM     20  N   UNL A   1      34.619  22.503  25.424  1.00  0.00    -0.328 N 
ATOM     21  C   UNL A   1      36.049  22.866  25.240  1.00  0.00     0.291 C 
ATOM     22  C   UNL A   1      34.551  21.088  25.798  1.00  0.00     0.291 C 
ATOM     23  H   UNL A   1      34.198  22.996  26.212  1.00  0.00     0.348 HD
ATOM     24  C   UNL A   1      36.930  21.839  24.493  1.00  0.00     0.221 C 
ATOM     25  C   UNL A   1      35.425  20.119  24.997  1.00  0.00     0.221 C 
ATOM     26  O   UNL A   1      36.795  20.521  25.029  1.00  0.00    -0.370 OA
ENDBRANCH  12  20
ENDBRANCH   6   7
ENDBRANCH   5   6
ENDBRANCH   3   5
ENDBRANCH   2   3
ENDBRANCH   1   2
BRANCH   1  27
ATOM     27  C   UNL A   1      31.798  30.091  25.442  1.00  0.00     0.275 C 
BRANCH  27  28
ATOM     28  O   UNL A   1      33.155  30.407  25.818  1.00  0.00    -0.458 OA
BRANCH  28  29
ATOM     29  C   UNL A   1      33.288  31.246  26.871  1.00  0.00     0.338 C 
ATOM     30  O   UNL A   1      32.502  32.092  27.257  1.00  0.00    -0.246 OA
BRANCH  29  31
ATOM     31  C   UNL A   1      34.564  30.983  27.555  1.00  0.00     0.060 A 
ATOM     32  C   UNL A   1      34.873  29.694  27.991  1.00  0.00     0.016 A 
ATOM     33  C   UNL A   1      35.404  32.051  27.866  1.00  0.00     0.016 A 
ATOM     34  C   UNL A   1      35.982  29.478  28.800  1.00  0.00     0.010 A 
ATOM     35  C   UNL A   1      36.577  31.812  28.583  1.00  0.00     0.010 A 
ATOM     36  C   UNL A   1      36.872  30.524  29.065  1.00  0.00    -0.014 A 
BRANCH  36  37
ATOM     37  C   UNL A   1      38.130  30.268  29.809  1.00  0.00     0.031 A 
ATOM     38  C   UNL A   1      39.191  29.387  29.218  1.00  0.00     0.074 A 
ATOM     39  C   UNL A   1      38.300  30.809  31.031  1.00  0.00     0.049 A 
ATOM     40  N   UNL A   1      40.238  28.854  29.794  1.00  0.00    -0.248 NA
ATOM     41  C   UNL A   1      39.051  29.050  27.793  1.00  0.00     0.031 C 
ATOM     42  C   UNL A   1      37.363  31.723  31.690  1.00  0.00     0.029 A 
ATOM     43  N   UNL A   1      39.314  30.662  31.943  1.00  0.00    -0.354 N 
ATOM     44  C   UNL A   1      40.852  28.080  28.818  1.00  0.00     0.074 A 
ATOM     45  C   UNL A   1      40.065  28.215  27.611  1.00  0.00     0.031 C 
ATOM     46  C   UNL A   1      37.855  32.072  32.887  1.00  0.00     0.029 A 
ATOM     47  C   UNL A   1      39.088  31.331  33.121  1.00  0.00     0.049 A 
ATOM     48  H   UNL A   1      40.124  30.129  31.770  1.00  0.00     0.167 HD
ATOM     49  C   UNL A   1      41.968  27.320  28.933  1.00  0.00     0.037 A 
ATOM     50  C   UNL A   1      39.761  31.304  34.285  1.00  0.00     0.037 A 
ATOM     51  C   UNL A   1      42.760  27.230  30.132  1.00  0.00     0.049 A 
ATOM     52  C   UNL A   1      40.959  30.408  34.405  1.00  0.00     0.074 A 
ATOM     53  C   UNL A   1      43.923  26.513  30.348  1.00  0.00     0.029 A 
ATOM     54  N   UNL A   1      42.471  27.891  31.318  1.00  0.00    -0.354 N 
ATOM     55  N   UNL A   1      41.504  29.635  33.499  1.00  0.00    -0.248 NA
ATOM     56  C   UNL A   1      41.615  30.355  35.717  1.00  0.00     0.031 C 
ATOM     57  C   UNL A   1      44.318  26.710  31.677  1.00  0.00     0.029 A 
ATOM     58  C   UNL A   1      43.420  27.579  32.278  1.00  0.00     0.049 A 
ATOM     59  H   UNL A   1      41.704  28.492  31.457  1.00  0.00     0.167 HD
ATOM     60  C   UNL A   1      42.564  29.001  34.127  1.00  0.00     0.074 A 
ATOM     61  C   UNL A   1      42.601  29.500  35.487  1.00  0.00     0.031 C 
ATOM     62  C   UNL A   1      43.424  28.079  33.628  1.00  0.00     0.037 A 
BRANCH  49  63
ATOM     63  C   UNL A   1      42.374  26.497  27.748  1.00  0.00     0.064 A 
ATOM     64  C   UNL A   1      41.813  25.238  27.490  1.00  0.00     0.173 A 
ATOM     65  C   UNL A   1      43.320  26.994  26.837  1.00  0.00     0.173 A 
ATOM     66  F   UNL A   1      40.917  24.712  28.337  1.00  0.00    -0.203 F 
ATOM     67  C   UNL A   1      42.199  24.498  26.375  1.00  0.00     0.198 A 
ATOM     68  C   UNL A   1      43.685  26.262  25.711  1.00  0.00     0.198 A 
ATOM     69  F   UNL A   1      43.885  28.194  27.036  1.00  0.00    -0.203 F 
ATOM     70  F   UNL A   1      41.679  23.281  26.168  1.00  0.00    -0.200 F 
ATOM     71  C   UNL A   1      43.130  25.012  25.483  1.00  0.00     0.200 A 
ATOM     72  F   UNL A   1      44.579  26.764  24.847  1.00  0.00    -0.200 F 
ATOM     73  F   UNL A   1      43.496  24.300  24.408  1.00  0.00    -0.200 F 
ENDBRANCH  49  63
BRANCH  50  74
ATOM     74  C   UNL A   1      39.272  32.102  35.438  1.00  0.00     0.064 A 
ATOM     75  C   UNL A   1      38.459  31.522  36.420  1.00  0.00     0.173 A 
ATOM     76  C   UNL A   1      39.628  33.450  35.595  1.00  0.00     0.173 A 
ATOM     77  F   UNL A   1      38.072  30.245  36.301  1.00  0.00    -0.203 F 
ATOM     78  C   UNL A   1      38.020  32.263  37.517  1.00  0.00     0.198 A 
ATOM     79  C   UNL A   1      39.212  34.181  36.705  1.00  0.00     0.198 A 
ATOM     80  F   UNL A   1      40.403  34.052  34.680  1.00  0.00    -0.203 F 
ATOM     81  F   UNL A   1      37.217  31.694  38.427  1.00  0.00    -0.200 F 
ATOM     82  C   UNL A   1      38.404  33.587  37.663  1.00  0.00     0.200 A 
ATOM     83  F   UNL A   1      39.598  35.455  36.849  1.00  0.00    -0.200 F 
ATOM     84  F   UNL A   1      37.991  34.294  38.723  1.00  0.00    -0.200 F 
ENDBRANCH  50  74
BRANCH  62  85
ATOM     85  C   UNL A   1      44.471  27.559  34.564  1.00  0.00     0.064 A 
ATOM     86  C   UNL A   1      45.655  28.272  34.796  1.00  0.00     0.173 A 
ATOM     87  C   UNL A   1      44.276  26.354  35.252  1.00  0.00     0.173 A 
ATOM     88  F   UNL A   1      45.893  29.419  34.143  1.00  0.00    -0.203 F 
ATOM     89  C   UNL A   1      46.619  27.785  35.675  1.00  0.00     0.198 A 
ATOM     90  C   UNL A   1      45.231  25.882  36.148  1.00  0.00     0.198 A 
ATOM     91  F   UNL A   1      43.157  25.639  35.063  1.00  0.00    -0.203 F 
ATOM     92  F   UNL A   1      47.763  28.460  35.853  1.00  0.00    -0.200 F 
ATOM     93  C   UNL A   1      46.402  26.595  36.354  1.00  0.00     0.200 A 
ATOM     94  F   UNL A   1      45.019  24.736  36.810  1.00  0.00    -0.200 F 
ATOM     95  F   UNL A   1      47.330  26.129  37.202  1.00  0.00    -0.200 F 
ENDBRANCH  62  85
ENDBRANCH  36  37
ENDBRANCH  29  31
ENDBRANCH  28  29
ENDBRANCH  27  28
ENDBRANCH   1  27
TORSDOF 15
ENDMDL
MODEL 3
REMARK VINA RESULT:     -12.0      2.022      4.618
REMARK SMILES Cc1ccc(N2CC[C@H]([NH+]3CCOCC3)[C@H](CCC(=O)OCCOC(=O)c3ccc(-c4c5nc(c(-c6c(F)c(F)c(F)c(F)c6F)c6ccc([nH]6)c(-c6c(F)c(F)c(F)c(F)c6F)c6nc(c(-c7c(F)c(F)c(F)c(F)c7F)c7ccc4[nH]7)C=C6)C=C5)cc3)C2)nc1
REMARK SMILES IDX 22 1 21 2 19 3 20 4 18 5 17 6 16 7 6 8 7 9 90 10 8 11 9 12
REMARK SMILES IDX 5 13 1 14 2 15 3 16 92 17 4 18 91 19 10 20 11 21 15 22 12 24
REMARK SMILES IDX 14 25 13 26 23 27 24 28 25 29 26 30 27 31 28 32 89 33 29 34
REMARK SMILES IDX 88 35 30 36 31 37 32 38 82 39 33 40 87 41 81 42 83 43 34 44
REMARK SMILES IDX 86 45 80 46 79 47 35 49 67 50 47 51 66 52 48 53 51 54 65 55
REMARK SMILES IDX 84 56 49 57 50 58 64 60 85 61 52 62 36 63 37 64 45 65 38 66
REMARK SMILES IDX 39 67 43 68 46 69 40 70 41 71 44 72 42 73 68 74 69 75 77 76
REMARK SMILES IDX 70 77 71 78 75 79 78 80 72 81 73 82 76 83 74 84 53 85 54 86
REMARK SMILES IDX 62 87 55 88 56 89 60 90 63 91 57 92 58 93 61 94 59 95
REMARK H PARENT 10 23 83 48 51 59
REMARK Flexibility Score: inf
ROOT
ATOM      1  C   UNL A   1      31.871  31.625  26.510  1.00  0.00     0.274 C 
ENDROOT
BRANCH   1   2
ATOM      2  O   UNL A   1      32.495  30.619  27.325  1.00  0.00    -0.462 OA
BRANCH   2   3
ATOM      3  C   UNL A   1      33.709  30.192  26.893  1.00  0.00     0.305 C 
ATOM      4  O   UNL A   1      34.788  30.672  27.216  1.00  0.00    -0.252 OA
BRANCH   3   5
ATOM      5  C   UNL A   1      33.592  28.888  26.146  1.00  0.00     0.123 C 
BRANCH   5   6
ATOM      6  C   UNL A   1      32.782  28.836  24.865  1.00  0.00     0.023 C 
BRANCH   6   7
ATOM      7  C   UNL A   1      31.254  28.603  24.885  1.00  0.00     0.067 C 
ATOM      8  N   UNL A   1      31.377  26.149  24.462  1.00  0.00    -0.356 N 
ATOM      9  C   UNL A   1      30.676  26.238  23.191  1.00  0.00     0.124 C 
ATOM     10  C   UNL A   1      31.037  27.162  25.461  1.00  0.00     0.127 C 
ATOM     11  C   UNL A   1      30.879  27.612  22.555  1.00  0.00     0.087 C 
ATOM     12  C   UNL A   1      30.436  28.704  23.540  1.00  0.00     0.190 C 
BRANCH   8  13
ATOM     13  C   UNL A   1      32.627  25.550  24.432  1.00  0.00     0.128 A 
ATOM     14  C   UNL A   1      36.259  23.306  24.248  1.00  0.00     0.046 C 
ATOM     15  C   UNL A   1      35.009  24.118  24.355  1.00  0.00    -0.033 A 
ATOM     16  C   UNL A   1      34.548  24.624  25.565  1.00  0.00     0.009 A 
ATOM     17  C   UNL A   1      34.257  24.406  23.228  1.00  0.00     0.117 A 
ATOM     18  C   UNL A   1      33.355  25.353  25.602  1.00  0.00     0.047 A 
ATOM     19  N   UNL A   1      33.091  25.088  23.249  1.00  0.00    -0.239 NA
ENDBRANCH   8  13
BRANCH  12  20
ATOM     20  N   UNL A   1      30.200  30.048  22.970  1.00  0.00    -0.328 N 
ATOM     21  C   UNL A   1      29.389  30.941  23.838  1.00  0.00     0.291 C 
ATOM     22  C   UNL A   1      29.718  30.186  21.593  1.00  0.00     0.291 C 
ATOM     23  H   UNL A   1      31.177  30.338  22.929  1.00  0.00     0.348 HD
ATOM     24  C   UNL A   1      27.868  30.972  23.564  1.00  0.00     0.221 C 
ATOM     25  C   UNL A   1      28.201  30.177  21.387  1.00  0.00     0.221 C 
ATOM     26  O   UNL A   1      27.572  31.184  22.181  1.00  0.00    -0.370 OA
ENDBRANCH  12  20
ENDBRANCH   6   7
ENDBRANCH   5   6
ENDBRANCH   3   5
ENDBRANCH   2   3
ENDBRANCH   1   2
BRANCH   1  27
ATOM     27  C   UNL A   1      31.717  32.904  27.332  1.00  0.00     0.275 C 
BRANCH  27  28
ATOM     28  O   UNL A   1      32.959  33.638  27.340  1.00  0.00    -0.458 OA
BRANCH  28  29
ATOM     29  C   UNL A   1      33.239  34.298  28.487  1.00  0.00     0.338 C 
ATOM     30  O   UNL A   1      32.613  35.209  28.999  1.00  0.00    -0.246 OA
BRANCH  29  31
ATOM     31  C   UNL A   1      34.452  33.734  29.099  1.00  0.00     0.060 A 
ATOM     32  C   UNL A   1      34.354  32.684  30.013  1.00  0.00     0.016 A 
ATOM     33  C   UNL A   1      35.685  34.335  28.849  1.00  0.00     0.016 A 
ATOM     34  C   UNL A   1      35.471  32.277  30.733  1.00  0.00     0.010 A 
ATOM     35  C   UNL A   1      36.826  33.848  29.490  1.00  0.00     0.010 A 
ATOM     36  C   UNL A   1      36.727  32.821  30.445  1.00  0.00    -0.014 A 
BRANCH  36  37
ATOM     37  C   UNL A   1      37.943  32.291  31.110  1.00  0.00     0.031 A 
ATOM     38  C   UNL A   1      38.751  31.209  30.456  1.00  0.00     0.074 A 
ATOM     39  C   UNL A   1      38.299  32.768  32.318  1.00  0.00     0.049 A 
ATOM     40  N   UNL A   1      39.692  30.456  30.966  1.00  0.00    -0.248 NA
ATOM     41  C   UNL A   1      38.455  30.928  29.042  1.00  0.00     0.031 C 
ATOM     42  C   UNL A   1      37.624  33.854  33.033  1.00  0.00     0.029 A 
ATOM     43  N   UNL A   1      39.311  32.395  33.166  1.00  0.00    -0.354 N 
ATOM     44  C   UNL A   1      40.064  29.580  29.955  1.00  0.00     0.074 A 
ATOM     45  C   UNL A   1      39.252  29.896  28.799  1.00  0.00     0.031 C 
ATOM     46  C   UNL A   1      38.250  34.075  34.196  1.00  0.00     0.029 A 
ATOM     47  C   UNL A   1      39.307  33.083  34.355  1.00  0.00     0.049 A 
ATOM     48  H   UNL A   1      39.976  31.703  32.944  1.00  0.00     0.167 HD
ATOM     49  C   UNL A   1      40.994  28.597  30.002  1.00  0.00     0.037 A 
ATOM     50  C   UNL A   1      40.028  32.898  35.475  1.00  0.00     0.037 A 
ATOM     51  C   UNL A   1      41.820  28.324  31.150  1.00  0.00     0.049 A 
ATOM     52  C   UNL A   1      41.009  31.764  35.521  1.00  0.00     0.074 A 
ATOM     53  C   UNL A   1      42.812  27.371  31.295  1.00  0.00     0.029 A 
ATOM     54  N   UNL A   1      41.753  29.017  32.350  1.00  0.00    -0.354 N 
ATOM     55  N   UNL A   1      41.319  30.903  34.584  1.00  0.00    -0.248 NA
ATOM     56  C   UNL A   1      41.717  31.555  36.791  1.00  0.00     0.031 C 
ATOM     57  C   UNL A   1      43.321  27.462  32.596  1.00  0.00     0.029 A 
ATOM     58  C   UNL A   1      42.669  28.497  33.250  1.00  0.00     0.049 A 
ATOM     59  H   UNL A   1      41.143  29.768  32.536  1.00  0.00     0.167 HD
ATOM     60  C   UNL A   1      42.253  30.047  35.147  1.00  0.00     0.074 A 
ATOM     61  C   UNL A   1      42.480  30.511  36.501  1.00  0.00     0.031 C 
ATOM     62  C   UNL A   1      42.862  28.969  34.596  1.00  0.00     0.037 A 
BRANCH  49  63
ATOM     63  C   UNL A   1      41.141  27.720  28.795  1.00  0.00     0.064 A 
ATOM     64  C   UNL A   1      40.312  26.610  28.578  1.00  0.00     0.173 A 
ATOM     65  C   UNL A   1      42.109  28.017  27.823  1.00  0.00     0.173 A 
ATOM     66  F   UNL A   1      39.382  26.275  29.484  1.00  0.00    -0.203 F 
ATOM     67  C   UNL A   1      40.460  25.817  27.442  1.00  0.00     0.198 A 
ATOM     68  C   UNL A   1      42.239  27.237  26.677  1.00  0.00     0.198 A 
ATOM     69  F   UNL A   1      42.926  29.069  27.981  1.00  0.00    -0.203 F 
ATOM     70  F   UNL A   1      39.684  24.739  27.273  1.00  0.00    -0.200 F 
ATOM     71  C   UNL A   1      41.419  26.135  26.490  1.00  0.00     0.200 A 
ATOM     72  F   UNL A   1      43.160  27.550  25.755  1.00  0.00    -0.200 F 
ATOM     73  F   UNL A   1      41.557  25.373  25.395  1.00  0.00    -0.200 F 
ENDBRANCH  49  63
BRANCH  50  74
ATOM     74  C   UNL A   1      39.793  33.768  36.655  1.00  0.00     0.064 A 
ATOM     75  C   UNL A   1      40.418  35.016  36.764  1.00  0.00     0.173 A 
ATOM     76  C   UNL A   1      38.919  33.381  37.683  1.00  0.00     0.173 A 
ATOM     77  F   UNL A   1      41.281  35.418  35.820  1.00  0.00    -0.203 F 
ATOM     78  C   UNL A   1      40.178  35.846  37.858  1.00  0.00     0.198 A 
ATOM     79  C   UNL A   1      38.659  34.223  38.762  1.00  0.00     0.198 A 
ATOM     80  F   UNL A   1      38.297  32.194  37.626  1.00  0.00    -0.203 F 
ATOM     81  F   UNL A   1      40.813  37.022  37.956  1.00  0.00    -0.200 F 
ATOM     82  C   UNL A   1      39.292  35.453  38.851  1.00  0.00     0.200 A 
ATOM     83  F   UNL A   1      37.791  33.845  39.710  1.00  0.00    -0.200 F 
ATOM     84  F   UNL A   1      39.054  36.256  39.896  1.00  0.00    -0.200 F 
ENDBRANCH  50  74
BRANCH  62  85
ATOM     85  C   UNL A   1      43.827  28.224  35.466  1.00  0.00     0.064 A 
ATOM     86  C   UNL A   1      45.181  28.584  35.523  1.00  0.00     0.173 A 
ATOM     87  C   UNL A   1      43.390  27.160  36.268  1.00  0.00     0.173 A 
ATOM     88  F   UNL A   1      45.647  29.583  34.757  1.00  0.00    -0.203 F 
ATOM     89  C   UNL A   1      46.069  27.892  36.342  1.00  0.00     0.198 A 
ATOM     90  C   UNL A   1      44.276  26.486  37.103  1.00  0.00     0.198 A 
ATOM     91  F   UNL A   1      42.104  26.782  36.248  1.00  0.00    -0.203 F 
ATOM     92  F   UNL A   1      47.367  28.226  36.352  1.00  0.00    -0.200 F 
ATOM     93  C   UNL A   1      45.614  26.849  37.135  1.00  0.00     0.200 A 
ATOM     94  F   UNL A   1      43.836  25.483  37.875  1.00  0.00    -0.200 F 
ATOM     95  F   UNL A   1      46.471  26.186  37.925  1.00  0.00    -0.200 F 
ENDBRANCH  62  85
ENDBRANCH  36  37
ENDBRANCH  29  31
ENDBRANCH  28  29
ENDBRANCH  27  28
ENDBRANCH   1  27
TORSDOF 15
ENDMDL
