MODEL 1
REMARK VINA RESULT:     -13.7      0.000      0.000
REMARK SMILES O=C(OCCOC(=O)[C@H]1[C@H]2CC[C@H](C2)[C@@H]1C(=O)N1CCN(c2cccc(Cl)c2)CC1)c1ccc(-c2c3nc(c(-c4c(F)c(F)c(F)c(F)c4F)c4ccc([nH]4)c(-c4c(F)c(F)c(F)c(F)c4F)c4nc(c(-c5c(F)c(F)c(F)c(F)c5F)c5ccc2[nH]5)C=C4)C=C3)cc1
REMARK SMILES IDX 4 1 3 2 2 3 1 4 31 5 32 6 93 7 33 8 92 9 34 10 35 11 36 12
REMARK SMILES IDX 86 13 37 14 91 15 85 16 87 17 38 18 90 19 84 20 83 21 39 23
REMARK SMILES IDX 71 24 51 25 70 26 52 27 55 28 69 29 88 30 53 31 54 32 68 34
REMARK SMILES IDX 89 35 56 36 40 37 41 38 49 39 42 40 43 41 47 42 50 43 44 44
REMARK SMILES IDX 45 45 48 46 46 47 72 48 73 49 81 50 74 51 75 52 79 53 82 54
REMARK SMILES IDX 76 55 77 56 80 57 78 58 57 59 58 60 66 61 59 62 60 63 64 64
REMARK SMILES IDX 67 65 61 66 62 67 65 68 63 69 5 70 6 71 7 72 8 73 9 74 10 75
REMARK SMILES IDX 15 76 11 77 14 78 13 79 12 80 16 81 17 82 18 83 19 84 30 85
REMARK SMILES IDX 20 86 29 87 21 88 22 89 23 90 28 91 24 92 26 93 25 94 27 95
REMARK H PARENT 87 22 55 33
REMARK Flexibility Score: inf
ROOT
ATOM      1  C   UNL A   1      31.592  32.155  26.975  1.00  0.00     0.275 C 
ENDROOT
BRANCH   1   2
ATOM      2  O   UNL A   1      32.253  33.420  27.077  1.00  0.00    -0.458 OA
BRANCH   2   3
ATOM      3  C   UNL A   1      32.959  33.943  28.102  1.00  0.00     0.338 C 
ATOM      4  O   UNL A   1      32.529  34.968  28.630  1.00  0.00    -0.246 OA
BRANCH   3   5
ATOM      5  C   UNL A   1      34.270  33.397  28.603  1.00  0.00     0.060 A 
ATOM      6  C   UNL A   1      35.569  33.828  28.298  1.00  0.00     0.016 A 
ATOM      7  C   UNL A   1      34.160  32.344  29.513  1.00  0.00     0.016 A 
ATOM      8  C   UNL A   1      36.703  33.295  28.933  1.00  0.00     0.010 A 
ATOM      9  C   UNL A   1      35.288  31.804  30.131  1.00  0.00     0.010 A 
ATOM     10  C   UNL A   1      36.577  32.279  29.871  1.00  0.00    -0.014 A 
BRANCH  10  11
ATOM     11  C   UNL A   1      37.779  31.621  30.453  1.00  0.00     0.031 A 
ATOM     12  C   UNL A   1      38.168  31.968  31.863  1.00  0.00     0.074 A 
ATOM     13  C   UNL A   1      38.529  30.749  29.747  1.00  0.00     0.049 A 
ATOM     14  N   UNL A   1      39.140  31.491  32.597  1.00  0.00    -0.248 NA
ATOM     15  C   UNL A   1      37.390  33.030  32.519  1.00  0.00     0.031 C 
ATOM     16  C   UNL A   1      38.307  30.374  28.352  1.00  0.00     0.029 A 
ATOM     17  N   UNL A   1      39.633  30.013  30.108  1.00  0.00    -0.354 N 
ATOM     18  C   UNL A   1      39.096  32.216  33.780  1.00  0.00     0.074 A 
ATOM     19  C   UNL A   1      38.089  33.237  33.619  1.00  0.00     0.031 C 
ATOM     20  C   UNL A   1      39.220  29.456  27.984  1.00  0.00     0.029 A 
ATOM     21  C   UNL A   1      40.095  29.173  29.118  1.00  0.00     0.049 A 
ATOM     22  H   UNL A   1      40.056  30.079  30.995  1.00  0.00     0.167 HD
ATOM     23  C   UNL A   1      39.780  32.016  34.930  1.00  0.00     0.037 A 
ATOM     24  C   UNL A   1      41.089  28.261  29.144  1.00  0.00     0.037 A 
ATOM     25  C   UNL A   1      40.740  30.968  35.114  1.00  0.00     0.049 A 
ATOM     26  C   UNL A   1      41.844  28.052  30.438  1.00  0.00     0.074 A 
ATOM     27  C   UNL A   1      41.491  30.665  36.233  1.00  0.00     0.029 A 
ATOM     28  N   UNL A   1      41.091  30.053  34.131  1.00  0.00    -0.354 N 
ATOM     29  N   UNL A   1      41.638  28.589  31.616  1.00  0.00    -0.248 NA
ATOM     30  C   UNL A   1      42.955  27.090  30.407  1.00  0.00     0.031 C 
ATOM     31  C   UNL A   1      42.365  29.626  35.895  1.00  0.00     0.029 A 
ATOM     32  C   UNL A   1      42.121  29.248  34.583  1.00  0.00     0.049 A 
ATOM     33  H   UNL A   1      40.669  29.986  33.244  1.00  0.00     0.167 HD
ATOM     34  C   UNL A   1      42.567  28.008  32.473  1.00  0.00     0.074 A 
ATOM     35  C   UNL A   1      43.312  27.049  31.683  1.00  0.00     0.031 C 
ATOM     36  C   UNL A   1      42.798  28.252  33.788  1.00  0.00     0.037 A 
BRANCH  23  37
ATOM     37  C   UNL A   1      39.497  32.970  36.051  1.00  0.00     0.064 A 
ATOM     38  C   UNL A   1      40.252  34.142  36.225  1.00  0.00     0.173 A 
ATOM     39  C   UNL A   1      38.517  32.673  37.008  1.00  0.00     0.173 A 
ATOM     40  F   UNL A   1      41.226  34.453  35.355  1.00  0.00    -0.203 F 
ATOM     41  C   UNL A   1      40.078  34.947  37.347  1.00  0.00     0.198 A 
ATOM     42  C   UNL A   1      38.318  33.502  38.108  1.00  0.00     0.198 A 
ATOM     43  F   UNL A   1      37.771  31.564  36.892  1.00  0.00    -0.203 F 
ATOM     44  F   UNL A   1      40.879  36.003  37.541  1.00  0.00    -0.200 F 
ATOM     45  C   UNL A   1      39.110  34.628  38.286  1.00  0.00     0.200 A 
ATOM     46  F   UNL A   1      37.379  33.197  39.014  1.00  0.00    -0.200 F 
ATOM     47  F   UNL A   1      38.953  35.394  39.375  1.00  0.00    -0.200 F 
ENDBRANCH  23  37
BRANCH  24  48
ATOM     48  C   UNL A   1      41.403  27.418  27.952  1.00  0.00     0.064 A 
ATOM     49  C   UNL A   1      40.801  26.160  27.784  1.00  0.00     0.173 A 
ATOM     50  C   UNL A   1      42.348  27.811  26.992  1.00  0.00     0.173 A 
ATOM     51  F   UNL A   1      39.904  25.722  28.680  1.00  0.00    -0.203 F 
ATOM     52  C   UNL A   1      41.155  25.318  26.729  1.00  0.00     0.198 A 
ATOM     53  C   UNL A   1      42.682  26.979  25.922  1.00  0.00     0.198 A 
ATOM     54  F   UNL A   1      42.955  29.002  27.095  1.00  0.00    -0.203 F 
ATOM     55  F   UNL A   1      40.606  24.100  26.631  1.00  0.00    -0.200 F 
ATOM     56  C   UNL A   1      42.095  25.729  25.797  1.00  0.00     0.200 A 
ATOM     57  F   UNL A   1      43.583  27.385  25.016  1.00  0.00    -0.200 F 
ATOM     58  F   UNL A   1      42.442  24.918  24.788  1.00  0.00    -0.200 F 
ENDBRANCH  24  48
BRANCH  36  59
ATOM     59  C   UNL A   1      43.853  27.436  34.476  1.00  0.00     0.064 A 
ATOM     60  C   UNL A   1      45.169  27.898  34.634  1.00  0.00     0.173 A 
ATOM     61  C   UNL A   1      43.517  26.201  35.054  1.00  0.00     0.173 A 
ATOM     62  F   UNL A   1      45.545  29.069  34.099  1.00  0.00    -0.203 F 
ATOM     63  C   UNL A   1      46.117  27.137  35.313  1.00  0.00     0.198 A 
ATOM     64  C   UNL A   1      44.457  25.463  35.767  1.00  0.00     0.198 A 
ATOM     65  F   UNL A   1      42.269  25.721  34.947  1.00  0.00    -0.203 F 
ATOM     66  F   UNL A   1      47.381  27.572  35.403  1.00  0.00    -0.200 F 
ATOM     67  C   UNL A   1      45.758  25.927  35.887  1.00  0.00     0.200 A 
ATOM     68  F   UNL A   1      44.101  24.307  36.342  1.00  0.00    -0.200 F 
ATOM     69  F   UNL A   1      46.668  25.205  36.554  1.00  0.00    -0.200 F 
ENDBRANCH  36  59
ENDBRANCH  10  11
ENDBRANCH   3   5
ENDBRANCH   2   3
ENDBRANCH   1   2
BRANCH   1  70
ATOM     70  C   UNL A   1      32.549  30.993  26.696  1.00  0.00     0.274 C 
BRANCH  70  71
ATOM     71  O   UNL A   1      31.927  29.695  26.781  1.00  0.00    -0.462 OA
BRANCH  71  72
ATOM     72  C   UNL A   1      32.728  28.597  26.609  1.00  0.00     0.310 C 
ATOM     73  O   UNL A   1      33.873  28.499  27.029  1.00  0.00    -0.252 OA
BRANCH  72  74
ATOM     74  C   UNL A   1      32.001  27.556  25.763  1.00  0.00     0.115 C 
ATOM     75  C   UNL A   1      31.571  28.160  24.402  1.00  0.00     0.004 C 
ATOM     76  C   UNL A   1      32.838  26.303  25.351  1.00  0.00     0.096 C 
ATOM     77  C   UNL A   1      32.755  28.807  23.673  1.00  0.00     0.005 C 
ATOM     78  C   UNL A   1      31.382  26.904  23.562  1.00  0.00     0.009 C 
ATOM     79  C   UNL A   1      32.805  26.396  23.822  1.00  0.00     0.003 C 
ATOM     80  C   UNL A   1      33.653  27.604  23.364  1.00  0.00     0.005 C 
BRANCH  76  81
ATOM     81  C   UNL A   1      32.330  25.028  26.076  1.00  0.00     0.226 C 
ATOM     82  O   UNL A   1      31.404  25.212  26.881  1.00  0.00    -0.275 OA
ATOM     83  N   UNL A   1      32.715  23.725  25.794  1.00  0.00    -0.339 N 
ATOM     84  C   UNL A   1      31.877  22.630  26.334  1.00  0.00     0.141 C 
ATOM     85  C   UNL A   1      34.036  23.212  25.377  1.00  0.00     0.141 C 
ATOM     86  C   UNL A   1      31.738  21.461  25.332  1.00  0.00     0.138 C 
ATOM     87  C   UNL A   1      33.943  22.023  24.389  1.00  0.00     0.138 C 
ATOM     88  N   UNL A   1      33.062  20.986  24.942  1.00  0.00    -0.368 N 
BRANCH  88  89
ATOM     89  C   UNL A   1      33.169  19.708  24.412  1.00  0.00     0.038 A 
ATOM     90  C   UNL A   1      32.424  19.412  23.262  1.00  0.00     0.026 A 
ATOM     91  C   UNL A   1      34.002  18.716  24.938  1.00  0.00     0.046 A 
ATOM     92  C   UNL A   1      32.527  18.175  22.625  1.00  0.00     0.004 A 
ATOM     93  C   UNL A   1      34.090  17.472  24.306  1.00  0.00     0.043 A 
ATOM     94  C   UNL A   1      33.366  17.201  23.148  1.00  0.00     0.020 A 
ATOM     95  Cl  UNL A   1      35.098  16.243  24.940  1.00  0.00    -0.084 Cl
ENDBRANCH  88  89
ENDBRANCH  76  81
ENDBRANCH  72  74
ENDBRANCH  71  72
ENDBRANCH  70  71
ENDBRANCH   1  70
TORSDOF 13
ENDMDL
MODEL 2
REMARK VINA RESULT:     -13.7      0.644      1.327
REMARK SMILES O=C(OCCOC(=O)[C@H]1[C@H]2CC[C@H](C2)[C@@H]1C(=O)N1CCN(c2cccc(Cl)c2)CC1)c1ccc(-c2c3nc(c(-c4c(F)c(F)c(F)c(F)c4F)c4ccc([nH]4)c(-c4c(F)c(F)c(F)c(F)c4F)c4nc(c(-c5c(F)c(F)c(F)c(F)c5F)c5ccc2[nH]5)C=C4)C=C3)cc1
REMARK SMILES IDX 4 1 3 2 2 3 1 4 31 5 32 6 93 7 33 8 92 9 34 10 35 11 36 12
REMARK SMILES IDX 86 13 37 14 91 15 85 16 87 17 38 18 90 19 84 20 83 21 39 23
REMARK SMILES IDX 71 24 51 25 70 26 52 27 55 28 69 29 88 30 53 31 54 32 68 34
REMARK SMILES IDX 89 35 56 36 40 37 41 38 49 39 42 40 43 41 47 42 50 43 44 44
REMARK SMILES IDX 45 45 48 46 46 47 72 48 73 49 81 50 74 51 75 52 79 53 82 54
REMARK SMILES IDX 76 55 77 56 80 57 78 58 57 59 58 60 66 61 59 62 60 63 64 64
REMARK SMILES IDX 67 65 61 66 62 67 65 68 63 69 5 70 6 71 7 72 8 73 9 74 10 75
REMARK SMILES IDX 15 76 11 77 14 78 13 79 12 80 16 81 17 82 18 83 19 84 30 85
REMARK SMILES IDX 20 86 29 87 21 88 22 89 23 90 28 91 24 92 26 93 25 94 27 95
REMARK H PARENT 87 22 55 33
REMARK Flexibility Score: inf
ROOT
ATOM      1  C   UNL A   1      31.548  32.123  26.841  1.00  0.00     0.275 C 
ENDROOT
BRANCH   1   2
ATOM      2  O   UNL A   1      32.520  33.172  26.911  1.00  0.00    -0.458 OA
BRANCH   2   3
ATOM      3  C   UNL A   1      33.175  33.669  27.981  1.00  0.00     0.338 C 
ATOM      4  O   UNL A   1      32.689  34.648  28.547  1.00  0.00    -0.246 OA
BRANCH   3   5
ATOM      5  C   UNL A   1      34.493  33.150  28.493  1.00  0.00     0.060 A 
ATOM      6  C   UNL A   1      35.778  33.666  28.276  1.00  0.00     0.016 A 
ATOM      7  C   UNL A   1      34.404  32.025  29.316  1.00  0.00     0.016 A 
ATOM      8  C   UNL A   1      36.915  33.142  28.915  1.00  0.00     0.010 A 
ATOM      9  C   UNL A   1      35.534  31.494  29.937  1.00  0.00     0.010 A 
ATOM     10  C   UNL A   1      36.806  32.050  29.767  1.00  0.00    -0.014 A 
BRANCH  10  11
ATOM     11  C   UNL A   1      38.017  31.409  30.347  1.00  0.00     0.031 A 
ATOM     12  C   UNL A   1      38.420  31.780  31.747  1.00  0.00     0.074 A 
ATOM     13  C   UNL A   1      38.765  30.529  29.647  1.00  0.00     0.049 A 
ATOM     14  N   UNL A   1      39.402  31.320  32.478  1.00  0.00    -0.248 NA
ATOM     15  C   UNL A   1      37.643  32.848  32.394  1.00  0.00     0.031 C 
ATOM     16  C   UNL A   1      38.530  30.131  28.260  1.00  0.00     0.029 A 
ATOM     17  N   UNL A   1      39.877  29.805  30.008  1.00  0.00    -0.354 N 
ATOM     18  C   UNL A   1      39.367  32.064  33.650  1.00  0.00     0.074 A 
ATOM     19  C   UNL A   1      38.352  33.077  33.483  1.00  0.00     0.031 C 
ATOM     20  C   UNL A   1      39.444  29.212  27.898  1.00  0.00     0.029 A 
ATOM     21  C   UNL A   1      40.333  28.952  29.027  1.00  0.00     0.049 A 
ATOM     22  H   UNL A   1      40.309  29.888  30.889  1.00  0.00     0.167 HD
ATOM     23  C   UNL A   1      40.064  31.886  34.795  1.00  0.00     0.037 A 
ATOM     24  C   UNL A   1      41.333  28.046  29.057  1.00  0.00     0.037 A 
ATOM     25  C   UNL A   1      41.031  30.846  34.986  1.00  0.00     0.049 A 
ATOM     26  C   UNL A   1      42.102  27.862  30.346  1.00  0.00     0.074 A 
ATOM     27  C   UNL A   1      41.795  30.566  36.101  1.00  0.00     0.029 A 
ATOM     28  N   UNL A   1      41.377  29.918  34.015  1.00  0.00    -0.354 N 
ATOM     29  N   UNL A   1      41.905  28.417  31.518  1.00  0.00    -0.248 NA
ATOM     30  C   UNL A   1      43.218  26.905  30.318  1.00  0.00     0.031 C 
ATOM     31  C   UNL A   1      42.672  29.526  35.771  1.00  0.00     0.029 A 
ATOM     32  C   UNL A   1      42.416  29.126  34.468  1.00  0.00     0.049 A 
ATOM     33  H   UNL A   1      40.946  29.835  33.133  1.00  0.00     0.167 HD
ATOM     34  C   UNL A   1      42.847  27.854  32.374  1.00  0.00     0.074 A 
ATOM     35  C   UNL A   1      43.589  26.887  31.591  1.00  0.00     0.031 C 
ATOM     36  C   UNL A   1      43.090  28.121  33.682  1.00  0.00     0.037 A 
BRANCH  23  37
ATOM     37  C   UNL A   1      39.787  32.857  35.903  1.00  0.00     0.064 A 
ATOM     38  C   UNL A   1      38.763  32.630  36.839  1.00  0.00     0.173 A 
ATOM     39  C   UNL A   1      40.495  34.064  35.986  1.00  0.00     0.173 A 
ATOM     40  F   UNL A   1      38.033  31.505  36.780  1.00  0.00    -0.203 F 
ATOM     41  C   UNL A   1      38.419  33.601  37.774  1.00  0.00     0.198 A 
ATOM     42  C   UNL A   1      40.175  35.016  36.949  1.00  0.00     0.198 A 
ATOM     43  F   UNL A   1      41.478  34.333  35.114  1.00  0.00    -0.203 F 
ATOM     44  F   UNL A   1      37.374  33.402  38.589  1.00  0.00    -0.200 F 
ATOM     45  C   UNL A   1      39.127  34.792  37.830  1.00  0.00     0.200 A 
ATOM     46  F   UNL A   1      40.861  36.166  37.007  1.00  0.00    -0.200 F 
ATOM     47  F   UNL A   1      38.784  35.733  38.721  1.00  0.00    -0.200 F 
ENDBRANCH  23  37
BRANCH  24  48
ATOM     48  C   UNL A   1      41.638  27.185  27.875  1.00  0.00     0.064 A 
ATOM     49  C   UNL A   1      41.037  25.924  27.730  1.00  0.00     0.173 A 
ATOM     50  C   UNL A   1      42.576  27.565  26.902  1.00  0.00     0.173 A 
ATOM     51  F   UNL A   1      40.148  25.498  28.640  1.00  0.00    -0.203 F 
ATOM     52  C   UNL A   1      41.384  25.067  26.686  1.00  0.00     0.198 A 
ATOM     53  C   UNL A   1      42.903  26.717  25.842  1.00  0.00     0.198 A 
ATOM     54  F   UNL A   1      43.181  28.759  26.983  1.00  0.00    -0.203 F 
ATOM     55  F   UNL A   1      40.836  23.846  26.611  1.00  0.00    -0.200 F 
ATOM     56  C   UNL A   1      42.316  25.465  25.741  1.00  0.00     0.200 A 
ATOM     57  F   UNL A   1      43.796  27.112  24.923  1.00  0.00    -0.200 F 
ATOM     58  F   UNL A   1      42.657  24.639  24.741  1.00  0.00    -0.200 F 
ENDBRANCH  24  48
BRANCH  36  59
ATOM     59  C   UNL A   1      44.157  27.322  34.372  1.00  0.00     0.064 A 
ATOM     60  C   UNL A   1      45.492  27.752  34.429  1.00  0.00     0.173 A 
ATOM     61  C   UNL A   1      43.818  26.141  35.053  1.00  0.00     0.173 A 
ATOM     62  F   UNL A   1      45.872  28.870  33.793  1.00  0.00    -0.203 F 
ATOM     63  C   UNL A   1      46.453  27.010  35.111  1.00  0.00     0.198 A 
ATOM     64  C   UNL A   1      44.773  25.426  35.768  1.00  0.00     0.198 A 
ATOM     65  F   UNL A   1      42.553  25.695  35.045  1.00  0.00    -0.203 F 
ATOM     66  F   UNL A   1      47.731  27.409  35.105  1.00  0.00    -0.200 F 
ATOM     67  C   UNL A   1      46.091  25.855  35.788  1.00  0.00     0.200 A 
ATOM     68  F   UNL A   1      44.416  24.324  36.442  1.00  0.00    -0.200 F 
ATOM     69  F   UNL A   1      47.015  25.153  36.458  1.00  0.00    -0.200 F 
ENDBRANCH  36  59
ENDBRANCH  10  11
ENDBRANCH   3   5
ENDBRANCH   2   3
ENDBRANCH   1   2
BRANCH   1  70
ATOM     70  C   UNL A   1      32.168  30.735  26.664  1.00  0.00     0.274 C 
BRANCH  70  71
ATOM     71  O   UNL A   1      31.542  29.946  25.634  1.00  0.00    -0.462 OA
BRANCH  71  72
ATOM     72  C   UNL A   1      32.197  28.820  25.211  1.00  0.00     0.310 C 
ATOM     73  O   UNL A   1      33.390  28.771  24.942  1.00  0.00    -0.252 OA
BRANCH  72  74
ATOM     74  C   UNL A   1      31.206  27.670  25.063  1.00  0.00     0.115 C 
ATOM     75  C   UNL A   1      30.017  28.085  24.160  1.00  0.00     0.004 C 
ATOM     76  C   UNL A   1      31.752  26.381  24.368  1.00  0.00     0.096 C 
ATOM     77  C   UNL A   1      30.498  28.640  22.814  1.00  0.00     0.005 C 
ATOM     78  C   UNL A   1      29.483  26.727  23.723  1.00  0.00     0.009 C 
ATOM     79  C   UNL A   1      30.829  26.270  23.149  1.00  0.00     0.003 C 
ATOM     80  C   UNL A   1      31.148  27.416  22.161  1.00  0.00     0.005 C 
BRANCH  76  81
ATOM     81  C   UNL A   1      31.869  25.209  25.378  1.00  0.00     0.226 C 
ATOM     82  O   UNL A   1      31.342  25.409  26.484  1.00  0.00    -0.275 OA
ATOM     83  N   UNL A   1      32.366  23.944  25.100  1.00  0.00    -0.339 N 
ATOM     84  C   UNL A   1      32.077  22.864  26.072  1.00  0.00     0.141 C 
ATOM     85  C   UNL A   1      33.472  23.552  24.202  1.00  0.00     0.141 C 
ATOM     86  C   UNL A   1      31.785  21.518  25.370  1.00  0.00     0.138 C 
ATOM     87  C   UNL A   1      33.231  22.196  23.494  1.00  0.00     0.138 C 
ATOM     88  N   UNL A   1      32.897  21.170  24.490  1.00  0.00    -0.368 N 
BRANCH  88  89
ATOM     89  C   UNL A   1      33.040  19.842  24.112  1.00  0.00     0.038 A 
ATOM     90  C   UNL A   1      32.275  19.383  23.031  1.00  0.00     0.026 A 
ATOM     91  C   UNL A   1      33.928  18.952  24.723  1.00  0.00     0.046 A 
ATOM     92  C   UNL A   1      32.410  18.084  22.542  1.00  0.00     0.004 A 
ATOM     93  C   UNL A   1      34.048  17.646  24.240  1.00  0.00     0.043 A 
ATOM     94  C   UNL A   1      33.303  17.211  23.148  1.00  0.00     0.020 A 
ATOM     95  Cl  UNL A   1      35.124  16.539  24.982  1.00  0.00    -0.084 Cl
ENDBRANCH  88  89
ENDBRANCH  76  81
ENDBRANCH  72  74
ENDBRANCH  71  72
ENDBRANCH  70  71
ENDBRANCH   1  70
TORSDOF 13
ENDMDL
MODEL 3
REMARK VINA RESULT:     -13.6      0.508      1.229
REMARK SMILES O=C(OCCOC(=O)[C@H]1[C@H]2CC[C@H](C2)[C@@H]1C(=O)N1CCN(c2cccc(Cl)c2)CC1)c1ccc(-c2c3nc(c(-c4c(F)c(F)c(F)c(F)c4F)c4ccc([nH]4)c(-c4c(F)c(F)c(F)c(F)c4F)c4nc(c(-c5c(F)c(F)c(F)c(F)c5F)c5ccc2[nH]5)C=C4)C=C3)cc1
REMARK SMILES IDX 4 1 3 2 2 3 1 4 31 5 32 6 93 7 33 8 92 9 34 10 35 11 36 12
REMARK SMILES IDX 86 13 37 14 91 15 85 16 87 17 38 18 90 19 84 20 83 21 39 23
REMARK SMILES IDX 71 24 51 25 70 26 52 27 55 28 69 29 88 30 53 31 54 32 68 34
REMARK SMILES IDX 89 35 56 36 40 37 41 38 49 39 42 40 43 41 47 42 50 43 44 44
REMARK SMILES IDX 45 45 48 46 46 47 72 48 73 49 81 50 74 51 75 52 79 53 82 54
REMARK SMILES IDX 76 55 77 56 80 57 78 58 57 59 58 60 66 61 59 62 60 63 64 64
REMARK SMILES IDX 67 65 61 66 62 67 65 68 63 69 5 70 6 71 7 72 8 73 9 74 10 75
REMARK SMILES IDX 15 76 11 77 14 78 13 79 12 80 16 81 17 82 18 83 19 84 30 85
REMARK SMILES IDX 20 86 29 87 21 88 22 89 23 90 28 91 24 92 26 93 25 94 27 95
REMARK H PARENT 87 22 55 33
REMARK Flexibility Score: inf
ROOT
ATOM      1  C   UNL A   1      31.497  32.140  26.878  1.00  0.00     0.275 C 
ENDROOT
BRANCH   1   2
ATOM      2  O   UNL A   1      32.349  33.290  26.929  1.00  0.00    -0.458 OA
BRANCH   2   3
ATOM      3  C   UNL A   1      33.019  33.820  27.973  1.00  0.00     0.338 C 
ATOM      4  O   UNL A   1      32.549  34.825  28.505  1.00  0.00    -0.246 OA
BRANCH   3   5
ATOM      5  C   UNL A   1      34.335  33.306  28.494  1.00  0.00     0.060 A 
ATOM      6  C   UNL A   1      35.623  33.804  28.254  1.00  0.00     0.016 A 
ATOM      7  C   UNL A   1      34.241  32.208  29.351  1.00  0.00     0.016 A 
ATOM      8  C   UNL A   1      36.759  33.290  28.903  1.00  0.00     0.010 A 
ATOM      9  C   UNL A   1      35.371  31.686  29.982  1.00  0.00     0.010 A 
ATOM     10  C   UNL A   1      36.646  32.227  29.788  1.00  0.00    -0.014 A 
BRANCH  10  11
ATOM     11  C   UNL A   1      37.856  31.593  30.381  1.00  0.00     0.031 A 
ATOM     12  C   UNL A   1      38.246  31.973  31.782  1.00  0.00     0.074 A 
ATOM     13  C   UNL A   1      38.613  30.713  29.691  1.00  0.00     0.049 A 
ATOM     14  N   UNL A   1      39.223  31.521  32.524  1.00  0.00    -0.248 NA
ATOM     15  C   UNL A   1      37.459  33.041  32.418  1.00  0.00     0.031 C 
ATOM     16  C   UNL A   1      38.391  30.307  28.304  1.00  0.00     0.029 A 
ATOM     17  N   UNL A   1      39.725  29.996  30.065  1.00  0.00    -0.354 N 
ATOM     18  C   UNL A   1      39.176  32.270  33.691  1.00  0.00     0.074 A 
ATOM     19  C   UNL A   1      38.158  33.278  33.512  1.00  0.00     0.031 C 
ATOM     20  C   UNL A   1      39.311  29.390  27.954  1.00  0.00     0.029 A 
ATOM     21  C   UNL A   1      40.192  29.140  29.091  1.00  0.00     0.049 A 
ATOM     22  H   UNL A   1      40.149  30.085  30.949  1.00  0.00     0.167 HD
ATOM     23  C   UNL A   1      39.864  32.100  34.843  1.00  0.00     0.037 A 
ATOM     24  C   UNL A   1      41.196  28.238  29.134  1.00  0.00     0.037 A 
ATOM     25  C   UNL A   1      40.835  31.066  35.046  1.00  0.00     0.049 A 
ATOM     26  C   UNL A   1      41.956  28.064  30.429  1.00  0.00     0.074 A 
ATOM     27  C   UNL A   1      41.591  30.794  36.169  1.00  0.00     0.029 A 
ATOM     28  N   UNL A   1      41.192  30.134  34.082  1.00  0.00    -0.354 N 
ATOM     29  N   UNL A   1      41.747  28.623  31.597  1.00  0.00    -0.248 NA
ATOM     30  C   UNL A   1      43.076  27.112  30.415  1.00  0.00     0.031 C 
ATOM     31  C   UNL A   1      42.475  29.756  35.851  1.00  0.00     0.029 A 
ATOM     32  C   UNL A   1      42.231  29.349  34.548  1.00  0.00     0.049 A 
ATOM     33  H   UNL A   1      40.769  30.045  33.198  1.00  0.00     0.167 HD
ATOM     34  C   UNL A   1      42.684  28.069  32.463  1.00  0.00     0.074 A 
ATOM     35  C   UNL A   1      43.436  27.101  31.691  1.00  0.00     0.031 C 
ATOM     36  C   UNL A   1      42.915  28.343  33.772  1.00  0.00     0.037 A 
BRANCH  23  37
ATOM     37  C   UNL A   1      39.574  33.075  35.944  1.00  0.00     0.064 A 
ATOM     38  C   UNL A   1      40.306  34.267  36.080  1.00  0.00     0.173 A 
ATOM     39  C   UNL A   1      38.614  32.780  36.922  1.00  0.00     0.173 A 
ATOM     40  F   UNL A   1      41.261  34.578  35.190  1.00  0.00    -0.203 F 
ATOM     41  C   UNL A   1      40.129  35.095  37.185  1.00  0.00     0.198 A 
ATOM     42  C   UNL A   1      38.411  33.631  38.004  1.00  0.00     0.198 A 
ATOM     43  F   UNL A   1      37.892  31.652  36.843  1.00  0.00    -0.203 F 
ATOM     44  F   UNL A   1      40.908  36.174  37.343  1.00  0.00    -0.200 F 
ATOM     45  C   UNL A   1      39.180  34.778  38.145  1.00  0.00     0.200 A 
ATOM     46  F   UNL A   1      37.491  33.327  38.930  1.00  0.00    -0.200 F 
ATOM     47  F   UNL A   1      39.021  35.567  39.216  1.00  0.00    -0.200 F 
ENDBRANCH  23  37
BRANCH  24  48
ATOM     48  C   UNL A   1      41.514  27.373  27.958  1.00  0.00     0.064 A 
ATOM     49  C   UNL A   1      40.968  26.084  27.846  1.00  0.00     0.173 A 
ATOM     50  C   UNL A   1      42.413  27.779  26.960  1.00  0.00     0.173 A 
ATOM     51  F   UNL A   1      40.118  25.634  28.782  1.00  0.00    -0.203 F 
ATOM     52  C   UNL A   1      41.331  25.227  26.807  1.00  0.00     0.198 A 
ATOM     53  C   UNL A   1      42.755  26.930  25.905  1.00  0.00     0.198 A 
ATOM     54  F   UNL A   1      42.965  29.000  27.009  1.00  0.00    -0.203 F 
ATOM     55  F   UNL A   1      40.837  23.982  26.763  1.00  0.00    -0.200 F 
ATOM     56  C   UNL A   1      42.224  25.651  25.836  1.00  0.00     0.200 A 
ATOM     57  F   UNL A   1      43.609  27.349  24.961  1.00  0.00    -0.200 F 
ATOM     58  F   UNL A   1      42.580  24.826  24.842  1.00  0.00    -0.200 F 
ENDBRANCH  24  48
BRANCH  36  59
ATOM     59  C   UNL A   1      43.981  27.552  34.475  1.00  0.00     0.064 A 
ATOM     60  C   UNL A   1      43.723  26.297  35.048  1.00  0.00     0.173 A 
ATOM     61  C   UNL A   1      45.301  28.030  34.506  1.00  0.00     0.173 A 
ATOM     62  F   UNL A   1      42.479  25.795  35.049  1.00  0.00    -0.203 F 
ATOM     63  C   UNL A   1      44.740  25.568  35.658  1.00  0.00     0.198 A 
ATOM     64  C   UNL A   1      46.322  27.279  35.080  1.00  0.00     0.198 A 
ATOM     65  F   UNL A   1      45.605  29.216  33.958  1.00  0.00    -0.203 F 
ATOM     66  F   UNL A   1      44.460  24.398  36.247  1.00  0.00    -0.200 F 
ATOM     67  C   UNL A   1      46.039  26.053  35.664  1.00  0.00     0.200 A 
ATOM     68  F   UNL A   1      47.580  27.739  35.063  1.00  0.00    -0.200 F 
ATOM     69  F   UNL A   1      47.019  25.342  36.237  1.00  0.00    -0.200 F 
ENDBRANCH  36  59
ENDBRANCH  10  11
ENDBRANCH   3   5
ENDBRANCH   2   3
ENDBRANCH   1   2
BRANCH   1  70
ATOM     70  C   UNL A   1      32.268  30.818  26.822  1.00  0.00     0.274 C 
BRANCH  70  71
ATOM     71  O   UNL A   1      31.531  29.742  26.210  1.00  0.00    -0.462 OA
BRANCH  71  72
ATOM     72  C   UNL A   1      32.250  28.750  25.597  1.00  0.00     0.310 C 
ATOM     73  O   UNL A   1      33.442  28.821  25.328  1.00  0.00    -0.252 OA
BRANCH  72  74
ATOM     74  C   UNL A   1      31.329  27.586  25.244  1.00  0.00     0.115 C 
ATOM     75  C   UNL A   1      30.289  28.015  24.178  1.00  0.00     0.004 C 
ATOM     76  C   UNL A   1      32.016  26.341  24.597  1.00  0.00     0.096 C 
ATOM     77  C   UNL A   1      30.965  28.639  22.951  1.00  0.00     0.005 C 
ATOM     78  C   UNL A   1      29.872  26.666  23.607  1.00  0.00     0.009 C 
ATOM     79  C   UNL A   1      31.305  26.264  23.241  1.00  0.00     0.003 C 
ATOM     80  C   UNL A   1      31.746  27.459  22.364  1.00  0.00     0.005 C 
BRANCH  76  81
ATOM     81  C   UNL A   1      32.001  25.128  25.565  1.00  0.00     0.226 C 
ATOM     82  O   UNL A   1      31.386  25.307  26.628  1.00  0.00    -0.275 OA
ATOM     83  N   UNL A   1      32.477  23.856  25.281  1.00  0.00    -0.339 N 
ATOM     84  C   UNL A   1      32.065  22.753  26.179  1.00  0.00     0.141 C 
ATOM     85  C   UNL A   1      33.644  23.457  24.467  1.00  0.00     0.141 C 
ATOM     86  C   UNL A   1      31.790  21.447  25.401  1.00  0.00     0.138 C 
ATOM     87  C   UNL A   1      33.420  22.138  23.687  1.00  0.00     0.138 C 
ATOM     88  N   UNL A   1      32.963  21.089  24.608  1.00  0.00    -0.368 N 
BRANCH  88  89
ATOM     89  C   UNL A   1      33.092  19.772  24.190  1.00  0.00     0.038 A 
ATOM     90  C   UNL A   1      32.328  19.355  23.091  1.00  0.00     0.026 A 
ATOM     91  C   UNL A   1      33.966  18.852  24.779  1.00  0.00     0.046 A 
ATOM     92  C   UNL A   1      32.452  18.069  22.563  1.00  0.00     0.004 A 
ATOM     93  C   UNL A   1      34.074  17.560  24.257  1.00  0.00     0.043 A 
ATOM     94  C   UNL A   1      33.330  17.168  23.148  1.00  0.00     0.020 A 
ATOM     95  Cl  UNL A   1      35.132  16.419  24.971  1.00  0.00    -0.084 Cl
ENDBRANCH  88  89
ENDBRANCH  76  81
ENDBRANCH  72  74
ENDBRANCH  71  72
ENDBRANCH  70  71
ENDBRANCH   1  70
TORSDOF 13
ENDMDL
