MODEL 1
REMARK VINA RESULT:     -12.8      0.000      0.000
REMARK SMILES COc1cc(OC)cc(-c2cc3nc(C)c(CCC(=O)OCCOC(=O)c4ccc(-c5c6nc(c(-c7c(F)c(F)c(F)c(F)c7F)c7ccc([nH]7)c(-c7c(F)c(F)c(F)c(F)c7F)c7nc(c(-c8c(F)c(F)c(F)c(F)c8F)c8ccc5[nH]8)C=C7)C=C6)cc4)c(C)n3n2)c1
REMARK SMILES IDX 22 1 21 2 19 3 20 4 18 5 17 6 16 7 10 8 11 9 93 10 12 11
REMARK SMILES IDX 92 12 13 13 90 14 14 15 91 16 15 17 9 18 3 19 4 20 94 21
REMARK SMILES IDX 5 22 8 23 2 24 1 25 6 26 7 27 23 28 24 29 25 30 26 31 27 32
REMARK SMILES IDX 28 33 89 34 29 35 88 36 30 37 31 38 32 39 82 40 33 41 87 42
REMARK SMILES IDX 81 43 83 44 34 45 86 46 80 47 79 48 35 50 67 51 47 52 66 53
REMARK SMILES IDX 48 54 51 55 65 56 84 57 49 58 50 59 64 61 85 62 52 63 36 64
REMARK SMILES IDX 37 65 45 66 38 67 39 68 43 69 46 70 40 71 41 72 44 73 42 74
REMARK SMILES IDX 68 75 69 76 77 77 70 78 71 79 75 80 78 81 72 82 73 83 76 84
REMARK SMILES IDX 74 85 53 86 54 87 62 88 55 89 56 90 60 91 63 92 57 93 58 94
REMARK SMILES IDX 61 95 59 96
REMARK H PARENT 83 49 51 60
REMARK Flexibility Score: inf
ROOT
ATOM      1  C   UNL A   1      33.956  30.527  27.321  1.00  0.00     0.274 C 
ENDROOT
BRANCH   1   2
ATOM      2  O   UNL A   1      33.573  29.195  26.925  1.00  0.00    -0.462 OA
BRANCH   2   3
ATOM      3  C   UNL A   1      32.243  28.937  26.850  1.00  0.00     0.306 C 
ATOM      4  O   UNL A   1      31.661  28.113  27.550  1.00  0.00    -0.252 OA
BRANCH   3   5
ATOM      5  C   UNL A   1      31.538  29.726  25.754  1.00  0.00     0.127 C 
BRANCH   5   6
ATOM      6  C   UNL A   1      31.714  29.314  24.275  1.00  0.00     0.051 C 
BRANCH   6   7
ATOM      7  C   UNL A   1      31.509  27.845  23.998  1.00  0.00    -0.005 A 
ATOM      8  C   UNL A   1      32.294  23.479  24.427  1.00  0.00     0.095 A 
ATOM      9  C   UNL A   1      30.927  23.772  24.231  1.00  0.00     0.080 A 
ATOM     10  N   UNL A   1      33.057  24.557  24.237  1.00  0.00    -0.166 NA
ATOM     11  C   UNL A   1      30.871  25.132  24.021  1.00  0.00     0.156 A 
ATOM     12  N   UNL A   1      32.189  25.572  24.017  1.00  0.00    -0.219 N 
ATOM     13  N   UNL A   1      29.836  25.986  23.793  1.00  0.00    -0.234 NA
ATOM     14  C   UNL A   1      32.504  26.931  23.909  1.00  0.00     0.046 A 
ATOM     15  C   UNL A   1      30.125  27.258  23.756  1.00  0.00     0.045 A 
ATOM     16  C   UNL A   1      33.972  27.219  23.807  1.00  0.00     0.067 C 
ATOM     17  C   UNL A   1      29.000  28.154  23.274  1.00  0.00     0.067 C 
BRANCH   8  18
ATOM     18  C   UNL A   1      32.925  22.207  24.721  1.00  0.00     0.009 A 
ATOM     19  C   UNL A   1      34.904  20.828  24.894  1.00  0.00     0.123 A 
ATOM     20  C   UNL A   1      34.083  19.707  25.044  1.00  0.00     0.092 A 
ATOM     21  C   UNL A   1      34.323  22.084  24.720  1.00  0.00     0.057 A 
ATOM     22  C   UNL A   1      32.690  19.824  25.027  1.00  0.00     0.123 A 
ATOM     23  C   UNL A   1      32.113  21.082  24.882  1.00  0.00     0.057 A 
BRANCH  19  24
ATOM     24  O   UNL A   1      36.245  20.558  24.866  1.00  0.00    -0.497 OA
ATOM     25  C   UNL A   1      37.106  21.545  25.418  1.00  0.00     0.278 C 
ENDBRANCH  19  24
BRANCH  22  26
ATOM     26  O   UNL A   1      32.000  18.650  25.149  1.00  0.00    -0.497 OA
ATOM     27  C   UNL A   1      32.732  17.464  24.854  1.00  0.00     0.278 C 
ENDBRANCH  22  26
ENDBRANCH   8  18
ENDBRANCH   6   7
ENDBRANCH   5   6
ENDBRANCH   3   5
ENDBRANCH   2   3
ENDBRANCH   1   2
BRANCH   1  28
ATOM     28  C   UNL A   1      35.149  30.528  28.275  1.00  0.00     0.275 C 
BRANCH  28  29
ATOM     29  O   UNL A   1      36.428  30.544  27.628  1.00  0.00    -0.458 OA
BRANCH  29  30
ATOM     30  C   UNL A   1      37.441  30.982  28.397  1.00  0.00     0.338 C 
ATOM     31  O   UNL A   1      37.603  32.108  28.853  1.00  0.00    -0.246 OA
BRANCH  30  32
ATOM     32  C   UNL A   1      38.521  30.008  28.487  1.00  0.00     0.060 A 
ATOM     33  C   UNL A   1      39.786  30.489  28.846  1.00  0.00     0.016 A 
ATOM     34  C   UNL A   1      38.323  28.692  28.058  1.00  0.00     0.016 A 
ATOM     35  C   UNL A   1      40.870  29.647  28.746  1.00  0.00     0.010 A 
ATOM     36  C   UNL A   1      39.408  27.848  27.963  1.00  0.00     0.010 A 
ATOM     37  C   UNL A   1      40.672  28.335  28.296  1.00  0.00    -0.014 A 
BRANCH  37  38
ATOM     38  C   UNL A   1      41.769  27.403  28.478  1.00  0.00     0.031 A 
ATOM     39  C   UNL A   1      42.348  27.497  29.846  1.00  0.00     0.074 A 
ATOM     40  C   UNL A   1      42.114  26.462  27.581  1.00  0.00     0.049 A 
ATOM     41  N   UNL A   1      43.552  27.839  30.160  1.00  0.00    -0.248 NA
ATOM     42  C   UNL A   1      41.438  27.384  31.003  1.00  0.00     0.031 C 
ATOM     43  C   UNL A   1      41.443  26.117  26.328  1.00  0.00     0.029 A 
ATOM     44  N   UNL A   1      43.101  25.530  27.662  1.00  0.00    -0.354 N 
ATOM     45  C   UNL A   1      43.609  27.780  31.548  1.00  0.00     0.074 A 
ATOM     46  C   UNL A   1      42.252  27.683  32.015  1.00  0.00     0.031 C 
ATOM     47  C   UNL A   1      41.891  24.914  25.903  1.00  0.00     0.029 A 
ATOM     48  C   UNL A   1      42.955  24.463  26.784  1.00  0.00     0.049 A 
ATOM     49  H   UNL A   1      43.855  25.606  28.290  1.00  0.00     0.167 HD
ATOM     50  C   UNL A   1      44.786  27.518  32.173  1.00  0.00     0.037 A 
ATOM     51  C   UNL A   1      43.609  23.274  26.854  1.00  0.00     0.037 A 
ATOM     52  C   UNL A   1      45.908  27.850  31.330  1.00  0.00     0.049 A 
ATOM     53  C   UNL A   1      44.823  23.484  27.691  1.00  0.00     0.074 A 
ATOM     54  C   UNL A   1      46.297  29.002  30.667  1.00  0.00     0.029 A 
ATOM     55  N   UNL A   1      46.596  26.829  30.722  1.00  0.00    -0.354 N 
ATOM     56  N   UNL A   1      45.839  24.210  27.313  1.00  0.00    -0.248 NA
ATOM     57  C   UNL A   1      44.684  23.301  29.129  1.00  0.00     0.031 C 
ATOM     58  C   UNL A   1      46.759  28.553  29.395  1.00  0.00     0.029 A 
ATOM     59  C   UNL A   1      46.721  27.159  29.396  1.00  0.00     0.049 A 
ATOM     60  H   UNL A   1      46.936  26.013  31.156  1.00  0.00     0.167 HD
ATOM     61  C   UNL A   1      46.178  24.942  28.440  1.00  0.00     0.074 A 
ATOM     62  C   UNL A   1      45.476  24.294  29.546  1.00  0.00     0.031 C 
ATOM     63  C   UNL A   1      46.746  26.180  28.338  1.00  0.00     0.037 A 
BRANCH  50  64
ATOM     64  C   UNL A   1      44.889  26.576  33.345  1.00  0.00     0.064 A 
ATOM     65  C   UNL A   1      44.394  25.265  33.216  1.00  0.00     0.173 A 
ATOM     66  C   UNL A   1      45.162  26.996  34.667  1.00  0.00     0.173 A 
ATOM     67  F   UNL A   1      44.065  24.777  32.011  1.00  0.00    -0.203 F 
ATOM     68  C   UNL A   1      44.126  24.467  34.332  1.00  0.00     0.198 A 
ATOM     69  C   UNL A   1      44.949  26.178  35.772  1.00  0.00     0.198 A 
ATOM     70  F   UNL A   1      45.527  28.250  34.961  1.00  0.00    -0.203 F 
ATOM     71  F   UNL A   1      43.531  23.278  34.170  1.00  0.00    -0.200 F 
ATOM     72  C   UNL A   1      44.401  24.925  35.607  1.00  0.00     0.200 A 
ATOM     73  F   UNL A   1      45.196  26.654  37.001  1.00  0.00    -0.200 F 
ATOM     74  F   UNL A   1      44.088  24.187  36.680  1.00  0.00    -0.200 F 
ENDBRANCH  50  64
BRANCH  51  75
ATOM     75  C   UNL A   1      43.083  21.916  26.550  1.00  0.00     0.064 A 
ATOM     76  C   UNL A   1      43.712  21.090  25.601  1.00  0.00     0.173 A 
ATOM     77  C   UNL A   1      42.126  21.290  27.374  1.00  0.00     0.173 A 
ATOM     78  F   UNL A   1      44.670  21.586  24.805  1.00  0.00    -0.203 F 
ATOM     79  C   UNL A   1      43.422  19.723  25.503  1.00  0.00     0.198 A 
ATOM     80  C   UNL A   1      41.831  19.930  27.269  1.00  0.00     0.198 A 
ATOM     81  F   UNL A   1      41.522  21.959  28.366  1.00  0.00    -0.203 F 
ATOM     82  F   UNL A   1      44.092  18.957  24.630  1.00  0.00    -0.200 F 
ATOM     83  C   UNL A   1      42.488  19.142  26.344  1.00  0.00     0.200 A 
ATOM     84  F   UNL A   1      40.951  19.375  28.116  1.00  0.00    -0.200 F 
ATOM     85  F   UNL A   1      42.254  17.824  26.294  1.00  0.00    -0.200 F 
ENDBRANCH  51  75
BRANCH  63  86
ATOM     86  C   UNL A   1      47.230  26.641  26.991  1.00  0.00     0.064 A 
ATOM     87  C   UNL A   1      48.507  26.370  26.466  1.00  0.00     0.173 A 
ATOM     88  C   UNL A   1      46.306  27.262  26.139  1.00  0.00     0.173 A 
ATOM     89  F   UNL A   1      49.415  25.681  27.169  1.00  0.00    -0.203 F 
ATOM     90  C   UNL A   1      48.851  26.754  25.169  1.00  0.00     0.198 A 
ATOM     91  C   UNL A   1      46.639  27.605  24.832  1.00  0.00     0.198 A 
ATOM     92  F   UNL A   1      45.054  27.496  26.562  1.00  0.00    -0.203 F 
ATOM     93  F   UNL A   1      50.081  26.499  24.698  1.00  0.00    -0.200 F 
ATOM     94  C   UNL A   1      47.915  27.363  24.352  1.00  0.00     0.200 A 
ATOM     95  F   UNL A   1      45.712  28.145  24.030  1.00  0.00    -0.200 F 
ATOM     96  F   UNL A   1      48.233  27.696  23.093  1.00  0.00    -0.200 F 
ENDBRANCH  63  86
ENDBRANCH  37  38
ENDBRANCH  30  32
ENDBRANCH  29  30
ENDBRANCH  28  29
ENDBRANCH   1  28
TORSDOF 16
ENDMDL
MODEL 2
REMARK VINA RESULT:     -12.8      3.597      9.133
REMARK SMILES COc1cc(OC)cc(-c2cc3nc(C)c(CCC(=O)OCCOC(=O)c4ccc(-c5c6nc(c(-c7c(F)c(F)c(F)c(F)c7F)c7ccc([nH]7)c(-c7c(F)c(F)c(F)c(F)c7F)c7nc(c(-c8c(F)c(F)c(F)c(F)c8F)c8ccc5[nH]8)C=C7)C=C6)cc4)c(C)n3n2)c1
REMARK SMILES IDX 22 1 21 2 19 3 20 4 18 5 17 6 16 7 10 8 11 9 93 10 12 11
REMARK SMILES IDX 92 12 13 13 90 14 14 15 91 16 15 17 9 18 3 19 4 20 94 21
REMARK SMILES IDX 5 22 8 23 2 24 1 25 6 26 7 27 23 28 24 29 25 30 26 31 27 32
REMARK SMILES IDX 28 33 89 34 29 35 88 36 30 37 31 38 32 39 82 40 33 41 87 42
REMARK SMILES IDX 81 43 83 44 34 45 86 46 80 47 79 48 35 50 67 51 47 52 66 53
REMARK SMILES IDX 48 54 51 55 65 56 84 57 49 58 50 59 64 61 85 62 52 63 36 64
REMARK SMILES IDX 37 65 45 66 38 67 39 68 43 69 46 70 40 71 41 72 44 73 42 74
REMARK SMILES IDX 68 75 69 76 77 77 70 78 71 79 75 80 78 81 72 82 73 83 76 84
REMARK SMILES IDX 74 85 53 86 54 87 62 88 55 89 56 90 60 91 63 92 57 93 58 94
REMARK SMILES IDX 61 95 59 96
REMARK H PARENT 83 49 51 60
REMARK Flexibility Score: inf
ROOT
ATOM      1  C   UNL A   1      43.398  18.999  25.638  1.00  0.00     0.274 C 
ENDROOT
BRANCH   1   2
ATOM      2  O   UNL A   1      42.374  20.008  25.751  1.00  0.00    -0.462 OA
BRANCH   2   3
ATOM      3  C   UNL A   1      41.811  20.174  26.974  1.00  0.00     0.306 C 
ATOM      4  O   UNL A   1      41.968  19.402  27.914  1.00  0.00    -0.252 OA
BRANCH   3   5
ATOM      5  C   UNL A   1      40.895  21.389  27.055  1.00  0.00     0.127 C 
BRANCH   5   6
ATOM      6  C   UNL A   1      40.273  21.971  25.765  1.00  0.00     0.051 C 
BRANCH   6   7
ATOM      7  C   UNL A   1      38.765  21.971  25.734  1.00  0.00    -0.005 A 
ATOM      8  C   UNL A   1      34.710  23.724  25.141  1.00  0.00     0.095 A 
ATOM      9  C   UNL A   1      34.782  22.370  24.751  1.00  0.00     0.080 A 
ATOM     10  N   UNL A   1      35.814  24.107  25.783  1.00  0.00    -0.166 NA
ATOM     11  C   UNL A   1      36.053  21.960  25.086  1.00  0.00     0.156 A 
ATOM     12  N   UNL A   1      36.647  23.041  25.726  1.00  0.00    -0.219 N 
ATOM     13  N   UNL A   1      36.706  20.774  24.941  1.00  0.00    -0.234 NA
ATOM     14  C   UNL A   1      37.985  23.003  26.135  1.00  0.00     0.046 A 
ATOM     15  C   UNL A   1      37.971  20.760  25.264  1.00  0.00     0.045 A 
ATOM     16  C   UNL A   1      38.429  24.207  26.908  1.00  0.00     0.067 C 
ATOM     17  C   UNL A   1      38.602  19.381  25.311  1.00  0.00     0.067 C 
BRANCH   8  18
ATOM     18  C   UNL A   1      33.614  24.662  24.996  1.00  0.00     0.009 A 
ATOM     19  C   UNL A   1      31.941  26.114  25.967  1.00  0.00     0.123 A 
ATOM     20  C   UNL A   1      31.363  26.257  24.702  1.00  0.00     0.092 A 
ATOM     21  C   UNL A   1      33.066  25.304  26.118  1.00  0.00     0.057 A 
ATOM     22  C   UNL A   1      31.896  25.605  23.587  1.00  0.00     0.123 A 
ATOM     23  C   UNL A   1      33.035  24.820  23.734  1.00  0.00     0.057 A 
BRANCH  19  24
ATOM     24  O   UNL A   1      31.278  26.757  26.976  1.00  0.00    -0.497 OA
ATOM     25  C   UNL A   1      31.816  28.002  27.401  1.00  0.00     0.278 C 
ENDBRANCH  19  24
BRANCH  22  26
ATOM     26  O   UNL A   1      31.219  25.798  22.413  1.00  0.00    -0.497 OA
ATOM     27  C   UNL A   1      32.026  26.025  21.261  1.00  0.00     0.278 C 
ENDBRANCH  22  26
ENDBRANCH   8  18
ENDBRANCH   6   7
ENDBRANCH   5   6
ENDBRANCH   3   5
ENDBRANCH   2   3
ENDBRANCH   1   2
BRANCH   1  28
ATOM     28  C   UNL A   1      44.307  19.227  24.432  1.00  0.00     0.275 C 
BRANCH  28  29
ATOM     29  O   UNL A   1      44.406  20.595  24.013  1.00  0.00    -0.458 OA
BRANCH  29  30
ATOM     30  C   UNL A   1      45.478  21.253  24.492  1.00  0.00     0.338 C 
ATOM     31  O   UNL A   1      46.639  20.862  24.535  1.00  0.00    -0.246 OA
BRANCH  30  32
ATOM     32  C   UNL A   1      45.103  22.471  25.197  1.00  0.00     0.060 A 
ATOM     33  C   UNL A   1      45.725  22.714  26.428  1.00  0.00     0.016 A 
ATOM     34  C   UNL A   1      44.041  23.256  24.736  1.00  0.00     0.016 A 
ATOM     35  C   UNL A   1      45.258  23.738  27.218  1.00  0.00     0.010 A 
ATOM     36  C   UNL A   1      43.577  24.285  25.525  1.00  0.00     0.010 A 
ATOM     37  C   UNL A   1      44.179  24.510  26.764  1.00  0.00    -0.014 A 
BRANCH  37  38
ATOM     38  C   UNL A   1      43.905  25.744  27.475  1.00  0.00     0.031 A 
ATOM     39  C   UNL A   1      44.862  26.820  27.096  1.00  0.00     0.074 A 
ATOM     40  C   UNL A   1      42.828  25.939  28.256  1.00  0.00     0.049 A 
ATOM     41  N   UNL A   1      45.705  27.420  27.869  1.00  0.00    -0.248 NA
ATOM     42  C   UNL A   1      45.037  27.132  25.664  1.00  0.00     0.031 C 
ATOM     43  C   UNL A   1      41.698  25.039  28.480  1.00  0.00     0.029 A 
ATOM     44  N   UNL A   1      42.465  27.056  28.942  1.00  0.00    -0.354 N 
ATOM     45  C   UNL A   1      46.370  28.333  27.059  1.00  0.00     0.074 A 
ATOM     46  C   UNL A   1      46.060  27.986  25.699  1.00  0.00     0.031 C 
ATOM     47  C   UNL A   1      40.682  25.734  29.041  1.00  0.00     0.029 A 
ATOM     48  C   UNL A   1      41.129  27.090  29.319  1.00  0.00     0.049 A 
ATOM     49  H   UNL A   1      43.099  27.779  29.156  1.00  0.00     0.167 HD
ATOM     50  C   UNL A   1      46.878  29.475  27.593  1.00  0.00     0.037 A 
ATOM     51  C   UNL A   1      40.442  28.184  29.739  1.00  0.00     0.037 A 
ATOM     52  C   UNL A   1      47.107  29.331  29.009  1.00  0.00     0.049 A 
ATOM     53  C   UNL A   1      41.444  29.189  30.192  1.00  0.00     0.074 A 
ATOM     54  C   UNL A   1      47.826  28.428  29.773  1.00  0.00     0.029 A 
ATOM     55  N   UNL A   1      46.228  29.927  29.879  1.00  0.00    -0.354 N 
ATOM     56  N   UNL A   1      42.182  29.037  31.257  1.00  0.00    -0.248 NA
ATOM     57  C   UNL A   1      41.969  30.109  29.192  1.00  0.00     0.031 C 
ATOM     58  C   UNL A   1      46.992  28.156  30.899  1.00  0.00     0.029 A 
ATOM     59  C   UNL A   1      45.871  28.980  30.806  1.00  0.00     0.049 A 
ATOM     60  H   UNL A   1      45.911  30.860  29.844  1.00  0.00     0.167 HD
ATOM     61  C   UNL A   1      43.444  29.458  30.866  1.00  0.00     0.074 A 
ATOM     62  C   UNL A   1      43.239  30.168  29.604  1.00  0.00     0.031 C 
ATOM     63  C   UNL A   1      44.572  28.937  31.431  1.00  0.00     0.037 A 
BRANCH  50  64
ATOM     64  C   UNL A   1      46.748  30.814  26.912  1.00  0.00     0.064 A 
ATOM     65  C   UNL A   1      47.856  31.681  26.888  1.00  0.00     0.173 A 
ATOM     66  C   UNL A   1      45.509  31.399  26.564  1.00  0.00     0.173 A 
ATOM     67  F   UNL A   1      49.074  31.239  27.238  1.00  0.00    -0.203 F 
ATOM     68  C   UNL A   1      47.718  33.043  26.608  1.00  0.00     0.198 A 
ATOM     69  C   UNL A   1      45.385  32.744  26.229  1.00  0.00     0.198 A 
ATOM     70  F   UNL A   1      44.351  30.735  26.651  1.00  0.00    -0.203 F 
ATOM     71  F   UNL A   1      48.776  33.855  26.728  1.00  0.00    -0.200 F 
ATOM     72  C   UNL A   1      46.483  33.573  26.282  1.00  0.00     0.200 A 
ATOM     73  F   UNL A   1      44.173  33.242  25.944  1.00  0.00    -0.200 F 
ATOM     74  F   UNL A   1      46.338  34.888  26.073  1.00  0.00    -0.200 F 
ENDBRANCH  50  64
BRANCH  51  75
ATOM     75  C   UNL A   1      39.029  28.550  29.450  1.00  0.00     0.064 A 
ATOM     76  C   UNL A   1      38.104  28.747  30.490  1.00  0.00     0.173 A 
ATOM     77  C   UNL A   1      38.623  28.986  28.173  1.00  0.00     0.173 A 
ATOM     78  F   UNL A   1      38.421  28.408  31.749  1.00  0.00    -0.203 F 
ATOM     79  C   UNL A   1      36.866  29.364  30.272  1.00  0.00     0.198 A 
ATOM     80  C   UNL A   1      37.385  29.592  27.953  1.00  0.00     0.198 A 
ATOM     81  F   UNL A   1      39.452  28.923  27.122  1.00  0.00    -0.203 F 
ATOM     82  F   UNL A   1      36.040  29.594  31.302  1.00  0.00    -0.200 F 
ATOM     83  C   UNL A   1      36.511  29.795  29.004  1.00  0.00     0.200 A 
ATOM     84  F   UNL A   1      37.072  30.036  26.727  1.00  0.00    -0.200 F 
ATOM     85  F   UNL A   1      35.355  30.441  28.804  1.00  0.00    -0.200 F 
ENDBRANCH  51  75
BRANCH  63  86
ATOM     86  C   UNL A   1      44.433  28.081  32.660  1.00  0.00     0.064 A 
ATOM     87  C   UNL A   1      44.317  28.579  33.970  1.00  0.00     0.173 A 
ATOM     88  C   UNL A   1      44.266  26.700  32.482  1.00  0.00     0.173 A 
ATOM     89  F   UNL A   1      44.351  29.894  34.218  1.00  0.00    -0.203 F 
ATOM     90  C   UNL A   1      44.099  27.723  35.051  1.00  0.00     0.198 A 
ATOM     91  C   UNL A   1      44.006  25.856  33.556  1.00  0.00     0.198 A 
ATOM     92  F   UNL A   1      44.310  26.172  31.249  1.00  0.00    -0.203 F 
ATOM     93  F   UNL A   1      44.009  28.221  36.294  1.00  0.00    -0.200 F 
ATOM     94  C   UNL A   1      43.936  26.365  34.842  1.00  0.00     0.200 A 
ATOM     95  F   UNL A   1      43.796  24.550  33.340  1.00  0.00    -0.200 F 
ATOM     96  F   UNL A   1      43.686  25.548  35.875  1.00  0.00    -0.200 F 
ENDBRANCH  63  86
ENDBRANCH  37  38
ENDBRANCH  30  32
ENDBRANCH  29  30
ENDBRANCH  28  29
ENDBRANCH   1  28
TORSDOF 16
ENDMDL
MODEL 3
REMARK VINA RESULT:     -12.8      2.339      3.766
REMARK SMILES COc1cc(OC)cc(-c2cc3nc(C)c(CCC(=O)OCCOC(=O)c4ccc(-c5c6nc(c(-c7c(F)c(F)c(F)c(F)c7F)c7ccc([nH]7)c(-c7c(F)c(F)c(F)c(F)c7F)c7nc(c(-c8c(F)c(F)c(F)c(F)c8F)c8ccc5[nH]8)C=C7)C=C6)cc4)c(C)n3n2)c1
REMARK SMILES IDX 22 1 21 2 19 3 20 4 18 5 17 6 16 7 10 8 11 9 93 10 12 11
REMARK SMILES IDX 92 12 13 13 90 14 14 15 91 16 15 17 9 18 3 19 4 20 94 21
REMARK SMILES IDX 5 22 8 23 2 24 1 25 6 26 7 27 23 28 24 29 25 30 26 31 27 32
REMARK SMILES IDX 28 33 89 34 29 35 88 36 30 37 31 38 32 39 82 40 33 41 87 42
REMARK SMILES IDX 81 43 83 44 34 45 86 46 80 47 79 48 35 50 67 51 47 52 66 53
REMARK SMILES IDX 48 54 51 55 65 56 84 57 49 58 50 59 64 61 85 62 52 63 36 64
REMARK SMILES IDX 37 65 45 66 38 67 39 68 43 69 46 70 40 71 41 72 44 73 42 74
REMARK SMILES IDX 68 75 69 76 77 77 70 78 71 79 75 80 78 81 72 82 73 83 76 84
REMARK SMILES IDX 74 85 53 86 54 87 62 88 55 89 56 90 60 91 63 92 57 93 58 94
REMARK SMILES IDX 61 95 59 96
REMARK H PARENT 83 49 51 60
REMARK Flexibility Score: inf
ROOT
ATOM      1  C   UNL A   1      32.252  30.136  26.051  1.00  0.00     0.274 C 
ENDROOT
BRANCH   1   2
ATOM      2  O   UNL A   1      33.256  29.275  25.476  1.00  0.00    -0.462 OA
BRANCH   2   3
ATOM      3  C   UNL A   1      33.153  29.017  24.148  1.00  0.00     0.306 C 
ATOM      4  O   UNL A   1      34.088  28.646  23.444  1.00  0.00    -0.252 OA
BRANCH   3   5
ATOM      5  C   UNL A   1      31.766  29.300  23.586  1.00  0.00     0.127 C 
BRANCH   5   6
ATOM      6  C   UNL A   1      31.221  28.447  22.417  1.00  0.00     0.051 C 
BRANCH   6   7
ATOM      7  C   UNL A   1      31.003  26.990  22.745  1.00  0.00    -0.005 A 
ATOM      8  C   UNL A   1      32.215  22.849  23.861  1.00  0.00     0.095 A 
ATOM      9  C   UNL A   1      30.977  23.226  24.423  1.00  0.00     0.080 A 
ATOM     10  N   UNL A   1      32.637  23.743  22.965  1.00  0.00    -0.166 NA
ATOM     11  C   UNL A   1      30.706  24.474  23.907  1.00  0.00     0.156 A 
ATOM     12  N   UNL A   1      31.733  24.748  23.013  1.00  0.00    -0.219 N 
ATOM     13  N   UNL A   1      29.674  25.343  24.093  1.00  0.00    -0.234 NA
ATOM     14  C   UNL A   1      31.821  25.983  22.359  1.00  0.00     0.046 A 
ATOM     15  C   UNL A   1      29.790  26.516  23.533  1.00  0.00     0.045 A 
ATOM     16  C   UNL A   1      32.922  26.068  21.345  1.00  0.00     0.067 C 
ATOM     17  C   UNL A   1      28.533  27.365  23.565  1.00  0.00     0.067 C 
BRANCH   8  18
ATOM     18  C   UNL A   1      32.992  21.645  24.080  1.00  0.00     0.009 A 
ATOM     19  C   UNL A   1      33.131  19.243  24.327  1.00  0.00     0.123 A 
ATOM     20  C   UNL A   1      34.456  19.386  24.749  1.00  0.00     0.092 A 
ATOM     21  C   UNL A   1      32.391  20.379  24.002  1.00  0.00     0.057 A 
ATOM     22  C   UNL A   1      35.052  20.646  24.845  1.00  0.00     0.123 A 
ATOM     23  C   UNL A   1      34.321  21.775  24.492  1.00  0.00     0.057 A 
BRANCH  19  24
ATOM     24  O   UNL A   1      32.659  17.959  24.342  1.00  0.00    -0.497 OA
ATOM     25  C   UNL A   1      33.283  17.040  23.455  1.00  0.00     0.278 C 
ENDBRANCH  19  24
BRANCH  22  26
ATOM     26  O   UNL A   1      36.342  20.653  25.302  1.00  0.00    -0.497 OA
ATOM     27  C   UNL A   1      37.267  21.421  24.538  1.00  0.00     0.278 C 
ENDBRANCH  22  26
ENDBRANCH   8  18
ENDBRANCH   6   7
ENDBRANCH   5   6
ENDBRANCH   3   5
ENDBRANCH   2   3
ENDBRANCH   1   2
BRANCH   1  28
ATOM     28  C   UNL A   1      32.803  30.985  27.195  1.00  0.00     0.275 C 
BRANCH  28  29
ATOM     29  O   UNL A   1      34.054  30.527  27.727  1.00  0.00    -0.458 OA
BRANCH  29  30
ATOM     30  C   UNL A   1      34.994  31.481  27.850  1.00  0.00     0.338 C 
ATOM     31  O   UNL A   1      34.887  32.676  27.601  1.00  0.00    -0.246 OA
BRANCH  30  32
ATOM     32  C   UNL A   1      36.310  30.920  28.124  1.00  0.00     0.060 A 
ATOM     33  C   UNL A   1      36.477  29.547  27.904  1.00  0.00     0.016 A 
ATOM     34  C   UNL A   1      37.294  31.695  28.745  1.00  0.00     0.016 A 
ATOM     35  C   UNL A   1      37.632  28.939  28.339  1.00  0.00     0.010 A 
ATOM     36  C   UNL A   1      38.454  31.088  29.174  1.00  0.00     0.010 A 
ATOM     37  C   UNL A   1      38.609  29.715  28.980  1.00  0.00    -0.014 A 
BRANCH  37  38
ATOM     38  C   UNL A   1      39.916  29.113  29.159  1.00  0.00     0.031 A 
ATOM     39  C   UNL A   1      40.201  28.837  30.594  1.00  0.00     0.074 A 
ATOM     40  C   UNL A   1      40.703  28.708  28.147  1.00  0.00     0.049 A 
ATOM     41  N   UNL A   1      41.146  29.345  31.312  1.00  0.00    -0.248 NA
ATOM     42  C   UNL A   1      39.214  28.058  31.369  1.00  0.00     0.031 C 
ATOM     43  C   UNL A   1      40.402  28.693  26.717  1.00  0.00     0.029 A 
ATOM     44  N   UNL A   1      41.926  28.114  28.205  1.00  0.00    -0.354 N 
ATOM     45  C   UNL A   1      40.997  28.786  32.576  1.00  0.00     0.074 A 
ATOM     46  C   UNL A   1      39.702  28.162  32.605  1.00  0.00     0.031 C 
ATOM     47  C   UNL A   1      41.301  27.906  26.083  1.00  0.00     0.029 A 
ATOM     48  C   UNL A   1      42.300  27.458  27.039  1.00  0.00     0.049 A 
ATOM     49  H   UNL A   1      42.497  28.147  29.006  1.00  0.00     0.167 HD
ATOM     50  C   UNL A   1      42.077  28.633  33.387  1.00  0.00     0.037 A 
ATOM     51  C   UNL A   1      43.306  26.552  26.918  1.00  0.00     0.037 A 
ATOM     52  C   UNL A   1      43.134  29.545  33.023  1.00  0.00     0.049 A 
ATOM     53  C   UNL A   1      44.222  26.749  28.075  1.00  0.00     0.074 A 
ATOM     54  C   UNL A   1      43.200  30.920  32.875  1.00  0.00     0.029 A 
ATOM     55  N   UNL A   1      44.220  29.051  32.344  1.00  0.00    -0.354 N 
ATOM     56  N   UNL A   1      44.970  27.807  28.227  1.00  0.00    -0.248 NA
ATOM     57  C   UNL A   1      43.927  26.009  29.295  1.00  0.00     0.031 C 
ATOM     58  C   UNL A   1      43.986  31.123  31.702  1.00  0.00     0.029 A 
ATOM     59  C   UNL A   1      44.432  29.876  31.268  1.00  0.00     0.049 A 
ATOM     60  H   UNL A   1      44.748  28.255  32.583  1.00  0.00     0.167 HD
ATOM     61  C   UNL A   1      44.851  28.123  29.572  1.00  0.00     0.074 A 
ATOM     62  C   UNL A   1      44.249  26.945  30.194  1.00  0.00     0.031 C 
ATOM     63  C   UNL A   1      44.963  29.412  30.010  1.00  0.00     0.037 A 
BRANCH  50  64
ATOM     64  C   UNL A   1      42.311  27.384  34.197  1.00  0.00     0.064 A 
ATOM     65  C   UNL A   1      41.932  27.364  35.552  1.00  0.00     0.173 A 
ATOM     66  C   UNL A   1      43.165  26.333  33.788  1.00  0.00     0.173 A 
ATOM     67  F   UNL A   1      41.155  28.336  36.055  1.00  0.00    -0.203 F 
ATOM     68  C   UNL A   1      42.428  26.407  36.441  1.00  0.00     0.198 A 
ATOM     69  C   UNL A   1      43.611  25.349  34.664  1.00  0.00     0.198 A 
ATOM     70  F   UNL A   1      43.703  26.279  32.564  1.00  0.00    -0.203 F 
ATOM     71  F   UNL A   1      42.148  26.507  37.747  1.00  0.00    -0.200 F 
ATOM     72  C   UNL A   1      43.269  25.403  35.997  1.00  0.00     0.200 A 
ATOM     73  F   UNL A   1      44.448  24.401  34.217  1.00  0.00    -0.200 F 
ATOM     74  F   UNL A   1      43.795  24.522  36.858  1.00  0.00    -0.200 F 
ENDBRANCH  50  64
BRANCH  51  75
ATOM     75  C   UNL A   1      43.337  25.321  26.083  1.00  0.00     0.064 A 
ATOM     76  C   UNL A   1      44.417  25.057  25.221  1.00  0.00     0.173 A 
ATOM     77  C   UNL A   1      42.456  24.245  26.314  1.00  0.00     0.173 A 
ATOM     78  F   UNL A   1      45.334  26.005  24.979  1.00  0.00    -0.203 F 
ATOM     79  C   UNL A   1      44.615  23.793  24.650  1.00  0.00     0.198 A 
ATOM     80  C   UNL A   1      42.649  22.989  25.738  1.00  0.00     0.198 A 
ATOM     81  F   UNL A   1      41.439  24.357  27.180  1.00  0.00    -0.203 F 
ATOM     82  F   UNL A   1      45.693  23.564  23.888  1.00  0.00    -0.200 F 
ATOM     83  C   UNL A   1      43.736  22.757  24.917  1.00  0.00     0.200 A 
ATOM     84  F   UNL A   1      41.809  21.987  26.035  1.00  0.00    -0.200 F 
ATOM     85  F   UNL A   1      43.958  21.532  24.423  1.00  0.00    -0.200 F 
ENDBRANCH  51  75
BRANCH  63  86
ATOM     86  C   UNL A   1      45.466  30.457  29.052  1.00  0.00     0.064 A 
ATOM     87  C   UNL A   1      44.662  31.138  28.120  1.00  0.00     0.173 A 
ATOM     88  C   UNL A   1      46.794  30.885  29.187  1.00  0.00     0.173 A 
ATOM     89  F   UNL A   1      43.355  30.872  28.005  1.00  0.00    -0.203 F 
ATOM     90  C   UNL A   1      45.185  32.162  27.328  1.00  0.00     0.198 A 
ATOM     91  C   UNL A   1      47.300  31.934  28.426  1.00  0.00     0.198 A 
ATOM     92  F   UNL A   1      47.595  30.312  30.099  1.00  0.00    -0.203 F 
ATOM     93  F   UNL A   1      44.402  32.785  26.435  1.00  0.00    -0.200 F 
ATOM     94  C   UNL A   1      46.500  32.563  27.488  1.00  0.00     0.200 A 
ATOM     95  F   UNL A   1      48.557  32.353  28.624  1.00  0.00    -0.200 F 
ATOM     96  F   UNL A   1      46.990  33.573  26.755  1.00  0.00    -0.200 F 
ENDBRANCH  63  86
ENDBRANCH  37  38
ENDBRANCH  30  32
ENDBRANCH  29  30
ENDBRANCH  28  29
ENDBRANCH   1  28
TORSDOF 16
ENDMDL
