MODEL 1
REMARK VINA RESULT:     -13.3      0.000      0.000
REMARK SMILES Cc1ccc(F)c(-c2ncccc2C(=O)OCCOC(=O)c2ccc(-c3c4nc(c(-c5c(F)c(F)c(F)c(F)c5F)c5ccc([nH]5)c(-c5c(F)c(F)c(F)c(F)c5F)c5nc(c(-c6c(F)c(F)c(F)c(F)c6F)c6ccc3[nH]6)C=C5)C=C4)cc2)c1
REMARK SMILES IDX 18 1 17 2 16 3 14 4 15 5 13 6 8 7 9 8 10 9 12 10 11 11 7 12
REMARK SMILES IDX 1 13 2 14 3 15 85 16 4 17 5 18 6 19 19 20 20 21 21 22 22 23
REMARK SMILES IDX 23 24 84 25 24 26 83 27 25 28 26 29 27 30 77 31 28 32 82 33
REMARK SMILES IDX 76 34 78 35 29 36 81 37 75 38 74 39 30 41 62 42 42 43 61 44
REMARK SMILES IDX 43 45 46 46 60 47 79 48 44 49 45 50 59 52 80 53 47 54 31 55
REMARK SMILES IDX 32 56 40 57 33 58 34 59 38 60 41 61 35 62 36 63 39 64 37 65
REMARK SMILES IDX 63 66 64 67 72 68 65 69 66 70 70 71 73 72 67 73 68 74 71 75
REMARK SMILES IDX 69 76 48 77 49 78 57 79 50 80 51 81 55 82 58 83 52 84 53 85
REMARK SMILES IDX 56 86 54 87
REMARK H PARENT 78 40 46 51
REMARK Flexibility Score: inf
ROOT
ATOM      1  C   UNL A   1      32.799  31.588  27.267  1.00  0.00     0.275 C 
ENDROOT
BRANCH   1   2
ATOM      2  C   UNL A   1      32.855  30.049  27.300  1.00  0.00     0.275 C 
BRANCH   2   3
ATOM      3  O   UNL A   1      32.007  29.387  26.320  1.00  0.00    -0.458 OA
BRANCH   3   4
ATOM      4  C   UNL A   1      31.775  28.051  26.481  1.00  0.00     0.340 C 
ATOM      5  O   UNL A   1      31.069  27.546  27.340  1.00  0.00    -0.246 OA
BRANCH   4   6
ATOM      6  C   UNL A   1      32.528  27.258  25.484  1.00  0.00     0.086 A 
ATOM      7  C   UNL A   1      32.071  26.979  24.184  1.00  0.00     0.088 A 
ATOM      8  N   UNL A   1      32.602  25.936  23.481  1.00  0.00    -0.255 NA
ATOM      9  C   UNL A   1      33.631  25.238  24.015  1.00  0.00     0.112 A 
ATOM     10  C   UNL A   1      33.637  26.552  25.984  1.00  0.00     0.019 A 
ATOM     11  C   UNL A   1      34.203  25.529  25.236  1.00  0.00     0.021 A 
BRANCH   7  12
ATOM     12  C   UNL A   1      30.896  27.571  23.505  1.00  0.00     0.037 A 
ATOM     13  C   UNL A   1      28.379  31.139  21.352  1.00  0.00     0.044 C 
ATOM     14  C   UNL A   1      29.031  29.914  22.089  1.00  0.00    -0.050 A 
ATOM     15  C   UNL A   1      27.580  29.044  22.735  1.00  0.00     0.006 A 
ATOM     16  C   UNL A   1      30.851  29.086  22.487  1.00  0.00     0.016 A 
ATOM     17  C   UNL A   1      27.790  27.572  23.629  1.00  0.00     0.040 A 
ATOM     18  C   UNL A   1      29.357  26.877  23.990  1.00  0.00     0.132 A 
ATOM     19  F   UNL A   1      29.360  25.765  24.745  1.00  0.00    -0.206 F 
ENDBRANCH   7  12
ENDBRANCH   4   6
ENDBRANCH   3   4
ENDBRANCH   2   3
ENDBRANCH   1   2
BRANCH   1  20
ATOM     20  O   UNL A   1      34.058  32.155  27.674  1.00  0.00    -0.458 OA
BRANCH  20  21
ATOM     21  C   UNL A   1      33.816  33.153  28.536  1.00  0.00     0.338 C 
ATOM     22  O   UNL A   1      32.829  33.887  28.472  1.00  0.00    -0.246 OA
BRANCH  21  23
ATOM     23  C   UNL A   1      34.923  33.534  29.441  1.00  0.00     0.060 A 
ATOM     24  C   UNL A   1      36.446  34.224  28.729  1.00  0.00     0.016 A 
ATOM     25  C   UNL A   1      35.031  32.029  30.315  1.00  0.00     0.016 A 
ATOM     26  C   UNL A   1      38.162  33.150  28.910  1.00  0.00     0.010 A 
ATOM     27  C   UNL A   1      36.482  31.105  30.464  1.00  0.00     0.010 A 
ATOM     28  C   UNL A   1      38.053  31.583  29.806  1.00  0.00    -0.014 A 
BRANCH  28  29
ATOM     29  C   UNL A   1      39.085  30.712  30.355  1.00  0.00     0.031 A 
ATOM     30  C   UNL A   1      39.355  29.403  29.726  1.00  0.00     0.074 A 
ATOM     31  C   UNL A   1      40.091  31.406  30.944  1.00  0.00     0.049 A 
ATOM     32  N   UNL A   1      40.423  28.716  29.929  1.00  0.00    -0.248 NA
ATOM     33  C   UNL A   1      38.462  28.752  28.781  1.00  0.00     0.031 C 
ATOM     34  C   UNL A   1      41.532  31.215  30.786  1.00  0.00     0.029 A 
ATOM     35  N   UNL A   1      40.012  32.558  31.744  1.00  0.00    -0.354 N 
ATOM     36  C   UNL A   1      40.509  27.729  28.969  1.00  0.00     0.074 A 
ATOM     37  C   UNL A   1      39.226  27.757  28.317  1.00  0.00     0.031 C 
ATOM     38  C   UNL A   1      42.187  32.013  31.648  1.00  0.00     0.029 A 
ATOM     39  C   UNL A   1      41.190  32.611  32.514  1.00  0.00     0.049 A 
ATOM     40  H   UNL A   1      39.272  33.207  31.762  1.00  0.00     0.167 HD
ATOM     41  C   UNL A   1      41.707  27.091  28.811  1.00  0.00     0.037 A 
ATOM     42  C   UNL A   1      41.096  32.405  33.864  1.00  0.00     0.037 A 
ATOM     43  C   UNL A   1      42.645  27.540  29.846  1.00  0.00     0.049 A 
ATOM     44  C   UNL A   1      41.714  31.097  34.289  1.00  0.00     0.074 A 
ATOM     45  C   UNL A   1      43.692  28.447  29.857  1.00  0.00     0.029 A 
ATOM     46  N   UNL A   1      42.334  27.281  31.176  1.00  0.00    -0.354 N 
ATOM     47  N   UNL A   1      42.030  30.150  33.452  1.00  0.00    -0.248 NA
ATOM     48  C   UNL A   1      42.037  30.749  35.666  1.00  0.00     0.031 C 
ATOM     49  C   UNL A   1      43.955  28.788  31.215  1.00  0.00     0.029 A 
ATOM     50  C   UNL A   1      43.093  28.064  32.023  1.00  0.00     0.049 A 
ATOM     51  H   UNL A   1      41.663  26.626  31.475  1.00  0.00     0.167 HD
ATOM     52  C   UNL A   1      42.562  29.091  34.122  1.00  0.00     0.074 A 
ATOM     53  C   UNL A   1      42.563  29.520  35.508  1.00  0.00     0.031 C 
ATOM     54  C   UNL A   1      42.929  27.951  33.467  1.00  0.00     0.037 A 
BRANCH  41  55
ATOM     55  C   UNL A   1      42.138  26.179  27.673  1.00  0.00     0.064 A 
ATOM     56  C   UNL A   1      41.559  24.892  27.534  1.00  0.00     0.173 A 
ATOM     57  C   UNL A   1      43.114  26.473  26.702  1.00  0.00     0.173 A 
ATOM     58  F   UNL A   1      40.586  24.468  28.351  1.00  0.00    -0.203 F 
ATOM     59  C   UNL A   1      41.952  23.981  26.546  1.00  0.00     0.198 A 
ATOM     60  C   UNL A   1      43.521  25.555  25.724  1.00  0.00     0.198 A 
ATOM     61  F   UNL A   1      43.696  27.670  26.618  1.00  0.00    -0.203 F 
ATOM     62  F   UNL A   1      41.363  22.779  26.477  1.00  0.00    -0.200 F 
ATOM     63  C   UNL A   1      42.943  24.309  25.647  1.00  0.00     0.200 A 
ATOM     64  F   UNL A   1      44.479  25.900  24.851  1.00  0.00    -0.200 F 
ATOM     65  F   UNL A   1      43.326  23.437  24.704  1.00  0.00    -0.200 F 
ENDBRANCH  41  55
BRANCH  42  66
ATOM     66  C   UNL A   1      39.832  33.004  34.397  1.00  0.00     0.064 A 
ATOM     67  C   UNL A   1      38.921  32.090  34.964  1.00  0.00     0.173 A 
ATOM     68  C   UNL A   1      39.872  34.302  34.929  1.00  0.00     0.173 A 
ATOM     69  F   UNL A   1      38.839  30.840  34.482  1.00  0.00    -0.203 F 
ATOM     70  C   UNL A   1      38.261  32.385  36.152  1.00  0.00     0.198 A 
ATOM     71  C   UNL A   1      39.218  34.588  36.126  1.00  0.00     0.198 A 
ATOM     72  F   UNL A   1      40.708  35.218  34.417  1.00  0.00    -0.203 F 
ATOM     73  F   UNL A   1      37.545  31.437  36.775  1.00  0.00    -0.200 F 
ATOM     74  C   UNL A   1      38.452  33.613  36.757  1.00  0.00     0.200 A 
ATOM     75  F   UNL A   1      39.437  35.770  36.710  1.00  0.00    -0.200 F 
ATOM     76  F   UNL A   1      37.930  33.810  37.972  1.00  0.00    -0.200 F 
ENDBRANCH  42  66
BRANCH  54  77
ATOM     77  C   UNL A   1      43.208  26.624  34.122  1.00  0.00     0.064 A 
ATOM     78  C   UNL A   1      42.236  25.867  34.794  1.00  0.00     0.173 A 
ATOM     79  C   UNL A   1      44.455  25.982  33.926  1.00  0.00     0.173 A 
ATOM     80  F   UNL A   1      40.978  26.304  34.933  1.00  0.00    -0.203 F 
ATOM     81  C   UNL A   1      42.510  24.592  35.291  1.00  0.00     0.198 A 
ATOM     82  C   UNL A   1      44.698  24.679  34.351  1.00  0.00     0.198 A 
ATOM     83  F   UNL A   1      45.465  26.585  33.281  1.00  0.00    -0.203 F 
ATOM     84  F   UNL A   1      41.565  23.932  35.973  1.00  0.00    -0.200 F 
ATOM     85  C   UNL A   1      43.733  23.991  35.054  1.00  0.00     0.200 A 
ATOM     86  F   UNL A   1      45.863  24.088  34.051  1.00  0.00    -0.200 F 
ATOM     87  F   UNL A   1      43.969  22.745  35.480  1.00  0.00    -0.200 F 
ENDBRANCH  54  77
ENDBRANCH  28  29
ENDBRANCH  21  23
ENDBRANCH  20  21
ENDBRANCH   1  20
TORSDOF 12
ENDMDL
MODEL 2
REMARK VINA RESULT:     -13.1      1.036      2.407
REMARK SMILES Cc1ccc(F)c(-c2ncccc2C(=O)OCCOC(=O)c2ccc(-c3c4nc(c(-c5c(F)c(F)c(F)c(F)c5F)c5ccc([nH]5)c(-c5c(F)c(F)c(F)c(F)c5F)c5nc(c(-c6c(F)c(F)c(F)c(F)c6F)c6ccc3[nH]6)C=C5)C=C4)cc2)c1
REMARK SMILES IDX 18 1 17 2 16 3 14 4 15 5 13 6 8 7 9 8 10 9 12 10 11 11 7 12
REMARK SMILES IDX 1 13 2 14 3 15 85 16 4 17 5 18 6 19 19 20 20 21 21 22 22 23
REMARK SMILES IDX 23 24 84 25 24 26 83 27 25 28 26 29 27 30 77 31 28 32 82 33
REMARK SMILES IDX 76 34 78 35 29 36 81 37 75 38 74 39 30 41 62 42 42 43 61 44
REMARK SMILES IDX 43 45 46 46 60 47 79 48 44 49 45 50 59 52 80 53 47 54 31 55
REMARK SMILES IDX 32 56 40 57 33 58 34 59 38 60 41 61 35 62 36 63 39 64 37 65
REMARK SMILES IDX 63 66 64 67 72 68 65 69 66 70 70 71 73 72 67 73 68 74 71 75
REMARK SMILES IDX 69 76 48 77 49 78 57 79 50 80 51 81 55 82 58 83 52 84 53 85
REMARK SMILES IDX 56 86 54 87
REMARK H PARENT 78 40 46 51
REMARK Flexibility Score: inf
ROOT
ATOM      1  C   UNL A   1      33.275  31.723  27.627  1.00  0.00     0.275 C 
ENDROOT
BRANCH   1   2
ATOM      2  C   UNL A   1      33.917  30.371  27.263  1.00  0.00     0.275 C 
BRANCH   2   3
ATOM      3  O   UNL A   1      33.250  29.650  26.191  1.00  0.00    -0.458 OA
BRANCH   3   4
ATOM      4  C   UNL A   1      32.083  29.004  26.491  1.00  0.00     0.340 C 
ATOM      5  O   UNL A   1      31.652  28.791  27.613  1.00  0.00    -0.246 OA
BRANCH   4   6
ATOM      6  C   UNL A   1      31.400  28.547  25.261  1.00  0.00     0.086 A 
ATOM      7  C   UNL A   1      31.430  27.226  24.780  1.00  0.00     0.088 A 
ATOM      8  N   UNL A   1      31.138  26.966  23.473  1.00  0.00    -0.255 NA
ATOM      9  C   UNL A   1      30.732  27.980  22.674  1.00  0.00     0.112 A 
ATOM     10  C   UNL A   1      30.917  29.567  24.421  1.00  0.00     0.019 A 
ATOM     11  C   UNL A   1      30.572  29.280  23.108  1.00  0.00     0.021 A 
BRANCH   7  12
ATOM     12  C   UNL A   1      31.948  26.031  25.486  1.00  0.00     0.037 A 
ATOM     13  C   UNL A   1      35.142  22.461  26.353  1.00  0.00     0.044 C 
ATOM     14  C   UNL A   1      33.986  23.504  26.147  1.00  0.00    -0.050 A 
ATOM     15  C   UNL A   1      32.535  22.582  26.716  1.00  0.00     0.006 A 
ATOM     16  C   UNL A   1      33.666  25.411  25.500  1.00  0.00     0.016 A 
ATOM     17  C   UNL A   1      30.975  23.342  26.703  1.00  0.00     0.040 A 
ATOM     18  C   UNL A   1      30.701  24.972  26.124  1.00  0.00     0.132 A 
ATOM     19  F   UNL A   1      29.427  25.401  26.120  1.00  0.00    -0.206 F 
ENDBRANCH   7  12
ENDBRANCH   4   6
ENDBRANCH   3   4
ENDBRANCH   2   3
ENDBRANCH   1   2
BRANCH   1  20
ATOM     20  O   UNL A   1      34.283  32.736  27.810  1.00  0.00    -0.458 OA
BRANCH  20  21
ATOM     21  C   UNL A   1      33.974  33.451  28.901  1.00  0.00     0.338 C 
ATOM     22  O   UNL A   1      32.889  34.010  29.068  1.00  0.00    -0.246 OA
BRANCH  21  23
ATOM     23  C   UNL A   1      35.088  33.782  29.818  1.00  0.00     0.060 A 
ATOM     24  C   UNL A   1      36.623  34.466  29.127  1.00  0.00     0.016 A 
ATOM     25  C   UNL A   1      35.167  32.249  30.644  1.00  0.00     0.016 A 
ATOM     26  C   UNL A   1      38.318  33.354  29.273  1.00  0.00     0.010 A 
ATOM     27  C   UNL A   1      36.601  31.294  30.763  1.00  0.00     0.010 A 
ATOM     28  C   UNL A   1      38.180  31.763  30.119  1.00  0.00    -0.014 A 
BRANCH  28  29
ATOM     29  C   UNL A   1      39.195  30.855  30.640  1.00  0.00     0.031 A 
ATOM     30  C   UNL A   1      39.496  29.598  29.926  1.00  0.00     0.074 A 
ATOM     31  C   UNL A   1      40.175  31.506  31.317  1.00  0.00     0.049 A 
ATOM     32  N   UNL A   1      40.559  28.899  30.117  1.00  0.00    -0.248 NA
ATOM     33  C   UNL A   1      38.642  29.017  28.903  1.00  0.00     0.031 C 
ATOM     34  C   UNL A   1      41.623  31.330  31.199  1.00  0.00     0.029 A 
ATOM     35  N   UNL A   1      40.061  32.595  32.196  1.00  0.00    -0.354 N 
ATOM     36  C   UNL A   1      40.686  27.987  29.091  1.00  0.00     0.074 A 
ATOM     37  C   UNL A   1      39.428  28.060  28.395  1.00  0.00     0.031 C 
ATOM     38  C   UNL A   1      42.241  32.063  32.141  1.00  0.00     0.029 A 
ATOM     39  C   UNL A   1      41.210  32.593  33.012  1.00  0.00     0.049 A 
ATOM     40  H   UNL A   1      39.318  33.239  32.235  1.00  0.00     0.167 HD
ATOM     41  C   UNL A   1      41.892  27.365  28.931  1.00  0.00     0.037 A 
ATOM     42  C   UNL A   1      41.067  32.287  34.338  1.00  0.00     0.037 A 
ATOM     43  C   UNL A   1      42.788  27.739  30.030  1.00  0.00     0.049 A 
ATOM     44  C   UNL A   1      41.675  30.953  34.687  1.00  0.00     0.074 A 
ATOM     45  C   UNL A   1      43.829  28.644  30.147  1.00  0.00     0.029 A 
ATOM     46  N   UNL A   1      42.430  27.380  31.324  1.00  0.00    -0.354 N 
ATOM     47  N   UNL A   1      42.027  30.071  33.794  1.00  0.00    -0.248 NA
ATOM     48  C   UNL A   1      41.949  30.504  36.046  1.00  0.00     0.031 C 
ATOM     49  C   UNL A   1      44.040  28.884  31.535  1.00  0.00     0.029 A 
ATOM     50  C   UNL A   1      43.153  28.100  32.255  1.00  0.00     0.049 A 
ATOM     51  H   UNL A   1      41.751  26.704  31.549  1.00  0.00     0.167 HD
ATOM     52  C   UNL A   1      42.539  28.967  34.403  1.00  0.00     0.074 A 
ATOM     53  C   UNL A   1      42.487  29.291  35.817  1.00  0.00     0.031 C 
ATOM     54  C   UNL A   1      42.936  27.879  33.680  1.00  0.00     0.037 A 
BRANCH  41  55
ATOM     55  C   UNL A   1      42.369  26.541  27.745  1.00  0.00     0.064 A 
ATOM     56  C   UNL A   1      41.804  25.267  27.489  1.00  0.00     0.173 A 
ATOM     57  C   UNL A   1      43.378  26.911  26.834  1.00  0.00     0.173 A 
ATOM     58  F   UNL A   1      40.805  24.780  28.237  1.00  0.00    -0.203 F 
ATOM     59  C   UNL A   1      42.237  24.433  26.452  1.00  0.00     0.198 A 
ATOM     60  C   UNL A   1      43.826  26.069  25.807  1.00  0.00     0.198 A 
ATOM     61  F   UNL A   1      43.955  28.112  26.860  1.00  0.00    -0.203 F 
ATOM     62  F   UNL A   1      41.659  23.237  26.273  1.00  0.00    -0.200 F 
ATOM     63  C   UNL A   1      43.258  24.830  25.616  1.00  0.00     0.200 A 
ATOM     64  F   UNL A   1      44.813  26.481  24.997  1.00  0.00    -0.200 F 
ATOM     65  F   UNL A   1      43.681  24.031  24.626  1.00  0.00    -0.200 F 
ENDBRANCH  41  55
BRANCH  42  66
ATOM     66  C   UNL A   1      39.781  32.842  34.867  1.00  0.00     0.064 A 
ATOM     67  C   UNL A   1      38.849  31.886  35.319  1.00  0.00     0.173 A 
ATOM     68  C   UNL A   1      39.797  34.092  35.504  1.00  0.00     0.173 A 
ATOM     69  F   UNL A   1      38.790  30.679  34.733  1.00  0.00    -0.203 F 
ATOM     70  C   UNL A   1      38.141  32.082  36.499  1.00  0.00     0.198 A 
ATOM     71  C   UNL A   1      39.094  34.279  36.693  1.00  0.00     0.198 A 
ATOM     72  F   UNL A   1      40.651  35.046  35.103  1.00  0.00    -0.203 F 
ATOM     73  F   UNL A   1      37.403  31.088  37.013  1.00  0.00    -0.200 F 
ATOM     74  C   UNL A   1      38.304  33.256  37.211  1.00  0.00     0.200 A 
ATOM     75  F   UNL A   1      39.286  35.409  37.381  1.00  0.00    -0.200 F 
ATOM     76  F   UNL A   1      37.733  33.354  38.415  1.00  0.00    -0.200 F 
ENDBRANCH  42  66
BRANCH  54  77
ATOM     77  C   UNL A   1      43.197  26.508  34.244  1.00  0.00     0.064 A 
ATOM     78  C   UNL A   1      42.211  25.712  34.846  1.00  0.00     0.173 A 
ATOM     79  C   UNL A   1      44.444  25.873  34.023  1.00  0.00     0.173 A 
ATOM     80  F   UNL A   1      40.953  26.146  34.996  1.00  0.00    -0.203 F 
ATOM     81  C   UNL A   1      42.470  24.404  35.256  1.00  0.00     0.198 A 
ATOM     82  C   UNL A   1      44.673  24.542  34.359  1.00  0.00     0.198 A 
ATOM     83  F   UNL A   1      45.467  26.513  33.437  1.00  0.00    -0.203 F 
ATOM     84  F   UNL A   1      41.510  23.703  35.876  1.00  0.00    -0.200 F 
ATOM     85  C   UNL A   1      43.693  23.813  34.997  1.00  0.00     0.200 A 
ATOM     86  F   UNL A   1      45.839  23.966  34.036  1.00  0.00    -0.200 F 
ATOM     87  F   UNL A   1      43.916  22.539  35.339  1.00  0.00    -0.200 F 
ENDBRANCH  54  77
ENDBRANCH  28  29
ENDBRANCH  21  23
ENDBRANCH  20  21
ENDBRANCH   1  20
TORSDOF 12
ENDMDL
MODEL 3
REMARK VINA RESULT:     -13.1      4.579     10.477
REMARK SMILES Cc1ccc(F)c(-c2ncccc2C(=O)OCCOC(=O)c2ccc(-c3c4nc(c(-c5c(F)c(F)c(F)c(F)c5F)c5ccc([nH]5)c(-c5c(F)c(F)c(F)c(F)c5F)c5nc(c(-c6c(F)c(F)c(F)c(F)c6F)c6ccc3[nH]6)C=C5)C=C4)cc2)c1
REMARK SMILES IDX 18 1 17 2 16 3 14 4 15 5 13 6 8 7 9 8 10 9 12 10 11 11 7 12
REMARK SMILES IDX 1 13 2 14 3 15 85 16 4 17 5 18 6 19 19 20 20 21 21 22 22 23
REMARK SMILES IDX 23 24 84 25 24 26 83 27 25 28 26 29 27 30 77 31 28 32 82 33
REMARK SMILES IDX 76 34 78 35 29 36 81 37 75 38 74 39 30 41 62 42 42 43 61 44
REMARK SMILES IDX 43 45 46 46 60 47 79 48 44 49 45 50 59 52 80 53 47 54 31 55
REMARK SMILES IDX 32 56 40 57 33 58 34 59 38 60 41 61 35 62 36 63 39 64 37 65
REMARK SMILES IDX 63 66 64 67 72 68 65 69 66 70 70 71 73 72 67 73 68 74 71 75
REMARK SMILES IDX 69 76 48 77 49 78 57 79 50 80 51 81 55 82 58 83 52 84 53 85
REMARK SMILES IDX 56 86 54 87
REMARK H PARENT 78 40 46 51
REMARK Flexibility Score: inf
ROOT
ATOM      1  C   UNL A   1      39.029  21.057  25.612  1.00  0.00     0.275 C 
ENDROOT
BRANCH   1   2
ATOM      2  C   UNL A   1      37.846  22.033  25.472  1.00  0.00     0.275 C 
BRANCH   2   3
ATOM      3  O   UNL A   1      36.800  21.596  24.560  1.00  0.00    -0.458 OA
BRANCH   3   4
ATOM      4  C   UNL A   1      36.102  22.558  23.887  1.00  0.00     0.340 C 
ATOM      5  O   UNL A   1      36.335  22.949  22.755  1.00  0.00    -0.246 OA
BRANCH   4   6
ATOM      6  C   UNL A   1      35.017  23.111  24.728  1.00  0.00     0.086 A 
ATOM      7  C   UNL A   1      33.748  22.523  24.875  1.00  0.00     0.088 A 
ATOM      8  N   UNL A   1      32.695  23.271  25.315  1.00  0.00    -0.255 NA
ATOM      9  C   UNL A   1      32.908  24.552  25.695  1.00  0.00     0.112 A 
ATOM     10  C   UNL A   1      35.217  24.426  25.187  1.00  0.00     0.019 A 
ATOM     11  C   UNL A   1      34.147  25.157  25.684  1.00  0.00     0.021 A 
BRANCH   7  12
ATOM     12  C   UNL A   1      33.327  21.182  24.410  1.00  0.00     0.037 A 
ATOM     13  C   UNL A   1      33.774  16.367  23.849  1.00  0.00     0.044 C 
ATOM     14  C   UNL A   1      33.527  17.918  23.881  1.00  0.00    -0.050 A 
ATOM     15  C   UNL A   1      32.578  18.182  22.361  1.00  0.00     0.006 A 
ATOM     16  C   UNL A   1      33.911  19.563  25.021  1.00  0.00     0.016 A 
ATOM     17  C   UNL A   1      32.036  19.780  21.955  1.00  0.00     0.040 A 
ATOM     18  C   UNL A   1      32.388  21.194  22.925  1.00  0.00     0.132 A 
ATOM     19  F   UNL A   1      31.951  22.372  22.449  1.00  0.00    -0.206 F 
ENDBRANCH   7  12
ENDBRANCH   4   6
ENDBRANCH   3   4
ENDBRANCH   2   3
ENDBRANCH   1   2
BRANCH   1  20
ATOM     20  O   UNL A   1      40.049  21.607  26.468  1.00  0.00    -0.458 OA
BRANCH  20  21
ATOM     21  C   UNL A   1      41.231  21.089  26.107  1.00  0.00     0.338 C 
ATOM     22  O   UNL A   1      41.361  19.986  25.574  1.00  0.00    -0.246 OA
BRANCH  21  23
ATOM     23  C   UNL A   1      42.441  21.777  26.612  1.00  0.00     0.060 A 
ATOM     24  C   UNL A   1      42.682  21.932  28.406  1.00  0.00     0.016 A 
ATOM     25  C   UNL A   1      42.281  23.237  25.673  1.00  0.00     0.016 A 
ATOM     26  C   UNL A   1      42.651  23.794  29.220  1.00  0.00     0.010 A 
ATOM     27  C   UNL A   1      42.242  24.822  26.358  1.00  0.00     0.010 A 
ATOM     28  C   UNL A   1      42.416  25.178  28.082  1.00  0.00    -0.014 A 
BRANCH  28  29
ATOM     29  C   UNL A   1      42.609  26.613  28.255  1.00  0.00     0.031 A 
ATOM     30  C   UNL A   1      41.441  27.493  28.467  1.00  0.00     0.074 A 
ATOM     31  C   UNL A   1      43.801  26.911  28.830  1.00  0.00     0.049 A 
ATOM     32  N   UNL A   1      41.520  28.690  28.932  1.00  0.00    -0.248 NA
ATOM     33  C   UNL A   1      40.066  27.101  28.206  1.00  0.00     0.031 C 
ATOM     34  C   UNL A   1      44.065  27.835  29.933  1.00  0.00     0.029 A 
ATOM     35  N   UNL A   1      45.055  26.318  28.609  1.00  0.00    -0.354 N 
ATOM     36  C   UNL A   1      40.260  29.109  29.303  1.00  0.00     0.074 A 
ATOM     37  C   UNL A   1      39.380  28.102  28.769  1.00  0.00     0.031 C 
ATOM     38  C   UNL A   1      45.392  27.951  30.111  1.00  0.00     0.029 A 
ATOM     39  C   UNL A   1      46.032  27.248  29.017  1.00  0.00     0.049 A 
ATOM     40  H   UNL A   1      45.220  25.422  28.239  1.00  0.00     0.167 HD
ATOM     41  C   UNL A   1      40.160  30.215  30.099  1.00  0.00     0.037 A 
ATOM     42  C   UNL A   1      46.816  27.832  28.059  1.00  0.00     0.037 A 
ATOM     43  C   UNL A   1      41.488  30.812  30.281  1.00  0.00     0.049 A 
ATOM     44  C   UNL A   1      46.507  29.296  27.879  1.00  0.00     0.074 A 
ATOM     45  C   UNL A   1      42.422  30.770  31.302  1.00  0.00     0.029 A 
ATOM     46  N   UNL A   1      42.150  31.301  29.161  1.00  0.00    -0.354 N 
ATOM     47  N   UNL A   1      45.436  29.865  28.356  1.00  0.00    -0.248 NA
ATOM     48  C   UNL A   1      47.365  30.237  27.171  1.00  0.00     0.031 C 
ATOM     49  C   UNL A   1      43.677  31.168  30.759  1.00  0.00     0.029 A 
ATOM     50  C   UNL A   1      43.494  31.483  29.422  1.00  0.00     0.049 A 
ATOM     51  H   UNL A   1      41.720  31.492  28.297  1.00  0.00     0.167 HD
ATOM     52  C   UNL A   1      45.425  31.187  28.034  1.00  0.00     0.074 A 
ATOM     53  C   UNL A   1      46.665  31.379  27.304  1.00  0.00     0.031 C 
ATOM     54  C   UNL A   1      44.379  31.992  28.380  1.00  0.00     0.037 A 
BRANCH  41  55
ATOM     55  C   UNL A   1      38.940  30.716  30.856  1.00  0.00     0.064 A 
ATOM     56  C   UNL A   1      37.931  31.446  30.177  1.00  0.00     0.173 A 
ATOM     57  C   UNL A   1      38.694  30.548  32.233  1.00  0.00     0.173 A 
ATOM     58  F   UNL A   1      37.990  31.662  28.856  1.00  0.00    -0.203 F 
ATOM     59  C   UNL A   1      36.813  31.986  30.823  1.00  0.00     0.198 A 
ATOM     60  C   UNL A   1      37.585  31.104  32.884  1.00  0.00     0.198 A 
ATOM     61  F   UNL A   1      39.483  29.809  33.011  1.00  0.00    -0.203 F 
ATOM     62  F   UNL A   1      35.901  32.670  30.118  1.00  0.00    -0.200 F 
ATOM     63  C   UNL A   1      36.645  31.825  32.182  1.00  0.00     0.200 A 
ATOM     64  F   UNL A   1      37.434  30.925  34.205  1.00  0.00    -0.200 F 
ATOM     65  F   UNL A   1      35.580  32.347  32.805  1.00  0.00    -0.200 F 
ENDBRANCH  41  55
BRANCH  42  66
ATOM     66  C   UNL A   1      47.132  26.851  26.973  1.00  0.00     0.064 A 
ATOM     67  C   UNL A   1      46.608  27.166  25.702  1.00  0.00     0.173 A 
ATOM     68  C   UNL A   1      48.348  26.155  27.024  1.00  0.00     0.173 A 
ATOM     69  F   UNL A   1      45.441  27.822  25.603  1.00  0.00    -0.203 F 
ATOM     70  C   UNL A   1      47.376  27.008  24.555  1.00  0.00     0.198 A 
ATOM     71  C   UNL A   1      49.120  26.010  25.872  1.00  0.00     0.198 A 
ATOM     72  F   UNL A   1      48.885  25.814  28.206  1.00  0.00    -0.203 F 
ATOM     73  F   UNL A   1      46.937  27.485  23.381  1.00  0.00    -0.200 F 
ATOM     74  C   UNL A   1      48.651  26.479  24.649  1.00  0.00     0.200 A 
ATOM     75  F   UNL A   1      50.359  25.522  25.988  1.00  0.00    -0.200 F 
ATOM     76  F   UNL A   1      49.422  26.482  23.557  1.00  0.00    -0.200 F 
ENDBRANCH  42  66
BRANCH  54  77
ATOM     77  C   UNL A   1      44.102  33.356  27.805  1.00  0.00     0.064 A 
ATOM     78  C   UNL A   1      43.798  33.584  26.454  1.00  0.00     0.173 A 
ATOM     79  C   UNL A   1      43.958  34.474  28.662  1.00  0.00     0.173 A 
ATOM     80  F   UNL A   1      43.769  32.586  25.562  1.00  0.00    -0.203 F 
ATOM     81  C   UNL A   1      43.439  34.848  25.984  1.00  0.00     0.198 A 
ATOM     82  C   UNL A   1      43.521  35.714  28.203  1.00  0.00     0.198 A 
ATOM     83  F   UNL A   1      44.198  34.390  29.979  1.00  0.00    -0.203 F 
ATOM     84  F   UNL A   1      43.210  35.027  24.676  1.00  0.00    -0.200 F 
ATOM     85  C   UNL A   1      43.284  35.908  26.859  1.00  0.00     0.200 A 
ATOM     86  F   UNL A   1      43.309  36.709  29.075  1.00  0.00    -0.200 F 
ATOM     87  F   UNL A   1      42.882  37.103  26.412  1.00  0.00    -0.200 F 
ENDBRANCH  54  77
ENDBRANCH  28  29
ENDBRANCH  21  23
ENDBRANCH  20  21
ENDBRANCH   1  20
TORSDOF 12
ENDMDL
