MODEL 1
REMARK VINA RESULT:     -14.0      0.000      0.000
REMARK SMILES Cc1ccc(Oc2cc(C(=O)OCCOC(=O)c3ccc(-c4c5nc(c(-c6c(F)c(F)c(F)c(F)c6F)c6ccc([nH]6)c(-c6c(F)c(F)c(F)c(F)c6F)c6nc(c(-c7c(F)c(F)c(F)c(F)c7F)c7ccc4[nH]7)C=C6)C=C5)cc3)nc3ccccc23)cc1
REMARK SMILES IDX 13 1 12 2 10 3 11 4 9 5 7 6 8 7 87 8 82 9 86 10 81 11 83 12
REMARK SMILES IDX 85 13 84 14 6 15 5 16 1 17 2 18 3 19 89 20 4 21 88 22 14 23
REMARK SMILES IDX 15 24 16 25 17 26 18 27 19 28 80 29 20 30 79 31 21 32 22 33
REMARK SMILES IDX 23 34 73 35 24 36 78 37 72 38 74 39 25 40 77 41 71 42 70 43
REMARK SMILES IDX 26 45 58 46 38 47 57 48 39 49 42 50 56 51 75 52 40 53 41 54
REMARK SMILES IDX 55 56 76 57 43 58 27 59 28 60 36 61 29 62 30 63 34 64 37 65
REMARK SMILES IDX 31 66 32 67 35 68 33 69 59 70 60 71 68 72 61 73 62 74 66 75
REMARK SMILES IDX 69 76 63 77 64 78 67 79 65 80 44 81 45 82 53 83 46 84 47 85
REMARK SMILES IDX 51 86 54 87 48 88 49 89 52 90 50 91
REMARK H PARENT 74 44 42 55
REMARK Flexibility Score: inf
ROOT
ATOM      1  C   UNL A   1      32.935  29.968  26.806  1.00  0.00     0.275 C 
ENDROOT
BRANCH   1   2
ATOM      2  O   UNL A   1      32.139  28.985  26.112  1.00  0.00    -0.457 OA
BRANCH   2   3
ATOM      3  C   UNL A   1      31.793  27.951  26.930  1.00  0.00     0.357 C 
ATOM      4  O   UNL A   1      31.229  28.086  28.010  1.00  0.00    -0.244 OA
BRANCH   3   5
ATOM      5  C   UNL A   1      32.235  26.597  26.492  1.00  0.00     0.152 A 
ATOM      6  C   UNL A   1      33.380  25.082  25.037  1.00  0.00     0.139 A 
ATOM      7  C   UNL A   1      33.309  26.342  25.655  1.00  0.00     0.084 A 
ATOM      8  C   UNL A   1      32.472  24.058  25.411  1.00  0.00     0.043 A 
ATOM      9  C   UNL A   1      31.428  24.443  26.276  1.00  0.00     0.075 A 
ATOM     10  C   UNL A   1      32.510  22.704  24.996  1.00  0.00     0.014 A 
ATOM     11  N   UNL A   1      31.304  25.663  26.786  1.00  0.00    -0.240 NA
ATOM     12  C   UNL A   1      30.441  23.543  26.623  1.00  0.00     0.029 A 
ATOM     13  C   UNL A   1      31.503  21.806  25.356  1.00  0.00     0.001 A 
ATOM     14  C   UNL A   1      30.456  22.233  26.159  1.00  0.00     0.002 A 
BRANCH   6  15
ATOM     15  O   UNL A   1      34.399  24.934  24.106  1.00  0.00    -0.457 OA
BRANCH  15  16
ATOM     16  C   UNL A   1      35.460  24.072  24.337  1.00  0.00     0.127 A 
ATOM     17  C   UNL A   1      38.541  21.287  25.571  1.00  0.00     0.044 C 
ATOM     18  C   UNL A   1      37.507  22.281  25.118  1.00  0.00    -0.051 A 
ATOM     19  C   UNL A   1      37.101  23.312  25.971  1.00  0.00     0.007 A 
ATOM     20  C   UNL A   1      36.934  22.202  23.844  1.00  0.00     0.007 A 
ATOM     21  C   UNL A   1      36.085  24.199  25.583  1.00  0.00     0.047 A 
ATOM     22  C   UNL A   1      35.935  23.106  23.446  1.00  0.00     0.047 A 
ENDBRANCH  15  16
ENDBRANCH   6  15
ENDBRANCH   3   5
ENDBRANCH   2   3
ENDBRANCH   1   2
BRANCH   1  23
ATOM     23  C   UNL A   1      34.391  29.554  27.073  1.00  0.00     0.275 C 
BRANCH  23  24
ATOM     24  O   UNL A   1      35.081  30.095  28.233  1.00  0.00    -0.458 OA
BRANCH  24  25
ATOM     25  C   UNL A   1      36.294  30.694  28.257  1.00  0.00     0.338 C 
ATOM     26  O   UNL A   1      36.434  31.904  28.113  1.00  0.00    -0.246 OA
BRANCH  25  27
ATOM     27  C   UNL A   1      37.460  29.835  28.499  1.00  0.00     0.060 A 
ATOM     28  C   UNL A   1      37.442  28.944  29.587  1.00  0.00     0.016 A 
ATOM     29  C   UNL A   1      38.497  29.826  27.576  1.00  0.00     0.016 A 
ATOM     30  C   UNL A   1      38.412  27.962  29.697  1.00  0.00     0.010 A 
ATOM     31  C   UNL A   1      39.348  28.759  27.572  1.00  0.00     0.010 A 
ATOM     32  C   UNL A   1      39.351  27.890  28.675  1.00  0.00    -0.014 A 
BRANCH  32  33
ATOM     33  C   UNL A   1      40.626  27.225  28.833  1.00  0.00     0.031 A 
ATOM     34  C   UNL A   1      40.764  25.804  28.510  1.00  0.00     0.074 A 
ATOM     35  C   UNL A   1      41.585  28.140  29.106  1.00  0.00     0.049 A 
ATOM     36  N   UNL A   1      41.684  25.042  28.978  1.00  0.00    -0.248 NA
ATOM     37  C   UNL A   1      39.819  25.076  27.667  1.00  0.00     0.031 C 
ATOM     38  C   UNL A   1      43.030  28.117  29.034  1.00  0.00     0.029 A 
ATOM     39  N   UNL A   1      41.311  29.411  29.665  1.00  0.00    -0.354 N 
ATOM     40  C   UNL A   1      41.705  23.911  28.182  1.00  0.00     0.074 A 
ATOM     41  C   UNL A   1      40.415  23.883  27.548  1.00  0.00     0.031 C 
ATOM     42  C   UNL A   1      43.505  29.098  29.835  1.00  0.00     0.029 A 
ATOM     43  C   UNL A   1      42.363  29.686  30.535  1.00  0.00     0.049 A 
ATOM     44  H   UNL A   1      40.533  29.984  29.479  1.00  0.00     0.167 HD
ATOM     45  C   UNL A   1      42.909  23.300  27.977  1.00  0.00     0.037 A 
ATOM     46  C   UNL A   1      42.092  29.595  31.870  1.00  0.00     0.037 A 
ATOM     47  C   UNL A   1      43.928  24.013  28.754  1.00  0.00     0.049 A 
ATOM     48  C   UNL A   1      42.835  28.418  32.452  1.00  0.00     0.074 A 
ATOM     49  C   UNL A   1      44.811  25.019  28.397  1.00  0.00     0.029 A 
ATOM     50  N   UNL A   1      43.823  24.050  30.139  1.00  0.00    -0.354 N 
ATOM     51  N   UNL A   1      43.066  27.301  31.812  1.00  0.00    -0.248 NA
ATOM     52  C   UNL A   1      43.475  28.474  33.758  1.00  0.00     0.031 C 
ATOM     53  C   UNL A   1      45.167  25.721  29.582  1.00  0.00     0.029 A 
ATOM     54  C   UNL A   1      44.492  25.148  30.648  1.00  0.00     0.049 A 
ATOM     55  H   UNL A   1      43.338  23.386  30.683  1.00  0.00     0.167 HD
ATOM     56  C   UNL A   1      43.958  26.554  32.533  1.00  0.00     0.074 A 
ATOM     57  C   UNL A   1      44.160  27.319  33.754  1.00  0.00     0.031 C 
ATOM     58  C   UNL A   1      44.513  25.389  32.081  1.00  0.00     0.037 A 
BRANCH  45  59
ATOM     59  C   UNL A   1      43.264  22.327  26.866  1.00  0.00     0.064 A 
ATOM     60  C   UNL A   1      42.695  21.029  26.855  1.00  0.00     0.173 A 
ATOM     61  C   UNL A   1      44.161  22.570  25.807  1.00  0.00     0.173 A 
ATOM     62  F   UNL A   1      41.763  20.666  27.747  1.00  0.00    -0.203 F 
ATOM     63  C   UNL A   1      43.050  20.049  25.924  1.00  0.00     0.198 A 
ATOM     64  C   UNL A   1      44.532  21.581  24.885  1.00  0.00     0.198 A 
ATOM     65  F   UNL A   1      44.679  23.781  25.586  1.00  0.00    -0.203 F 
ATOM     66  F   UNL A   1      42.481  18.836  25.986  1.00  0.00    -0.200 F 
ATOM     67  C   UNL A   1      43.983  20.318  24.948  1.00  0.00     0.200 A 
ATOM     68  F   UNL A   1      45.424  21.868  23.925  1.00  0.00    -0.200 F 
ATOM     69  F   UNL A   1      44.330  19.377  24.060  1.00  0.00    -0.200 F 
ENDBRANCH  45  59
BRANCH  46  70
ATOM     70  C   UNL A   1      40.705  30.048  32.252  1.00  0.00     0.064 A 
ATOM     71  C   UNL A   1      40.275  31.337  31.845  1.00  0.00     0.173 A 
ATOM     72  C   UNL A   1      39.715  29.194  32.752  1.00  0.00     0.173 A 
ATOM     73  F   UNL A   1      41.166  32.219  31.363  1.00  0.00    -0.203 F 
ATOM     74  C   UNL A   1      38.929  31.704  31.831  1.00  0.00     0.198 A 
ATOM     75  C   UNL A   1      38.365  29.578  32.768  1.00  0.00     0.198 A 
ATOM     76  F   UNL A   1      40.025  27.955  33.157  1.00  0.00    -0.203 F 
ATOM     77  F   UNL A   1      38.562  32.884  31.308  1.00  0.00    -0.200 F 
ATOM     78  C   UNL A   1      37.971  30.820  32.287  1.00  0.00     0.200 A 
ATOM     79  F   UNL A   1      37.425  28.706  33.162  1.00  0.00    -0.200 F 
ATOM     80  F   UNL A   1      36.670  31.132  32.207  1.00  0.00    -0.200 F 
ENDBRANCH  46  70
BRANCH  58  81
ATOM     81  C   UNL A   1      45.218  24.373  32.943  1.00  0.00     0.064 A 
ATOM     82  C   UNL A   1      46.518  24.552  33.440  1.00  0.00     0.173 A 
ATOM     83  C   UNL A   1      44.515  23.254  33.459  1.00  0.00     0.173 A 
ATOM     84  F   UNL A   1      47.236  25.645  33.149  1.00  0.00    -0.203 F 
ATOM     85  C   UNL A   1      47.100  23.640  34.317  1.00  0.00     0.198 A 
ATOM     86  C   UNL A   1      45.069  22.400  34.407  1.00  0.00     0.198 A 
ATOM     87  F   UNL A   1      43.256  22.974  33.093  1.00  0.00    -0.203 F 
ATOM     88  F   UNL A   1      48.369  23.821  34.707  1.00  0.00    -0.200 F 
ATOM     89  C   UNL A   1      46.372  22.578  34.815  1.00  0.00     0.200 A 
ATOM     90  F   UNL A   1      44.321  21.423  34.936  1.00  0.00    -0.200 F 
ATOM     91  F   UNL A   1      46.917  21.741  35.706  1.00  0.00    -0.200 F 
ENDBRANCH  58  81
ENDBRANCH  32  33
ENDBRANCH  25  27
ENDBRANCH  24  25
ENDBRANCH  23  24
ENDBRANCH   1  23
TORSDOF 13
ENDMDL
MODEL 2
REMARK VINA RESULT:     -13.8      0.595      1.681
REMARK SMILES Cc1ccc(Oc2cc(C(=O)OCCOC(=O)c3ccc(-c4c5nc(c(-c6c(F)c(F)c(F)c(F)c6F)c6ccc([nH]6)c(-c6c(F)c(F)c(F)c(F)c6F)c6nc(c(-c7c(F)c(F)c(F)c(F)c7F)c7ccc4[nH]7)C=C6)C=C5)cc3)nc3ccccc23)cc1
REMARK SMILES IDX 13 1 12 2 10 3 11 4 9 5 7 6 8 7 87 8 82 9 86 10 81 11 83 12
REMARK SMILES IDX 85 13 84 14 6 15 5 16 1 17 2 18 3 19 89 20 4 21 88 22 14 23
REMARK SMILES IDX 15 24 16 25 17 26 18 27 19 28 80 29 20 30 79 31 21 32 22 33
REMARK SMILES IDX 23 34 73 35 24 36 78 37 72 38 74 39 25 40 77 41 71 42 70 43
REMARK SMILES IDX 26 45 58 46 38 47 57 48 39 49 42 50 56 51 75 52 40 53 41 54
REMARK SMILES IDX 55 56 76 57 43 58 27 59 28 60 36 61 29 62 30 63 34 64 37 65
REMARK SMILES IDX 31 66 32 67 35 68 33 69 59 70 60 71 68 72 61 73 62 74 66 75
REMARK SMILES IDX 69 76 63 77 64 78 67 79 65 80 44 81 45 82 53 83 46 84 47 85
REMARK SMILES IDX 51 86 54 87 48 88 49 89 52 90 50 91
REMARK H PARENT 74 44 42 55
REMARK Flexibility Score: inf
ROOT
ATOM      1  C   UNL A   1      32.597  30.057  26.388  1.00  0.00     0.275 C 
ENDROOT
BRANCH   1   2
ATOM      2  O   UNL A   1      31.838  28.931  25.903  1.00  0.00    -0.457 OA
BRANCH   2   3
ATOM      3  C   UNL A   1      31.731  27.953  26.847  1.00  0.00     0.357 C 
ATOM      4  O   UNL A   1      31.365  28.147  28.001  1.00  0.00    -0.244 OA
BRANCH   3   5
ATOM      5  C   UNL A   1      32.192  26.596  26.437  1.00  0.00     0.152 A 
ATOM      6  C   UNL A   1      33.370  25.070  25.020  1.00  0.00     0.139 A 
ATOM      7  C   UNL A   1      33.278  26.340  25.616  1.00  0.00     0.084 A 
ATOM      8  C   UNL A   1      32.468  24.043  25.401  1.00  0.00     0.043 A 
ATOM      9  C   UNL A   1      31.411  24.431  26.248  1.00  0.00     0.075 A 
ATOM     10  C   UNL A   1      32.525  22.682  25.009  1.00  0.00     0.014 A 
ATOM     11  N   UNL A   1      31.268  25.657  26.736  1.00  0.00    -0.240 NA
ATOM     12  C   UNL A   1      30.429  23.527  26.599  1.00  0.00     0.029 A 
ATOM     13  C   UNL A   1      31.523  21.780  25.373  1.00  0.00     0.001 A 
ATOM     14  C   UNL A   1      30.463  22.209  26.157  1.00  0.00     0.002 A 
BRANCH   6  15
ATOM     15  O   UNL A   1      34.401  24.918  24.103  1.00  0.00    -0.457 OA
BRANCH  15  16
ATOM     16  C   UNL A   1      35.459  24.058  24.353  1.00  0.00     0.127 A 
ATOM     17  C   UNL A   1      38.520  21.275  25.639  1.00  0.00     0.044 C 
ATOM     18  C   UNL A   1      37.494  22.269  25.169  1.00  0.00    -0.051 A 
ATOM     19  C   UNL A   1      37.059  23.288  26.023  1.00  0.00     0.007 A 
ATOM     20  C   UNL A   1      36.956  22.202  23.879  1.00  0.00     0.007 A 
ATOM     21  C   UNL A   1      36.050  24.174  25.617  1.00  0.00     0.047 A 
ATOM     22  C   UNL A   1      35.963  23.105  23.464  1.00  0.00     0.047 A 
ENDBRANCH  15  16
ENDBRANCH   6  15
ENDBRANCH   3   5
ENDBRANCH   2   3
ENDBRANCH   1   2
BRANCH   1  23
ATOM     23  C   UNL A   1      34.086  29.775  26.645  1.00  0.00     0.275 C 
BRANCH  23  24
ATOM     24  O   UNL A   1      34.706  30.287  27.858  1.00  0.00    -0.458 OA
BRANCH  24  25
ATOM     25  C   UNL A   1      35.894  30.924  27.962  1.00  0.00     0.338 C 
ATOM     26  O   UNL A   1      36.000  32.142  27.854  1.00  0.00    -0.246 OA
BRANCH  25  27
ATOM     27  C   UNL A   1      37.075  30.099  28.247  1.00  0.00     0.060 A 
ATOM     28  C   UNL A   1      37.078  29.278  29.389  1.00  0.00     0.016 A 
ATOM     29  C   UNL A   1      38.105  30.047  27.318  1.00  0.00     0.016 A 
ATOM     30  C   UNL A   1      38.062  28.318  29.552  1.00  0.00     0.010 A 
ATOM     31  C   UNL A   1      38.971  28.993  27.374  1.00  0.00     0.010 A 
ATOM     32  C   UNL A   1      38.994  28.195  28.528  1.00  0.00    -0.014 A 
BRANCH  32  33
ATOM     33  C   UNL A   1      40.281  27.559  28.717  1.00  0.00     0.031 A 
ATOM     34  C   UNL A   1      40.440  26.126  28.468  1.00  0.00     0.074 A 
ATOM     35  C   UNL A   1      41.225  28.503  28.939  1.00  0.00     0.049 A 
ATOM     36  N   UNL A   1      41.374  25.404  28.971  1.00  0.00    -0.248 NA
ATOM     37  C   UNL A   1      39.506  25.340  27.666  1.00  0.00     0.031 C 
ATOM     38  C   UNL A   1      42.670  28.499  28.865  1.00  0.00     0.029 A 
ATOM     39  N   UNL A   1      40.933  29.796  29.433  1.00  0.00    -0.354 N 
ATOM     40  C   UNL A   1      41.411  24.234  28.235  1.00  0.00     0.074 A 
ATOM     41  C   UNL A   1      40.120  24.153  27.608  1.00  0.00     0.031 C 
ATOM     42  C   UNL A   1      43.131  29.527  29.612  1.00  0.00     0.029 A 
ATOM     43  C   UNL A   1      41.982  30.132  30.284  1.00  0.00     0.049 A 
ATOM     44  H   UNL A   1      40.145  30.346  29.220  1.00  0.00     0.167 HD
ATOM     45  C   UNL A   1      42.624  23.632  28.059  1.00  0.00     0.037 A 
ATOM     46  C   UNL A   1      41.715  30.106  31.623  1.00  0.00     0.037 A 
ATOM     47  C   UNL A   1      43.633  24.400  28.795  1.00  0.00     0.049 A 
ATOM     48  C   UNL A   1      42.478  28.973  32.263  1.00  0.00     0.074 A 
ATOM     49  C   UNL A   1      44.499  25.400  28.384  1.00  0.00     0.029 A 
ATOM     50  N   UNL A   1      43.530  24.507  30.176  1.00  0.00    -0.354 N 
ATOM     51  N   UNL A   1      42.726  27.828  31.681  1.00  0.00    -0.248 NA
ATOM     52  C   UNL A   1      43.120  29.107  33.562  1.00  0.00     0.031 C 
ATOM     53  C   UNL A   1      44.846  26.168  29.529  1.00  0.00     0.029 A 
ATOM     54  C   UNL A   1      44.183  25.640  30.626  1.00  0.00     0.049 A 
ATOM     55  H   UNL A   1      43.057  23.865  30.755  1.00  0.00     0.167 HD
ATOM     56  C   UNL A   1      43.631  27.133  32.437  1.00  0.00     0.074 A 
ATOM     57  C   UNL A   1      43.823  27.963  33.616  1.00  0.00     0.031 C 
ATOM     58  C   UNL A   1      44.203  25.955  32.044  1.00  0.00     0.037 A 
BRANCH  45  59
ATOM     59  C   UNL A   1      42.992  22.608  26.998  1.00  0.00     0.064 A 
ATOM     60  C   UNL A   1      42.429  21.309  27.046  1.00  0.00     0.173 A 
ATOM     61  C   UNL A   1      43.896  22.805  25.936  1.00  0.00     0.173 A 
ATOM     62  F   UNL A   1      41.492  20.984  27.947  1.00  0.00    -0.203 F 
ATOM     63  C   UNL A   1      42.796  20.286  26.165  1.00  0.00     0.198 A 
ATOM     64  C   UNL A   1      44.279  21.774  25.065  1.00  0.00     0.198 A 
ATOM     65  F   UNL A   1      44.410  24.006  25.661  1.00  0.00    -0.203 F 
ATOM     66  F   UNL A   1      42.231  19.076  26.282  1.00  0.00    -0.200 F 
ATOM     67  C   UNL A   1      43.735  20.513  25.185  1.00  0.00     0.200 A 
ATOM     68  F   UNL A   1      45.177  22.020  24.099  1.00  0.00    -0.200 F 
ATOM     69  F   UNL A   1      44.093  19.532  24.345  1.00  0.00    -0.200 F 
ENDBRANCH  45  59
BRANCH  46  70
ATOM     70  C   UNL A   1      40.322  30.557  31.986  1.00  0.00     0.064 A 
ATOM     71  C   UNL A   1      39.378  29.583  32.398  1.00  0.00     0.173 A 
ATOM     72  C   UNL A   1      39.965  31.894  32.198  1.00  0.00     0.173 A 
ATOM     73  F   UNL A   1      39.641  28.277  32.220  1.00  0.00    -0.203 F 
ATOM     74  C   UNL A   1      38.209  29.919  33.081  1.00  0.00     0.198 A 
ATOM     75  C   UNL A   1      38.772  32.231  32.856  1.00  0.00     0.198 A 
ATOM     76  F   UNL A   1      40.795  32.885  31.845  1.00  0.00    -0.203 F 
ATOM     77  F   UNL A   1      37.417  28.953  33.570  1.00  0.00    -0.200 F 
ATOM     78  C   UNL A   1      37.909  31.246  33.317  1.00  0.00     0.200 A 
ATOM     79  F   UNL A   1      38.500  33.515  33.133  1.00  0.00    -0.200 F 
ATOM     80  F   UNL A   1      36.828  31.577  34.037  1.00  0.00    -0.200 F 
ENDBRANCH  46  70
BRANCH  58  81
ATOM     81  C   UNL A   1      44.926  24.997  32.956  1.00  0.00     0.064 A 
ATOM     82  C   UNL A   1      44.359  23.803  33.427  1.00  0.00     0.173 A 
ATOM     83  C   UNL A   1      46.308  25.166  33.228  1.00  0.00     0.173 A 
ATOM     84  F   UNL A   1      43.105  23.451  33.114  1.00  0.00    -0.203 F 
ATOM     85  C   UNL A   1      45.091  22.892  34.184  1.00  0.00     0.198 A 
ATOM     86  C   UNL A   1      47.056  24.208  33.904  1.00  0.00     0.198 A 
ATOM     87  F   UNL A   1      46.987  26.246  32.816  1.00  0.00    -0.203 F 
ATOM     88  F   UNL A   1      44.482  21.801  34.670  1.00  0.00    -0.200 F 
ATOM     89  C   UNL A   1      46.441  23.083  34.406  1.00  0.00     0.200 A 
ATOM     90  F   UNL A   1      48.379  24.374  34.039  1.00  0.00    -0.200 F 
ATOM     91  F   UNL A   1      47.152  22.172  35.080  1.00  0.00    -0.200 F 
ENDBRANCH  58  81
ENDBRANCH  32  33
ENDBRANCH  25  27
ENDBRANCH  24  25
ENDBRANCH  23  24
ENDBRANCH   1  23
TORSDOF 13
ENDMDL
MODEL 3
REMARK VINA RESULT:     -13.8      3.829     10.267
REMARK SMILES Cc1ccc(Oc2cc(C(=O)OCCOC(=O)c3ccc(-c4c5nc(c(-c6c(F)c(F)c(F)c(F)c6F)c6ccc([nH]6)c(-c6c(F)c(F)c(F)c(F)c6F)c6nc(c(-c7c(F)c(F)c(F)c(F)c7F)c7ccc4[nH]7)C=C6)C=C5)cc3)nc3ccccc23)cc1
REMARK SMILES IDX 13 1 12 2 10 3 11 4 9 5 7 6 8 7 87 8 82 9 86 10 81 11 83 12
REMARK SMILES IDX 85 13 84 14 6 15 5 16 1 17 2 18 3 19 89 20 4 21 88 22 14 23
REMARK SMILES IDX 15 24 16 25 17 26 18 27 19 28 80 29 20 30 79 31 21 32 22 33
REMARK SMILES IDX 23 34 73 35 24 36 78 37 72 38 74 39 25 40 77 41 71 42 70 43
REMARK SMILES IDX 26 45 58 46 38 47 57 48 39 49 42 50 56 51 75 52 40 53 41 54
REMARK SMILES IDX 55 56 76 57 43 58 27 59 28 60 36 61 29 62 30 63 34 64 37 65
REMARK SMILES IDX 31 66 32 67 35 68 33 69 59 70 60 71 68 72 61 73 62 74 66 75
REMARK SMILES IDX 69 76 63 77 64 78 67 79 65 80 44 81 45 82 53 83 46 84 47 85
REMARK SMILES IDX 51 86 54 87 48 88 49 89 52 90 50 91
REMARK H PARENT 74 44 42 55
REMARK Flexibility Score: inf
ROOT
ATOM      1  C   UNL A   1      37.484  22.154  25.515  1.00  0.00     0.275 C 
ENDROOT
BRANCH   1   2
ATOM      2  O   UNL A   1      36.113  22.197  25.069  1.00  0.00    -0.457 OA
BRANCH   2   3
ATOM      3  C   UNL A   1      35.981  22.918  23.920  1.00  0.00     0.357 C 
ATOM      4  O   UNL A   1      36.671  22.753  22.919  1.00  0.00    -0.244 OA
BRANCH   3   5
ATOM      5  C   UNL A   1      34.992  24.032  23.957  1.00  0.00     0.152 A 
ATOM      6  C   UNL A   1      33.281  25.345  24.994  1.00  0.00     0.139 A 
ATOM      7  C   UNL A   1      34.453  24.578  25.112  1.00  0.00     0.084 A 
ATOM      8  C   UNL A   1      32.783  25.685  23.710  1.00  0.00     0.043 A 
ATOM      9  C   UNL A   1      33.425  25.070  22.615  1.00  0.00     0.075 A 
ATOM     10  C   UNL A   1      31.712  26.568  23.426  1.00  0.00     0.014 A 
ATOM     11  N   UNL A   1      34.475  24.266  22.731  1.00  0.00    -0.240 NA
ATOM     12  C   UNL A   1      32.954  25.262  21.332  1.00  0.00     0.029 A 
ATOM     13  C   UNL A   1      31.249  26.752  22.122  1.00  0.00     0.001 A 
ATOM     14  C   UNL A   1      31.863  26.083  21.073  1.00  0.00     0.002 A 
BRANCH   6  15
ATOM     15  O   UNL A   1      32.713  25.749  26.195  1.00  0.00    -0.457 OA
BRANCH  15  16
ATOM     16  C   UNL A   1      32.734  27.079  26.583  1.00  0.00     0.127 A 
ATOM     17  C   UNL A   1      33.056  31.340  27.299  1.00  0.00     0.044 C 
ATOM     18  C   UNL A   1      32.952  29.854  27.101  1.00  0.00    -0.051 A 
ATOM     19  C   UNL A   1      34.055  29.128  26.637  1.00  0.00     0.007 A 
ATOM     20  C   UNL A   1      31.766  29.165  27.374  1.00  0.00     0.007 A 
ATOM     21  C   UNL A   1      33.945  27.753  26.381  1.00  0.00     0.047 A 
ATOM     22  C   UNL A   1      31.664  27.783  27.141  1.00  0.00     0.047 A 
ENDBRANCH  15  16
ENDBRANCH   6  15
ENDBRANCH   3   5
ENDBRANCH   2   3
ENDBRANCH   1   2
BRANCH   1  23
ATOM     23  C   UNL A   1      38.077  23.512  25.921  1.00  0.00     0.275 C 
BRANCH  23  24
ATOM     24  O   UNL A   1      38.816  23.619  27.169  1.00  0.00    -0.458 OA
BRANCH  24  25
ATOM     25  C   UNL A   1      40.010  24.226  27.363  1.00  0.00     0.338 C 
ATOM     26  O   UNL A   1      41.078  23.657  27.162  1.00  0.00    -0.246 OA
BRANCH  25  27
ATOM     27  C   UNL A   1      39.986  25.628  27.800  1.00  0.00     0.060 A 
ATOM     28  C   UNL A   1      40.188  26.645  26.850  1.00  0.00     0.016 A 
ATOM     29  C   UNL A   1      39.635  25.923  29.109  1.00  0.00     0.016 A 
ATOM     30  C   UNL A   1      39.933  27.965  27.181  1.00  0.00     0.010 A 
ATOM     31  C   UNL A   1      39.209  27.189  29.394  1.00  0.00     0.010 A 
ATOM     32  C   UNL A   1      39.442  28.208  28.458  1.00  0.00    -0.014 A 
BRANCH  32  33
ATOM     33  C   UNL A   1      39.514  29.510  29.087  1.00  0.00     0.031 A 
ATOM     34  C   UNL A   1      38.487  30.518  28.820  1.00  0.00     0.074 A 
ATOM     35  C   UNL A   1      40.497  29.510  30.017  1.00  0.00     0.049 A 
ATOM     36  N   UNL A   1      38.653  31.779  28.979  1.00  0.00    -0.248 NA
ATOM     37  C   UNL A   1      37.170  30.198  28.274  1.00  0.00     0.031 C 
ATOM     38  C   UNL A   1      40.801  30.370  31.140  1.00  0.00     0.029 A 
ATOM     39  N   UNL A   1      41.588  28.609  29.997  1.00  0.00    -0.354 N 
ATOM     40  C   UNL A   1      37.393  32.348  28.986  1.00  0.00     0.074 A 
ATOM     41  C   UNL A   1      36.550  31.383  28.334  1.00  0.00     0.031 C 
ATOM     42  C   UNL A   1      42.107  30.209  31.449  1.00  0.00     0.029 A 
ATOM     43  C   UNL A   1      42.694  29.331  30.438  1.00  0.00     0.049 A 
ATOM     44  H   UNL A   1      41.570  27.664  29.725  1.00  0.00     0.167 HD
ATOM     45  C   UNL A   1      37.195  33.446  29.773  1.00  0.00     0.037 A 
ATOM     46  C   UNL A   1      43.613  29.681  29.490  1.00  0.00     0.037 A 
ATOM     47  C   UNL A   1      38.470  33.798  30.405  1.00  0.00     0.049 A 
ATOM     48  C   UNL A   1      43.586  31.177  29.296  1.00  0.00     0.074 A 
ATOM     49  C   UNL A   1      38.995  33.477  31.647  1.00  0.00     0.029 A 
ATOM     50  N   UNL A   1      39.543  34.171  29.605  1.00  0.00    -0.354 N 
ATOM     51  N   UNL A   1      42.509  31.913  29.385  1.00  0.00    -0.248 NA
ATOM     52  C   UNL A   1      44.800  31.956  29.110  1.00  0.00     0.031 C 
ATOM     53  C   UNL A   1      40.410  33.577  31.556  1.00  0.00     0.029 A 
ATOM     54  C   UNL A   1      40.740  33.945  30.261  1.00  0.00     0.049 A 
ATOM     55  H   UNL A   1      39.463  34.545  28.697  1.00  0.00     0.167 HD
ATOM     56  C   UNL A   1      42.874  33.233  29.393  1.00  0.00     0.074 A 
ATOM     57  C   UNL A   1      44.314  33.206  29.191  1.00  0.00     0.031 C 
ATOM     58  C   UNL A   1      41.999  34.261  29.609  1.00  0.00     0.037 A 
BRANCH  45  59
ATOM     59  C   UNL A   1      35.864  33.994  30.261  1.00  0.00     0.064 A 
ATOM     60  C   UNL A   1      34.951  34.556  29.334  1.00  0.00     0.173 A 
ATOM     61  C   UNL A   1      35.426  34.037  31.598  1.00  0.00     0.173 A 
ATOM     62  F   UNL A   1      35.182  34.523  28.015  1.00  0.00    -0.203 F 
ATOM     63  C   UNL A   1      33.755  35.169  29.720  1.00  0.00     0.198 A 
ATOM     64  C   UNL A   1      34.236  34.669  31.987  1.00  0.00     0.198 A 
ATOM     65  F   UNL A   1      36.098  33.430  32.580  1.00  0.00    -0.203 F 
ATOM     66  F   UNL A   1      32.947  35.693  28.787  1.00  0.00    -0.200 F 
ATOM     67  C   UNL A   1      33.404  35.242  31.049  1.00  0.00     0.200 A 
ATOM     68  F   UNL A   1      33.898  34.709  33.285  1.00  0.00    -0.200 F 
ATOM     69  F   UNL A   1      32.262  35.836  31.420  1.00  0.00    -0.200 F 
ENDBRANCH  45  59
BRANCH  46  70
ATOM     70  C   UNL A   1      43.812  28.648  28.410  1.00  0.00     0.064 A 
ATOM     71  C   UNL A   1      44.194  27.335  28.787  1.00  0.00     0.173 A 
ATOM     72  C   UNL A   1      43.394  28.814  27.084  1.00  0.00     0.173 A 
ATOM     73  F   UNL A   1      44.616  27.093  30.040  1.00  0.00    -0.203 F 
ATOM     74  C   UNL A   1      44.056  26.242  27.930  1.00  0.00     0.198 A 
ATOM     75  C   UNL A   1      43.289  27.718  26.213  1.00  0.00     0.198 A 
ATOM     76  F   UNL A   1      43.010  30.017  26.637  1.00  0.00    -0.203 F 
ATOM     77  F   UNL A   1      44.302  25.003  28.380  1.00  0.00    -0.200 F 
ATOM     78  C   UNL A   1      43.596  26.434  26.642  1.00  0.00     0.200 A 
ATOM     79  F   UNL A   1      42.794  27.890  24.978  1.00  0.00    -0.200 F 
ATOM     80  F   UNL A   1      43.389  25.384  25.835  1.00  0.00    -0.200 F 
ENDBRANCH  46  70
BRANCH  58  81
ATOM     81  C   UNL A   1      42.273  35.711  29.299  1.00  0.00     0.064 A 
ATOM     82  C   UNL A   1      43.104  36.524  30.083  1.00  0.00     0.173 A 
ATOM     83  C   UNL A   1      41.847  36.277  28.070  1.00  0.00     0.173 A 
ATOM     84  F   UNL A   1      43.693  36.061  31.194  1.00  0.00    -0.203 F 
ATOM     85  C   UNL A   1      43.416  37.830  29.712  1.00  0.00     0.198 A 
ATOM     86  C   UNL A   1      42.240  37.547  27.661  1.00  0.00     0.198 A 
ATOM     87  F   UNL A   1      41.070  35.605  27.208  1.00  0.00    -0.203 F 
ATOM     88  F   UNL A   1      44.157  38.588  30.532  1.00  0.00    -0.200 F 
ATOM     89  C   UNL A   1      43.002  38.334  28.495  1.00  0.00     0.200 A 
ATOM     90  F   UNL A   1      41.894  37.988  26.444  1.00  0.00    -0.200 F 
ATOM     91  F   UNL A   1      43.359  39.567  28.116  1.00  0.00    -0.200 F 
ENDBRANCH  58  81
ENDBRANCH  32  33
ENDBRANCH  25  27
ENDBRANCH  24  25
ENDBRANCH  23  24
ENDBRANCH   1  23
TORSDOF 13
ENDMDL
