MODEL 1
REMARK VINA RESULT:     -12.8      0.000      0.000
REMARK SMILES O=C(OCCOC(=O)[C@@H]1CN(c2nccc(N3CCC(O)CC3)n2)CC[NH2+]1)c1ccc(-c2c3nc(c(-c4c(F)c(F)c(F)c(F)c4F)c4ccc([nH]4)c(-c4c(F)c(F)c(F)c(F)c4F)c4nc(c(-c5c(F)c(F)c(F)c(F)c5F)c5ccc2[nH]5)C=C4)C=C3)cc1
REMARK SMILES IDX 5 1 4 2 3 3 2 4 1 5 28 6 29 7 90 8 30 9 89 10 31 11 32 12
REMARK SMILES IDX 33 13 83 14 34 15 88 16 82 17 84 18 35 19 87 20 81 21 80 22
REMARK SMILES IDX 36 24 68 25 48 26 67 27 49 28 52 29 66 30 85 31 50 32 51 33
REMARK SMILES IDX 65 35 86 36 53 37 37 38 38 39 46 40 39 41 40 42 44 43 47 44
REMARK SMILES IDX 41 45 42 46 45 47 43 48 69 49 70 50 78 51 71 52 72 53 76 54
REMARK SMILES IDX 79 55 73 56 74 57 77 58 75 59 54 60 55 61 63 62 56 63 57 64
REMARK SMILES IDX 61 65 64 66 58 67 59 68 62 69 60 70 6 71 7 72 8 73 9 74
REMARK SMILES IDX 10 75 27 76 11 77 26 78 25 81 12 82 13 83 24 84 14 85 16 86
REMARK SMILES IDX 15 87 17 88 18 89 23 90 19 91 22 92 20 93 21 94
REMARK H PARENT 84 23 52 34 27 79 27 80 21 95
REMARK Flexibility Score: inf
ROOT
ATOM      1  C   UNL A   1      42.248  20.563  26.128  1.00  0.00     0.274 C 
ENDROOT
BRANCH   1   2
ATOM      2  C   UNL A   1      43.467  21.252  25.511  1.00  0.00     0.275 C 
BRANCH   2   3
ATOM      3  O   UNL A   1      43.149  22.391  24.699  1.00  0.00    -0.458 OA
BRANCH   3   4
ATOM      4  C   UNL A   1      43.559  23.673  24.847  1.00  0.00     0.338 C 
ATOM      5  O   UNL A   1      44.552  24.048  24.224  1.00  0.00    -0.246 OA
BRANCH   4   6
ATOM      6  C   UNL A   1      42.969  24.624  25.850  1.00  0.00     0.060 A 
ATOM      7  C   UNL A   1      41.901  24.379  26.722  1.00  0.00     0.016 A 
ATOM      8  C   UNL A   1      43.603  25.874  25.943  1.00  0.00     0.016 A 
ATOM      9  C   UNL A   1      41.551  25.291  27.731  1.00  0.00     0.010 A 
ATOM     10  C   UNL A   1      43.275  26.775  26.962  1.00  0.00     0.010 A 
ATOM     11  C   UNL A   1      42.254  26.484  27.882  1.00  0.00    -0.014 A 
BRANCH  11  12
ATOM     12  C   UNL A   1      41.885  27.499  28.904  1.00  0.00     0.031 A 
ATOM     13  C   UNL A   1      42.510  27.376  30.264  1.00  0.00     0.074 A 
ATOM     14  C   UNL A   1      40.945  28.441  28.678  1.00  0.00     0.049 A 
ATOM     15  N   UNL A   1      42.210  27.992  31.376  1.00  0.00    -0.248 NA
ATOM     16  C   UNL A   1      43.617  26.411  30.388  1.00  0.00     0.031 C 
ATOM     17  C   UNL A   1      40.275  28.696  27.404  1.00  0.00     0.029 A 
ATOM     18  N   UNL A   1      40.317  29.301  29.548  1.00  0.00    -0.354 N 
ATOM     19  C   UNL A   1      43.100  27.503  32.319  1.00  0.00     0.074 A 
ATOM     20  C   UNL A   1      43.875  26.461  31.684  1.00  0.00     0.031 C 
ATOM     21  C   UNL A   1      39.240  29.534  27.600  1.00  0.00     0.029 A 
ATOM     22  C   UNL A   1      39.207  29.914  29.005  1.00  0.00     0.049 A 
ATOM     23  H   UNL A   1      40.629  29.464  30.467  1.00  0.00     0.167 HD
ATOM     24  C   UNL A   1      43.303  27.933  33.584  1.00  0.00     0.037 A 
ATOM     25  C   UNL A   1      38.260  30.668  29.594  1.00  0.00     0.037 A 
ATOM     26  C   UNL A   1      42.557  28.996  34.194  1.00  0.00     0.049 A 
ATOM     27  C   UNL A   1      38.417  31.034  31.042  1.00  0.00     0.074 A 
ATOM     28  C   UNL A   1      42.762  29.603  35.419  1.00  0.00     0.029 A 
ATOM     29  N   UNL A   1      41.449  29.600  33.621  1.00  0.00    -0.354 N 
ATOM     30  N   UNL A   1      39.333  30.653  31.896  1.00  0.00    -0.248 NA
ATOM     31  C   UNL A   1      37.435  31.981  31.593  1.00  0.00     0.031 C 
ATOM     32  C   UNL A   1      41.743  30.541  35.612  1.00  0.00     0.029 A 
ATOM     33  C   UNL A   1      40.932  30.546  34.489  1.00  0.00     0.049 A 
ATOM     34  H   UNL A   1      41.085  29.389  32.732  1.00  0.00     0.167 HD
ATOM     35  C   UNL A   1      39.071  31.351  33.065  1.00  0.00     0.074 A 
ATOM     36  C   UNL A   1      37.899  32.162  32.820  1.00  0.00     0.031 C 
ATOM     37  C   UNL A   1      39.761  31.341  34.229  1.00  0.00     0.037 A 
BRANCH  24  38
ATOM     38  C   UNL A   1      44.405  27.283  34.361  1.00  0.00     0.064 A 
ATOM     39  C   UNL A   1      45.721  27.767  34.299  1.00  0.00     0.173 A 
ATOM     40  C   UNL A   1      44.146  26.178  35.181  1.00  0.00     0.173 A 
ATOM     41  F   UNL A   1      46.022  28.814  33.515  1.00  0.00    -0.203 F 
ATOM     42  C   UNL A   1      46.746  27.144  35.004  1.00  0.00     0.198 A 
ATOM     43  C   UNL A   1      45.168  25.575  35.908  1.00  0.00     0.198 A 
ATOM     44  F   UNL A   1      42.905  25.679  35.273  1.00  0.00    -0.203 F 
ATOM     45  F   UNL A   1      48.004  27.588  34.884  1.00  0.00    -0.200 F 
ATOM     46  C   UNL A   1      46.468  26.053  35.813  1.00  0.00     0.200 A 
ATOM     47  F   UNL A   1      44.898  24.525  36.696  1.00  0.00    -0.200 F 
ATOM     48  F   UNL A   1      47.455  25.454  36.493  1.00  0.00    -0.200 F 
ENDBRANCH  24  38
BRANCH  25  49
ATOM     49  C   UNL A   1      37.064  31.158  28.864  1.00  0.00     0.064 A 
ATOM     50  C   UNL A   1      36.918  32.514  28.545  1.00  0.00     0.173 A 
ATOM     51  C   UNL A   1      35.970  30.308  28.647  1.00  0.00     0.173 A 
ATOM     52  F   UNL A   1      37.915  33.373  28.801  1.00  0.00    -0.203 F 
ATOM     53  C   UNL A   1      35.710  33.010  28.054  1.00  0.00     0.198 A 
ATOM     54  C   UNL A   1      34.765  30.807  28.156  1.00  0.00     0.198 A 
ATOM     55  F   UNL A   1      36.048  29.011  28.980  1.00  0.00    -0.203 F 
ATOM     56  F   UNL A   1      35.569  34.321  27.821  1.00  0.00    -0.200 F 
ATOM     57  C   UNL A   1      34.634  32.156  27.861  1.00  0.00     0.200 A 
ATOM     58  F   UNL A   1      33.719  29.986  27.984  1.00  0.00    -0.200 F 
ATOM     59  F   UNL A   1      33.463  32.635  27.420  1.00  0.00    -0.200 F 
ENDBRANCH  25  49
BRANCH  37  60
ATOM     60  C   UNL A   1      39.293  32.260  35.311  1.00  0.00     0.064 A 
ATOM     61  C   UNL A   1      38.456  31.814  36.342  1.00  0.00     0.173 A 
ATOM     62  C   UNL A   1      39.737  33.591  35.344  1.00  0.00     0.173 A 
ATOM     63  F   UNL A   1      37.984  30.558  36.334  1.00  0.00    -0.203 F 
ATOM     64  C   UNL A   1      38.074  32.672  37.368  1.00  0.00     0.198 A 
ATOM     65  C   UNL A   1      39.379  34.435  36.388  1.00  0.00     0.198 A 
ATOM     66  F   UNL A   1      40.535  34.062  34.375  1.00  0.00    -0.203 F 
ATOM     67  F   UNL A   1      37.243  32.238  38.325  1.00  0.00    -0.200 F 
ATOM     68  C   UNL A   1      38.546  33.977  37.397  1.00  0.00     0.200 A 
ATOM     69  F   UNL A   1      39.846  35.691  36.422  1.00  0.00    -0.200 F 
ATOM     70  F   UNL A   1      38.194  34.794  38.399  1.00  0.00    -0.200 F 
ENDBRANCH  37  60
ENDBRANCH  11  12
ENDBRANCH   4   6
ENDBRANCH   3   4
ENDBRANCH   2   3
ENDBRANCH   1   2
BRANCH   1  71
ATOM     71  O   UNL A   1      41.008  21.238  25.843  1.00  0.00    -0.458 OA
BRANCH  71  72
ATOM     72  C   UNL A   1      39.881  20.458  25.836  1.00  0.00     0.366 C 
ATOM     73  O   UNL A   1      39.888  19.233  25.764  1.00  0.00    -0.245 OA
BRANCH  72  74
ATOM     74  C   UNL A   1      38.594  21.294  25.859  1.00  0.00     0.313 C 
ATOM     75  C   UNL A   1      37.741  20.929  24.627  1.00  0.00     0.197 C 
ATOM     76  N   UNL A   1      38.929  22.743  25.915  1.00  0.00    -0.332 N 
ATOM     77  N   UNL A   1      36.629  21.859  24.402  1.00  0.00    -0.328 N 
ATOM     78  C   UNL A   1      37.673  23.521  25.935  1.00  0.00     0.283 C 
ATOM     79  H   UNL A   1      39.478  23.000  25.095  1.00  0.00     0.347 HD
ATOM     80  H   UNL A   1      39.473  22.942  26.755  1.00  0.00     0.347 HD
ATOM     81  C   UNL A   1      36.814  23.281  24.684  1.00  0.00     0.181 C 
BRANCH  77  82
ATOM     82  C   UNL A   1      35.394  21.381  24.781  1.00  0.00     0.227 A 
ATOM     83  N   UNL A   1      35.215  20.054  24.710  1.00  0.00    -0.221 NA
ATOM     84  N   UNL A   1      34.464  22.255  25.193  1.00  0.00    -0.196 NA
ATOM     85  C   UNL A   1      33.999  19.607  25.038  1.00  0.00     0.119 A 
ATOM     86  C   UNL A   1      33.270  21.767  25.560  1.00  0.00     0.134 A 
ATOM     87  C   UNL A   1      32.984  20.421  25.456  1.00  0.00     0.067 A 
BRANCH  86  88
ATOM     88  N   UNL A   1      32.311  22.615  26.096  1.00  0.00    -0.356 N 
ATOM     89  C   UNL A   1      32.816  23.730  26.894  1.00  0.00     0.121 C 
ATOM     90  C   UNL A   1      31.037  22.776  25.400  1.00  0.00     0.121 C 
ATOM     91  C   UNL A   1      32.815  25.014  26.070  1.00  0.00     0.053 C 
ATOM     92  C   UNL A   1      30.965  24.093  24.631  1.00  0.00     0.053 C 
ATOM     93  C   UNL A   1      31.440  25.279  25.467  1.00  0.00     0.118 C 
BRANCH  93  94
ATOM     94  O   UNL A   1      30.499  25.596  26.495  1.00  0.00    -0.393 OA
ATOM     95  H   UNL A   1      29.612  25.671  26.109  1.00  0.00     0.210 HD
ENDBRANCH  93  94
ENDBRANCH  86  88
ENDBRANCH  77  82
ENDBRANCH  72  74
ENDBRANCH  71  72
ENDBRANCH   1  71
TORSDOF 14
ENDMDL
MODEL 2
REMARK VINA RESULT:     -12.8      1.360      2.528
REMARK SMILES O=C(OCCOC(=O)[C@@H]1CN(c2nccc(N3CCC(O)CC3)n2)CC[NH2+]1)c1ccc(-c2c3nc(c(-c4c(F)c(F)c(F)c(F)c4F)c4ccc([nH]4)c(-c4c(F)c(F)c(F)c(F)c4F)c4nc(c(-c5c(F)c(F)c(F)c(F)c5F)c5ccc2[nH]5)C=C4)C=C3)cc1
REMARK SMILES IDX 5 1 4 2 3 3 2 4 1 5 28 6 29 7 90 8 30 9 89 10 31 11 32 12
REMARK SMILES IDX 33 13 83 14 34 15 88 16 82 17 84 18 35 19 87 20 81 21 80 22
REMARK SMILES IDX 36 24 68 25 48 26 67 27 49 28 52 29 66 30 85 31 50 32 51 33
REMARK SMILES IDX 65 35 86 36 53 37 37 38 38 39 46 40 39 41 40 42 44 43 47 44
REMARK SMILES IDX 41 45 42 46 45 47 43 48 69 49 70 50 78 51 71 52 72 53 76 54
REMARK SMILES IDX 79 55 73 56 74 57 77 58 75 59 54 60 55 61 63 62 56 63 57 64
REMARK SMILES IDX 61 65 64 66 58 67 59 68 62 69 60 70 6 71 7 72 8 73 9 74
REMARK SMILES IDX 10 75 27 76 11 77 26 78 25 81 12 82 13 83 24 84 14 85 16 86
REMARK SMILES IDX 15 87 17 88 18 89 23 90 19 91 22 92 20 93 21 94
REMARK H PARENT 84 23 52 34 27 79 27 80 21 95
REMARK Flexibility Score: inf
ROOT
ATOM      1  C   UNL A   1      41.633  20.134  26.585  1.00  0.00     0.274 C 
ENDROOT
BRANCH   1   2
ATOM      2  C   UNL A   1      42.730  20.804  25.754  1.00  0.00     0.275 C 
BRANCH   2   3
ATOM      3  O   UNL A   1      42.343  22.059  25.175  1.00  0.00    -0.458 OA
BRANCH   3   4
ATOM      4  C   UNL A   1      43.051  23.212  25.112  1.00  0.00     0.338 C 
ATOM      5  O   UNL A   1      43.944  23.308  24.270  1.00  0.00    -0.246 OA
BRANCH   4   6
ATOM      6  C   UNL A   1      42.917  24.325  26.111  1.00  0.00     0.060 A 
ATOM      7  C   UNL A   1      43.589  25.554  26.106  1.00  0.00     0.016 A 
ATOM      8  C   UNL A   1      41.971  24.113  27.129  1.00  0.00     0.016 A 
ATOM      9  C   UNL A   1      43.253  26.581  27.002  1.00  0.00     0.010 A 
ATOM     10  C   UNL A   1      41.615  25.141  28.008  1.00  0.00     0.010 A 
ATOM     11  C   UNL A   1      42.241  26.397  27.942  1.00  0.00    -0.014 A 
BRANCH  11  12
ATOM     12  C   UNL A   1      41.887  27.440  28.941  1.00  0.00     0.031 A 
ATOM     13  C   UNL A   1      42.522  27.348  30.298  1.00  0.00     0.074 A 
ATOM     14  C   UNL A   1      40.950  28.381  28.699  1.00  0.00     0.049 A 
ATOM     15  N   UNL A   1      42.236  27.993  31.396  1.00  0.00    -0.248 NA
ATOM     16  C   UNL A   1      43.625  26.380  30.438  1.00  0.00     0.031 C 
ATOM     17  C   UNL A   1      40.271  28.608  27.424  1.00  0.00     0.029 A 
ATOM     18  N   UNL A   1      40.335  29.267  29.551  1.00  0.00    -0.354 N 
ATOM     19  C   UNL A   1      43.131  27.523  32.345  1.00  0.00     0.074 A 
ATOM     20  C   UNL A   1      43.895  26.461  31.730  1.00  0.00     0.031 C 
ATOM     21  C   UNL A   1      39.243  29.457  27.608  1.00  0.00     0.029 A 
ATOM     22  C   UNL A   1      39.224  29.873  29.002  1.00  0.00     0.049 A 
ATOM     23  H   UNL A   1      40.655  29.452  30.464  1.00  0.00     0.167 HD
ATOM     24  C   UNL A   1      43.347  27.985  33.597  1.00  0.00     0.037 A 
ATOM     25  C   UNL A   1      38.286  30.647  29.580  1.00  0.00     0.037 A 
ATOM     26  C   UNL A   1      42.612  29.067  34.186  1.00  0.00     0.049 A 
ATOM     27  C   UNL A   1      38.458  31.049  31.016  1.00  0.00     0.074 A 
ATOM     28  C   UNL A   1      42.831  29.704  35.393  1.00  0.00     0.029 A 
ATOM     29  N   UNL A   1      41.504  29.663  33.607  1.00  0.00    -0.354 N 
ATOM     30  N   UNL A   1      39.379  30.684  31.873  1.00  0.00    -0.248 NA
ATOM     31  C   UNL A   1      37.486  32.015  31.551  1.00  0.00     0.031 C 
ATOM     32  C   UNL A   1      41.819  30.652  35.570  1.00  0.00     0.029 A 
ATOM     33  C   UNL A   1      40.999  30.634  34.454  1.00  0.00     0.049 A 
ATOM     34  H   UNL A   1      41.131  29.432  32.726  1.00  0.00     0.167 HD
ATOM     35  C   UNL A   1      39.131  31.413  33.025  1.00  0.00     0.074 A 
ATOM     36  C   UNL A   1      37.961  32.225  32.770  1.00  0.00     0.031 C 
ATOM     37  C   UNL A   1      39.831  31.429  34.184  1.00  0.00     0.037 A 
BRANCH  24  38
ATOM     38  C   UNL A   1      44.452  27.348  34.381  1.00  0.00     0.064 A 
ATOM     39  C   UNL A   1      44.214  26.228  35.193  1.00  0.00     0.173 A 
ATOM     40  C   UNL A   1      45.757  27.851  34.315  1.00  0.00     0.173 A 
ATOM     41  F   UNL A   1      42.976  25.721  35.301  1.00  0.00    -0.203 F 
ATOM     42  C   UNL A   1      45.238  25.656  35.940  1.00  0.00     0.198 A 
ATOM     43  C   UNL A   1      46.786  27.256  35.040  1.00  0.00     0.198 A 
ATOM     44  F   UNL A   1      46.034  28.918  33.553  1.00  0.00    -0.203 F 
ATOM     45  F   UNL A   1      44.976  24.623  36.752  1.00  0.00    -0.200 F 
ATOM     46  C   UNL A   1      46.525  26.166  35.857  1.00  0.00     0.200 A 
ATOM     47  F   UNL A   1      48.031  27.745  34.954  1.00  0.00    -0.200 F 
ATOM     48  F   UNL A   1      47.512  25.613  36.574  1.00  0.00    -0.200 F 
ENDBRANCH  24  38
BRANCH  25  49
ATOM     49  C   UNL A   1      37.087  31.125  28.848  1.00  0.00     0.064 A 
ATOM     50  C   UNL A   1      36.944  32.475  28.499  1.00  0.00     0.173 A 
ATOM     51  C   UNL A   1      35.988  30.276  28.658  1.00  0.00     0.173 A 
ATOM     52  F   UNL A   1      37.947  33.334  28.728  1.00  0.00    -0.203 F 
ATOM     53  C   UNL A   1      35.735  32.964  28.005  1.00  0.00     0.198 A 
ATOM     54  C   UNL A   1      34.782  30.768  28.164  1.00  0.00     0.198 A 
ATOM     55  F   UNL A   1      36.063  28.986  29.020  1.00  0.00    -0.203 F 
ATOM     56  F   UNL A   1      35.598  34.271  27.743  1.00  0.00    -0.200 F 
ATOM     57  C   UNL A   1      34.654  32.110  27.840  1.00  0.00     0.200 A 
ATOM     58  F   UNL A   1      33.731  29.948  28.019  1.00  0.00    -0.200 F 
ATOM     59  F   UNL A   1      33.482  32.585  27.396  1.00  0.00    -0.200 F 
ENDBRANCH  25  49
BRANCH  37  60
ATOM     60  C   UNL A   1      39.376  32.378  35.246  1.00  0.00     0.064 A 
ATOM     61  C   UNL A   1      38.514  31.973  36.272  1.00  0.00     0.173 A 
ATOM     62  C   UNL A   1      39.860  33.695  35.264  1.00  0.00     0.173 A 
ATOM     63  F   UNL A   1      38.005  30.731  36.277  1.00  0.00    -0.203 F 
ATOM     64  C   UNL A   1      38.146  32.858  37.281  1.00  0.00     0.198 A 
ATOM     65  C   UNL A   1      39.515  34.566  36.291  1.00  0.00     0.198 A 
ATOM     66  F   UNL A   1      40.684  34.128  34.299  1.00  0.00    -0.203 F 
ATOM     67  F   UNL A   1      37.290  32.464  38.234  1.00  0.00    -0.200 F 
ATOM     68  C   UNL A   1      38.656  34.148  37.296  1.00  0.00     0.200 A 
ATOM     69  F   UNL A   1      40.019  35.808  36.312  1.00  0.00    -0.200 F 
ATOM     70  F   UNL A   1      38.316  34.991  38.281  1.00  0.00    -0.200 F 
ENDBRANCH  37  60
ENDBRANCH  11  12
ENDBRANCH   4   6
ENDBRANCH   3   4
ENDBRANCH   2   3
ENDBRANCH   1   2
BRANCH   1  71
ATOM     71  O   UNL A   1      40.411  20.895  26.633  1.00  0.00    -0.458 OA
BRANCH  71  72
ATOM     72  C   UNL A   1      39.356  20.392  25.916  1.00  0.00     0.366 C 
ATOM     73  O   UNL A   1      39.353  19.294  25.368  1.00  0.00    -0.245 OA
BRANCH  72  74
ATOM     74  C   UNL A   1      38.193  21.389  25.816  1.00  0.00     0.313 C 
ATOM     75  C   UNL A   1      37.449  21.153  24.486  1.00  0.00     0.197 C 
ATOM     76  N   UNL A   1      38.702  22.781  25.948  1.00  0.00    -0.332 N 
ATOM     77  N   UNL A   1      36.499  22.222  24.161  1.00  0.00    -0.328 N 
ATOM     78  C   UNL A   1      37.563  23.716  25.846  1.00  0.00     0.283 C 
ATOM     79  H   UNL A   1      39.371  22.974  25.202  1.00  0.00     0.347 HD
ATOM     80  H   UNL A   1      39.166  22.898  26.849  1.00  0.00     0.347 HD
ATOM     81  C   UNL A   1      36.831  23.604  24.500  1.00  0.00     0.181 C 
BRANCH  77  82
ATOM     82  C   UNL A   1      35.177  21.905  24.386  1.00  0.00     0.227 A 
ATOM     83  N   UNL A   1      34.304  22.922  24.376  1.00  0.00    -0.221 NA
ATOM     84  N   UNL A   1      34.850  20.620  24.596  1.00  0.00    -0.196 NA
ATOM     85  C   UNL A   1      33.032  22.607  24.640  1.00  0.00     0.119 A 
ATOM     86  C   UNL A   1      33.558  20.334  24.811  1.00  0.00     0.134 A 
ATOM     87  C   UNL A   1      32.606  21.331  24.879  1.00  0.00     0.067 A 
BRANCH  86  88
ATOM     88  N   UNL A   1      33.152  19.012  24.924  1.00  0.00    -0.356 N 
ATOM     89  C   UNL A   1      32.203  18.544  23.917  1.00  0.00     0.121 C 
ATOM     90  C   UNL A   1      34.057  18.042  25.534  1.00  0.00     0.121 C 
ATOM     91  C   UNL A   1      32.927  17.739  22.842  1.00  0.00     0.053 C 
ATOM     92  C   UNL A   1      34.738  17.158  24.493  1.00  0.00     0.053 C 
ATOM     93  C   UNL A   1      33.753  16.616  23.459  1.00  0.00     0.118 C 
BRANCH  93  94
ATOM     94  O   UNL A   1      32.896  15.626  24.032  1.00  0.00    -0.393 OA
ATOM     95  H   UNL A   1      33.090  15.540  24.979  1.00  0.00     0.210 HD
ENDBRANCH  93  94
ENDBRANCH  86  88
ENDBRANCH  77  82
ENDBRANCH  72  74
ENDBRANCH  71  72
ENDBRANCH   1  71
TORSDOF 14
ENDMDL
MODEL 3
REMARK VINA RESULT:     -12.6      4.280      9.290
REMARK SMILES O=C(OCCOC(=O)[C@@H]1CN(c2nccc(N3CCC(O)CC3)n2)CC[NH2+]1)c1ccc(-c2c3nc(c(-c4c(F)c(F)c(F)c(F)c4F)c4ccc([nH]4)c(-c4c(F)c(F)c(F)c(F)c4F)c4nc(c(-c5c(F)c(F)c(F)c(F)c5F)c5ccc2[nH]5)C=C4)C=C3)cc1
REMARK SMILES IDX 5 1 4 2 3 3 2 4 1 5 28 6 29 7 90 8 30 9 89 10 31 11 32 12
REMARK SMILES IDX 33 13 83 14 34 15 88 16 82 17 84 18 35 19 87 20 81 21 80 22
REMARK SMILES IDX 36 24 68 25 48 26 67 27 49 28 52 29 66 30 85 31 50 32 51 33
REMARK SMILES IDX 65 35 86 36 53 37 37 38 38 39 46 40 39 41 40 42 44 43 47 44
REMARK SMILES IDX 41 45 42 46 45 47 43 48 69 49 70 50 78 51 71 52 72 53 76 54
REMARK SMILES IDX 79 55 73 56 74 57 77 58 75 59 54 60 55 61 63 62 56 63 57 64
REMARK SMILES IDX 61 65 64 66 58 67 59 68 62 69 60 70 6 71 7 72 8 73 9 74
REMARK SMILES IDX 10 75 27 76 11 77 26 78 25 81 12 82 13 83 24 84 14 85 16 86
REMARK SMILES IDX 15 87 17 88 18 89 23 90 19 91 22 92 20 93 21 94
REMARK H PARENT 84 23 52 34 27 79 27 80 21 95
REMARK Flexibility Score: inf
ROOT
ATOM      1  C   UNL A   1      32.175  31.302  26.987  1.00  0.00     0.274 C 
ENDROOT
BRANCH   1   2
ATOM      2  C   UNL A   1      32.145  32.782  26.599  1.00  0.00     0.275 C 
BRANCH   2   3
ATOM      3  O   UNL A   1      31.890  33.670  27.696  1.00  0.00    -0.458 OA
BRANCH   3   4
ATOM      4  C   UNL A   1      32.771  34.436  28.384  1.00  0.00     0.338 C 
ATOM      5  O   UNL A   1      32.532  35.637  28.511  1.00  0.00    -0.246 OA
BRANCH   4   6
ATOM      6  C   UNL A   1      34.103  33.939  28.867  1.00  0.00     0.060 A 
ATOM      7  C   UNL A   1      35.370  34.378  28.460  1.00  0.00     0.016 A 
ATOM      8  C   UNL A   1      34.054  32.961  29.875  1.00  0.00     0.016 A 
ATOM      9  C   UNL A   1      36.540  33.953  29.109  1.00  0.00     0.010 A 
ATOM     10  C   UNL A   1      35.215  32.553  30.542  1.00  0.00     0.010 A 
ATOM     11  C   UNL A   1      36.473  33.061  30.177  1.00  0.00    -0.014 A 
BRANCH  11  12
ATOM     12  C   UNL A   1      37.690  32.547  30.860  1.00  0.00     0.031 A 
ATOM     13  C   UNL A   1      38.374  31.353  30.259  1.00  0.00     0.074 A 
ATOM     14  C   UNL A   1      38.123  33.050  32.035  1.00  0.00     0.049 A 
ATOM     15  N   UNL A   1      39.312  30.594  30.757  1.00  0.00    -0.248 NA
ATOM     16  C   UNL A   1      37.923  30.951  28.915  1.00  0.00     0.031 C 
ATOM     17  C   UNL A   1      37.578  34.220  32.721  1.00  0.00     0.029 A 
ATOM     18  N   UNL A   1      39.068  32.576  32.915  1.00  0.00    -0.354 N 
ATOM     19  C   UNL A   1      39.573  29.642  29.784  1.00  0.00     0.074 A 
ATOM     20  C   UNL A   1      38.621  29.845  28.714  1.00  0.00     0.031 C 
ATOM     21  C   UNL A   1      38.086  34.290  33.965  1.00  0.00     0.029 A 
ATOM     22  C   UNL A   1      39.031  33.198  34.145  1.00  0.00     0.049 A 
ATOM     23  H   UNL A   1      39.707  31.862  32.689  1.00  0.00     0.167 HD
ATOM     24  C   UNL A   1      40.564  28.725  29.750  1.00  0.00     0.037 A 
ATOM     25  C   UNL A   1      39.669  32.890  35.289  1.00  0.00     0.037 A 
ATOM     26  C   UNL A   1      41.530  28.556  30.798  1.00  0.00     0.049 A 
ATOM     27  C   UNL A   1      40.676  31.776  35.284  1.00  0.00     0.074 A 
ATOM     28  C   UNL A   1      42.654  27.751  30.815  1.00  0.00     0.029 A 
ATOM     29  N   UNL A   1      41.474  29.202  32.022  1.00  0.00    -0.354 N 
ATOM     30  N   UNL A   1      40.995  30.953  34.316  1.00  0.00    -0.248 NA
ATOM     31  C   UNL A   1      41.451  31.582  36.520  1.00  0.00     0.031 C 
ATOM     32  C   UNL A   1      43.249  27.869  32.075  1.00  0.00     0.029 A 
ATOM     33  C   UNL A   1      42.520  28.779  32.822  1.00  0.00     0.049 A 
ATOM     34  H   UNL A   1      40.792  29.861  32.284  1.00  0.00     0.167 HD
ATOM     35  C   UNL A   1      42.039  30.184  34.805  1.00  0.00     0.074 A 
ATOM     36  C   UNL A   1      42.287  30.619  36.162  1.00  0.00     0.031 C 
ATOM     37  C   UNL A   1      42.749  29.221  34.172  1.00  0.00     0.037 A 
BRANCH  24  38
ATOM     38  C   UNL A   1      40.672  27.876  28.522  1.00  0.00     0.064 A 
ATOM     39  C   UNL A   1      41.429  28.293  27.415  1.00  0.00     0.173 A 
ATOM     40  C   UNL A   1      40.027  26.635  28.451  1.00  0.00     0.173 A 
ATOM     41  F   UNL A   1      42.052  29.482  27.430  1.00  0.00    -0.203 F 
ATOM     42  C   UNL A   1      41.505  27.512  26.266  1.00  0.00     0.198 A 
ATOM     43  C   UNL A   1      40.131  25.843  27.311  1.00  0.00     0.198 A 
ATOM     44  F   UNL A   1      39.294  26.194  29.482  1.00  0.00    -0.203 F 
ATOM     45  F   UNL A   1      42.185  27.957  25.201  1.00  0.00    -0.200 F 
ATOM     46  C   UNL A   1      40.862  26.285  26.218  1.00  0.00     0.200 A 
ATOM     47  F   UNL A   1      39.516  24.653  27.267  1.00  0.00    -0.200 F 
ATOM     48  F   UNL A   1      40.938  25.532  25.112  1.00  0.00    -0.200 F 
ENDBRANCH  24  38
BRANCH  25  49
ATOM     49  C   UNL A   1      39.420  33.615  36.560  1.00  0.00     0.064 A 
ATOM     50  C   UNL A   1      40.181  34.738  36.912  1.00  0.00     0.173 A 
ATOM     51  C   UNL A   1      38.550  33.082  37.520  1.00  0.00     0.173 A 
ATOM     52  F   UNL A   1      41.076  35.237  36.048  1.00  0.00    -0.203 F 
ATOM     53  C   UNL A   1      40.097  35.290  38.190  1.00  0.00     0.198 A 
ATOM     54  C   UNL A   1      38.467  33.637  38.796  1.00  0.00     0.198 A 
ATOM     55  F   UNL A   1      37.834  31.982  37.245  1.00  0.00    -0.203 F 
ATOM     56  F   UNL A   1      40.884  36.320  38.529  1.00  0.00    -0.200 F 
ATOM     57  C   UNL A   1      39.241  34.738  39.132  1.00  0.00     0.200 A 
ATOM     58  F   UNL A   1      37.652  33.095  39.713  1.00  0.00    -0.200 F 
ATOM     59  F   UNL A   1      39.182  35.247  40.370  1.00  0.00    -0.200 F 
ENDBRANCH  25  49
BRANCH  37  60
ATOM     60  C   UNL A   1      43.884  28.601  34.923  1.00  0.00     0.064 A 
ATOM     61  C   UNL A   1      43.721  27.418  35.655  1.00  0.00     0.173 A 
ATOM     62  C   UNL A   1      45.164  29.172  34.858  1.00  0.00     0.173 A 
ATOM     63  F   UNL A   1      42.508  26.855  35.767  1.00  0.00    -0.203 F 
ATOM     64  C   UNL A   1      44.802  26.829  36.302  1.00  0.00     0.198 A 
ATOM     65  C   UNL A   1      46.248  28.563  35.480  1.00  0.00     0.198 A 
ATOM     66  F   UNL A   1      45.365  30.307  34.173  1.00  0.00    -0.203 F 
ATOM     67  F   UNL A   1      44.619  25.718  37.029  1.00  0.00    -0.200 F 
ATOM     68  C   UNL A   1      46.065  27.394  36.204  1.00  0.00     0.200 A 
ATOM     69  F   UNL A   1      47.470  29.102  35.372  1.00  0.00    -0.200 F 
ATOM     70  F   UNL A   1      47.108  26.812  36.811  1.00  0.00    -0.200 F 
ENDBRANCH  37  60
ENDBRANCH  11  12
ENDBRANCH   4   6
ENDBRANCH   3   4
ENDBRANCH   2   3
ENDBRANCH   1   2
BRANCH   1  71
ATOM     71  O   UNL A   1      33.481  30.707  26.863  1.00  0.00    -0.458 OA
BRANCH  71  72
ATOM     72  C   UNL A   1      33.513  29.393  26.472  1.00  0.00     0.366 C 
ATOM     73  O   UNL A   1      34.119  28.509  27.069  1.00  0.00    -0.245 OA
BRANCH  72  74
ATOM     74  C   UNL A   1      32.758  29.159  25.157  1.00  0.00     0.313 C 
ATOM     75  C   UNL A   1      32.034  27.799  25.236  1.00  0.00     0.197 C 
ATOM     76  N   UNL A   1      33.699  29.241  24.007  1.00  0.00    -0.332 N 
ATOM     77  N   UNL A   1      31.512  27.350  23.940  1.00  0.00    -0.328 N 
ATOM     78  C   UNL A   1      32.944  29.010  22.758  1.00  0.00     0.283 C 
ATOM     79  H   UNL A   1      34.423  28.530  24.105  1.00  0.00     0.347 HD
ATOM     80  H   UNL A   1      34.136  30.161  23.981  1.00  0.00     0.347 HD
ATOM     81  C   UNL A   1      32.273  27.627  22.725  1.00  0.00     0.181 C 
BRANCH  77  82
ATOM     82  C   UNL A   1      30.152  27.507  23.783  1.00  0.00     0.227 A 
ATOM     83  N   UNL A   1      29.378  26.492  24.195  1.00  0.00    -0.221 NA
ATOM     84  N   UNL A   1      29.693  28.644  23.238  1.00  0.00    -0.196 NA
ATOM     85  C   UNL A   1      28.064  26.637  23.996  1.00  0.00     0.119 A 
ATOM     86  C   UNL A   1      28.366  28.775  23.097  1.00  0.00     0.134 A 
ATOM     87  C   UNL A   1      27.505  27.752  23.437  1.00  0.00     0.067 A 
BRANCH  86  88
ATOM     88  N   UNL A   1      27.835  29.973  22.641  1.00  0.00    -0.356 N 
ATOM     89  C   UNL A   1      27.635  31.010  23.650  1.00  0.00     0.121 C 
ATOM     90  C   UNL A   1      28.085  30.381  21.261  1.00  0.00     0.121 C 
ATOM     91  C   UNL A   1      28.766  32.031  23.591  1.00  0.00     0.053 C 
ATOM     92  C   UNL A   1      29.155  31.466  21.168  1.00  0.00     0.053 C 
ATOM     93  C   UNL A   1      28.934  32.587  22.181  1.00  0.00     0.118 C 
BRANCH  93  94
ATOM     94  O   UNL A   1      27.805  33.388  21.826  1.00  0.00    -0.393 OA
ATOM     95  H   UNL A   1      27.723  33.422  20.860  1.00  0.00     0.210 HD
ENDBRANCH  93  94
ENDBRANCH  86  88
ENDBRANCH  77  82
ENDBRANCH  72  74
ENDBRANCH  71  72
ENDBRANCH   1  71
TORSDOF 14
ENDMDL
