MODEL 1
REMARK VINA RESULT:     -12.5      0.000      0.000
REMARK SMILES Cc1nc(NC(=O)[C@@H]2CCC[C@@H](C(=O)OCCOC(=O)c3ccc(-c4c5nc(c(-c6c(F)c(F)c(F)c(F)c6F)c6ccc([nH]6)c(-c6c(F)c(F)c(F)c(F)c6F)c6nc(c(-c7c(F)c(F)c(F)c(F)c7F)c7ccc4[nH]7)C=C6)C=C5)cc3)C2)ccc1Br
REMARK SMILES IDX 16 1 15 2 13 3 14 4 12 5 8 6 9 7 84 8 10 9 11 10 6 11 5 12
REMARK SMILES IDX 7 14 4 15 1 16 2 17 3 18 87 19 86 20 88 21 85 22 17 23 18 24
REMARK SMILES IDX 19 25 20 26 21 27 22 28 83 29 23 30 82 31 24 32 25 33 26 34
REMARK SMILES IDX 76 35 27 36 81 37 75 38 77 39 28 40 80 41 74 42 73 43 29 45
REMARK SMILES IDX 61 46 41 47 60 48 42 49 45 50 59 51 78 52 43 53 44 54 58 56
REMARK SMILES IDX 79 57 46 58 30 59 31 60 39 61 32 62 33 63 37 64 40 65 34 66
REMARK SMILES IDX 35 67 38 68 36 69 62 70 63 71 71 72 64 73 65 74 69 75 72 76
REMARK SMILES IDX 66 77 67 78 70 79 68 80 47 81 48 82 56 83 49 84 50 85 54 86
REMARK SMILES IDX 57 87 51 88 52 89 55 90 53 91
REMARK H PARENT 5 13 77 44 45 55
REMARK Flexibility Score: inf
ROOT
ATOM      1  C   UNL A   1      31.362  29.617  24.930  1.00  0.00     0.274 C 
ENDROOT
BRANCH   1   2
ATOM      2  O   UNL A   1      31.217  28.186  24.903  1.00  0.00    -0.462 OA
BRANCH   2   3
ATOM      3  C   UNL A   1      31.954  27.536  23.972  1.00  0.00     0.309 C 
ATOM      4  O   UNL A   1      32.143  27.936  22.828  1.00  0.00    -0.252 OA
BRANCH   3   5
ATOM      5  C   UNL A   1      32.554  26.232  24.480  1.00  0.00     0.100 C 
ATOM      6  C   UNL A   1      30.851  24.510  25.440  1.00  0.00     0.080 C 
ATOM      7  C   UNL A   1      30.916  23.759  24.105  1.00  0.00     0.013 C 
ATOM      8  C   UNL A   1      31.873  25.618  25.712  1.00  0.00     0.028 C 
ATOM      9  C   UNL A   1      31.422  24.596  22.944  1.00  0.00     0.002 C 
ATOM     10  C   UNL A   1      32.728  25.283  23.295  1.00  0.00     0.015 C 
BRANCH   6  11
ATOM     11  C   UNL A   1      30.720  23.564  26.639  1.00  0.00     0.228 C 
ATOM     12  N   UNL A   1      31.621  22.604  26.975  1.00  0.00    -0.310 N 
ATOM     13  H   UNL A   1      31.268  22.005  27.673  1.00  0.00     0.171 HD
ATOM     14  O   UNL A   1      29.698  23.635  27.335  1.00  0.00    -0.274 OA
BRANCH  12  15
ATOM     15  C   UNL A   1      32.911  22.241  26.595  1.00  0.00     0.132 A 
ATOM     16  C   UNL A   1      34.123  19.372  24.639  1.00  0.00     0.068 C 
ATOM     17  C   UNL A   1      34.165  20.641  25.438  1.00  0.00     0.054 A 
ATOM     18  N   UNL A   1      32.965  21.070  25.928  1.00  0.00    -0.235 NA
ATOM     19  C   UNL A   1      35.345  21.354  25.631  1.00  0.00     0.039 A 
ATOM     20  C   UNL A   1      35.287  22.519  26.381  1.00  0.00     0.021 A 
ATOM     21  Br  UNL A   1      37.017  20.822  24.924  1.00  0.00    -0.049 Br
ATOM     22  C   UNL A   1      34.058  22.957  26.874  1.00  0.00     0.048 A 
ENDBRANCH  12  15
ENDBRANCH   6  11
ENDBRANCH   3   5
ENDBRANCH   2   3
ENDBRANCH   1   2
BRANCH   1  23
ATOM     23  C   UNL A   1      31.876  30.092  26.294  1.00  0.00     0.275 C 
BRANCH  23  24
ATOM     24  O   UNL A   1      33.250  30.527  26.236  1.00  0.00    -0.458 OA
BRANCH  24  25
ATOM     25  C   UNL A   1      33.612  31.433  27.172  1.00  0.00     0.338 C 
ATOM     26  O   UNL A   1      32.964  32.380  27.584  1.00  0.00    -0.246 OA
BRANCH  25  27
ATOM     27  C   UNL A   1      34.914  31.072  27.746  1.00  0.00     0.060 A 
ATOM     28  C   UNL A   1      35.100  29.767  28.208  1.00  0.00     0.016 A 
ATOM     29  C   UNL A   1      35.894  32.043  27.948  1.00  0.00     0.016 A 
ATOM     30  C   UNL A   1      36.252  29.428  28.907  1.00  0.00     0.010 A 
ATOM     31  C   UNL A   1      37.065  31.697  28.631  1.00  0.00     0.010 A 
ATOM     32  C   UNL A   1      37.238  30.394  29.131  1.00  0.00    -0.014 A 
BRANCH  32  33
ATOM     33  C   UNL A   1      38.430  30.046  29.934  1.00  0.00     0.031 A 
ATOM     34  C   UNL A   1      39.475  29.136  29.359  1.00  0.00     0.074 A 
ATOM     35  C   UNL A   1      38.587  30.580  31.158  1.00  0.00     0.049 A 
ATOM     36  N   UNL A   1      40.543  28.640  29.927  1.00  0.00    -0.248 NA
ATOM     37  C   UNL A   1      39.295  28.734  27.955  1.00  0.00     0.031 C 
ATOM     38  C   UNL A   1      37.671  31.533  31.784  1.00  0.00     0.029 A 
ATOM     39  N   UNL A   1      39.572  30.395  32.093  1.00  0.00    -0.354 N 
ATOM     40  C   UNL A   1      41.157  27.861  28.958  1.00  0.00     0.074 A 
ATOM     41  C   UNL A   1      40.335  27.932  27.769  1.00  0.00     0.031 C 
ATOM     42  C   UNL A   1      38.139  31.854  33.000  1.00  0.00     0.029 A 
ATOM     43  C   UNL A   1      39.356  31.089  33.257  1.00  0.00     0.049 A 
ATOM     44  H   UNL A   1      40.358  29.820  31.944  1.00  0.00     0.167 HD
ATOM     45  C   UNL A   1      42.309  27.156  29.055  1.00  0.00     0.037 A 
ATOM     46  C   UNL A   1      40.049  31.082  34.412  1.00  0.00     0.037 A 
ATOM     47  C   UNL A   1      43.120  27.095  30.242  1.00  0.00     0.049 A 
ATOM     48  C   UNL A   1      41.270  30.212  34.527  1.00  0.00     0.074 A 
ATOM     49  C   UNL A   1      44.299  26.398  30.447  1.00  0.00     0.029 A 
ATOM     50  N   UNL A   1      42.836  27.759  31.426  1.00  0.00    -0.354 N 
ATOM     51  N   UNL A   1      41.829  29.449  33.619  1.00  0.00    -0.248 NA
ATOM     52  C   UNL A   1      41.948  30.189  35.830  1.00  0.00     0.031 C 
ATOM     53  C   UNL A   1      44.706  26.611  31.768  1.00  0.00     0.029 A 
ATOM     54  C   UNL A   1      43.806  27.474  32.372  1.00  0.00     0.049 A 
ATOM     55  H   UNL A   1      42.061  28.347  31.571  1.00  0.00     0.167 HD
ATOM     56  C   UNL A   1      42.929  28.868  34.231  1.00  0.00     0.074 A 
ATOM     57  C   UNL A   1      42.968  29.378  35.587  1.00  0.00     0.031 C 
ATOM     58  C   UNL A   1      43.826  27.992  33.717  1.00  0.00     0.037 A 
BRANCH  45  59
ATOM     59  C   UNL A   1      42.749  26.373  27.855  1.00  0.00     0.064 A 
ATOM     60  C   UNL A   1      43.628  26.918  26.907  1.00  0.00     0.173 A 
ATOM     61  C   UNL A   1      42.328  25.048  27.678  1.00  0.00     0.173 A 
ATOM     62  F   UNL A   1      44.047  28.187  27.025  1.00  0.00    -0.203 F 
ATOM     63  C   UNL A   1      44.059  26.166  25.817  1.00  0.00     0.198 A 
ATOM     64  C   UNL A   1      42.780  24.291  26.599  1.00  0.00     0.198 A 
ATOM     65  F   UNL A   1      41.490  24.481  28.558  1.00  0.00    -0.203 F 
ATOM     66  F   UNL A   1      44.874  26.715  24.906  1.00  0.00    -0.200 F 
ATOM     67  C   UNL A   1      43.641  24.851  25.669  1.00  0.00     0.200 A 
ATOM     68  F   UNL A   1      42.381  23.019  26.461  1.00  0.00    -0.200 F 
ATOM     69  F   UNL A   1      44.066  24.126  24.624  1.00  0.00    -0.200 F 
ENDBRANCH  45  59
BRANCH  46  70
ATOM     70  C   UNL A   1      39.588  31.916  35.551  1.00  0.00     0.064 A 
ATOM     71  C   UNL A   1      40.111  33.198  35.760  1.00  0.00     0.173 A 
ATOM     72  C   UNL A   1      38.603  31.457  36.437  1.00  0.00     0.173 A 
ATOM     73  F   UNL A   1      41.072  33.669  34.952  1.00  0.00    -0.203 F 
ATOM     74  C   UNL A   1      39.667  33.991  36.815  1.00  0.00     0.198 A 
ATOM     75  C   UNL A   1      38.141  32.260  37.478  1.00  0.00     0.198 A 
ATOM     76  F   UNL A   1      38.073  30.235  36.280  1.00  0.00    -0.203 F 
ATOM     77  F   UNL A   1      40.203  35.203  37.012  1.00  0.00    -0.200 F 
ATOM     78  C   UNL A   1      38.677  33.525  37.669  1.00  0.00     0.200 A 
ATOM     79  F   UNL A   1      37.177  31.810  38.292  1.00  0.00    -0.200 F 
ATOM     80  F   UNL A   1      38.242  34.293  38.677  1.00  0.00    -0.200 F 
ENDBRANCH  46  70
BRANCH  58  81
ATOM     81  C   UNL A   1      44.935  27.534  34.616  1.00  0.00     0.064 A 
ATOM     82  C   UNL A   1      46.126  28.264  34.733  1.00  0.00     0.173 A 
ATOM     83  C   UNL A   1      44.775  26.395  35.420  1.00  0.00     0.173 A 
ATOM     84  F   UNL A   1      46.329  29.351  33.975  1.00  0.00    -0.203 F 
ATOM     85  C   UNL A   1      47.124  27.861  35.616  1.00  0.00     0.198 A 
ATOM     86  C   UNL A   1      45.764  26.010  36.318  1.00  0.00     0.198 A 
ATOM     87  F   UNL A   1      43.648  25.670  35.346  1.00  0.00    -0.203 F 
ATOM     88  F   UNL A   1      48.269  28.555  35.691  1.00  0.00    -0.200 F 
ATOM     89  C   UNL A   1      46.939  26.741  36.413  1.00  0.00     0.200 A 
ATOM     90  F   UNL A   1      45.579  24.935  37.097  1.00  0.00    -0.200 F 
ATOM     91  F   UNL A   1      47.896  26.364  37.273  1.00  0.00    -0.200 F 
ENDBRANCH  58  81
ENDBRANCH  32  33
ENDBRANCH  25  27
ENDBRANCH  24  25
ENDBRANCH  23  24
ENDBRANCH   1  23
TORSDOF 13
ENDMDL
MODEL 2
REMARK VINA RESULT:     -12.5      4.551      9.730
REMARK SMILES Cc1nc(NC(=O)[C@@H]2CCC[C@@H](C(=O)OCCOC(=O)c3ccc(-c4c5nc(c(-c6c(F)c(F)c(F)c(F)c6F)c6ccc([nH]6)c(-c6c(F)c(F)c(F)c(F)c6F)c6nc(c(-c7c(F)c(F)c(F)c(F)c7F)c7ccc4[nH]7)C=C6)C=C5)cc3)C2)ccc1Br
REMARK SMILES IDX 16 1 15 2 13 3 14 4 12 5 8 6 9 7 84 8 10 9 11 10 6 11 5 12
REMARK SMILES IDX 7 14 4 15 1 16 2 17 3 18 87 19 86 20 88 21 85 22 17 23 18 24
REMARK SMILES IDX 19 25 20 26 21 27 22 28 83 29 23 30 82 31 24 32 25 33 26 34
REMARK SMILES IDX 76 35 27 36 81 37 75 38 77 39 28 40 80 41 74 42 73 43 29 45
REMARK SMILES IDX 61 46 41 47 60 48 42 49 45 50 59 51 78 52 43 53 44 54 58 56
REMARK SMILES IDX 79 57 46 58 30 59 31 60 39 61 32 62 33 63 37 64 40 65 34 66
REMARK SMILES IDX 35 67 38 68 36 69 62 70 63 71 71 72 64 73 65 74 69 75 72 76
REMARK SMILES IDX 66 77 67 78 70 79 68 80 47 81 48 82 56 83 49 84 50 85 54 86
REMARK SMILES IDX 57 87 51 88 52 89 55 90 53 91
REMARK H PARENT 5 13 77 44 45 55
REMARK Flexibility Score: inf
ROOT
ATOM      1  C   UNL A   1      36.004  20.295  25.007  1.00  0.00     0.274 C 
ENDROOT
BRANCH   1   2
ATOM      2  O   UNL A   1      35.370  21.455  24.439  1.00  0.00    -0.462 OA
BRANCH   2   3
ATOM      3  C   UNL A   1      34.016  21.460  24.466  1.00  0.00     0.309 C 
ATOM      4  O   UNL A   1      33.308  20.509  24.153  1.00  0.00    -0.252 OA
BRANCH   3   5
ATOM      5  C   UNL A   1      33.427  22.782  24.942  1.00  0.00     0.100 C 
ATOM      6  C   UNL A   1      31.481  22.588  26.664  1.00  0.00     0.080 C 
ATOM      7  C   UNL A   1      32.489  22.895  27.778  1.00  0.00     0.013 C 
ATOM      8  C   UNL A   1      31.914  22.781  25.207  1.00  0.00     0.028 C 
ATOM      9  C   UNL A   1      33.935  22.634  27.398  1.00  0.00     0.002 C 
ATOM     10  C   UNL A   1      34.285  23.313  26.088  1.00  0.00     0.015 C 
BRANCH   6  11
ATOM     11  C   UNL A   1      30.108  23.216  26.926  1.00  0.00     0.228 C 
ATOM     12  N   UNL A   1      29.771  24.501  26.641  1.00  0.00    -0.310 N 
ATOM     13  H   UNL A   1      28.903  24.744  27.037  1.00  0.00     0.171 HD
ATOM     14  O   UNL A   1      29.243  22.526  27.485  1.00  0.00    -0.274 OA
BRANCH  12  15
ATOM     15  C   UNL A   1      30.328  25.566  25.936  1.00  0.00     0.132 A 
ATOM     16  C   UNL A   1      33.272  27.647  26.657  1.00  0.00     0.068 C 
ATOM     17  C   UNL A   1      32.063  27.135  25.935  1.00  0.00     0.054 A 
ATOM     18  N   UNL A   1      31.384  26.127  26.558  1.00  0.00    -0.235 NA
ATOM     19  C   UNL A   1      31.682  27.627  24.689  1.00  0.00     0.039 A 
ATOM     20  C   UNL A   1      30.550  27.090  24.094  1.00  0.00     0.021 A 
ATOM     21  Br  UNL A   1      32.625  28.983  23.768  1.00  0.00    -0.049 Br
ATOM     22  C   UNL A   1      29.865  26.057  24.732  1.00  0.00     0.048 A 
ENDBRANCH  12  15
ENDBRANCH   6  11
ENDBRANCH   3   5
ENDBRANCH   2   3
ENDBRANCH   1   2
BRANCH   1  23
ATOM     23  C   UNL A   1      37.530  20.411  24.931  1.00  0.00     0.275 C 
BRANCH  23  24
ATOM     24  O   UNL A   1      38.038  21.459  25.782  1.00  0.00    -0.458 OA
BRANCH  24  25
ATOM     25  C   UNL A   1      39.292  21.267  26.254  1.00  0.00     0.338 C 
ATOM     26  O   UNL A   1      39.955  20.245  26.217  1.00  0.00    -0.246 OA
BRANCH  25  27
ATOM     27  C   UNL A   1      39.839  22.533  26.758  1.00  0.00     0.060 A 
ATOM     28  C   UNL A   1      39.393  23.727  26.186  1.00  0.00     0.016 A 
ATOM     29  C   UNL A   1      40.876  22.536  27.690  1.00  0.00     0.016 A 
ATOM     30  C   UNL A   1      40.002  24.931  26.515  1.00  0.00     0.010 A 
ATOM     31  C   UNL A   1      41.475  23.751  28.039  1.00  0.00     0.010 A 
ATOM     32  C   UNL A   1      41.054  24.950  27.436  1.00  0.00    -0.014 A 
BRANCH  32  33
ATOM     33  C   UNL A   1      41.743  26.225  27.731  1.00  0.00     0.031 A 
ATOM     34  C   UNL A   1      41.045  27.280  28.536  1.00  0.00     0.074 A 
ATOM     35  C   UNL A   1      43.006  26.412  27.306  1.00  0.00     0.049 A 
ATOM     36  N   UNL A   1      41.436  28.493  28.826  1.00  0.00    -0.248 NA
ATOM     37  C   UNL A   1      39.732  26.920  29.092  1.00  0.00     0.031 C 
ATOM     38  C   UNL A   1      43.804  25.424  26.580  1.00  0.00     0.029 A 
ATOM     39  N   UNL A   1      43.836  27.497  27.424  1.00  0.00    -0.354 N 
ATOM     40  C   UNL A   1      40.418  29.045  29.589  1.00  0.00     0.074 A 
ATOM     41  C   UNL A   1      39.379  28.043  29.702  1.00  0.00     0.031 C 
ATOM     42  C   UNL A   1      45.013  25.947  26.320  1.00  0.00     0.029 A 
ATOM     43  C   UNL A   1      45.052  27.321  26.813  1.00  0.00     0.049 A 
ATOM     44  H   UNL A   1      43.584  28.321  27.900  1.00  0.00     0.167 HD
ATOM     45  C   UNL A   1      40.363  30.277  30.147  1.00  0.00     0.037 A 
ATOM     46  C   UNL A   1      46.070  28.185  26.645  1.00  0.00     0.037 A 
ATOM     47  C   UNL A   1      41.403  31.264  30.031  1.00  0.00     0.049 A 
ATOM     48  C   UNL A   1      45.942  29.581  27.190  1.00  0.00     0.074 A 
ATOM     49  C   UNL A   1      41.438  32.547  30.549  1.00  0.00     0.029 A 
ATOM     50  N   UNL A   1      42.596  31.075  29.348  1.00  0.00    -0.354 N 
ATOM     51  N   UNL A   1      44.962  30.111  27.881  1.00  0.00    -0.248 NA
ATOM     52  C   UNL A   1      47.052  30.504  26.919  1.00  0.00     0.031 C 
ATOM     53  C   UNL A   1      42.636  33.147  30.146  1.00  0.00     0.029 A 
ATOM     54  C   UNL A   1      43.366  32.224  29.414  1.00  0.00     0.049 A 
ATOM     55  H   UNL A   1      42.856  30.246  28.886  1.00  0.00     0.167 HD
ATOM     56  C   UNL A   1      45.341  31.419  28.141  1.00  0.00     0.074 A 
ATOM     57  C   UNL A   1      46.649  31.601  27.545  1.00  0.00     0.031 C 
ATOM     58  C   UNL A   1      44.665  32.384  28.813  1.00  0.00     0.037 A 
BRANCH  45  59
ATOM     59  C   UNL A   1      39.127  30.637  30.916  1.00  0.00     0.064 A 
ATOM     60  C   UNL A   1      39.037  30.426  32.299  1.00  0.00     0.173 A 
ATOM     61  C   UNL A   1      38.042  31.248  30.270  1.00  0.00     0.173 A 
ATOM     62  F   UNL A   1      40.043  29.833  32.959  1.00  0.00    -0.203 F 
ATOM     63  C   UNL A   1      37.897  30.801  33.007  1.00  0.00     0.198 A 
ATOM     64  C   UNL A   1      36.914  31.643  30.985  1.00  0.00     0.198 A 
ATOM     65  F   UNL A   1      38.081  31.474  28.949  1.00  0.00    -0.203 F 
ATOM     66  F   UNL A   1      37.819  30.563  34.323  1.00  0.00    -0.200 F 
ATOM     67  C   UNL A   1      36.841  31.416  32.350  1.00  0.00     0.200 A 
ATOM     68  F   UNL A   1      35.898  32.244  30.351  1.00  0.00    -0.200 F 
ATOM     69  F   UNL A   1      35.750  31.786  33.035  1.00  0.00    -0.200 F 
ENDBRANCH  45  59
BRANCH  46  70
ATOM     70  C   UNL A   1      47.289  27.754  25.915  1.00  0.00     0.064 A 
ATOM     71  C   UNL A   1      48.410  27.280  26.607  1.00  0.00     0.173 A 
ATOM     72  C   UNL A   1      47.348  27.785  24.514  1.00  0.00     0.173 A 
ATOM     73  F   UNL A   1      48.409  27.254  27.947  1.00  0.00    -0.203 F 
ATOM     74  C   UNL A   1      49.548  26.855  25.924  1.00  0.00     0.198 A 
ATOM     75  C   UNL A   1      48.476  27.337  23.831  1.00  0.00     0.198 A 
ATOM     76  F   UNL A   1      46.300  28.233  23.807  1.00  0.00    -0.203 F 
ATOM     77  F   UNL A   1      50.619  26.433  26.609  1.00  0.00    -0.200 F 
ATOM     78  C   UNL A   1      49.578  26.876  24.537  1.00  0.00     0.200 A 
ATOM     79  F   UNL A   1      48.495  27.348  22.492  1.00  0.00    -0.200 F 
ATOM     80  F   UNL A   1      50.668  26.456  23.881  1.00  0.00    -0.200 F 
ENDBRANCH  46  70
BRANCH  58  81
ATOM     81  C   UNL A   1      45.331  33.720  28.952  1.00  0.00     0.064 A 
ATOM     82  C   UNL A   1      45.103  34.748  28.027  1.00  0.00     0.173 A 
ATOM     83  C   UNL A   1      46.147  33.996  30.059  1.00  0.00     0.173 A 
ATOM     84  F   UNL A   1      44.341  34.527  26.945  1.00  0.00    -0.203 F 
ATOM     85  C   UNL A   1      45.680  36.003  28.200  1.00  0.00     0.198 A 
ATOM     86  C   UNL A   1      46.702  35.258  30.241  1.00  0.00     0.198 A 
ATOM     87  F   UNL A   1      46.388  33.044  30.974  1.00  0.00    -0.203 F 
ATOM     88  F   UNL A   1      45.474  36.964  27.288  1.00  0.00    -0.200 F 
ATOM     89  C   UNL A   1      46.470  36.259  29.310  1.00  0.00     0.200 A 
ATOM     90  F   UNL A   1      47.456  35.508  31.321  1.00  0.00    -0.200 F 
ATOM     91  F   UNL A   1      47.013  37.473  29.483  1.00  0.00    -0.200 F 
ENDBRANCH  58  81
ENDBRANCH  32  33
ENDBRANCH  25  27
ENDBRANCH  24  25
ENDBRANCH  23  24
ENDBRANCH   1  23
TORSDOF 13
ENDMDL
MODEL 3
REMARK VINA RESULT:     -12.4      4.670      9.803
REMARK SMILES Cc1nc(NC(=O)[C@@H]2CCC[C@@H](C(=O)OCCOC(=O)c3ccc(-c4c5nc(c(-c6c(F)c(F)c(F)c(F)c6F)c6ccc([nH]6)c(-c6c(F)c(F)c(F)c(F)c6F)c6nc(c(-c7c(F)c(F)c(F)c(F)c7F)c7ccc4[nH]7)C=C6)C=C5)cc3)C2)ccc1Br
REMARK SMILES IDX 16 1 15 2 13 3 14 4 12 5 8 6 9 7 84 8 10 9 11 10 6 11 5 12
REMARK SMILES IDX 7 14 4 15 1 16 2 17 3 18 87 19 86 20 88 21 85 22 17 23 18 24
REMARK SMILES IDX 19 25 20 26 21 27 22 28 83 29 23 30 82 31 24 32 25 33 26 34
REMARK SMILES IDX 76 35 27 36 81 37 75 38 77 39 28 40 80 41 74 42 73 43 29 45
REMARK SMILES IDX 61 46 41 47 60 48 42 49 45 50 59 51 78 52 43 53 44 54 58 56
REMARK SMILES IDX 79 57 46 58 30 59 31 60 39 61 32 62 33 63 37 64 40 65 34 66
REMARK SMILES IDX 35 67 38 68 36 69 62 70 63 71 71 72 64 73 65 74 69 75 72 76
REMARK SMILES IDX 66 77 67 78 70 79 68 80 47 81 48 82 56 83 49 84 50 85 54 86
REMARK SMILES IDX 57 87 51 88 52 89 55 90 53 91
REMARK H PARENT 5 13 77 44 45 55
REMARK Flexibility Score: inf
ROOT
ATOM      1  C   UNL A   1      35.727  20.488  25.040  1.00  0.00     0.274 C 
ENDROOT
BRANCH   1   2
ATOM      2  O   UNL A   1      35.103  21.748  25.349  1.00  0.00    -0.462 OA
BRANCH   2   3
ATOM      3  C   UNL A   1      34.072  22.107  24.549  1.00  0.00     0.309 C 
ATOM      4  O   UNL A   1      33.332  21.320  23.968  1.00  0.00    -0.252 OA
BRANCH   3   5
ATOM      5  C   UNL A   1      33.895  23.615  24.433  1.00  0.00     0.100 C 
ATOM      6  C   UNL A   1      32.687  24.442  22.277  1.00  0.00     0.080 C 
ATOM      7  C   UNL A   1      31.399  24.579  23.098  1.00  0.00     0.013 C 
ATOM      8  C   UNL A   1      34.007  24.194  23.015  1.00  0.00     0.028 C 
ATOM      9  C   UNL A   1      31.386  23.762  24.378  1.00  0.00     0.002 C 
ATOM     10  C   UNL A   1      32.636  24.017  25.200  1.00  0.00     0.015 C 
BRANCH   6  11
ATOM     11  C   UNL A   1      32.834  25.548  21.227  1.00  0.00     0.228 C 
ATOM     12  N   UNL A   1      32.731  26.879  21.478  1.00  0.00    -0.310 N 
ATOM     13  H   UNL A   1      32.693  27.403  20.646  1.00  0.00     0.171 HD
ATOM     14  O   UNL A   1      33.010  25.218  20.046  1.00  0.00    -0.274 OA
BRANCH  12  15
ATOM     15  C   UNL A   1      32.666  27.701  22.602  1.00  0.00     0.132 A 
ATOM     16  C   UNL A   1      29.992  29.919  23.805  1.00  0.00     0.068 C 
ATOM     17  C   UNL A   1      31.314  29.214  23.766  1.00  0.00     0.054 A 
ATOM     18  N   UNL A   1      31.531  28.424  22.674  1.00  0.00    -0.235 NA
ATOM     19  C   UNL A   1      32.243  29.325  24.797  1.00  0.00     0.039 A 
ATOM     20  C   UNL A   1      33.439  28.633  24.675  1.00  0.00     0.021 A 
ATOM     21  Br  UNL A   1      31.960  30.366  26.351  1.00  0.00    -0.049 Br
ATOM     22  C   UNL A   1      33.652  27.823  23.562  1.00  0.00     0.048 A 
ENDBRANCH  12  15
ENDBRANCH   6  11
ENDBRANCH   3   5
ENDBRANCH   2   3
ENDBRANCH   1   2
BRANCH   1  23
ATOM     23  C   UNL A   1      37.241  20.652  24.871  1.00  0.00     0.275 C 
BRANCH  23  24
ATOM     24  O   UNL A   1      37.780  21.661  25.750  1.00  0.00    -0.458 OA
BRANCH  24  25
ATOM     25  C   UNL A   1      39.037  21.433  26.195  1.00  0.00     0.338 C 
ATOM     26  O   UNL A   1      39.678  20.399  26.122  1.00  0.00    -0.246 OA
BRANCH  25  27
ATOM     27  C   UNL A   1      39.618  22.675  26.721  1.00  0.00     0.060 A 
ATOM     28  C   UNL A   1      39.172  23.892  26.200  1.00  0.00     0.016 A 
ATOM     29  C   UNL A   1      40.684  22.634  27.619  1.00  0.00     0.016 A 
ATOM     30  C   UNL A   1      39.809  25.077  26.546  1.00  0.00     0.010 A 
ATOM     31  C   UNL A   1      41.311  23.829  27.985  1.00  0.00     0.010 A 
ATOM     32  C   UNL A   1      40.889  25.052  27.434  1.00  0.00    -0.014 A 
BRANCH  32  33
ATOM     33  C   UNL A   1      41.606  26.308  27.745  1.00  0.00     0.031 A 
ATOM     34  C   UNL A   1      40.920  27.380  28.538  1.00  0.00     0.074 A 
ATOM     35  C   UNL A   1      42.881  26.462  27.347  1.00  0.00     0.049 A 
ATOM     36  N   UNL A   1      41.337  28.581  28.840  1.00  0.00    -0.248 NA
ATOM     37  C   UNL A   1      39.586  27.054  29.067  1.00  0.00     0.031 C 
ATOM     38  C   UNL A   1      43.668  25.455  26.635  1.00  0.00     0.029 A 
ATOM     39  N   UNL A   1      43.738  27.524  27.485  1.00  0.00    -0.354 N 
ATOM     40  C   UNL A   1      40.319  29.159  29.583  1.00  0.00     0.074 A 
ATOM     41  C   UNL A   1      39.251  28.185  29.673  1.00  0.00     0.031 C 
ATOM     42  C   UNL A   1      44.895  25.945  26.401  1.00  0.00     0.029 A 
ATOM     43  C   UNL A   1      44.961  27.317  26.898  1.00  0.00     0.049 A 
ATOM     44  H   UNL A   1      43.498  28.353  27.958  1.00  0.00     0.167 HD
ATOM     45  C   UNL A   1      40.285  30.391  30.143  1.00  0.00     0.037 A 
ATOM     46  C   UNL A   1      46.005  28.154  26.754  1.00  0.00     0.037 A 
ATOM     47  C   UNL A   1      41.353  31.350  30.050  1.00  0.00     0.049 A 
ATOM     48  C   UNL A   1      45.903  29.552  27.299  1.00  0.00     0.074 A 
ATOM     49  C   UNL A   1      41.412  32.630  30.572  1.00  0.00     0.029 A 
ATOM     50  N   UNL A   1      42.554  31.131  29.391  1.00  0.00    -0.354 N 
ATOM     51  N   UNL A   1      44.923  30.106  27.971  1.00  0.00    -0.248 NA
ATOM     52  C   UNL A   1      47.043  30.445  27.053  1.00  0.00     0.031 C 
ATOM     53  C   UNL A   1      42.633  33.199  30.195  1.00  0.00     0.029 A 
ATOM     54  C   UNL A   1      43.353  32.259  29.476  1.00  0.00     0.049 A 
ATOM     55  H   UNL A   1      42.802  30.296  28.933  1.00  0.00     0.167 HD
ATOM     56  C   UNL A   1      45.331  31.403  28.242  1.00  0.00     0.074 A 
ATOM     57  C   UNL A   1      46.656  31.551  27.673  1.00  0.00     0.031 C 
ATOM     58  C   UNL A   1      44.668  32.384  28.902  1.00  0.00     0.037 A 
BRANCH  45  59
ATOM     59  C   UNL A   1      39.044  30.783  30.887  1.00  0.00     0.064 A 
ATOM     60  C   UNL A   1      37.929  31.317  30.224  1.00  0.00     0.173 A 
ATOM     61  C   UNL A   1      38.950  30.573  32.270  1.00  0.00     0.173 A 
ATOM     62  F   UNL A   1      37.976  31.549  28.904  1.00  0.00    -0.203 F 
ATOM     63  C   UNL A   1      36.769  31.640  30.923  1.00  0.00     0.198 A 
ATOM     64  C   UNL A   1      37.779  30.876  32.963  1.00  0.00     0.198 A 
ATOM     65  F   UNL A   1      39.987  30.062  32.949  1.00  0.00    -0.203 F 
ATOM     66  F   UNL A   1      35.726  32.178  30.276  1.00  0.00    -0.200 F 
ATOM     67  C   UNL A   1      36.692  31.412  32.289  1.00  0.00     0.200 A 
ATOM     68  F   UNL A   1      37.704  30.647  34.281  1.00  0.00    -0.200 F 
ATOM     69  F   UNL A   1      35.571  31.714  32.958  1.00  0.00    -0.200 F 
ENDBRANCH  45  59
BRANCH  46  70
ATOM     70  C   UNL A   1      47.227  27.691  26.047  1.00  0.00     0.064 A 
ATOM     71  C   UNL A   1      48.322  27.189  26.761  1.00  0.00     0.173 A 
ATOM     72  C   UNL A   1      47.314  27.721  24.648  1.00  0.00     0.173 A 
ATOM     73  F   UNL A   1      48.293  27.163  28.101  1.00  0.00    -0.203 F 
ATOM     74  C   UNL A   1      49.461  26.735  26.101  1.00  0.00     0.198 A 
ATOM     75  C   UNL A   1      48.444  27.244  23.988  1.00  0.00     0.198 A 
ATOM     76  F   UNL A   1      46.292  28.195  23.921  1.00  0.00    -0.203 F 
ATOM     77  F   UNL A   1      50.508  26.286  26.807  1.00  0.00    -0.200 F 
ATOM     78  C   UNL A   1      49.519  26.755  24.715  1.00  0.00     0.200 A 
ATOM     79  F   UNL A   1      48.490  27.255  22.649  1.00  0.00    -0.200 F 
ATOM     80  F   UNL A   1      50.611  26.307  24.080  1.00  0.00    -0.200 F 
ENDBRANCH  46  70
BRANCH  58  81
ATOM     81  C   UNL A   1      45.366  33.702  29.058  1.00  0.00     0.064 A 
ATOM     82  C   UNL A   1      45.192  34.734  28.126  1.00  0.00     0.173 A 
ATOM     83  C   UNL A   1      46.159  33.957  30.187  1.00  0.00     0.173 A 
ATOM     84  F   UNL A   1      44.455  34.532  27.024  1.00  0.00    -0.203 F 
ATOM     85  C   UNL A   1      45.799  35.973  28.313  1.00  0.00     0.198 A 
ATOM     86  C   UNL A   1      46.743  35.204  30.383  1.00  0.00     0.198 A 
ATOM     87  F   UNL A   1      46.348  33.001  31.110  1.00  0.00    -0.203 F 
ATOM     88  F   UNL A   1      45.645  36.938  27.395  1.00  0.00    -0.200 F 
ATOM     89  C   UNL A   1      46.565  36.210  29.445  1.00  0.00     0.200 A 
ATOM     90  F   UNL A   1      47.473  35.436  31.483  1.00  0.00    -0.200 F 
ATOM     91  F   UNL A   1      47.136  37.409  29.631  1.00  0.00    -0.200 F 
ENDBRANCH  58  81
ENDBRANCH  32  33
ENDBRANCH  25  27
ENDBRANCH  24  25
ENDBRANCH  23  24
ENDBRANCH   1  23
TORSDOF 13
ENDMDL
