MODEL 1
REMARK VINA RESULT:     -13.6      0.000      0.000
REMARK SMILES Cc1ccc(N2C(=O)/C(=C3\C(=O)N(CC(=O)OCCOC(=O)c4ccc(-c5c6nc(c(-c7c(F)c(F)c(F)c(F)c7F)c7ccc([nH]7)c(-c7c(F)c(F)c(F)c(F)c7F)c7nc(c(-c8c(F)c(F)c(F)c(F)c8F)c8ccc5[nH]8)C=C7)C=C6)cc4)c4ccccc43)SC2=S)c(C)c1
REMARK SMILES IDX 18 1 17 2 15 3 16 4 14 5 13 6 6 7 7 8 93 9 8 10 9 11 92 12
REMARK SMILES IDX 94 13 10 14 11 15 91 16 12 17 86 18 90 19 87 20 89 21 88 22
REMARK SMILES IDX 5 23 1 24 2 25 3 26 97 27 4 28 95 29 96 30 19 31 20 32 21 33
REMARK SMILES IDX 22 34 23 35 24 36 85 37 25 38 84 39 26 40 27 41 28 42 78 43
REMARK SMILES IDX 29 44 83 45 77 46 79 47 30 48 82 49 76 50 75 51 31 53 63 54
REMARK SMILES IDX 43 55 62 56 44 57 47 58 61 59 80 60 45 61 46 62 60 64 81 65
REMARK SMILES IDX 48 66 32 67 33 68 41 69 34 70 35 71 39 72 42 73 36 74 37 75
REMARK SMILES IDX 40 76 38 77 64 78 65 79 73 80 66 81 67 82 71 83 74 84 68 85
REMARK SMILES IDX 69 86 72 87 70 88 49 89 50 90 58 91 51 92 52 93 56 94 59 95
REMARK SMILES IDX 53 96 54 97 57 98 55 99
REMARK H PARENT 79 52 47 63
REMARK Flexibility Score: inf
ROOT
ATOM      1  C   UNL A   1      44.474  40.104  26.656  1.00  0.00     0.274 C 
ENDROOT
BRANCH   1   2
ATOM      2  O   UNL A   1      44.372  40.804  25.398  1.00  0.00    -0.461 OA
BRANCH   2   3
ATOM      3  C   UNL A   1      43.321  41.659  25.281  1.00  0.00     0.326 C 
ATOM      4  O   UNL A   1      42.149  41.350  25.482  1.00  0.00    -0.250 OA
BRANCH   3   5
ATOM      5  C   UNL A   1      43.711  43.091  24.921  1.00  0.00     0.248 C 
BRANCH   5   6
ATOM      6  N   UNL A   1      44.611  43.293  23.810  1.00  0.00    -0.296 N 
ATOM      7  N   UNL A   1      44.643  45.075  18.596  1.00  0.00    -0.261 N 
ATOM      8  C   UNL A   1      44.240  44.135  19.551  1.00  0.00     0.271 C 
ATOM      9  C   UNL A   1      46.003  45.158  18.348  1.00  0.00     0.152 C 
ATOM     10  O   UNL A   1      43.100  43.737  19.721  1.00  0.00    -0.268 OA
ATOM     11  C   UNL A   1      45.440  43.709  20.345  1.00  0.00     0.094 C 
ATOM     12  S   UNL A   1      46.838  44.009  19.372  1.00  0.00    -0.053 SA
ATOM     13  S   UNL A   1      46.879  46.203  17.380  1.00  0.00    -0.051 S 
ATOM     14  C   UNL A   1      45.441  43.441  21.663  1.00  0.00     0.069 C 
ATOM     15  C   UNL A   1      44.223  43.110  22.490  1.00  0.00     0.260 C 
ATOM     16  C   UNL A   1      46.547  43.666  22.627  1.00  0.00     0.012 A 
ATOM     17  O   UNL A   1      43.140  42.706  22.117  1.00  0.00    -0.269 OA
ATOM     18  C   UNL A   1      45.963  43.651  23.900  1.00  0.00     0.053 A 
ATOM     19  C   UNL A   1      47.893  43.991  22.500  1.00  0.00     0.011 A 
ATOM     20  C   UNL A   1      46.673  43.999  25.036  1.00  0.00     0.027 A 
ATOM     21  C   UNL A   1      48.625  44.331  23.642  1.00  0.00     0.001 A 
ATOM     22  C   UNL A   1      48.017  44.346  24.900  1.00  0.00     0.002 A 
BRANCH   7  23
ATOM     23  C   UNL A   1      43.682  45.918  17.962  1.00  0.00     0.054 A 
ATOM     24  C   UNL A   1      41.011  48.446  15.686  1.00  0.00     0.044 C 
ATOM     25  C   UNL A   1      41.907  47.553  16.492  1.00  0.00    -0.051 A 
ATOM     26  C   UNL A   1      41.981  46.186  16.233  1.00  0.00     0.005 A 
ATOM     27  C   UNL A   1      42.699  48.094  17.511  1.00  0.00     0.009 A 
ATOM     28  C   UNL A   1      42.852  45.378  16.965  1.00  0.00     0.027 A 
ATOM     29  C   UNL A   1      43.602  47.299  18.245  1.00  0.00    -0.027 A 
ATOM     30  C   UNL A   1      44.447  48.007  19.272  1.00  0.00     0.046 C 
ENDBRANCH   7  23
ENDBRANCH   5   6
ENDBRANCH   3   5
ENDBRANCH   2   3
ENDBRANCH   1   2
BRANCH   1  31
ATOM     31  C   UNL A   1      45.775  39.311  26.741  1.00  0.00     0.275 C 
BRANCH  31  32
ATOM     32  O   UNL A   1      45.485  37.917  26.943  1.00  0.00    -0.458 OA
BRANCH  32  33
ATOM     33  C   UNL A   1      45.700  37.461  28.196  1.00  0.00     0.338 C 
ATOM     34  O   UNL A   1      46.168  38.065  29.146  1.00  0.00    -0.246 OA
BRANCH  33  35
ATOM     35  C   UNL A   1      45.309  36.049  28.277  1.00  0.00     0.060 A 
ATOM     36  C   UNL A   1      44.559  35.511  27.234  1.00  0.00     0.016 A 
ATOM     37  C   UNL A   1      45.760  35.237  29.322  1.00  0.00     0.016 A 
ATOM     38  C   UNL A   1      44.219  34.160  27.263  1.00  0.00     0.010 A 
ATOM     39  C   UNL A   1      45.487  33.870  29.307  1.00  0.00     0.010 A 
ATOM     40  C   UNL A   1      44.683  33.327  28.296  1.00  0.00    -0.014 A 
BRANCH  40  41
ATOM     41  C   UNL A   1      44.275  31.901  28.326  1.00  0.00     0.031 A 
ATOM     42  C   UNL A   1      42.988  31.499  28.991  1.00  0.00     0.074 A 
ATOM     43  C   UNL A   1      45.036  30.977  27.710  1.00  0.00     0.049 A 
ATOM     44  N   UNL A   1      42.391  30.334  28.994  1.00  0.00    -0.248 NA
ATOM     45  C   UNL A   1      42.280  32.536  29.758  1.00  0.00     0.031 C 
ATOM     46  C   UNL A   1      46.326  31.239  27.071  1.00  0.00     0.029 A 
ATOM     47  N   UNL A   1      44.823  29.638  27.496  1.00  0.00    -0.354 N 
ATOM     48  C   UNL A   1      41.235  30.505  29.743  1.00  0.00     0.074 A 
ATOM     49  C   UNL A   1      41.246  31.862  30.240  1.00  0.00     0.031 C 
ATOM     50  C   UNL A   1      46.765  30.111  26.491  1.00  0.00     0.029 A 
ATOM     51  C   UNL A   1      45.797  29.043  26.732  1.00  0.00     0.049 A 
ATOM     52  H   UNL A   1      44.046  29.152  27.856  1.00  0.00     0.167 HD
ATOM     53  C   UNL A   1      40.235  29.620  29.965  1.00  0.00     0.037 A 
ATOM     54  C   UNL A   1      45.886  27.784  26.260  1.00  0.00     0.037 A 
ATOM     55  C   UNL A   1      40.221  28.273  29.462  1.00  0.00     0.049 A 
ATOM     56  C   UNL A   1      44.774  26.811  26.544  1.00  0.00     0.074 A 
ATOM     57  C   UNL A   1      39.234  27.313  29.598  1.00  0.00     0.029 A 
ATOM     58  N   UNL A   1      41.244  27.695  28.727  1.00  0.00    -0.354 N 
ATOM     59  N   UNL A   1      43.649  27.007  27.187  1.00  0.00    -0.248 NA
ATOM     60  C   UNL A   1      44.939  25.445  26.029  1.00  0.00     0.031 C 
ATOM     61  C   UNL A   1      39.681  26.139  28.984  1.00  0.00     0.029 A 
ATOM     62  C   UNL A   1      40.924  26.382  28.424  1.00  0.00     0.049 A 
ATOM     63  H   UNL A   1      42.076  28.150  28.461  1.00  0.00     0.167 HD
ATOM     64  C   UNL A   1      42.964  25.800  27.139  1.00  0.00     0.074 A 
ATOM     65  C   UNL A   1      43.792  24.881  26.386  1.00  0.00     0.031 C 
ATOM     66  C   UNL A   1      41.760  25.481  27.674  1.00  0.00     0.037 A 
BRANCH  53  67
ATOM     67  C   UNL A   1      39.058  30.088  30.768  1.00  0.00     0.064 A 
ATOM     68  C   UNL A   1      39.032  29.955  32.165  1.00  0.00     0.173 A 
ATOM     69  C   UNL A   1      37.975  30.729  30.149  1.00  0.00     0.173 A 
ATOM     70  F   UNL A   1      40.038  29.338  32.803  1.00  0.00    -0.203 F 
ATOM     71  C   UNL A   1      37.957  30.431  32.910  1.00  0.00     0.198 A 
ATOM     72  C   UNL A   1      36.915  31.228  30.900  1.00  0.00     0.198 A 
ATOM     73  F   UNL A   1      37.954  30.885  28.817  1.00  0.00    -0.203 F 
ATOM     74  F   UNL A   1      37.937  30.261  34.239  1.00  0.00    -0.200 F 
ATOM     75  C   UNL A   1      36.904  31.075  32.278  1.00  0.00     0.200 A 
ATOM     76  F   UNL A   1      35.904  31.861  30.290  1.00  0.00    -0.200 F 
ATOM     77  F   UNL A   1      35.877  31.547  32.998  1.00  0.00    -0.200 F 
ENDBRANCH  53  67
BRANCH  54  78
ATOM     78  C   UNL A   1      47.050  27.391  25.425  1.00  0.00     0.064 A 
ATOM     79  C   UNL A   1      47.078  27.674  24.052  1.00  0.00     0.173 A 
ATOM     80  C   UNL A   1      48.163  26.746  25.982  1.00  0.00     0.173 A 
ATOM     81  F   UNL A   1      46.028  28.273  23.470  1.00  0.00    -0.203 F 
ATOM     82  C   UNL A   1      48.171  27.317  23.266  1.00  0.00     0.198 A 
ATOM     83  C   UNL A   1      49.267  26.412  25.199  1.00  0.00     0.198 A 
ATOM     84  F   UNL A   1      48.186  26.456  27.291  1.00  0.00    -0.203 F 
ATOM     85  F   UNL A   1      48.160  27.571  21.950  1.00  0.00    -0.200 F 
ATOM     86  C   UNL A   1      49.268  26.694  23.841  1.00  0.00     0.200 A 
ATOM     87  F   UNL A   1      50.330  25.822  25.762  1.00  0.00    -0.200 F 
ATOM     88  F   UNL A   1      50.324  26.360  23.087  1.00  0.00    -0.200 F 
ENDBRANCH  54  78
BRANCH  66  89
ATOM     89  C   UNL A   1      41.255  24.084  27.466  1.00  0.00     0.064 A 
ATOM     90  C   UNL A   1      40.184  23.818  26.600  1.00  0.00     0.173 A 
ATOM     91  C   UNL A   1      41.898  22.995  28.075  1.00  0.00     0.173 A 
ATOM     92  F   UNL A   1      39.531  24.827  26.004  1.00  0.00    -0.203 F 
ATOM     93  C   UNL A   1      39.769  22.511  26.360  1.00  0.00     0.198 A 
ATOM     94  C   UNL A   1      41.496  21.689  27.811  1.00  0.00     0.198 A 
ATOM     95  F   UNL A   1      42.932  23.198  28.904  1.00  0.00    -0.203 F 
ATOM     96  F   UNL A   1      38.724  22.282  25.553  1.00  0.00    -0.200 F 
ATOM     97  C   UNL A   1      40.431  21.448  26.956  1.00  0.00     0.200 A 
ATOM     98  F   UNL A   1      42.147  20.662  28.375  1.00  0.00    -0.200 F 
ATOM     99  F   UNL A   1      40.039  20.190  26.709  1.00  0.00    -0.200 F 
ENDBRANCH  66  89
ENDBRANCH  40  41
ENDBRANCH  33  35
ENDBRANCH  32  33
ENDBRANCH  31  32
ENDBRANCH   1  31
TORSDOF 13
ENDMDL
MODEL 2
REMARK VINA RESULT:     -13.3      0.405      1.579
REMARK SMILES Cc1ccc(N2C(=O)/C(=C3\C(=O)N(CC(=O)OCCOC(=O)c4ccc(-c5c6nc(c(-c7c(F)c(F)c(F)c(F)c7F)c7ccc([nH]7)c(-c7c(F)c(F)c(F)c(F)c7F)c7nc(c(-c8c(F)c(F)c(F)c(F)c8F)c8ccc5[nH]8)C=C7)C=C6)cc4)c4ccccc43)SC2=S)c(C)c1
REMARK SMILES IDX 18 1 17 2 15 3 16 4 14 5 13 6 6 7 7 8 93 9 8 10 9 11 92 12
REMARK SMILES IDX 94 13 10 14 11 15 91 16 12 17 86 18 90 19 87 20 89 21 88 22
REMARK SMILES IDX 5 23 1 24 2 25 3 26 97 27 4 28 95 29 96 30 19 31 20 32 21 33
REMARK SMILES IDX 22 34 23 35 24 36 85 37 25 38 84 39 26 40 27 41 28 42 78 43
REMARK SMILES IDX 29 44 83 45 77 46 79 47 30 48 82 49 76 50 75 51 31 53 63 54
REMARK SMILES IDX 43 55 62 56 44 57 47 58 61 59 80 60 45 61 46 62 60 64 81 65
REMARK SMILES IDX 48 66 32 67 33 68 41 69 34 70 35 71 39 72 42 73 36 74 37 75
REMARK SMILES IDX 40 76 38 77 64 78 65 79 73 80 66 81 67 82 71 83 74 84 68 85
REMARK SMILES IDX 69 86 72 87 70 88 49 89 50 90 58 91 51 92 52 93 56 94 59 95
REMARK SMILES IDX 53 96 54 97 57 98 55 99
REMARK H PARENT 79 52 47 63
REMARK Flexibility Score: inf
ROOT
ATOM      1  C   UNL A   1      45.211  40.422  26.519  1.00  0.00     0.274 C 
ENDROOT
BRANCH   1   2
ATOM      2  O   UNL A   1      44.724  41.780  26.466  1.00  0.00    -0.461 OA
BRANCH   2   3
ATOM      3  C   UNL A   1      43.899  42.071  25.424  1.00  0.00     0.326 C 
ATOM      4  O   UNL A   1      43.056  41.300  24.971  1.00  0.00    -0.250 OA
BRANCH   3   5
ATOM      5  C   UNL A   1      44.058  43.484  24.870  1.00  0.00     0.248 C 
BRANCH   5   6
ATOM      6  N   UNL A   1      44.912  43.673  23.720  1.00  0.00    -0.296 N 
ATOM      7  N   UNL A   1      44.718  45.341  18.473  1.00  0.00    -0.261 N 
ATOM      8  C   UNL A   1      44.365  44.418  19.462  1.00  0.00     0.271 C 
ATOM      9  C   UNL A   1      46.067  45.434  18.170  1.00  0.00     0.152 C 
ATOM     10  O   UNL A   1      43.237  44.011  19.686  1.00  0.00    -0.268 OA
ATOM     11  C   UNL A   1      45.600  44.023  20.218  1.00  0.00     0.094 C 
ATOM     12  S   UNL A   1      46.955  44.318  19.185  1.00  0.00    -0.053 SA
ATOM     13  S   UNL A   1      46.891  46.469  17.146  1.00  0.00    -0.051 S 
ATOM     14  C   UNL A   1      45.655  43.784  21.540  1.00  0.00     0.069 C 
ATOM     15  C   UNL A   1      44.475  43.456  22.421  1.00  0.00     0.260 C 
ATOM     16  C   UNL A   1      46.796  44.043  22.455  1.00  0.00     0.012 A 
ATOM     17  O   UNL A   1      43.383  43.032  22.099  1.00  0.00    -0.269 OA
ATOM     18  C   UNL A   1      46.261  44.048  23.750  1.00  0.00     0.053 A 
ATOM     19  C   UNL A   1      48.132  44.380  22.268  1.00  0.00     0.011 A 
ATOM     20  C   UNL A   1      47.011  44.429  24.850  1.00  0.00     0.027 A 
ATOM     21  C   UNL A   1      48.903  44.754  23.373  1.00  0.00     0.001 A 
ATOM     22  C   UNL A   1      48.344  44.788  24.654  1.00  0.00     0.002 A 
BRANCH   7  23
ATOM     23  C   UNL A   1      43.723  46.159  17.859  1.00  0.00     0.054 A 
ATOM     24  C   UNL A   1      40.944  48.623  15.642  1.00  0.00     0.044 C 
ATOM     25  C   UNL A   1      41.879  47.751  16.427  1.00  0.00    -0.051 A 
ATOM     26  C   UNL A   1      41.995  46.391  16.151  1.00  0.00     0.005 A 
ATOM     27  C   UNL A   1      42.663  48.306  17.445  1.00  0.00     0.009 A 
ATOM     28  C   UNL A   1      42.901  45.604  16.864  1.00  0.00     0.027 A 
ATOM     29  C   UNL A   1      43.599  47.533  18.160  1.00  0.00    -0.027 A 
ATOM     30  C   UNL A   1      44.431  48.256  19.187  1.00  0.00     0.046 C 
ENDBRANCH   7  23
ENDBRANCH   5   6
ENDBRANCH   3   5
ENDBRANCH   2   3
ENDBRANCH   1   2
BRANCH   1  31
ATOM     31  C   UNL A   1      44.900  39.778  27.868  1.00  0.00     0.275 C 
BRANCH  31  32
ATOM     32  O   UNL A   1      44.798  38.352  27.716  1.00  0.00    -0.458 OA
BRANCH  32  33
ATOM     33  C   UNL A   1      45.792  37.641  28.290  1.00  0.00     0.338 C 
ATOM     34  O   UNL A   1      46.877  38.040  28.674  1.00  0.00    -0.246 OA
BRANCH  33  35
ATOM     35  C   UNL A   1      45.397  36.229  28.375  1.00  0.00     0.060 A 
ATOM     36  C   UNL A   1      44.673  35.682  27.319  1.00  0.00     0.016 A 
ATOM     37  C   UNL A   1      45.824  35.428  29.438  1.00  0.00     0.016 A 
ATOM     38  C   UNL A   1      44.332  34.332  27.353  1.00  0.00     0.010 A 
ATOM     39  C   UNL A   1      45.551  34.060  29.429  1.00  0.00     0.010 A 
ATOM     40  C   UNL A   1      44.771  33.508  28.404  1.00  0.00    -0.014 A 
BRANCH  40  41
ATOM     41  C   UNL A   1      44.362  32.082  28.438  1.00  0.00     0.031 A 
ATOM     42  C   UNL A   1      43.064  31.686  29.084  1.00  0.00     0.074 A 
ATOM     43  C   UNL A   1      45.132  31.153  27.841  1.00  0.00     0.049 A 
ATOM     44  N   UNL A   1      42.466  30.521  29.086  1.00  0.00    -0.248 NA
ATOM     45  C   UNL A   1      42.344  32.728  29.832  1.00  0.00     0.031 C 
ATOM     46  C   UNL A   1      46.433  31.410  27.222  1.00  0.00     0.029 A 
ATOM     47  N   UNL A   1      44.922  29.814  27.633  1.00  0.00    -0.354 N 
ATOM     48  C   UNL A   1      41.298  30.697  29.814  1.00  0.00     0.074 A 
ATOM     49  C   UNL A   1      41.302  32.058  30.302  1.00  0.00     0.031 C 
ATOM     50  C   UNL A   1      46.880  30.278  26.657  1.00  0.00     0.029 A 
ATOM     51  C   UNL A   1      45.908  29.213  26.890  1.00  0.00     0.049 A 
ATOM     52  H   UNL A   1      44.140  29.330  27.984  1.00  0.00     0.167 HD
ATOM     53  C   UNL A   1      40.294  29.815  30.026  1.00  0.00     0.037 A 
ATOM     54  C   UNL A   1      46.005  27.950  26.428  1.00  0.00     0.037 A 
ATOM     55  C   UNL A   1      40.288  28.464  29.532  1.00  0.00     0.049 A 
ATOM     56  C   UNL A   1      44.887  26.980  26.700  1.00  0.00     0.074 A 
ATOM     57  C   UNL A   1      39.298  27.506  29.659  1.00  0.00     0.029 A 
ATOM     58  N   UNL A   1      41.323  27.881  28.819  1.00  0.00    -0.354 N 
ATOM     59  N   UNL A   1      43.752  27.181  27.324  1.00  0.00    -0.248 NA
ATOM     60  C   UNL A   1      45.061  25.610  26.198  1.00  0.00     0.031 C 
ATOM     61  C   UNL A   1      39.755  26.327  29.061  1.00  0.00     0.029 A 
ATOM     62  C   UNL A   1      41.007  26.566  28.520  1.00  0.00     0.049 A 
ATOM     63  H   UNL A   1      42.159  28.334  28.563  1.00  0.00     0.167 HD
ATOM     64  C   UNL A   1      43.068  25.974  27.273  1.00  0.00     0.074 A 
ATOM     65  C   UNL A   1      43.908  25.049  26.540  1.00  0.00     0.031 C 
ATOM     66  C   UNL A   1      41.855  25.659  27.790  1.00  0.00     0.037 A 
BRANCH  53  67
ATOM     67  C   UNL A   1      39.105  30.289  30.807  1.00  0.00     0.064 A 
ATOM     68  C   UNL A   1      38.004  30.881  30.168  1.00  0.00     0.173 A 
ATOM     69  C   UNL A   1      39.034  30.097  32.194  1.00  0.00     0.173 A 
ATOM     70  F   UNL A   1      38.028  31.097  28.844  1.00  0.00    -0.203 F 
ATOM     71  C   UNL A   1      36.884  31.279  30.892  1.00  0.00     0.198 A 
ATOM     72  C   UNL A   1      37.901  30.473  32.912  1.00  0.00     0.198 A 
ATOM     73  F   UNL A   1      40.058  29.532  32.852  1.00  0.00    -0.203 F 
ATOM     74  F   UNL A   1      35.860  31.875  30.266  1.00  0.00    -0.200 F 
ATOM     75  C   UNL A   1      36.830  31.066  32.261  1.00  0.00     0.200 A 
ATOM     76  F   UNL A   1      37.845  30.255  34.232  1.00  0.00    -0.200 F 
ATOM     77  F   UNL A   1      35.745  31.436  32.955  1.00  0.00    -0.200 F 
ENDBRANCH  53  67
BRANCH  54  78
ATOM     78  C   UNL A   1      47.182  27.551  25.615  1.00  0.00     0.064 A 
ATOM     79  C   UNL A   1      48.301  26.957  26.214  1.00  0.00     0.173 A 
ATOM     80  C   UNL A   1      47.206  27.736  24.226  1.00  0.00     0.173 A 
ATOM     81  F   UNL A   1      48.333  26.778  27.543  1.00  0.00    -0.203 F 
ATOM     82  C   UNL A   1      49.404  26.572  25.455  1.00  0.00     0.198 A 
ATOM     83  C   UNL A   1      48.299  27.327  23.464  1.00  0.00     0.198 A 
ATOM     84  F   UNL A   1      46.158  28.297  23.604  1.00  0.00    -0.203 F 
ATOM     85  F   UNL A   1      50.475  26.034  26.057  1.00  0.00    -0.200 F 
ATOM     86  C   UNL A   1      49.400  26.749  24.080  1.00  0.00     0.200 A 
ATOM     87  F   UNL A   1      48.284  27.489  22.134  1.00  0.00    -0.200 F 
ATOM     88  F   UNL A   1      50.456  26.369  23.349  1.00  0.00    -0.200 F 
ENDBRANCH  54  78
BRANCH  66  89
ATOM     89  C   UNL A   1      41.353  24.260  27.584  1.00  0.00     0.064 A 
ATOM     90  C   UNL A   1      40.288  23.990  26.712  1.00  0.00     0.173 A 
ATOM     91  C   UNL A   1      41.993  23.175  28.201  1.00  0.00     0.173 A 
ATOM     92  F   UNL A   1      39.637  24.996  26.109  1.00  0.00    -0.203 F 
ATOM     93  C   UNL A   1      39.875  22.682  26.474  1.00  0.00     0.198 A 
ATOM     94  C   UNL A   1      41.594  21.867  27.938  1.00  0.00     0.198 A 
ATOM     95  F   UNL A   1      43.022  23.381  29.036  1.00  0.00    -0.203 F 
ATOM     96  F   UNL A   1      38.836  22.449  25.661  1.00  0.00    -0.200 F 
ATOM     97  C   UNL A   1      40.534  21.622  27.079  1.00  0.00     0.200 A 
ATOM     98  F   UNL A   1      42.243  20.843  28.511  1.00  0.00    -0.200 F 
ATOM     99  F   UNL A   1      40.146  20.363  26.833  1.00  0.00    -0.200 F 
ENDBRANCH  66  89
ENDBRANCH  40  41
ENDBRANCH  33  35
ENDBRANCH  32  33
ENDBRANCH  31  32
ENDBRANCH   1  31
TORSDOF 13
ENDMDL
MODEL 3
REMARK VINA RESULT:     -13.2      9.603     14.231
REMARK SMILES Cc1ccc(N2C(=O)/C(=C3\C(=O)N(CC(=O)OCCOC(=O)c4ccc(-c5c6nc(c(-c7c(F)c(F)c(F)c(F)c7F)c7ccc([nH]7)c(-c7c(F)c(F)c(F)c(F)c7F)c7nc(c(-c8c(F)c(F)c(F)c(F)c8F)c8ccc5[nH]8)C=C7)C=C6)cc4)c4ccccc43)SC2=S)c(C)c1
REMARK SMILES IDX 18 1 17 2 15 3 16 4 14 5 13 6 6 7 7 8 93 9 8 10 9 11 92 12
REMARK SMILES IDX 94 13 10 14 11 15 91 16 12 17 86 18 90 19 87 20 89 21 88 22
REMARK SMILES IDX 5 23 1 24 2 25 3 26 97 27 4 28 95 29 96 30 19 31 20 32 21 33
REMARK SMILES IDX 22 34 23 35 24 36 85 37 25 38 84 39 26 40 27 41 28 42 78 43
REMARK SMILES IDX 29 44 83 45 77 46 79 47 30 48 82 49 76 50 75 51 31 53 63 54
REMARK SMILES IDX 43 55 62 56 44 57 47 58 61 59 80 60 45 61 46 62 60 64 81 65
REMARK SMILES IDX 48 66 32 67 33 68 41 69 34 70 35 71 39 72 42 73 36 74 37 75
REMARK SMILES IDX 40 76 38 77 64 78 65 79 73 80 66 81 67 82 71 83 74 84 68 85
REMARK SMILES IDX 69 86 72 87 70 88 49 89 50 90 58 91 51 92 52 93 56 94 59 95
REMARK SMILES IDX 53 96 54 97 57 98 55 99
REMARK H PARENT 79 52 47 63
REMARK Flexibility Score: inf
ROOT
ATOM      1  C   UNL A   1      35.440  32.486  30.144  1.00  0.00     0.274 C 
ENDROOT
BRANCH   1   2
ATOM      2  O   UNL A   1      35.403  31.648  31.319  1.00  0.00    -0.461 OA
BRANCH   2   3
ATOM      3  C   UNL A   1      36.319  31.939  32.281  1.00  0.00     0.326 C 
ATOM      4  O   UNL A   1      36.037  32.296  33.423  1.00  0.00    -0.250 OA
BRANCH   3   5
ATOM      5  C   UNL A   1      37.770  31.739  31.851  1.00  0.00     0.248 C 
BRANCH   5   6
ATOM      6  N   UNL A   1      38.776  31.614  32.880  1.00  0.00    -0.296 N 
ATOM      7  N   UNL A   1      42.568  28.084  34.754  1.00  0.00    -0.261 N 
ATOM      8  C   UNL A   1      41.226  28.416  34.537  1.00  0.00     0.271 C 
ATOM      9  C   UNL A   1      43.265  28.884  35.644  1.00  0.00     0.152 C 
ATOM     10  O   UNL A   1      40.393  27.701  34.005  1.00  0.00    -0.268 OA
ATOM     11  C   UNL A   1      40.983  29.804  35.051  1.00  0.00     0.094 C 
ATOM     12  S   UNL A   1      42.195  30.136  36.239  1.00  0.00    -0.053 SA
ATOM     13  S   UNL A   1      44.878  28.886  36.085  1.00  0.00    -0.051 S 
ATOM     14  C   UNL A   1      40.175  30.712  34.476  1.00  0.00     0.069 C 
ATOM     15  C   UNL A   1      39.072  30.405  33.493  1.00  0.00     0.260 C 
ATOM     16  C   UNL A   1      40.346  32.187  34.458  1.00  0.00     0.012 A 
ATOM     17  O   UNL A   1      38.500  29.351  33.300  1.00  0.00    -0.269 OA
ATOM     18  C   UNL A   1      39.539  32.660  33.415  1.00  0.00     0.053 A 
ATOM     19  C   UNL A   1      41.179  33.075  35.131  1.00  0.00     0.011 A 
ATOM     20  C   UNL A   1      39.582  33.979  32.996  1.00  0.00     0.027 A 
ATOM     21  C   UNL A   1      41.221  34.413  34.726  1.00  0.00     0.001 A 
ATOM     22  C   UNL A   1      40.436  34.860  33.660  1.00  0.00     0.002 A 
BRANCH   7  23
ATOM     23  C   UNL A   1      43.168  26.999  34.047  1.00  0.00     0.054 A 
ATOM     24  C   UNL A   1      44.646  23.720  31.646  1.00  0.00     0.044 C 
ATOM     25  C   UNL A   1      44.169  24.871  32.481  1.00  0.00    -0.051 A 
ATOM     26  C   UNL A   1      44.151  26.168  31.974  1.00  0.00     0.005 A 
ATOM     27  C   UNL A   1      43.717  24.646  33.787  1.00  0.00     0.009 A 
ATOM     28  C   UNL A   1      43.663  27.220  32.751  1.00  0.00     0.027 A 
ATOM     29  C   UNL A   1      43.200  25.691  34.578  1.00  0.00    -0.027 A 
ATOM     30  C   UNL A   1      42.683  25.315  35.943  1.00  0.00     0.046 C 
ENDBRANCH   7  23
ENDBRANCH   5   6
ENDBRANCH   3   5
ENDBRANCH   2   3
ENDBRANCH   1   2
BRANCH   1  31
ATOM     31  C   UNL A   1      34.458  31.992  29.085  1.00  0.00     0.275 C 
BRANCH  31  32
ATOM     32  O   UNL A   1      35.180  31.481  27.951  1.00  0.00    -0.458 OA
BRANCH  32  33
ATOM     33  C   UNL A   1      35.274  30.135  27.889  1.00  0.00     0.338 C 
ATOM     34  O   UNL A   1      34.397  29.331  27.626  1.00  0.00    -0.246 OA
BRANCH  33  35
ATOM     35  C   UNL A   1      36.642  29.724  28.229  1.00  0.00     0.060 A 
ATOM     36  C   UNL A   1      37.666  30.037  27.339  1.00  0.00     0.016 A 
ATOM     37  C   UNL A   1      36.926  29.124  29.459  1.00  0.00     0.016 A 
ATOM     38  C   UNL A   1      38.979  29.703  27.664  1.00  0.00     0.010 A 
ATOM     39  C   UNL A   1      38.249  28.865  29.817  1.00  0.00     0.010 A 
ATOM     40  C   UNL A   1      39.283  29.119  28.906  1.00  0.00    -0.014 A 
BRANCH  40  41
ATOM     41  C   UNL A   1      40.683  28.736  29.213  1.00  0.00     0.031 A 
ATOM     42  C   UNL A   1      41.226  27.419  28.736  1.00  0.00     0.074 A 
ATOM     43  C   UNL A   1      41.480  29.597  29.873  1.00  0.00     0.049 A 
ATOM     44  N   UNL A   1      42.456  26.970  28.776  1.00  0.00    -0.248 NA
ATOM     45  C   UNL A   1      40.265  26.475  28.143  1.00  0.00     0.031 C 
ATOM     46  C   UNL A   1      41.054  30.885  30.424  1.00  0.00     0.029 A 
ATOM     47  N   UNL A   1      42.818  29.534  30.169  1.00  0.00    -0.354 N 
ATOM     48  C   UNL A   1      42.416  25.708  28.199  1.00  0.00     0.074 A 
ATOM     49  C   UNL A   1      41.034  25.428  27.882  1.00  0.00     0.031 C 
ATOM     50  C   UNL A   1      42.121  31.513  30.943  1.00  0.00     0.029 A 
ATOM     51  C   UNL A   1      43.300  30.666  30.779  1.00  0.00     0.049 A 
ATOM     52  H   UNL A   1      43.379  28.751  29.964  1.00  0.00     0.167 HD
ATOM     53  C   UNL A   1      43.446  24.874  27.924  1.00  0.00     0.037 A 
ATOM     54  C   UNL A   1      44.555  30.993  31.143  1.00  0.00     0.037 A 
ATOM     55  C   UNL A   1      44.821  25.159  28.231  1.00  0.00     0.049 A 
ATOM     56  C   UNL A   1      45.679  30.036  30.850  1.00  0.00     0.074 A 
ATOM     57  C   UNL A   1      45.941  24.395  27.954  1.00  0.00     0.029 A 
ATOM     58  N   UNL A   1      45.263  26.298  28.886  1.00  0.00    -0.354 N 
ATOM     59  N   UNL A   1      45.640  28.879  30.234  1.00  0.00    -0.248 NA
ATOM     60  C   UNL A   1      47.022  30.432  31.296  1.00  0.00     0.031 C 
ATOM     61  C   UNL A   1      47.057  25.051  28.483  1.00  0.00     0.029 A 
ATOM     62  C   UNL A   1      46.638  26.246  29.046  1.00  0.00     0.049 A 
ATOM     63  H   UNL A   1      44.686  27.034  29.192  1.00  0.00     0.167 HD
ATOM     64  C   UNL A   1      46.950  28.419  30.200  1.00  0.00     0.074 A 
ATOM     65  C   UNL A   1      47.764  29.431  30.841  1.00  0.00     0.031 C 
ATOM     66  C   UNL A   1      47.433  27.261  29.687  1.00  0.00     0.037 A 
BRANCH  53  67
ATOM     67  C   UNL A   1      43.127  23.581  27.233  1.00  0.00     0.064 A 
ATOM     68  C   UNL A   1      43.413  23.394  25.872  1.00  0.00     0.173 A 
ATOM     69  C   UNL A   1      42.589  22.500  27.947  1.00  0.00     0.173 A 
ATOM     70  F   UNL A   1      43.916  24.401  25.143  1.00  0.00    -0.203 F 
ATOM     71  C   UNL A   1      43.156  22.178  25.247  1.00  0.00     0.198 A 
ATOM     72  C   UNL A   1      42.359  21.276  27.325  1.00  0.00     0.198 A 
ATOM     73  F   UNL A   1      42.303  22.627  29.251  1.00  0.00    -0.203 F 
ATOM     74  F   UNL A   1      43.403  22.033  23.938  1.00  0.00    -0.200 F 
ATOM     75  C   UNL A   1      42.638  21.117  25.976  1.00  0.00     0.200 A 
ATOM     76  F   UNL A   1      41.870  20.249  28.032  1.00  0.00    -0.200 F 
ATOM     77  F   UNL A   1      42.405  19.941  25.376  1.00  0.00    -0.200 F 
ENDBRANCH  53  67
BRANCH  54  78
ATOM     78  C   UNL A   1      44.819  32.310  31.776  1.00  0.00     0.064 A 
ATOM     79  C   UNL A   1      45.268  33.397  31.014  1.00  0.00     0.173 A 
ATOM     80  C   UNL A   1      44.610  32.516  33.147  1.00  0.00     0.173 A 
ATOM     81  F   UNL A   1      45.502  33.244  29.702  1.00  0.00    -0.203 F 
ATOM     82  C   UNL A   1      45.508  34.638  31.601  1.00  0.00     0.198 A 
ATOM     83  C   UNL A   1      44.826  33.764  33.728  1.00  0.00     0.198 A 
ATOM     84  F   UNL A   1      44.178  31.508  33.919  1.00  0.00    -0.203 F 
ATOM     85  F   UNL A   1      45.967  35.653  30.855  1.00  0.00    -0.200 F 
ATOM     86  C   UNL A   1      45.279  34.823  32.955  1.00  0.00     0.200 A 
ATOM     87  F   UNL A   1      44.590  33.941  35.036  1.00  0.00    -0.200 F 
ATOM     88  F   UNL A   1      45.499  36.019  33.518  1.00  0.00    -0.200 F 
ENDBRANCH  54  78
BRANCH  66  89
ATOM     89  C   UNL A   1      48.910  27.018  29.789  1.00  0.00     0.064 A 
ATOM     90  C   UNL A   1      49.799  27.514  28.823  1.00  0.00     0.173 A 
ATOM     91  C   UNL A   1      49.448  26.355  30.902  1.00  0.00     0.173 A 
ATOM     92  F   UNL A   1      49.331  28.144  27.736  1.00  0.00    -0.203 F 
ATOM     93  C   UNL A   1      51.173  27.343  28.964  1.00  0.00     0.198 A 
ATOM     94  C   UNL A   1      50.824  26.210  31.052  1.00  0.00     0.198 A 
ATOM     95  F   UNL A   1      48.640  25.871  31.857  1.00  0.00    -0.203 F 
ATOM     96  F   UNL A   1      52.002  27.797  28.014  1.00  0.00    -0.200 F 
ATOM     97  C   UNL A   1      51.685  26.701  30.082  1.00  0.00     0.200 A 
ATOM     98  F   UNL A   1      51.318  25.604  32.141  1.00  0.00    -0.200 F 
ATOM     99  F   UNL A   1      53.010  26.554  30.223  1.00  0.00    -0.200 F 
ENDBRANCH  66  89
ENDBRANCH  40  41
ENDBRANCH  33  35
ENDBRANCH  32  33
ENDBRANCH  31  32
ENDBRANCH   1  31
TORSDOF 13
ENDMDL
