MODEL 1
REMARK VINA RESULT:     -11.5      0.000      0.000
REMARK SMILES C[C@@H]1CCN(c2cncc(C(=O)OCCOC(=O)c3ccc(-c4c5nc(c(-c6c(F)c(F)c(F)c(F)c6F)c6ccc([nH]6)c(-c6c(F)c(F)c(F)c(F)c6F)c6nc(c(-c7c(F)c(F)c(F)c(F)c7F)c7ccc4[nH]7)C=C6)C=C5)cc3)n2)[C@H](C)C1
REMARK SMILES IDX 15 1 14 2 13 3 11 4 12 5 10 6 6 7 7 8 82 9 8 10 9 11 5 12
REMARK SMILES IDX 1 13 2 14 3 15 85 16 4 17 83 18 84 19 16 20 17 21 18 22
REMARK SMILES IDX 19 23 20 24 81 25 21 26 80 27 22 28 23 29 24 30 74 31 25 32
REMARK SMILES IDX 79 33 73 34 75 35 26 36 78 37 72 38 71 39 27 41 59 42 39 43
REMARK SMILES IDX 58 44 40 45 43 46 57 47 76 48 41 49 42 50 56 52 77 53 44 54
REMARK SMILES IDX 28 55 29 56 37 57 30 58 31 59 35 60 38 61 32 62 33 63 36 64
REMARK SMILES IDX 34 65 60 66 61 67 69 68 62 69 63 70 67 71 70 72 64 73 65 74
REMARK SMILES IDX 68 75 66 76 45 77 46 78 54 79 47 80 48 81 52 82 55 83 49 84
REMARK SMILES IDX 50 85 53 86 51 87
REMARK H PARENT 75 40 43 51
REMARK Flexibility Score: inf
ROOT
ATOM      1  C   UNL A   1      40.877  21.177  27.159  1.00  0.00     0.275 C 
ENDROOT
BRANCH   1   2
ATOM      2  C   UNL A   1      40.682  19.843  26.438  1.00  0.00     0.275 C 
BRANCH   2   3
ATOM      3  O   UNL A   1      41.651  19.685  25.382  1.00  0.00    -0.457 OA
BRANCH   3   4
ATOM      4  C   UNL A   1      42.713  18.880  25.653  1.00  0.00     0.358 C 
ATOM      5  O   UNL A   1      42.666  17.706  25.974  1.00  0.00    -0.244 OA
BRANCH   4   6
ATOM      6  C   UNL A   1      43.988  19.584  25.375  1.00  0.00     0.169 A 
ATOM      7  C   UNL A   1      45.173  21.518  24.953  1.00  0.00     0.148 A 
ATOM      8  C   UNL A   1      46.301  20.718  24.723  1.00  0.00     0.157 A 
ATOM      9  N   UNL A   1      43.990  20.935  25.262  1.00  0.00    -0.221 NA
ATOM     10  N   UNL A   1      46.322  19.369  24.864  1.00  0.00    -0.258 NA
ATOM     11  C   UNL A   1      45.140  18.828  25.225  1.00  0.00     0.147 A 
BRANCH   7  12
ATOM     12  N   UNL A   1      45.232  22.895  24.967  1.00  0.00    -0.353 N 
ATOM     13  C   UNL A   1      45.874  26.465  25.901  1.00  0.00     0.008 C 
ATOM     14  C   UNL A   1      46.234  25.118  26.531  1.00  0.00    -0.011 C 
ATOM     15  C   UNL A   1      47.144  24.279  25.621  1.00  0.00     0.025 C 
ATOM     16  C   UNL A   1      44.999  24.306  26.956  1.00  0.00     0.028 C 
ATOM     17  C   UNL A   1      46.380  23.635  24.465  1.00  0.00     0.118 C 
ATOM     18  C   UNL A   1      44.257  23.577  25.822  1.00  0.00     0.081 C 
ATOM     19  C   UNL A   1      43.334  24.469  25.001  1.00  0.00     0.031 C 
ENDBRANCH   7  12
ENDBRANCH   4   6
ENDBRANCH   3   4
ENDBRANCH   2   3
ENDBRANCH   1   2
BRANCH   1  20
ATOM     20  O   UNL A   1      40.600  22.258  26.248  1.00  0.00    -0.458 OA
BRANCH  20  21
ATOM     21  C   UNL A   1      39.387  22.835  26.358  1.00  0.00     0.338 C 
ATOM     22  O   UNL A   1      38.296  22.351  26.075  1.00  0.00    -0.246 OA
BRANCH  21  23
ATOM     23  C   UNL A   1      39.534  24.188  26.916  1.00  0.00     0.060 A 
ATOM     24  C   UNL A   1      40.057  25.200  26.117  1.00  0.00     0.016 A 
ATOM     25  C   UNL A   1      39.278  24.426  28.265  1.00  0.00     0.016 A 
ATOM     26  C   UNL A   1      40.415  26.425  26.674  1.00  0.00     0.010 A 
ATOM     27  C   UNL A   1      39.545  25.690  28.804  1.00  0.00     0.010 A 
ATOM     28  C   UNL A   1      40.157  26.692  28.026  1.00  0.00    -0.014 A 
BRANCH  28  29
ATOM     29  C   UNL A   1      40.580  27.985  28.634  1.00  0.00     0.031 A 
ATOM     30  C   UNL A   1      42.037  28.246  28.913  1.00  0.00     0.074 A 
ATOM     31  C   UNL A   1      39.676  28.944  28.917  1.00  0.00     0.049 A 
ATOM     32  N   UNL A   1      42.594  29.222  29.588  1.00  0.00    -0.248 NA
ATOM     33  C   UNL A   1      42.996  27.269  28.374  1.00  0.00     0.031 C 
ATOM     34  C   UNL A   1      38.241  28.862  28.650  1.00  0.00     0.029 A 
ATOM     35  N   UNL A   1      39.837  30.189  29.476  1.00  0.00    -0.354 N 
ATOM     36  C   UNL A   1      43.953  28.938  29.614  1.00  0.00     0.074 A 
ATOM     37  C   UNL A   1      44.140  27.703  28.883  1.00  0.00     0.031 C 
ATOM     38  C   UNL A   1      37.661  30.023  28.992  1.00  0.00     0.029 A 
ATOM     39  C   UNL A   1      38.666  30.898  29.587  1.00  0.00     0.049 A 
ATOM     40  H   UNL A   1      40.710  30.539  29.770  1.00  0.00     0.167 HD
ATOM     41  C   UNL A   1      44.954  29.642  30.197  1.00  0.00     0.037 A 
ATOM     42  C   UNL A   1      38.419  32.103  30.136  1.00  0.00     0.037 A 
ATOM     43  C   UNL A   1      44.779  30.910  30.857  1.00  0.00     0.049 A 
ATOM     44  C   UNL A   1      39.538  32.859  30.792  1.00  0.00     0.074 A 
ATOM     45  C   UNL A   1      45.737  31.713  31.454  1.00  0.00     0.029 A 
ATOM     46  N   UNL A   1      43.567  31.570  30.989  1.00  0.00    -0.354 N 
ATOM     47  N   UNL A   1      40.808  32.547  30.878  1.00  0.00    -0.248 NA
ATOM     48  C   UNL A   1      39.183  34.121  31.456  1.00  0.00     0.031 C 
ATOM     49  C   UNL A   1      45.097  32.845  31.974  1.00  0.00     0.029 A 
ATOM     50  C   UNL A   1      43.748  32.764  31.669  1.00  0.00     0.049 A 
ATOM     51  H   UNL A   1      42.704  31.239  30.650  1.00  0.00     0.167 HD
ATOM     52  C   UNL A   1      41.405  33.571  31.598  1.00  0.00     0.074 A 
ATOM     53  C   UNL A   1      40.362  34.527  31.909  1.00  0.00     0.031 C 
ATOM     54  C   UNL A   1      42.701  33.703  31.974  1.00  0.00     0.037 A 
BRANCH  41  55
ATOM     55  C   UNL A   1      46.325  29.031  30.185  1.00  0.00     0.064 A 
ATOM     56  C   UNL A   1      46.803  28.247  31.243  1.00  0.00     0.173 A 
ATOM     57  C   UNL A   1      47.170  29.232  29.082  1.00  0.00     0.173 A 
ATOM     58  F   UNL A   1      46.041  28.037  32.327  1.00  0.00    -0.203 F 
ATOM     59  C   UNL A   1      48.089  27.711  31.212  1.00  0.00     0.198 A 
ATOM     60  C   UNL A   1      48.444  28.671  29.042  1.00  0.00     0.198 A 
ATOM     61  F   UNL A   1      46.758  29.970  28.040  1.00  0.00    -0.203 F 
ATOM     62  F   UNL A   1      48.546  27.007  32.258  1.00  0.00    -0.200 F 
ATOM     63  C   UNL A   1      48.906  27.919  30.111  1.00  0.00     0.200 A 
ATOM     64  F   UNL A   1      49.226  28.865  27.970  1.00  0.00    -0.200 F 
ATOM     65  F   UNL A   1      50.142  27.404  30.083  1.00  0.00    -0.200 F 
ENDBRANCH  41  55
BRANCH  42  66
ATOM     66  C   UNL A   1      37.040  32.655  30.106  1.00  0.00     0.064 A 
ATOM     67  C   UNL A   1      36.152  32.421  31.164  1.00  0.00     0.173 A 
ATOM     68  C   UNL A   1      36.592  33.448  29.040  1.00  0.00     0.173 A 
ATOM     69  F   UNL A   1      36.525  31.644  32.192  1.00  0.00    -0.203 F 
ATOM     70  C   UNL A   1      34.869  32.963  31.158  1.00  0.00     0.198 A 
ATOM     71  C   UNL A   1      35.320  34.013  29.048  1.00  0.00     0.198 A 
ATOM     72  F   UNL A   1      37.404  33.698  28.001  1.00  0.00    -0.203 F 
ATOM     73  F   UNL A   1      34.029  32.704  32.170  1.00  0.00    -0.200 F 
ATOM     74  C   UNL A   1      34.458  33.768  30.106  1.00  0.00     0.200 A 
ATOM     75  F   UNL A   1      34.932  34.799  28.035  1.00  0.00    -0.200 F 
ATOM     76  F   UNL A   1      33.230  34.304  30.109  1.00  0.00    -0.200 F 
ENDBRANCH  42  66
BRANCH  54  77
ATOM     77  C   UNL A   1      43.064  34.935  32.747  1.00  0.00     0.064 A 
ATOM     78  C   UNL A   1      43.448  36.119  32.100  1.00  0.00     0.173 A 
ATOM     79  C   UNL A   1      42.998  34.941  34.149  1.00  0.00     0.173 A 
ATOM     80  F   UNL A   1      43.543  36.156  30.762  1.00  0.00    -0.203 F 
ATOM     81  C   UNL A   1      43.776  37.258  32.830  1.00  0.00     0.198 A 
ATOM     82  C   UNL A   1      43.304  36.089  34.874  1.00  0.00     0.198 A 
ATOM     83  F   UNL A   1      42.632  33.834  34.813  1.00  0.00    -0.203 F 
ATOM     84  F   UNL A   1      44.181  38.366  32.194  1.00  0.00    -0.200 F 
ATOM     85  C   UNL A   1      43.699  37.244  34.215  1.00  0.00     0.200 A 
ATOM     86  F   UNL A   1      43.222  36.076  36.212  1.00  0.00    -0.200 F 
ATOM     87  F   UNL A   1      44.013  38.342  34.916  1.00  0.00    -0.200 F 
ENDBRANCH  54  77
ENDBRANCH  28  29
ENDBRANCH  21  23
ENDBRANCH  20  21
ENDBRANCH   1  20
TORSDOF 12
ENDMDL
MODEL 2
REMARK VINA RESULT:     -11.4      4.302     11.859
REMARK SMILES C[C@@H]1CCN(c2cncc(C(=O)OCCOC(=O)c3ccc(-c4c5nc(c(-c6c(F)c(F)c(F)c(F)c6F)c6ccc([nH]6)c(-c6c(F)c(F)c(F)c(F)c6F)c6nc(c(-c7c(F)c(F)c(F)c(F)c7F)c7ccc4[nH]7)C=C6)C=C5)cc3)n2)[C@H](C)C1
REMARK SMILES IDX 15 1 14 2 13 3 11 4 12 5 10 6 6 7 7 8 82 9 8 10 9 11 5 12
REMARK SMILES IDX 1 13 2 14 3 15 85 16 4 17 83 18 84 19 16 20 17 21 18 22
REMARK SMILES IDX 19 23 20 24 81 25 21 26 80 27 22 28 23 29 24 30 74 31 25 32
REMARK SMILES IDX 79 33 73 34 75 35 26 36 78 37 72 38 71 39 27 41 59 42 39 43
REMARK SMILES IDX 58 44 40 45 43 46 57 47 76 48 41 49 42 50 56 52 77 53 44 54
REMARK SMILES IDX 28 55 29 56 37 57 30 58 31 59 35 60 38 61 32 62 33 63 36 64
REMARK SMILES IDX 34 65 60 66 61 67 69 68 62 69 63 70 67 71 70 72 64 73 65 74
REMARK SMILES IDX 68 75 66 76 45 77 46 78 54 79 47 80 48 81 52 82 55 83 49 84
REMARK SMILES IDX 50 85 53 86 51 87
REMARK H PARENT 75 40 43 51
REMARK Flexibility Score: inf
ROOT
ATOM      1  C   UNL A   1      34.310  33.061  28.694  1.00  0.00     0.275 C 
ENDROOT
BRANCH   1   2
ATOM      2  C   UNL A   1      33.324  34.126  28.214  1.00  0.00     0.275 C 
BRANCH   2   3
ATOM      3  O   UNL A   1      32.646  34.736  29.330  1.00  0.00    -0.457 OA
BRANCH   3   4
ATOM      4  C   UNL A   1      33.026  36.003  29.647  1.00  0.00     0.358 C 
ATOM      5  O   UNL A   1      32.876  36.996  28.958  1.00  0.00    -0.244 OA
BRANCH   4   6
ATOM      6  C   UNL A   1      33.544  36.063  31.035  1.00  0.00     0.169 A 
ATOM      7  C   UNL A   1      34.596  35.082  32.839  1.00  0.00     0.148 A 
ATOM      8  C   UNL A   1      34.288  36.231  33.580  1.00  0.00     0.157 A 
ATOM      9  N   UNL A   1      34.195  34.990  31.548  1.00  0.00    -0.221 NA
ATOM     10  N   UNL A   1      33.667  37.325  33.072  1.00  0.00    -0.258 NA
ATOM     11  C   UNL A   1      33.329  37.219  31.770  1.00  0.00     0.147 A 
BRANCH   7  12
ATOM     12  N   UNL A   1      35.378  34.064  33.341  1.00  0.00    -0.353 N 
ATOM     13  C   UNL A   1      38.231  32.024  34.655  1.00  0.00     0.008 C 
ATOM     14  C   UNL A   1      38.074  33.485  34.228  1.00  0.00    -0.011 C 
ATOM     15  C   UNL A   1      37.065  34.238  35.108  1.00  0.00     0.025 C 
ATOM     16  C   UNL A   1      37.715  33.640  32.741  1.00  0.00     0.028 C 
ATOM     17  C   UNL A   1      35.617  33.890  34.766  1.00  0.00     0.118 C 
ATOM     18  C   UNL A   1      36.243  33.376  32.378  1.00  0.00     0.081 C 
ATOM     19  C   UNL A   1      35.879  31.901  32.269  1.00  0.00     0.031 C 
ENDBRANCH   7  12
ENDBRANCH   4   6
ENDBRANCH   3   4
ENDBRANCH   2   3
ENDBRANCH   1   2
BRANCH   1  20
ATOM     20  O   UNL A   1      34.706  32.237  27.579  1.00  0.00    -0.458 OA
BRANCH  20  21
ATOM     21  C   UNL A   1      34.495  30.912  27.713  1.00  0.00     0.338 C 
ATOM     22  O   UNL A   1      33.444  30.299  27.559  1.00  0.00    -0.246 OA
BRANCH  21  23
ATOM     23  C   UNL A   1      35.759  30.247  28.062  1.00  0.00     0.060 A 
ATOM     24  C   UNL A   1      35.893  29.657  29.316  1.00  0.00     0.016 A 
ATOM     25  C   UNL A   1      36.854  30.317  27.203  1.00  0.00     0.016 A 
ATOM     26  C   UNL A   1      37.138  29.218  29.759  1.00  0.00     0.010 A 
ATOM     27  C   UNL A   1      38.083  29.785  27.610  1.00  0.00     0.010 A 
ATOM     28  C   UNL A   1      38.252  29.268  28.909  1.00  0.00    -0.014 A 
BRANCH  28  29
ATOM     29  C   UNL A   1      39.594  28.841  29.396  1.00  0.00     0.031 A 
ATOM     30  C   UNL A   1      40.288  29.626  30.478  1.00  0.00     0.074 A 
ATOM     31  C   UNL A   1      40.190  27.739  28.901  1.00  0.00     0.049 A 
ATOM     32  N   UNL A   1      41.519  29.528  30.920  1.00  0.00    -0.248 NA
ATOM     33  C   UNL A   1      39.498  30.674  31.142  1.00  0.00     0.031 C 
ATOM     34  C   UNL A   1      39.619  26.844  27.895  1.00  0.00     0.029 A 
ATOM     35  N   UNL A   1      41.408  27.171  29.194  1.00  0.00    -0.354 N 
ATOM     36  C   UNL A   1      41.668  30.542  31.857  1.00  0.00     0.074 A 
ATOM     37  C   UNL A   1      40.402  31.242  31.926  1.00  0.00     0.031 C 
ATOM     38  C   UNL A   1      40.454  25.814  27.695  1.00  0.00     0.029 A 
ATOM     39  C   UNL A   1      41.662  26.020  28.488  1.00  0.00     0.049 A 
ATOM     40  H   UNL A   1      42.038  27.554  29.846  1.00  0.00     0.167 HD
ATOM     41  C   UNL A   1      42.762  30.863  32.590  1.00  0.00     0.037 A 
ATOM     42  C   UNL A   1      42.756  25.236  28.454  1.00  0.00     0.037 A 
ATOM     43  C   UNL A   1      43.995  30.120  32.578  1.00  0.00     0.049 A 
ATOM     44  C   UNL A   1      43.964  25.619  29.261  1.00  0.00     0.074 A 
ATOM     45  C   UNL A   1      45.150  30.350  33.308  1.00  0.00     0.029 A 
ATOM     46  N   UNL A   1      44.227  28.987  31.812  1.00  0.00    -0.354 N 
ATOM     47  N   UNL A   1      44.122  26.623  30.087  1.00  0.00    -0.248 NA
ATOM     48  C   UNL A   1      45.157  24.774  29.105  1.00  0.00     0.031 C 
ATOM     49  C   UNL A   1      46.091  29.374  32.958  1.00  0.00     0.029 A 
ATOM     50  C   UNL A   1      45.510  28.515  32.039  1.00  0.00     0.049 A 
ATOM     51  H   UNL A   1      43.576  28.580  31.196  1.00  0.00     0.167 HD
ATOM     52  C   UNL A   1      45.425  26.532  30.554  1.00  0.00     0.074 A 
ATOM     53  C   UNL A   1      46.011  25.360  29.934  1.00  0.00     0.031 C 
ATOM     54  C   UNL A   1      46.080  27.351  31.413  1.00  0.00     0.037 A 
BRANCH  41  55
ATOM     55  C   UNL A   1      42.687  32.100  33.436  1.00  0.00     0.064 A 
ATOM     56  C   UNL A   1      42.153  32.089  34.732  1.00  0.00     0.173 A 
ATOM     57  C   UNL A   1      43.174  33.319  32.936  1.00  0.00     0.173 A 
ATOM     58  F   UNL A   1      41.661  30.954  35.250  1.00  0.00    -0.203 F 
ATOM     59  C   UNL A   1      42.079  33.259  35.485  1.00  0.00     0.198 A 
ATOM     60  C   UNL A   1      43.124  34.481  33.703  1.00  0.00     0.198 A 
ATOM     61  F   UNL A   1      43.702  33.383  31.705  1.00  0.00    -0.203 F 
ATOM     62  F   UNL A   1      41.516  33.237  36.701  1.00  0.00    -0.200 F 
ATOM     63  C   UNL A   1      42.568  34.452  34.972  1.00  0.00     0.200 A 
ATOM     64  F   UNL A   1      43.609  35.628  33.209  1.00  0.00    -0.200 F 
ATOM     65  F   UNL A   1      42.496  35.576  35.698  1.00  0.00    -0.200 F 
ENDBRANCH  41  55
BRANCH  42  66
ATOM     66  C   UNL A   1      42.762  24.019  27.601  1.00  0.00     0.064 A 
ATOM     67  C   UNL A   1      43.123  24.093  26.250  1.00  0.00     0.173 A 
ATOM     68  C   UNL A   1      42.437  22.759  28.124  1.00  0.00     0.173 A 
ATOM     69  F   UNL A   1      43.413  25.281  25.698  1.00  0.00    -0.203 F 
ATOM     70  C   UNL A   1      43.162  22.951  25.454  1.00  0.00     0.198 A 
ATOM     71  C   UNL A   1      42.505  21.614  27.335  1.00  0.00     0.198 A 
ATOM     72  F   UNL A   1      42.081  22.637  29.412  1.00  0.00    -0.203 F 
ATOM     73  F   UNL A   1      43.486  23.051  24.157  1.00  0.00    -0.200 F 
ATOM     74  C   UNL A   1      42.864  21.711  25.999  1.00  0.00     0.200 A 
ATOM     75  F   UNL A   1      42.228  20.417  27.869  1.00  0.00    -0.200 F 
ATOM     76  F   UNL A   1      42.920  20.610  25.237  1.00  0.00    -0.200 F 
ENDBRANCH  42  66
BRANCH  54  77
ATOM     77  C   UNL A   1      47.497  26.995  31.747  1.00  0.00     0.064 A 
ATOM     78  C   UNL A   1      47.801  26.063  32.751  1.00  0.00     0.173 A 
ATOM     79  C   UNL A   1      48.562  27.569  31.036  1.00  0.00     0.173 A 
ATOM     80  F   UNL A   1      46.817  25.502  33.469  1.00  0.00    -0.203 F 
ATOM     81  C   UNL A   1      49.122  25.737  33.046  1.00  0.00     0.198 A 
ATOM     82  C   UNL A   1      49.880  27.222  31.319  1.00  0.00     0.198 A 
ATOM     83  F   UNL A   1      48.321  28.462  30.064  1.00  0.00    -0.203 F 
ATOM     84  F   UNL A   1      49.391  24.876  34.037  1.00  0.00    -0.200 F 
ATOM     85  C   UNL A   1      50.159  26.312  32.327  1.00  0.00     0.200 A 
ATOM     86  F   UNL A   1      50.880  27.774  30.618  1.00  0.00    -0.200 F 
ATOM     87  F   UNL A   1      51.429  25.995  32.612  1.00  0.00    -0.200 F 
ENDBRANCH  54  77
ENDBRANCH  28  29
ENDBRANCH  21  23
ENDBRANCH  20  21
ENDBRANCH   1  20
TORSDOF 12
ENDMDL
MODEL 3
REMARK VINA RESULT:     -11.4      6.396     11.366
REMARK SMILES C[C@@H]1CCN(c2cncc(C(=O)OCCOC(=O)c3ccc(-c4c5nc(c(-c6c(F)c(F)c(F)c(F)c6F)c6ccc([nH]6)c(-c6c(F)c(F)c(F)c(F)c6F)c6nc(c(-c7c(F)c(F)c(F)c(F)c7F)c7ccc4[nH]7)C=C6)C=C5)cc3)n2)[C@H](C)C1
REMARK SMILES IDX 15 1 14 2 13 3 11 4 12 5 10 6 6 7 7 8 82 9 8 10 9 11 5 12
REMARK SMILES IDX 1 13 2 14 3 15 85 16 4 17 83 18 84 19 16 20 17 21 18 22
REMARK SMILES IDX 19 23 20 24 81 25 21 26 80 27 22 28 23 29 24 30 74 31 25 32
REMARK SMILES IDX 79 33 73 34 75 35 26 36 78 37 72 38 71 39 27 41 59 42 39 43
REMARK SMILES IDX 58 44 40 45 43 46 57 47 76 48 41 49 42 50 56 52 77 53 44 54
REMARK SMILES IDX 28 55 29 56 37 57 30 58 31 59 35 60 38 61 32 62 33 63 36 64
REMARK SMILES IDX 34 65 60 66 61 67 69 68 62 69 63 70 67 71 70 72 64 73 65 74
REMARK SMILES IDX 68 75 66 76 45 77 46 78 54 79 47 80 48 81 52 82 55 83 49 84
REMARK SMILES IDX 50 85 53 86 51 87
REMARK H PARENT 75 40 43 51
REMARK Flexibility Score: inf
ROOT
ATOM      1  C   UNL A   1      32.972  35.996  29.739  1.00  0.00     0.275 C 
ENDROOT
BRANCH   1   2
ATOM      2  C   UNL A   1      33.150  35.015  28.579  1.00  0.00     0.275 C 
BRANCH   2   3
ATOM      3  O   UNL A   1      33.560  33.720  29.062  1.00  0.00    -0.457 OA
BRANCH   3   4
ATOM      4  C   UNL A   1      34.892  33.450  29.004  1.00  0.00     0.358 C 
ATOM      5  O   UNL A   1      35.783  34.092  29.529  1.00  0.00    -0.244 OA
BRANCH   4   6
ATOM      6  C   UNL A   1      35.134  32.159  28.315  1.00  0.00     0.169 A 
ATOM      7  C   UNL A   1      34.359  30.266  27.249  1.00  0.00     0.148 A 
ATOM      8  C   UNL A   1      35.678  29.791  27.240  1.00  0.00     0.157 A 
ATOM      9  N   UNL A   1      34.082  31.463  27.819  1.00  0.00    -0.221 NA
ATOM     10  N   UNL A   1      36.745  30.489  27.703  1.00  0.00    -0.258 NA
ATOM     11  C   UNL A   1      36.439  31.700  28.215  1.00  0.00     0.147 A 
BRANCH   7  12
ATOM     12  N   UNL A   1      33.329  29.603  26.616  1.00  0.00    -0.353 N 
ATOM     13  C   UNL A   1      30.807  27.050  25.543  1.00  0.00     0.008 C 
ATOM     14  C   UNL A   1      31.885  27.092  26.629  1.00  0.00    -0.011 C 
ATOM     15  C   UNL A   1      31.620  28.196  27.664  1.00  0.00     0.025 C 
ATOM     16  C   UNL A   1      33.307  27.218  26.057  1.00  0.00     0.028 C 
ATOM     17  C   UNL A   1      31.971  29.587  27.137  1.00  0.00     0.118 C 
ATOM     18  C   UNL A   1      33.718  28.627  25.594  1.00  0.00     0.081 C 
ATOM     19  C   UNL A   1      33.178  29.020  24.225  1.00  0.00     0.031 C 
ENDBRANCH   7  12
ENDBRANCH   4   6
ENDBRANCH   3   4
ENDBRANCH   2   3
ENDBRANCH   1   2
BRANCH   1  20
ATOM     20  O   UNL A   1      32.419  35.300  30.873  1.00  0.00    -0.458 OA
BRANCH  20  21
ATOM     21  C   UNL A   1      32.683  35.830  32.084  1.00  0.00     0.338 C 
ATOM     22  O   UNL A   1      32.080  36.732  32.658  1.00  0.00    -0.246 OA
BRANCH  21  23
ATOM     23  C   UNL A   1      33.835  35.140  32.683  1.00  0.00     0.060 A 
ATOM     24  C   UNL A   1      35.084  35.754  32.657  1.00  0.00     0.016 A 
ATOM     25  C   UNL A   1      33.708  33.834  33.152  1.00  0.00     0.016 A 
ATOM     26  C   UNL A   1      36.227  35.041  33.010  1.00  0.00     0.010 A 
ATOM     27  C   UNL A   1      34.845  33.151  33.602  1.00  0.00     0.010 A 
ATOM     28  C   UNL A   1      36.123  33.730  33.496  1.00  0.00    -0.014 A 
BRANCH  28  29
ATOM     29  C   UNL A   1      37.349  32.951  33.833  1.00  0.00     0.031 A 
ATOM     30  C   UNL A   1      38.013  33.132  35.172  1.00  0.00     0.074 A 
ATOM     31  C   UNL A   1      37.861  32.059  32.962  1.00  0.00     0.049 A 
ATOM     32  N   UNL A   1      39.172  32.686  35.595  1.00  0.00    -0.248 NA
ATOM     33  C   UNL A   1      37.285  33.937  36.165  1.00  0.00     0.031 C 
ATOM     34  C   UNL A   1      37.297  31.730  31.654  1.00  0.00     0.029 A 
ATOM     35  N   UNL A   1      38.967  31.248  33.058  1.00  0.00    -0.354 N 
ATOM     36  C   UNL A   1      39.339  33.213  36.869  1.00  0.00     0.074 A 
ATOM     37  C   UNL A   1      38.163  34.007  37.155  1.00  0.00     0.031 C 
ATOM     38  C   UNL A   1      38.023  30.752  31.093  1.00  0.00     0.029 A 
ATOM     39  C   UNL A   1      39.158  30.446  31.959  1.00  0.00     0.049 A 
ATOM     40  H   UNL A   1      39.566  31.244  33.840  1.00  0.00     0.167 HD
ATOM     41  C   UNL A   1      40.380  33.051  37.721  1.00  0.00     0.037 A 
ATOM     42  C   UNL A   1      40.151  29.586  31.663  1.00  0.00     0.037 A 
ATOM     43  C   UNL A   1      41.514  32.200  37.469  1.00  0.00     0.049 A 
ATOM     44  C   UNL A   1      41.304  29.434  32.613  1.00  0.00     0.074 A 
ATOM     45  C   UNL A   1      42.605  31.948  38.284  1.00  0.00     0.029 A 
ATOM     46  N   UNL A   1      41.690  31.441  36.321  1.00  0.00    -0.354 N 
ATOM     47  N   UNL A   1      41.491  29.995  33.782  1.00  0.00    -0.248 NA
ATOM     48  C   UNL A   1      42.401  28.553  32.186  1.00  0.00     0.031 C 
ATOM     49  C   UNL A   1      43.458  31.062  37.614  1.00  0.00     0.029 A 
ATOM     50  C   UNL A   1      42.879  30.733  36.399  1.00  0.00     0.049 A 
ATOM     51  H   UNL A   1      41.064  31.412  35.562  1.00  0.00     0.167 HD
ATOM     52  C   UNL A   1      42.719  29.534  34.234  1.00  0.00     0.074 A 
ATOM     53  C   UNL A   1      43.226  28.630  33.222  1.00  0.00     0.031 C 
ATOM     54  C   UNL A   1      43.372  29.840  35.383  1.00  0.00     0.037 A 
BRANCH  41  55
ATOM     55  C   UNL A   1      40.363  33.850  38.992  1.00  0.00     0.064 A 
ATOM     56  C   UNL A   1      39.704  33.405  40.146  1.00  0.00     0.173 A 
ATOM     57  C   UNL A   1      41.033  35.082  39.052  1.00  0.00     0.173 A 
ATOM     58  F   UNL A   1      39.036  32.241  40.136  1.00  0.00    -0.203 F 
ATOM     59  C   UNL A   1      39.688  34.179  41.304  1.00  0.00     0.198 A 
ATOM     60  C   UNL A   1      41.039  35.841  40.221  1.00  0.00     0.198 A 
ATOM     61  F   UNL A   1      41.685  35.551  37.978  1.00  0.00    -0.203 F 
ATOM     62  F   UNL A   1      39.007  33.759  42.380  1.00  0.00    -0.200 F 
ATOM     63  C   UNL A   1      40.359  35.392  41.342  1.00  0.00     0.200 A 
ATOM     64  F   UNL A   1      41.698  37.007  40.257  1.00  0.00    -0.200 F 
ATOM     65  F   UNL A   1      40.342  36.136  42.457  1.00  0.00    -0.200 F 
ENDBRANCH  41  55
BRANCH  42  66
ATOM     66  C   UNL A   1      40.103  28.819  30.391  1.00  0.00     0.064 A 
ATOM     67  C   UNL A   1      40.724  29.310  29.236  1.00  0.00     0.173 A 
ATOM     68  C   UNL A   1      39.466  27.572  30.313  1.00  0.00     0.173 A 
ATOM     69  F   UNL A   1      41.321  30.511  29.254  1.00  0.00    -0.203 F 
ATOM     70  C   UNL A   1      40.712  28.580  28.049  1.00  0.00     0.198 A 
ATOM     71  C   UNL A   1      39.479  26.830  29.135  1.00  0.00     0.198 A 
ATOM     72  F   UNL A   1      38.854  27.061  31.392  1.00  0.00    -0.203 F 
ATOM     73  F   UNL A   1      41.291  29.082  26.949  1.00  0.00    -0.200 F 
ATOM     74  C   UNL A   1      40.100  27.336  28.002  1.00  0.00     0.200 A 
ATOM     75  F   UNL A   1      38.897  25.624  29.098  1.00  0.00    -0.200 F 
ATOM     76  F   UNL A   1      40.104  26.627  26.866  1.00  0.00    -0.200 F 
ENDBRANCH  42  66
BRANCH  54  77
ATOM     77  C   UNL A   1      44.695  29.175  35.611  1.00  0.00     0.064 A 
ATOM     78  C   UNL A   1      45.895  29.770  35.194  1.00  0.00     0.173 A 
ATOM     79  C   UNL A   1      44.767  27.943  36.280  1.00  0.00     0.173 A 
ATOM     80  F   UNL A   1      45.874  30.939  34.536  1.00  0.00    -0.203 F 
ATOM     81  C   UNL A   1      47.119  29.145  35.419  1.00  0.00     0.198 A 
ATOM     82  C   UNL A   1      45.995  27.333  36.523  1.00  0.00     0.198 A 
ATOM     83  F   UNL A   1      43.648  27.336  36.701  1.00  0.00    -0.203 F 
ATOM     84  F   UNL A   1      48.249  29.711  34.975  1.00  0.00    -0.200 F 
ATOM     85  C   UNL A   1      47.167  27.930  36.087  1.00  0.00     0.200 A 
ATOM     86  F   UNL A   1      46.041  26.163  37.175  1.00  0.00    -0.200 F 
ATOM     87  F   UNL A   1      48.346  27.331  36.303  1.00  0.00    -0.200 F 
ENDBRANCH  54  77
ENDBRANCH  28  29
ENDBRANCH  21  23
ENDBRANCH  20  21
ENDBRANCH   1  20
TORSDOF 12
ENDMDL
