MODEL 1
REMARK VINA RESULT:     -15.9      0.000      0.000
REMARK SMILES O=C(OCCOC(=O)[C@@H]1[C@H](C(=O)NCc2ccncc2)[C@H]2C=C[C@@H]1O2)c1ccc(-c2c3nc(c(-c4c(F)c(F)c(F)c(F)c4F)c4ccc([nH]4)c(-c4c(F)c(F)c(F)c(F)c4F)c4nc(c(-c5c(F)c(F)c(F)c(F)c5F)c5ccc2[nH]5)C=C4)C=C3)cc1
REMARK SMILES IDX 5 1 4 2 3 3 2 4 1 5 26 6 27 7 88 8 28 9 87 10 29 11 30 12
REMARK SMILES IDX 31 13 81 14 32 15 86 16 80 17 82 18 33 19 85 20 79 21 78 22
REMARK SMILES IDX 34 24 66 25 46 26 65 27 47 28 50 29 64 30 83 31 48 32 49 33
REMARK SMILES IDX 63 35 84 36 51 37 35 38 36 39 44 40 37 41 38 42 42 43 45 44
REMARK SMILES IDX 39 45 40 46 43 47 41 48 67 49 68 50 76 51 69 52 70 53 74 54
REMARK SMILES IDX 77 55 71 56 72 57 75 58 73 59 52 60 53 61 61 62 54 63 55 64
REMARK SMILES IDX 59 65 62 66 56 67 57 68 60 69 58 70 6 71 7 72 8 73 9 74
REMARK SMILES IDX 10 75 24 76 21 77 23 78 25 79 22 80 11 81 12 82 13 83 14 85
REMARK SMILES IDX 15 86 16 87 20 88 17 89 19 90 18 91
REMARK H PARENT 82 23 50 34 13 84
REMARK Flexibility Score: inf
ROOT
ATOM      1  C   UNL A   1      38.367  21.718  25.443  1.00  0.00     0.274 C 
ENDROOT
BRANCH   1   2
ATOM      2  C   UNL A   1      39.910  20.961  26.149  1.00  0.00     0.275 C 
BRANCH   2   3
ATOM      3  O   UNL A   1      41.781  21.286  25.377  1.00  0.00    -0.458 OA
BRANCH   3   4
ATOM      4  C   UNL A   1      42.753  22.590  25.095  1.00  0.00     0.338 C 
ATOM      5  O   UNL A   1      43.585  22.521  24.200  1.00  0.00    -0.246 OA
BRANCH   4   6
ATOM      6  C   UNL A   1      42.511  24.124  26.021  1.00  0.00     0.060 A 
ATOM      7  C   UNL A   1      43.487  25.740  25.946  1.00  0.00     0.016 A 
ATOM      8  C   UNL A   1      41.349  23.978  27.341  1.00  0.00     0.016 A 
ATOM      9  C   UNL A   1      43.103  27.148  27.024  1.00  0.00     0.010 A 
ATOM     10  C   UNL A   1      41.000  25.363  28.402  1.00  0.00     0.010 A 
ATOM     11  C   UNL A   1      41.834  26.933  28.275  1.00  0.00    -0.014 A 
BRANCH  11  12
ATOM     12  C   UNL A   1      41.557  27.940  29.316  1.00  0.00     0.031 A 
ATOM     13  C   UNL A   1      42.278  27.838  30.638  1.00  0.00     0.074 A 
ATOM     14  C   UNL A   1      40.559  28.810  29.085  1.00  0.00     0.049 A 
ATOM     15  N   UNL A   1      42.021  28.430  31.777  1.00  0.00    -0.248 NA
ATOM     16  C   UNL A   1      43.427  26.929  30.727  1.00  0.00     0.031 C 
ATOM     17  C   UNL A   1      39.829  28.965  27.823  1.00  0.00     0.029 A 
ATOM     18  N   UNL A   1      39.926  29.677  29.934  1.00  0.00    -0.354 N 
ATOM     19  C   UNL A   1      42.981  27.954  32.672  1.00  0.00     0.074 A 
ATOM     20  C   UNL A   1      43.783  26.991  31.989  1.00  0.00     0.031 C 
ATOM     21  C   UNL A   1      38.799  29.804  28.002  1.00  0.00     0.029 A 
ATOM     22  C   UNL A   1      38.788  30.229  29.392  1.00  0.00     0.049 A 
ATOM     23  H   UNL A   1      40.251  29.884  30.839  1.00  0.00     0.167 HD
ATOM     24  C   UNL A   1      43.185  28.288  33.964  1.00  0.00     0.037 A 
ATOM     25  C   UNL A   1      37.828  30.963  29.979  1.00  0.00     0.037 A 
ATOM     26  C   UNL A   1      42.322  29.206  34.633  1.00  0.00     0.049 A 
ATOM     27  C   UNL A   1      38.023  31.298  31.430  1.00  0.00     0.074 A 
ATOM     28  C   UNL A   1      42.360  29.651  35.935  1.00  0.00     0.029 A 
ATOM     29  N   UNL A   1      41.229  29.807  34.016  1.00  0.00    -0.354 N 
ATOM     30  N   UNL A   1      38.951  30.866  32.253  1.00  0.00    -0.248 NA
ATOM     31  C   UNL A   1      37.073  32.238  32.027  1.00  0.00     0.031 C 
ATOM     32  C   UNL A   1      41.257  30.492  36.119  1.00  0.00     0.029 A 
ATOM     33  C   UNL A   1      40.575  30.621  34.913  1.00  0.00     0.049 A 
ATOM     34  H   UNL A   1      40.963  29.671  33.078  1.00  0.00     0.167 HD
ATOM     35  C   UNL A   1      38.732  31.517  33.456  1.00  0.00     0.074 A 
ATOM     36  C   UNL A   1      37.569  32.364  33.252  1.00  0.00     0.031 C 
ATOM     37  C   UNL A   1      39.428  31.445  34.619  1.00  0.00     0.037 A 
BRANCH  24  38
ATOM     38  C   UNL A   1      44.319  27.594  34.678  1.00  0.00     0.064 A 
ATOM     39  C   UNL A   1      44.126  26.387  35.377  1.00  0.00     0.173 A 
ATOM     40  C   UNL A   1      45.575  28.209  34.788  1.00  0.00     0.173 A 
ATOM     41  F   UNL A   1      42.935  25.771  35.346  1.00  0.00    -0.203 F 
ATOM     42  C   UNL A   1      45.115  25.870  36.215  1.00  0.00     0.198 A 
ATOM     43  C   UNL A   1      46.577  27.663  35.590  1.00  0.00     0.198 A 
ATOM     44  F   UNL A   1      45.819  29.367  34.158  1.00  0.00    -0.203 F 
ATOM     45  F   UNL A   1      44.859  24.788  36.964  1.00  0.00    -0.200 F 
ATOM     46  C   UNL A   1      46.340  26.509  36.320  1.00  0.00     0.200 A 
ATOM     47  F   UNL A   1      47.762  28.281  35.690  1.00  0.00    -0.200 F 
ATOM     48  F   UNL A   1      47.279  26.027  37.145  1.00  0.00    -0.200 F 
ENDBRANCH  24  38
BRANCH  25  49
ATOM     49  C   UNL A   1      36.671  31.440  29.173  1.00  0.00     0.064 A 
ATOM     50  C   UNL A   1      35.624  30.571  28.838  1.00  0.00     0.173 A 
ATOM     51  C   UNL A   1      36.530  32.791  28.816  1.00  0.00     0.173 A 
ATOM     52  F   UNL A   1      35.706  29.272  29.158  1.00  0.00    -0.203 F 
ATOM     53  C   UNL A   1      34.485  31.031  28.175  1.00  0.00     0.198 A 
ATOM     54  C   UNL A   1      35.381  33.254  28.172  1.00  0.00     0.198 A 
ATOM     55  F   UNL A   1      37.488  33.674  29.134  1.00  0.00    -0.203 F 
ATOM     56  F   UNL A   1      33.503  30.174  27.863  1.00  0.00    -0.200 F 
ATOM     57  C   UNL A   1      34.360  32.373  27.852  1.00  0.00     0.200 A 
ATOM     58  F   UNL A   1      35.254  34.557  27.884  1.00  0.00    -0.200 F 
ATOM     59  F   UNL A   1      33.254  32.818  27.240  1.00  0.00    -0.200 F 
ENDBRANCH  25  49
BRANCH  37  60
ATOM     60  C   UNL A   1      38.986  32.343  35.725  1.00  0.00     0.064 A 
ATOM     61  C   UNL A   1      38.214  31.866  36.789  1.00  0.00     0.173 A 
ATOM     62  C   UNL A   1      39.461  33.662  35.774  1.00  0.00     0.173 A 
ATOM     63  F   UNL A   1      37.738  30.612  36.770  1.00  0.00    -0.203 F 
ATOM     64  C   UNL A   1      37.927  32.686  37.872  1.00  0.00     0.198 A 
ATOM     65  C   UNL A   1      39.202  34.466  36.874  1.00  0.00     0.198 A 
ATOM     66  F   UNL A   1      40.217  34.147  34.777  1.00  0.00    -0.203 F 
ATOM     67  F   UNL A   1      37.167  32.224  38.875  1.00  0.00    -0.200 F 
ATOM     68  C   UNL A   1      38.433  33.978  37.921  1.00  0.00     0.200 A 
ATOM     69  F   UNL A   1      39.711  35.703  36.932  1.00  0.00    -0.200 F 
ATOM     70  F   UNL A   1      38.183  34.755  38.983  1.00  0.00    -0.200 F 
ENDBRANCH  37  60
ENDBRANCH  11  12
ENDBRANCH   4   6
ENDBRANCH   3   4
ENDBRANCH   2   3
ENDBRANCH   1   2
BRANCH   1  71
ATOM     71  O   UNL A   1      36.928  20.958  25.311  1.00  0.00    -0.462 OA
BRANCH  71  72
ATOM     72  C   UNL A   1      35.585  20.807  25.094  1.00  0.00     0.312 C 
ATOM     73  O   UNL A   1      35.281  19.696  24.622  1.00  0.00    -0.252 OA
BRANCH  72  74
ATOM     74  C   UNL A   1      34.256  21.768  25.390  1.00  0.00     0.147 C 
ATOM     75  C   UNL A   1      33.077  23.037  24.640  1.00  0.00     0.128 C 
ATOM     76  C   UNL A   1      34.462  22.386  26.814  1.00  0.00     0.157 C 
ATOM     77  C   UNL A   1      32.983  23.865  26.130  1.00  0.00     0.155 C 
ATOM     78  C   UNL A   1      33.239  22.179  27.654  1.00  0.00     0.004 C 
ATOM     79  O   UNL A   1      34.359  23.807  26.566  1.00  0.00    -0.365 OA
ATOM     80  C   UNL A   1      32.322  23.041  27.212  1.00  0.00     0.004 C 
BRANCH  75  81
ATOM     81  C   UNL A   1      32.904  23.699  22.571  1.00  0.00     0.227 C 
ATOM     82  O   UNL A   1      33.631  23.477  21.538  1.00  0.00    -0.275 OA
ATOM     83  N   UNL A   1      32.302  24.772  21.885  1.00  0.00    -0.352 N 
ATOM     84  H   UNL A   1      32.471  24.674  20.921  1.00  0.00     0.163 HD
BRANCH  83  85
ATOM     85  C   UNL A   1      31.527  25.955  22.107  1.00  0.00     0.151 C 
BRANCH  85  86
ATOM     86  C   UNL A   1      31.962  27.014  23.196  1.00  0.00    -0.026 A 
ATOM     87  C   UNL A   1      30.654  26.793  24.394  1.00  0.00     0.025 A 
ATOM     88  C   UNL A   1      33.676  27.417  23.914  1.00  0.00     0.025 A 
ATOM     89  C   UNL A   1      31.031  26.974  26.059  1.00  0.00     0.111 A 
ATOM     90  C   UNL A   1      33.879  27.559  25.683  1.00  0.00     0.111 A 
ATOM     91  N   UNL A   1      32.565  27.341  26.706  1.00  0.00    -0.265 NA
ENDBRANCH  85  86
ENDBRANCH  83  85
ENDBRANCH  75  81
ENDBRANCH  72  74
ENDBRANCH  71  72
ENDBRANCH   1  71
TORSDOF 14
ENDMDL
MODEL 2
REMARK VINA RESULT:     -15.5      5.274     10.477
REMARK SMILES O=C(OCCOC(=O)[C@@H]1[C@H](C(=O)NCc2ccncc2)[C@H]2C=C[C@@H]1O2)c1ccc(-c2c3nc(c(-c4c(F)c(F)c(F)c(F)c4F)c4ccc([nH]4)c(-c4c(F)c(F)c(F)c(F)c4F)c4nc(c(-c5c(F)c(F)c(F)c(F)c5F)c5ccc2[nH]5)C=C4)C=C3)cc1
REMARK SMILES IDX 5 1 4 2 3 3 2 4 1 5 26 6 27 7 88 8 28 9 87 10 29 11 30 12
REMARK SMILES IDX 31 13 81 14 32 15 86 16 80 17 82 18 33 19 85 20 79 21 78 22
REMARK SMILES IDX 34 24 66 25 46 26 65 27 47 28 50 29 64 30 83 31 48 32 49 33
REMARK SMILES IDX 63 35 84 36 51 37 35 38 36 39 44 40 37 41 38 42 42 43 45 44
REMARK SMILES IDX 39 45 40 46 43 47 41 48 67 49 68 50 76 51 69 52 70 53 74 54
REMARK SMILES IDX 77 55 71 56 72 57 75 58 73 59 52 60 53 61 61 62 54 63 55 64
REMARK SMILES IDX 59 65 62 66 56 67 57 68 60 69 58 70 6 71 7 72 8 73 9 74
REMARK SMILES IDX 10 75 24 76 21 77 23 78 25 79 22 80 11 81 12 82 13 83 14 85
REMARK SMILES IDX 15 86 16 87 20 88 17 89 19 90 18 91
REMARK H PARENT 82 23 50 34 13 84
REMARK Flexibility Score: inf
ROOT
ATOM      1  C   UNL A   1      33.566  31.119  27.481  1.00  0.00     0.274 C 
ENDROOT
BRANCH   1   2
ATOM      2  C   UNL A   1      33.404  32.872  28.076  1.00  0.00     0.275 C 
BRANCH   2   3
ATOM      3  O   UNL A   1      33.791  33.449  30.004  1.00  0.00    -0.458 OA
BRANCH   3   4
ATOM      4  C   UNL A   1      34.530  32.794  31.327  1.00  0.00     0.338 C 
ATOM      5  O   UNL A   1      33.979  32.887  32.417  1.00  0.00    -0.246 OA
BRANCH   4   6
ATOM      6  C   UNL A   1      36.069  31.862  31.143  1.00  0.00     0.060 A 
ATOM      7  C   UNL A   1      37.269  31.250  32.469  1.00  0.00     0.016 A 
ATOM      8  C   UNL A   1      36.622  31.731  29.473  1.00  0.00     0.016 A 
ATOM      9  C   UNL A   1      38.803  30.377  32.049  1.00  0.00     0.010 A 
ATOM     10  C   UNL A   1      38.140  30.890  29.081  1.00  0.00     0.010 A 
ATOM     11  C   UNL A   1      39.233  30.209  30.314  1.00  0.00    -0.014 A 
BRANCH  11  12
ATOM     12  C   UNL A   1      40.530  29.677  29.858  1.00  0.00     0.031 A 
ATOM     13  C   UNL A   1      41.666  30.640  29.609  1.00  0.00     0.074 A 
ATOM     14  C   UNL A   1      40.586  28.372  29.541  1.00  0.00     0.049 A 
ATOM     15  N   UNL A   1      42.793  30.455  28.971  1.00  0.00    -0.248 NA
ATOM     16  C   UNL A   1      41.524  32.013  30.108  1.00  0.00     0.031 C 
ATOM     17  C   UNL A   1      39.525  27.386  29.766  1.00  0.00     0.029 A 
ATOM     18  N   UNL A   1      41.552  27.662  28.879  1.00  0.00    -0.354 N 
ATOM     19  C   UNL A   1      43.456  31.682  29.016  1.00  0.00     0.074 A 
ATOM     20  C   UNL A   1      42.606  32.619  29.676  1.00  0.00     0.031 C 
ATOM     21  C   UNL A   1      39.859  26.227  29.180  1.00  0.00     0.029 A 
ATOM     22  C   UNL A   1      41.145  26.396  28.526  1.00  0.00     0.049 A 
ATOM     23  H   UNL A   1      42.446  28.021  28.678  1.00  0.00     0.167 HD
ATOM     24  C   UNL A   1      44.678  32.010  28.547  1.00  0.00     0.037 A 
ATOM     25  C   UNL A   1      41.741  25.497  27.724  1.00  0.00     0.037 A 
ATOM     26  C   UNL A   1      45.473  31.065  27.834  1.00  0.00     0.049 A 
ATOM     27  C   UNL A   1      43.079  25.875  27.158  1.00  0.00     0.074 A 
ATOM     28  C   UNL A   1      46.721  31.218  27.274  1.00  0.00     0.029 A 
ATOM     29  N   UNL A   1      45.053  29.764  27.574  1.00  0.00    -0.354 N 
ATOM     30  N   UNL A   1      43.706  27.028  27.236  1.00  0.00    -0.248 NA
ATOM     31  C   UNL A   1      43.809  24.836  26.429  1.00  0.00     0.031 C 
ATOM     32  C   UNL A   1      47.038  30.016  26.631  1.00  0.00     0.029 A 
ATOM     33  C   UNL A   1      46.017  29.097  26.852  1.00  0.00     0.049 A 
ATOM     34  H   UNL A   1      44.195  29.378  27.862  1.00  0.00     0.167 HD
ATOM     35  C   UNL A   1      44.927  26.844  26.610  1.00  0.00     0.074 A 
ATOM     36  C   UNL A   1      44.942  25.467  26.146  1.00  0.00     0.031 C 
ATOM     37  C   UNL A   1      45.955  27.715  26.443  1.00  0.00     0.037 A 
BRANCH  24  38
ATOM     38  C   UNL A   1      45.127  33.436  28.752  1.00  0.00     0.064 A 
ATOM     39  C   UNL A   1      45.697  33.868  29.965  1.00  0.00     0.173 A 
ATOM     40  C   UNL A   1      44.856  34.415  27.784  1.00  0.00     0.173 A 
ATOM     41  F   UNL A   1      45.942  32.987  30.947  1.00  0.00    -0.203 F 
ATOM     42  C   UNL A   1      45.903  35.223  30.228  1.00  0.00     0.198 A 
ATOM     43  C   UNL A   1      45.106  35.765  28.033  1.00  0.00     0.198 A 
ATOM     44  F   UNL A   1      44.301  34.073  26.612  1.00  0.00    -0.203 F 
ATOM     45  F   UNL A   1      46.330  35.613  31.437  1.00  0.00    -0.200 F 
ATOM     46  C   UNL A   1      45.607  36.170  29.261  1.00  0.00     0.200 A 
ATOM     47  F   UNL A   1      44.822  36.680  27.097  1.00  0.00    -0.200 F 
ATOM     48  F   UNL A   1      45.779  37.473  29.523  1.00  0.00    -0.200 F 
ENDBRANCH  24  38
BRANCH  25  49
ATOM     49  C   UNL A   1      41.086  24.183  27.481  1.00  0.00     0.064 A 
ATOM     50  C   UNL A   1      39.986  24.077  26.620  1.00  0.00     0.173 A 
ATOM     51  C   UNL A   1      41.609  22.991  28.012  1.00  0.00     0.173 A 
ATOM     52  F   UNL A   1      39.450  25.183  26.083  1.00  0.00    -0.203 F 
ATOM     53  C   UNL A   1      39.431  22.838  26.301  1.00  0.00     0.198 A 
ATOM     54  C   UNL A   1      41.067  21.750  27.675  1.00  0.00     0.198 A 
ATOM     55  F   UNL A   1      42.678  23.028  28.821  1.00  0.00    -0.203 F 
ATOM     56  F   UNL A   1      38.375  22.770  25.479  1.00  0.00    -0.200 F 
ATOM     57  C   UNL A   1      39.978  21.674  26.821  1.00  0.00     0.200 A 
ATOM     58  F   UNL A   1      41.614  20.626  28.161  1.00  0.00    -0.200 F 
ATOM     59  F   UNL A   1      39.461  20.482  26.493  1.00  0.00    -0.200 F 
ENDBRANCH  25  49
BRANCH  37  60
ATOM     60  C   UNL A   1      47.187  27.186  25.790  1.00  0.00     0.064 A 
ATOM     61  C   UNL A   1      47.439  27.392  24.429  1.00  0.00     0.173 A 
ATOM     62  C   UNL A   1      48.181  26.584  26.576  1.00  0.00     0.173 A 
ATOM     63  F   UNL A   1      46.507  27.959  23.648  1.00  0.00    -0.203 F 
ATOM     64  C   UNL A   1      48.651  27.008  23.873  1.00  0.00     0.198 A 
ATOM     65  C   UNL A   1      49.403  26.234  26.023  1.00  0.00     0.198 A 
ATOM     66  F   UNL A   1      47.978  26.385  27.888  1.00  0.00    -0.203 F 
ATOM     67  F   UNL A   1      48.871  27.191  22.563  1.00  0.00    -0.200 F 
ATOM     68  C   UNL A   1      49.637  26.444  24.672  1.00  0.00     0.200 A 
ATOM     69  F   UNL A   1      50.363  25.714  26.799  1.00  0.00    -0.200 F 
ATOM     70  F   UNL A   1      50.818  26.106  24.138  1.00  0.00    -0.200 F 
ENDBRANCH  37  60
ENDBRANCH  11  12
ENDBRANCH   4   6
ENDBRANCH   3   4
ENDBRANCH   2   3
ENDBRANCH   1   2
BRANCH   1  71
ATOM     71  O   UNL A   1      32.705  30.462  26.260  1.00  0.00    -0.462 OA
BRANCH  71  72
ATOM     72  C   UNL A   1      32.413  29.628  25.214  1.00  0.00     0.312 C 
ATOM     73  O   UNL A   1      33.397  29.369  24.496  1.00  0.00    -0.252 OA
BRANCH  72  74
ATOM     74  C   UNL A   1      31.034  28.826  24.732  1.00  0.00     0.147 C 
ATOM     75  C   UNL A   1      30.117  27.176  24.779  1.00  0.00     0.128 C 
ATOM     76  C   UNL A   1      30.768  29.252  23.248  1.00  0.00     0.157 C 
ATOM     77  C   UNL A   1      29.541  27.426  23.191  1.00  0.00     0.155 C 
ATOM     78  C   UNL A   1      29.349  29.702  23.082  1.00  0.00     0.004 C 
ATOM     79  O   UNL A   1      30.712  27.984  22.555  1.00  0.00    -0.365 OA
ATOM     80  C   UNL A   1      28.595  28.602  23.095  1.00  0.00     0.004 C 
BRANCH  75  81
ATOM     81  C   UNL A   1      30.585  25.375  25.912  1.00  0.00     0.227 C 
ATOM     82  O   UNL A   1      29.956  24.767  26.849  1.00  0.00    -0.275 OA
ATOM     83  N   UNL A   1      31.743  24.651  26.253  1.00  0.00    -0.352 N 
ATOM     84  H   UNL A   1      31.487  23.866  26.790  1.00  0.00     0.163 HD
BRANCH  83  85
ATOM     85  C   UNL A   1      33.165  24.661  26.088  1.00  0.00     0.151 C 
BRANCH  85  86
ATOM     86  C   UNL A   1      33.812  24.891  24.665  1.00  0.00    -0.026 A 
ATOM     87  C   UNL A   1      33.810  23.215  24.042  1.00  0.00     0.025 A 
ATOM     88  C   UNL A   1      33.505  26.250  23.371  1.00  0.00     0.025 A 
ATOM     89  C   UNL A   1      33.556  22.967  22.363  1.00  0.00     0.111 A 
ATOM     90  C   UNL A   1      33.251  25.798  21.661  1.00  0.00     0.111 A 
ATOM     91  N   UNL A   1      33.286  24.183  21.199  1.00  0.00    -0.265 NA
ENDBRANCH  85  86
ENDBRANCH  83  85
ENDBRANCH  75  81
ENDBRANCH  72  74
ENDBRANCH  71  72
ENDBRANCH   1  71
TORSDOF 14
ENDMDL
MODEL 3
REMARK VINA RESULT:     -15.4      5.195     10.505
REMARK SMILES O=C(OCCOC(=O)[C@@H]1[C@H](C(=O)NCc2ccncc2)[C@H]2C=C[C@@H]1O2)c1ccc(-c2c3nc(c(-c4c(F)c(F)c(F)c(F)c4F)c4ccc([nH]4)c(-c4c(F)c(F)c(F)c(F)c4F)c4nc(c(-c5c(F)c(F)c(F)c(F)c5F)c5ccc2[nH]5)C=C4)C=C3)cc1
REMARK SMILES IDX 5 1 4 2 3 3 2 4 1 5 26 6 27 7 88 8 28 9 87 10 29 11 30 12
REMARK SMILES IDX 31 13 81 14 32 15 86 16 80 17 82 18 33 19 85 20 79 21 78 22
REMARK SMILES IDX 34 24 66 25 46 26 65 27 47 28 50 29 64 30 83 31 48 32 49 33
REMARK SMILES IDX 63 35 84 36 51 37 35 38 36 39 44 40 37 41 38 42 42 43 45 44
REMARK SMILES IDX 39 45 40 46 43 47 41 48 67 49 68 50 76 51 69 52 70 53 74 54
REMARK SMILES IDX 77 55 71 56 72 57 75 58 73 59 52 60 53 61 61 62 54 63 55 64
REMARK SMILES IDX 59 65 62 66 56 67 57 68 60 69 58 70 6 71 7 72 8 73 9 74
REMARK SMILES IDX 10 75 24 76 21 77 23 78 25 79 22 80 11 81 12 82 13 83 14 85
REMARK SMILES IDX 15 86 16 87 20 88 17 89 19 90 18 91
REMARK H PARENT 82 23 50 34 13 84
REMARK Flexibility Score: inf
ROOT
ATOM      1  C   UNL A   1      33.635  31.125  27.481  1.00  0.00     0.274 C 
ENDROOT
BRANCH   1   2
ATOM      2  C   UNL A   1      33.314  32.840  28.118  1.00  0.00     0.275 C 
BRANCH   2   3
ATOM      3  O   UNL A   1      33.686  33.413  30.050  1.00  0.00    -0.458 OA
BRANCH   3   4
ATOM      4  C   UNL A   1      34.440  32.768  31.369  1.00  0.00     0.338 C 
ATOM      5  O   UNL A   1      33.915  32.893  32.469  1.00  0.00    -0.246 OA
BRANCH   4   6
ATOM      6  C   UNL A   1      35.955  31.802  31.171  1.00  0.00     0.060 A 
ATOM      7  C   UNL A   1      37.067  31.025  32.487  1.00  0.00     0.016 A 
ATOM      8  C   UNL A   1      36.587  31.807  29.523  1.00  0.00     0.016 A 
ATOM      9  C   UNL A   1      38.592  30.139  32.058  1.00  0.00     0.010 A 
ATOM     10  C   UNL A   1      38.095  30.951  29.125  1.00  0.00     0.010 A 
ATOM     11  C   UNL A   1      39.102  30.118  30.337  1.00  0.00    -0.014 A 
BRANCH  11  12
ATOM     12  C   UNL A   1      40.403  29.584  29.894  1.00  0.00     0.031 A 
ATOM     13  C   UNL A   1      41.549  30.543  29.678  1.00  0.00     0.074 A 
ATOM     14  C   UNL A   1      40.456  28.284  29.558  1.00  0.00     0.049 A 
ATOM     15  N   UNL A   1      42.685  30.359  29.055  1.00  0.00    -0.248 NA
ATOM     16  C   UNL A   1      41.409  31.909  30.195  1.00  0.00     0.031 C 
ATOM     17  C   UNL A   1      39.384  27.302  29.751  1.00  0.00     0.029 A 
ATOM     18  N   UNL A   1      41.427  27.577  28.902  1.00  0.00    -0.354 N 
ATOM     19  C   UNL A   1      43.356  31.581  29.129  1.00  0.00     0.074 A 
ATOM     20  C   UNL A   1      42.501  32.514  29.789  1.00  0.00     0.031 C 
ATOM     21  C   UNL A   1      39.719  26.150  29.154  1.00  0.00     0.029 A 
ATOM     22  C   UNL A   1      41.017  26.319  28.524  1.00  0.00     0.049 A 
ATOM     23  H   UNL A   1      42.326  27.933  28.720  1.00  0.00     0.167 HD
ATOM     24  C   UNL A   1      44.588  31.908  28.685  1.00  0.00     0.037 A 
ATOM     25  C   UNL A   1      41.620  25.428  27.718  1.00  0.00     0.037 A 
ATOM     26  C   UNL A   1      45.388  30.967  27.970  1.00  0.00     0.049 A 
ATOM     27  C   UNL A   1      42.969  25.805  27.179  1.00  0.00     0.074 A 
ATOM     28  C   UNL A   1      46.645  31.120  27.432  1.00  0.00     0.029 A 
ATOM     29  N   UNL A   1      44.963  29.673  27.684  1.00  0.00    -0.354 N 
ATOM     30  N   UNL A   1      43.602  26.952  27.284  1.00  0.00    -0.248 NA
ATOM     31  C   UNL A   1      43.703  24.772  26.446  1.00  0.00     0.031 C 
ATOM     32  C   UNL A   1      46.964  29.925  26.777  1.00  0.00     0.029 A 
ATOM     33  C   UNL A   1      45.934  29.010  26.968  1.00  0.00     0.049 A 
ATOM     34  H   UNL A   1      44.097  29.289  27.953  1.00  0.00     0.167 HD
ATOM     35  C   UNL A   1      44.832  26.769  26.675  1.00  0.00     0.074 A 
ATOM     36  C   UNL A   1      44.845  25.399  26.190  1.00  0.00     0.031 C 
ATOM     37  C   UNL A   1      45.868  27.635  26.537  1.00  0.00     0.037 A 
BRANCH  24  38
ATOM     38  C   UNL A   1      45.043  33.327  28.917  1.00  0.00     0.064 A 
ATOM     39  C   UNL A   1      44.806  34.346  27.974  1.00  0.00     0.173 A 
ATOM     40  C   UNL A   1      45.846  33.647  30.022  1.00  0.00     0.173 A 
ATOM     41  F   UNL A   1      44.079  34.093  26.874  1.00  0.00    -0.203 F 
ATOM     42  C   UNL A   1      45.417  35.595  28.088  1.00  0.00     0.198 A 
ATOM     43  C   UNL A   1      46.418  34.912  30.156  1.00  0.00     0.198 A 
ATOM     44  F   UNL A   1      46.122  32.718  30.949  1.00  0.00    -0.203 F 
ATOM     45  F   UNL A   1      45.274  36.502  27.111  1.00  0.00    -0.200 F 
ATOM     46  C   UNL A   1      46.223  35.877  29.179  1.00  0.00     0.200 A 
ATOM     47  F   UNL A   1      47.196  35.185  31.212  1.00  0.00    -0.200 F 
ATOM     48  F   UNL A   1      46.831  37.067  29.275  1.00  0.00    -0.200 F 
ENDBRANCH  24  38
BRANCH  25  49
ATOM     49  C   UNL A   1      40.960  24.122  27.445  1.00  0.00     0.064 A 
ATOM     50  C   UNL A   1      39.883  24.035  26.553  1.00  0.00     0.173 A 
ATOM     51  C   UNL A   1      41.457  22.921  27.978  1.00  0.00     0.173 A 
ATOM     52  F   UNL A   1      39.372  25.150  26.012  1.00  0.00    -0.203 F 
ATOM     53  C   UNL A   1      39.326  22.803  26.207  1.00  0.00     0.198 A 
ATOM     54  C   UNL A   1      40.913  21.688  27.615  1.00  0.00     0.198 A 
ATOM     55  F   UNL A   1      42.503  22.940  28.816  1.00  0.00    -0.203 F 
ATOM     56  F   UNL A   1      38.292  22.753  25.356  1.00  0.00    -0.200 F 
ATOM     57  C   UNL A   1      39.847  21.630  26.731  1.00  0.00     0.200 A 
ATOM     58  F   UNL A   1      41.436  20.555  28.105  1.00  0.00    -0.200 F 
ATOM     59  F   UNL A   1      39.329  20.446  26.378  1.00  0.00    -0.200 F 
ENDBRANCH  25  49
BRANCH  37  60
ATOM     60  C   UNL A   1      47.108  27.107  25.896  1.00  0.00     0.064 A 
ATOM     61  C   UNL A   1      47.375  27.319  24.540  1.00  0.00     0.173 A 
ATOM     62  C   UNL A   1      48.091  26.499  26.691  1.00  0.00     0.173 A 
ATOM     63  F   UNL A   1      46.454  27.891  23.750  1.00  0.00    -0.203 F 
ATOM     64  C   UNL A   1      48.593  26.936  23.995  1.00  0.00     0.198 A 
ATOM     65  C   UNL A   1      49.319  26.150  26.150  1.00  0.00     0.198 A 
ATOM     66  F   UNL A   1      47.872  26.295  27.999  1.00  0.00    -0.203 F 
ATOM     67  F   UNL A   1      48.829  27.125  22.689  1.00  0.00    -0.200 F 
ATOM     68  C   UNL A   1      49.569  26.366  24.803  1.00  0.00     0.200 A 
ATOM     69  F   UNL A   1      50.269  25.624  26.935  1.00  0.00    -0.200 F 
ATOM     70  F   UNL A   1      50.756  26.029  24.282  1.00  0.00    -0.200 F 
ENDBRANCH  37  60
ENDBRANCH  11  12
ENDBRANCH   4   6
ENDBRANCH   3   4
ENDBRANCH   2   3
ENDBRANCH   1   2
BRANCH   1  71
ATOM     71  O   UNL A   1      32.494  29.979  27.260  1.00  0.00    -0.462 OA
BRANCH  71  72
ATOM     72  C   UNL A   1      31.966  28.734  27.044  1.00  0.00     0.312 C 
ATOM     73  O   UNL A   1      31.412  28.250  28.048  1.00  0.00    -0.252 OA
BRANCH  72  74
ATOM     74  C   UNL A   1      31.845  27.753  25.703  1.00  0.00     0.147 C 
ATOM     75  C   UNL A   1      31.835  25.963  25.102  1.00  0.00     0.128 C 
ATOM     76  C   UNL A   1      32.716  28.418  24.584  1.00  0.00     0.157 C 
ATOM     77  C   UNL A   1      32.673  26.411  23.684  1.00  0.00     0.155 C 
ATOM     78  C   UNL A   1      31.929  28.541  23.315  1.00  0.00     0.004 C 
ATOM     79  O   UNL A   1      33.627  27.358  24.213  1.00  0.00    -0.365 OA
ATOM     80  C   UNL A   1      31.859  27.318  22.789  1.00  0.00     0.004 C 
BRANCH  75  81
ATOM     81  C   UNL A   1      31.783  24.122  26.266  1.00  0.00     0.227 C 
ATOM     82  O   UNL A   1      31.166  23.809  27.345  1.00  0.00    -0.275 OA
ATOM     83  N   UNL A   1      32.616  23.000  26.447  1.00  0.00    -0.352 N 
ATOM     84  H   UNL A   1      32.188  22.379  27.080  1.00  0.00     0.163 HD
BRANCH  83  85
ATOM     85  C   UNL A   1      33.870  22.452  26.028  1.00  0.00     0.151 C 
BRANCH  85  86
ATOM     86  C   UNL A   1      33.932  21.347  24.900  1.00  0.00    -0.026 A 
ATOM     87  C   UNL A   1      35.628  20.810  25.076  1.00  0.00     0.025 A 
ATOM     88  C   UNL A   1      32.685  19.992  24.425  1.00  0.00     0.025 A 
ATOM     89  C   UNL A   1      35.997  19.158  24.792  1.00  0.00     0.111 A 
ATOM     90  C   UNL A   1      33.256  18.317  24.178  1.00  0.00     0.111 A 
ATOM     91  N   UNL A   1      34.883  17.942  24.360  1.00  0.00    -0.265 NA
ENDBRANCH  85  86
ENDBRANCH  83  85
ENDBRANCH  75  81
ENDBRANCH  72  74
ENDBRANCH  71  72
ENDBRANCH   1  71
TORSDOF 14
ENDMDL
