MODEL 1
REMARK VINA RESULT:     -12.7      0.000      0.000
REMARK SMILES C[NH+]1CCC(NC(=O)N[C@H]2C=C[C@H](C(=O)OCCOC(=O)c3ccc(-c4c5nc(c(-c6c(F)c(F)c(F)c(F)c6F)c6ccc([nH]6)c(-c6c(F)c(F)c(F)c(F)c6F)c6nc(c(-c7c(F)c(F)c(F)c(F)c7F)c7ccc4[nH]7)C=C6)C=C5)cc3)C2)CC1
REMARK SMILES IDX 17 1 16 2 14 3 15 4 13 5 10 6 11 7 85 8 12 9 9 10 6 11 7 12
REMARK SMILES IDX 8 14 5 16 1 17 2 18 3 19 87 20 4 22 86 23 18 24 19 25 20 26
REMARK SMILES IDX 21 27 22 28 23 29 84 30 24 31 83 32 25 33 26 34 27 35 77 36
REMARK SMILES IDX 28 37 82 38 76 39 78 40 29 41 81 42 75 43 74 44 30 46 62 47
REMARK SMILES IDX 42 48 61 49 43 50 46 51 60 52 79 53 44 54 45 55 59 57 80 58
REMARK SMILES IDX 47 59 31 60 32 61 40 62 33 63 34 64 38 65 41 66 35 67 36 68
REMARK SMILES IDX 39 69 37 70 63 71 64 72 72 73 65 74 66 75 70 76 73 77 67 78
REMARK SMILES IDX 68 79 71 80 69 81 48 82 49 83 57 84 50 85 51 86 55 87 58 88
REMARK SMILES IDX 52 89 53 90 56 91 54 92
REMARK H PARENT 6 13 9 15 2 21 78 45 46 56
REMARK Flexibility Score: inf
ROOT
ATOM      1  C   UNL A   1      32.741  29.159  24.310  1.00  0.00     0.274 C 
ENDROOT
BRANCH   1   2
ATOM      2  O   UNL A   1      32.110  28.106  23.553  1.00  0.00    -0.462 OA
BRANCH   2   3
ATOM      3  C   UNL A   1      32.853  26.980  23.342  1.00  0.00     0.312 C 
ATOM      4  O   UNL A   1      33.689  26.838  22.461  1.00  0.00    -0.252 OA
BRANCH   3   5
ATOM      5  C   UNL A   1      32.425  25.898  24.322  1.00  0.00     0.124 C 
ATOM      6  C   UNL A   1      30.560  25.608  25.912  1.00  0.00     0.107 C 
ATOM      7  C   UNL A   1      31.834  25.938  26.608  1.00  0.00    -0.006 C 
ATOM      8  C   UNL A   1      30.906  25.621  24.416  1.00  0.00     0.048 C 
ATOM      9  C   UNL A   1      32.833  26.153  25.745  1.00  0.00    -0.014 C 
BRANCH   6  10
ATOM     10  N   UNL A   1      29.891  24.459  26.508  1.00  0.00    -0.332 N 
ATOM     11  N   UNL A   1      31.157  22.442  26.630  1.00  0.00    -0.335 N 
ATOM     12  C   UNL A   1      30.079  23.191  26.876  1.00  0.00     0.315 C 
ATOM     13  H   UNL A   1      31.154  21.574  27.093  1.00  0.00     0.165 HD
ATOM     14  O   UNL A   1      29.159  22.661  27.509  1.00  0.00    -0.249 OA
ATOM     15  H   UNL A   1      28.963  24.711  26.714  1.00  0.00     0.165 HD
BRANCH  11  16
ATOM     16  C   UNL A   1      32.322  22.666  25.817  1.00  0.00     0.095 C 
ATOM     17  C   UNL A   1      35.699  23.078  23.405  1.00  0.00     0.332 C 
ATOM     18  N   UNL A   1      34.765  22.359  24.282  1.00  0.00    -0.337 N 
ATOM     19  C   UNL A   1      33.451  22.266  23.628  1.00  0.00     0.264 C 
ATOM     20  C   UNL A   1      34.771  22.963  25.624  1.00  0.00     0.264 C 
ATOM     21  H   UNL A   1      35.058  21.393  24.431  1.00  0.00     0.347 HD
ATOM     22  C   UNL A   1      32.324  21.812  24.554  1.00  0.00     0.086 C 
ATOM     23  C   UNL A   1      33.644  22.470  26.539  1.00  0.00     0.086 C 
ENDBRANCH  11  16
ENDBRANCH   6  10
ENDBRANCH   3   5
ENDBRANCH   2   3
ENDBRANCH   1   2
BRANCH   1  24
ATOM     24  C   UNL A   1      31.770  29.725  25.340  1.00  0.00     0.275 C 
BRANCH  24  25
ATOM     25  O   UNL A   1      32.437  29.785  26.612  1.00  0.00    -0.458 OA
BRANCH  25  26
ATOM     26  C   UNL A   1      32.958  30.985  26.948  1.00  0.00     0.338 C 
ATOM     27  O   UNL A   1      32.396  32.069  26.952  1.00  0.00    -0.246 OA
BRANCH  26  28
ATOM     28  C   UNL A   1      34.336  30.804  27.429  1.00  0.00     0.060 A 
ATOM     29  C   UNL A   1      34.804  29.515  27.662  1.00  0.00     0.016 A 
ATOM     30  C   UNL A   1      35.101  31.899  27.820  1.00  0.00     0.016 A 
ATOM     31  C   UNL A   1      35.952  29.309  28.413  1.00  0.00     0.010 A 
ATOM     32  C   UNL A   1      36.337  31.685  28.443  1.00  0.00     0.010 A 
ATOM     33  C   UNL A   1      36.758  30.387  28.790  1.00  0.00    -0.014 A 
BRANCH  33  34
ATOM     34  C   UNL A   1      38.000  30.156  29.584  1.00  0.00     0.031 A 
ATOM     35  C   UNL A   1      39.130  29.360  28.989  1.00  0.00     0.074 A 
ATOM     36  C   UNL A   1      38.143  30.672  30.822  1.00  0.00     0.049 A 
ATOM     37  N   UNL A   1      40.147  28.793  29.588  1.00  0.00    -0.248 NA
ATOM     38  C   UNL A   1      39.104  29.153  27.533  1.00  0.00     0.031 C 
ATOM     39  C   UNL A   1      37.173  31.527  31.510  1.00  0.00     0.029 A 
ATOM     40  N   UNL A   1      39.175  30.564  31.723  1.00  0.00    -0.354 N 
ATOM     41  C   UNL A   1      40.816  28.080  28.603  1.00  0.00     0.074 A 
ATOM     42  C   UNL A   1      40.117  28.315  27.358  1.00  0.00     0.031 C 
ATOM     43  C   UNL A   1      37.679  31.918  32.686  1.00  0.00     0.029 A 
ATOM     44  C   UNL A   1      38.945  31.231  32.902  1.00  0.00     0.049 A 
ATOM     45  H   UNL A   1      39.999  30.058  31.541  1.00  0.00     0.167 HD
ATOM     46  C   UNL A   1      41.902  27.283  28.740  1.00  0.00     0.037 A 
ATOM     47  C   UNL A   1      39.631  31.234  34.061  1.00  0.00     0.037 A 
ATOM     48  C   UNL A   1      42.647  27.139  29.964  1.00  0.00     0.049 A 
ATOM     49  C   UNL A   1      40.843  30.356  34.189  1.00  0.00     0.074 A 
ATOM     50  C   UNL A   1      43.769  26.366  30.208  1.00  0.00     0.029 A 
ATOM     51  N   UNL A   1      42.363  27.818  31.140  1.00  0.00    -0.354 N 
ATOM     52  N   UNL A   1      41.392  29.573  33.292  1.00  0.00    -0.248 NA
ATOM     53  C   UNL A   1      41.504  30.328  35.500  1.00  0.00     0.031 C 
ATOM     54  C   UNL A   1      44.151  26.560  31.540  1.00  0.00     0.029 A 
ATOM     55  C   UNL A   1      43.288  27.479  32.114  1.00  0.00     0.049 A 
ATOM     56  H   UNL A   1      41.617  28.447  31.263  1.00  0.00     0.167 HD
ATOM     57  C   UNL A   1      42.451  28.948  33.932  1.00  0.00     0.074 A 
ATOM     58  C   UNL A   1      42.492  29.470  35.282  1.00  0.00     0.031 C 
ATOM     59  C   UNL A   1      43.303  28.010  33.451  1.00  0.00     0.037 A 
BRANCH  46  60
ATOM     60  C   UNL A   1      42.318  26.456  27.560  1.00  0.00     0.064 A 
ATOM     61  C   UNL A   1      43.327  26.860  26.678  1.00  0.00     0.173 A 
ATOM     62  C   UNL A   1      41.717  25.206  27.344  1.00  0.00     0.173 A 
ATOM     63  F   UNL A   1      43.921  28.053  26.831  1.00  0.00    -0.203 F 
ATOM     64  C   UNL A   1      43.712  26.048  25.612  1.00  0.00     0.198 A 
ATOM     65  C   UNL A   1      42.118  24.387  26.293  1.00  0.00     0.198 A 
ATOM     66  F   UNL A   1      40.745  24.773  28.162  1.00  0.00    -0.203 F 
ATOM     67  F   UNL A   1      44.656  26.467  24.759  1.00  0.00    -0.200 F 
ATOM     68  C   UNL A   1      43.114  24.810  25.426  1.00  0.00     0.200 A 
ATOM     69  F   UNL A   1      41.545  23.187  26.121  1.00  0.00    -0.200 F 
ATOM     70  F   UNL A   1      43.491  24.027  24.406  1.00  0.00    -0.200 F 
ENDBRANCH  46  60
BRANCH  47  71
ATOM     71  C   UNL A   1      39.129  32.022  35.217  1.00  0.00     0.064 A 
ATOM     72  C   UNL A   1      38.392  31.415  36.242  1.00  0.00     0.173 A 
ATOM     73  C   UNL A   1      39.394  33.396  35.331  1.00  0.00     0.173 A 
ATOM     74  F   UNL A   1      38.089  30.111  36.165  1.00  0.00    -0.203 F 
ATOM     75  C   UNL A   1      37.940  32.151  37.336  1.00  0.00     0.198 A 
ATOM     76  C   UNL A   1      38.972  34.123  36.441  1.00  0.00     0.198 A 
ATOM     77  F   UNL A   1      40.091  34.027  34.375  1.00  0.00    -0.203 F 
ATOM     78  F   UNL A   1      37.207  31.554  38.285  1.00  0.00    -0.200 F 
ATOM     79  C   UNL A   1      38.240  33.502  37.440  1.00  0.00     0.200 A 
ATOM     80  F   UNL A   1      39.280  35.423  36.544  1.00  0.00    -0.200 F 
ATOM     81  F   UNL A   1      37.819  34.205  38.500  1.00  0.00    -0.200 F 
ENDBRANCH  47  71
BRANCH  59  82
ATOM     82  C   UNL A   1      44.348  27.501  34.394  1.00  0.00     0.064 A 
ATOM     83  C   UNL A   1      45.574  28.164  34.546  1.00  0.00     0.173 A 
ATOM     84  C   UNL A   1      44.110  26.359  35.170  1.00  0.00     0.173 A 
ATOM     85  F   UNL A   1      45.849  29.250  33.809  1.00  0.00    -0.203 F 
ATOM     86  C   UNL A   1      46.535  27.687  35.431  1.00  0.00     0.198 A 
ATOM     87  C   UNL A   1      45.067  25.897  36.070  1.00  0.00     0.198 A 
ATOM     88  F   UNL A   1      42.950  25.694  35.059  1.00  0.00    -0.203 F 
ATOM     89  F   UNL A   1      47.717  28.312  35.532  1.00  0.00    -0.200 F 
ATOM     90  C   UNL A   1      46.280  26.559  36.195  1.00  0.00     0.200 A 
ATOM     91  F   UNL A   1      44.817  24.811  36.813  1.00  0.00    -0.200 F 
ATOM     92  F   UNL A   1      47.208  26.102  37.048  1.00  0.00    -0.200 F 
ENDBRANCH  59  82
ENDBRANCH  33  34
ENDBRANCH  26  28
ENDBRANCH  25  26
ENDBRANCH  24  25
ENDBRANCH   1  24
TORSDOF 13
ENDMDL
MODEL 2
REMARK VINA RESULT:     -12.5      1.126      1.736
REMARK SMILES C[NH+]1CCC(NC(=O)N[C@H]2C=C[C@H](C(=O)OCCOC(=O)c3ccc(-c4c5nc(c(-c6c(F)c(F)c(F)c(F)c6F)c6ccc([nH]6)c(-c6c(F)c(F)c(F)c(F)c6F)c6nc(c(-c7c(F)c(F)c(F)c(F)c7F)c7ccc4[nH]7)C=C6)C=C5)cc3)C2)CC1
REMARK SMILES IDX 17 1 16 2 14 3 15 4 13 5 10 6 11 7 85 8 12 9 9 10 6 11 7 12
REMARK SMILES IDX 8 14 5 16 1 17 2 18 3 19 87 20 4 22 86 23 18 24 19 25 20 26
REMARK SMILES IDX 21 27 22 28 23 29 84 30 24 31 83 32 25 33 26 34 27 35 77 36
REMARK SMILES IDX 28 37 82 38 76 39 78 40 29 41 81 42 75 43 74 44 30 46 62 47
REMARK SMILES IDX 42 48 61 49 43 50 46 51 60 52 79 53 44 54 45 55 59 57 80 58
REMARK SMILES IDX 47 59 31 60 32 61 40 62 33 63 34 64 38 65 41 66 35 67 36 68
REMARK SMILES IDX 39 69 37 70 63 71 64 72 72 73 65 74 66 75 70 76 73 77 67 78
REMARK SMILES IDX 68 79 71 80 69 81 48 82 49 83 57 84 50 85 51 86 55 87 58 88
REMARK SMILES IDX 52 89 53 90 56 91 54 92
REMARK H PARENT 6 13 9 15 2 21 78 45 46 56
REMARK Flexibility Score: inf
ROOT
ATOM      1  C   UNL A   1      32.611  28.590  25.109  1.00  0.00     0.274 C 
ENDROOT
BRANCH   1   2
ATOM      2  O   UNL A   1      32.956  27.648  26.146  1.00  0.00    -0.462 OA
BRANCH   2   3
ATOM      3  C   UNL A   1      31.968  26.794  26.545  1.00  0.00     0.312 C 
ATOM      4  O   UNL A   1      31.051  27.077  27.303  1.00  0.00    -0.252 OA
BRANCH   3   5
ATOM      5  C   UNL A   1      32.228  25.412  25.965  1.00  0.00     0.124 C 
ATOM      6  C   UNL A   1      32.444  23.133  26.887  1.00  0.00     0.107 C 
ATOM      7  C   UNL A   1      33.764  23.702  26.503  1.00  0.00    -0.006 C 
ATOM      8  C   UNL A   1      31.427  24.246  26.589  1.00  0.00     0.048 C 
ATOM      9  C   UNL A   1      33.656  24.959  26.058  1.00  0.00    -0.014 C 
BRANCH   6  10
ATOM     10  N   UNL A   1      32.249  21.791  26.356  1.00  0.00    -0.332 N 
ATOM     11  N   UNL A   1      32.239  21.582  23.981  1.00  0.00    -0.335 N 
ATOM     12  C   UNL A   1      32.211  21.090  25.222  1.00  0.00     0.315 C 
ATOM     13  H   UNL A   1      32.329  20.896  23.281  1.00  0.00     0.165 HD
ATOM     14  O   UNL A   1      32.143  19.862  25.337  1.00  0.00    -0.249 OA
ATOM     15  H   UNL A   1      32.088  21.178  27.108  1.00  0.00     0.165 HD
BRANCH  11  16
ATOM     16  C   UNL A   1      32.165  22.926  23.474  1.00  0.00     0.095 C 
ATOM     17  C   UNL A   1      31.767  26.752  21.862  1.00  0.00     0.332 C 
ATOM     18  N   UNL A   1      31.664  25.286  21.863  1.00  0.00    -0.337 N 
ATOM     19  C   UNL A   1      30.703  24.863  22.893  1.00  0.00     0.264 C 
ATOM     20  C   UNL A   1      33.005  24.688  21.954  1.00  0.00     0.264 C 
ATOM     21  H   UNL A   1      31.283  24.937  20.983  1.00  0.00     0.347 HD
ATOM     22  C   UNL A   1      30.732  23.365  23.196  1.00  0.00     0.086 C 
ATOM     23  C   UNL A   1      33.003  23.181  22.232  1.00  0.00     0.086 C 
ENDBRANCH  11  16
ENDBRANCH   6  10
ENDBRANCH   3   5
ENDBRANCH   2   3
ENDBRANCH   1   2
BRANCH   1  24
ATOM     24  C   UNL A   1      31.906  29.801  25.707  1.00  0.00     0.275 C 
BRANCH  24  25
ATOM     25  O   UNL A   1      32.458  30.055  27.009  1.00  0.00    -0.458 OA
BRANCH  25  26
ATOM     26  C   UNL A   1      33.088  31.240  27.161  1.00  0.00     0.338 C 
ATOM     27  O   UNL A   1      32.617  32.359  27.029  1.00  0.00    -0.246 OA
BRANCH  26  28
ATOM     28  C   UNL A   1      34.464  31.008  27.628  1.00  0.00     0.060 A 
ATOM     29  C   UNL A   1      34.855  29.714  27.955  1.00  0.00     0.016 A 
ATOM     30  C   UNL A   1      35.307  32.078  27.912  1.00  0.00     0.016 A 
ATOM     31  C   UNL A   1      36.006  29.494  28.697  1.00  0.00     0.010 A 
ATOM     32  C   UNL A   1      36.542  31.835  28.525  1.00  0.00     0.010 A 
ATOM     33  C   UNL A   1      36.888  30.544  28.969  1.00  0.00    -0.014 A 
BRANCH  33  34
ATOM     34  C   UNL A   1      38.133  30.296  29.753  1.00  0.00     0.031 A 
ATOM     35  C   UNL A   1      39.250  29.489  29.149  1.00  0.00     0.074 A 
ATOM     36  C   UNL A   1      38.290  30.807  30.992  1.00  0.00     0.049 A 
ATOM     37  N   UNL A   1      40.263  28.909  29.740  1.00  0.00    -0.248 NA
ATOM     38  C   UNL A   1      39.212  29.287  27.692  1.00  0.00     0.031 C 
ATOM     39  C   UNL A   1      37.335  31.671  31.689  1.00  0.00     0.029 A 
ATOM     40  N   UNL A   1      39.327  30.685  31.886  1.00  0.00    -0.354 N 
ATOM     41  C   UNL A   1      40.918  28.190  28.748  1.00  0.00     0.074 A 
ATOM     42  C   UNL A   1      40.214  28.437  27.508  1.00  0.00     0.031 C 
ATOM     43  C   UNL A   1      37.853  32.053  32.863  1.00  0.00     0.029 A 
ATOM     44  C   UNL A   1      39.112  31.351  33.069  1.00  0.00     0.049 A 
ATOM     45  H   UNL A   1      40.144  30.170  31.697  1.00  0.00     0.167 HD
ATOM     46  C   UNL A   1      41.996  27.381  28.875  1.00  0.00     0.037 A 
ATOM     47  C   UNL A   1      39.807  31.342  34.222  1.00  0.00     0.037 A 
ATOM     48  C   UNL A   1      42.747  27.225  30.094  1.00  0.00     0.049 A 
ATOM     49  C   UNL A   1      41.009  30.450  34.339  1.00  0.00     0.074 A 
ATOM     50  C   UNL A   1      43.861  26.438  30.328  1.00  0.00     0.029 A 
ATOM     51  N   UNL A   1      42.479  27.904  31.274  1.00  0.00    -0.354 N 
ATOM     52  N   UNL A   1      41.543  29.664  33.437  1.00  0.00    -0.248 NA
ATOM     53  C   UNL A   1      41.678  30.410  35.646  1.00  0.00     0.031 C 
ATOM     54  C   UNL A   1      44.255  26.624  31.658  1.00  0.00     0.029 A 
ATOM     55  C   UNL A   1      43.406  27.551  32.240  1.00  0.00     0.049 A 
ATOM     56  H   UNL A   1      41.741  28.541  31.403  1.00  0.00     0.167 HD
ATOM     57  C   UNL A   1      42.599  29.024  34.068  1.00  0.00     0.074 A 
ATOM     58  C   UNL A   1      42.655  29.542  35.420  1.00  0.00     0.031 C 
ATOM     59  C   UNL A   1      43.436  28.078  33.579  1.00  0.00     0.037 A 
BRANCH  46  60
ATOM     60  C   UNL A   1      42.394  26.552  27.690  1.00  0.00     0.064 A 
ATOM     61  C   UNL A   1      43.373  26.967  26.780  1.00  0.00     0.173 A 
ATOM     62  C   UNL A   1      41.807  25.291  27.498  1.00  0.00     0.173 A 
ATOM     63  F   UNL A   1      43.951  28.170  26.910  1.00  0.00    -0.203 F 
ATOM     64  C   UNL A   1      43.743  26.154  25.709  1.00  0.00     0.198 A 
ATOM     65  C   UNL A   1      42.195  24.472  26.442  1.00  0.00     0.198 A 
ATOM     66  F   UNL A   1      40.864  24.848  28.344  1.00  0.00    -0.203 F 
ATOM     67  F   UNL A   1      44.658  26.581  24.829  1.00  0.00    -0.200 F 
ATOM     68  C   UNL A   1      43.160  24.904  25.546  1.00  0.00     0.200 A 
ATOM     69  F   UNL A   1      41.636  23.262  26.293  1.00  0.00    -0.200 F 
ATOM     70  F   UNL A   1      43.523  24.121  24.522  1.00  0.00    -0.200 F 
ENDBRANCH  46  60
BRANCH  47  71
ATOM     71  C   UNL A   1      39.321  32.133  35.384  1.00  0.00     0.064 A 
ATOM     72  C   UNL A   1      38.512  31.551  36.369  1.00  0.00     0.173 A 
ATOM     73  C   UNL A   1      39.675  33.482  35.545  1.00  0.00     0.173 A 
ATOM     74  F   UNL A   1      38.124  30.274  36.246  1.00  0.00    -0.203 F 
ATOM     75  C   UNL A   1      38.075  32.289  37.468  1.00  0.00     0.198 A 
ATOM     76  C   UNL A   1      39.267  34.208  36.661  1.00  0.00     0.198 A 
ATOM     77  F   UNL A   1      40.444  34.089  34.629  1.00  0.00    -0.203 F 
ATOM     78  F   UNL A   1      37.273  31.719  38.377  1.00  0.00    -0.200 F 
ATOM     79  C   UNL A   1      38.462  33.612  37.619  1.00  0.00     0.200 A 
ATOM     80  F   UNL A   1      39.659  35.480  36.810  1.00  0.00    -0.200 F 
ATOM     81  F   UNL A   1      38.056  34.315  38.685  1.00  0.00    -0.200 F 
ENDBRANCH  47  71
BRANCH  59  82
ATOM     82  C   UNL A   1      44.482  27.554  34.513  1.00  0.00     0.064 A 
ATOM     83  C   UNL A   1      45.718  28.200  34.655  1.00  0.00     0.173 A 
ATOM     84  C   UNL A   1      44.234  26.415  35.291  1.00  0.00     0.173 A 
ATOM     85  F   UNL A   1      46.002  29.283  33.916  1.00  0.00    -0.203 F 
ATOM     86  C   UNL A   1      46.680  27.710  35.532  1.00  0.00     0.198 A 
ATOM     87  C   UNL A   1      45.192  25.940  36.183  1.00  0.00     0.198 A 
ATOM     88  F   UNL A   1      43.065  25.766  35.189  1.00  0.00    -0.203 F 
ATOM     89  F   UNL A   1      47.871  28.318  35.625  1.00  0.00    -0.200 F 
ATOM     90  C   UNL A   1      46.415  26.584  36.299  1.00  0.00     0.200 A 
ATOM     91  F   UNL A   1      44.933  24.857  36.928  1.00  0.00    -0.200 F 
ATOM     92  F   UNL A   1      47.343  26.115  37.143  1.00  0.00    -0.200 F 
ENDBRANCH  59  82
ENDBRANCH  33  34
ENDBRANCH  26  28
ENDBRANCH  25  26
ENDBRANCH  24  25
ENDBRANCH   1  24
TORSDOF 13
ENDMDL
MODEL 3
REMARK VINA RESULT:     -12.5      1.146      2.374
REMARK SMILES C[NH+]1CCC(NC(=O)N[C@H]2C=C[C@H](C(=O)OCCOC(=O)c3ccc(-c4c5nc(c(-c6c(F)c(F)c(F)c(F)c6F)c6ccc([nH]6)c(-c6c(F)c(F)c(F)c(F)c6F)c6nc(c(-c7c(F)c(F)c(F)c(F)c7F)c7ccc4[nH]7)C=C6)C=C5)cc3)C2)CC1
REMARK SMILES IDX 17 1 16 2 14 3 15 4 13 5 10 6 11 7 85 8 12 9 9 10 6 11 7 12
REMARK SMILES IDX 8 14 5 16 1 17 2 18 3 19 87 20 4 22 86 23 18 24 19 25 20 26
REMARK SMILES IDX 21 27 22 28 23 29 84 30 24 31 83 32 25 33 26 34 27 35 77 36
REMARK SMILES IDX 28 37 82 38 76 39 78 40 29 41 81 42 75 43 74 44 30 46 62 47
REMARK SMILES IDX 42 48 61 49 43 50 46 51 60 52 79 53 44 54 45 55 59 57 80 58
REMARK SMILES IDX 47 59 31 60 32 61 40 62 33 63 34 64 38 65 41 66 35 67 36 68
REMARK SMILES IDX 39 69 37 70 63 71 64 72 72 73 65 74 66 75 70 76 73 77 67 78
REMARK SMILES IDX 68 79 71 80 69 81 48 82 49 83 57 84 50 85 51 86 55 87 58 88
REMARK SMILES IDX 52 89 53 90 56 91 54 92
REMARK H PARENT 6 13 9 15 2 21 78 45 46 56
REMARK Flexibility Score: inf
ROOT
ATOM      1  C   UNL A   1      32.590  28.554  25.108  1.00  0.00     0.274 C 
ENDROOT
BRANCH   1   2
ATOM      2  O   UNL A   1      32.899  27.640  26.181  1.00  0.00    -0.462 OA
BRANCH   2   3
ATOM      3  C   UNL A   1      31.904  26.783  26.556  1.00  0.00     0.312 C 
ATOM      4  O   UNL A   1      30.971  27.062  27.295  1.00  0.00    -0.252 OA
BRANCH   3   5
ATOM      5  C   UNL A   1      32.178  25.404  25.976  1.00  0.00     0.124 C 
ATOM      6  C   UNL A   1      32.414  23.127  26.897  1.00  0.00     0.107 C 
ATOM      7  C   UNL A   1      33.730  23.708  26.516  1.00  0.00    -0.006 C 
ATOM      8  C   UNL A   1      31.387  24.230  26.598  1.00  0.00     0.048 C 
ATOM      9  C   UNL A   1      33.611  24.964  26.071  1.00  0.00    -0.014 C 
BRANCH   6  10
ATOM     10  N   UNL A   1      32.233  21.783  26.365  1.00  0.00    -0.332 N 
ATOM     11  N   UNL A   1      32.233  21.575  23.990  1.00  0.00    -0.335 N 
ATOM     12  C   UNL A   1      32.205  21.082  25.231  1.00  0.00     0.315 C 
ATOM     13  H   UNL A   1      32.331  20.889  23.291  1.00  0.00     0.165 HD
ATOM     14  O   UNL A   1      32.147  19.853  25.346  1.00  0.00    -0.249 OA
ATOM     15  H   UNL A   1      32.075  21.169  27.117  1.00  0.00     0.165 HD
BRANCH  11  16
ATOM     16  C   UNL A   1      32.149  22.918  23.483  1.00  0.00     0.095 C 
ATOM     17  C   UNL A   1      31.722  26.740  21.870  1.00  0.00     0.332 C 
ATOM     18  N   UNL A   1      31.635  25.273  21.869  1.00  0.00    -0.337 N 
ATOM     19  C   UNL A   1      30.671  24.839  22.891  1.00  0.00     0.264 C 
ATOM     20  C   UNL A   1      32.982  24.689  21.970  1.00  0.00     0.264 C 
ATOM     21  H   UNL A   1      31.265  24.920  20.986  1.00  0.00     0.347 HD
ATOM     22  C   UNL A   1      30.713  23.342  23.193  1.00  0.00     0.086 C 
ATOM     23  C   UNL A   1      32.994  23.182  22.248  1.00  0.00     0.086 C 
ENDBRANCH  11  16
ENDBRANCH   6  10
ENDBRANCH   3   5
ENDBRANCH   2   3
ENDBRANCH   1   2
BRANCH   1  24
ATOM     24  C   UNL A   1      32.005  29.846  25.666  1.00  0.00     0.275 C 
BRANCH  24  25
ATOM     25  O   UNL A   1      32.522  30.048  26.992  1.00  0.00    -0.458 OA
BRANCH  25  26
ATOM     26  C   UNL A   1      33.129  31.233  27.213  1.00  0.00     0.338 C 
ATOM     27  O   UNL A   1      32.636  32.349  27.152  1.00  0.00    -0.246 OA
BRANCH  26  28
ATOM     28  C   UNL A   1      34.512  31.000  27.660  1.00  0.00     0.060 A 
ATOM     29  C   UNL A   1      34.915  29.702  27.954  1.00  0.00     0.016 A 
ATOM     30  C   UNL A   1      35.351  32.069  27.958  1.00  0.00     0.016 A 
ATOM     31  C   UNL A   1      36.076  29.473  28.678  1.00  0.00     0.010 A 
ATOM     32  C   UNL A   1      36.594  31.820  28.552  1.00  0.00     0.010 A 
ATOM     33  C   UNL A   1      36.954  30.522  28.963  1.00  0.00    -0.014 A 
BRANCH  33  34
ATOM     34  C   UNL A   1      38.209  30.266  29.728  1.00  0.00     0.031 A 
ATOM     35  C   UNL A   1      39.298  29.426  29.118  1.00  0.00     0.074 A 
ATOM     36  C   UNL A   1      38.400  30.797  30.954  1.00  0.00     0.049 A 
ATOM     37  N   UNL A   1      40.312  28.838  29.700  1.00  0.00    -0.248 NA
ATOM     38  C   UNL A   1      39.228  29.197  27.666  1.00  0.00     0.031 C 
ATOM     39  C   UNL A   1      37.475  31.692  31.652  1.00  0.00     0.029 A 
ATOM     40  N   UNL A   1      39.452  30.672  31.829  1.00  0.00    -0.354 N 
ATOM     41  C   UNL A   1      40.934  28.088  28.710  1.00  0.00     0.074 A 
ATOM     42  C   UNL A   1      40.210  28.325  27.479  1.00  0.00     0.031 C 
ATOM     43  C   UNL A   1      38.024  32.087  32.808  1.00  0.00     0.029 A 
ATOM     44  C   UNL A   1      39.273  31.364  33.003  1.00  0.00     0.049 A 
ATOM     45  H   UNL A   1      40.255  30.138  31.635  1.00  0.00     0.167 HD
ATOM     46  C   UNL A   1      41.998  27.261  28.832  1.00  0.00     0.037 A 
ATOM     47  C   UNL A   1      39.990  31.364  34.143  1.00  0.00     0.037 A 
ATOM     48  C   UNL A   1      42.771  27.114  30.038  1.00  0.00     0.049 A 
ATOM     49  C   UNL A   1      41.177  30.452  34.254  1.00  0.00     0.074 A 
ATOM     50  C   UNL A   1      43.874  26.310  30.266  1.00  0.00     0.029 A 
ATOM     51  N   UNL A   1      42.539  27.820  31.210  1.00  0.00    -0.354 N 
ATOM     52  N   UNL A   1      41.678  29.638  33.356  1.00  0.00    -0.248 NA
ATOM     53  C   UNL A   1      41.871  30.424  35.548  1.00  0.00     0.031 C 
ATOM     54  C   UNL A   1      44.297  26.514  31.585  1.00  0.00     0.029 A 
ATOM     55  C   UNL A   1      43.478  27.468  32.165  1.00  0.00     0.049 A 
ATOM     56  H   UNL A   1      41.815  28.473  31.341  1.00  0.00     0.167 HD
ATOM     57  C   UNL A   1      42.734  28.991  33.979  1.00  0.00     0.074 A 
ATOM     58  C   UNL A   1      42.826  29.533  35.319  1.00  0.00     0.031 C 
ATOM     59  C   UNL A   1      43.544  28.019  33.493  1.00  0.00     0.037 A 
BRANCH  46  60
ATOM     60  C   UNL A   1      42.358  26.403  27.656  1.00  0.00     0.064 A 
ATOM     61  C   UNL A   1      43.372  26.749  26.755  1.00  0.00     0.173 A 
ATOM     62  C   UNL A   1      41.694  25.180  27.462  1.00  0.00     0.173 A 
ATOM     63  F   UNL A   1      44.024  27.914  26.887  1.00  0.00    -0.203 F 
ATOM     64  C   UNL A   1      43.703  25.909  25.694  1.00  0.00     0.198 A 
ATOM     65  C   UNL A   1      42.041  24.333  26.414  1.00  0.00     0.198 A 
ATOM     66  F   UNL A   1      40.715  24.803  28.298  1.00  0.00    -0.203 F 
ATOM     67  F   UNL A   1      44.653  26.273  24.823  1.00  0.00    -0.200 F 
ATOM     68  C   UNL A   1      43.043  24.698  25.529  1.00  0.00     0.200 A 
ATOM     69  F   UNL A   1      41.409  23.160  26.264  1.00  0.00    -0.200 F 
ATOM     70  F   UNL A   1      43.369  23.887  24.513  1.00  0.00    -0.200 F 
ENDBRANCH  46  60
BRANCH  47  71
ATOM     71  C   UNL A   1      39.542  32.186  35.298  1.00  0.00     0.064 A 
ATOM     72  C   UNL A   1      39.964  33.513  35.449  1.00  0.00     0.173 A 
ATOM     73  C   UNL A   1      38.665  31.667  36.264  1.00  0.00     0.173 A 
ATOM     74  F   UNL A   1      40.824  34.045  34.568  1.00  0.00    -0.203 F 
ATOM     75  C   UNL A   1      39.528  34.289  36.521  1.00  0.00     0.198 A 
ATOM     76  C   UNL A   1      38.202  32.454  37.315  1.00  0.00     0.198 A 
ATOM     77  F   UNL A   1      38.234  30.401  36.169  1.00  0.00    -0.203 F 
ATOM     78  F   UNL A   1      39.974  35.545  36.662  1.00  0.00    -0.200 F 
ATOM     79  C   UNL A   1      38.638  33.763  37.446  1.00  0.00     0.200 A 
ATOM     80  F   UNL A   1      37.329  31.946  38.195  1.00  0.00    -0.200 F 
ATOM     81  F   UNL A   1      38.205  34.515  38.467  1.00  0.00    -0.200 F 
ENDBRANCH  47  71
BRANCH  59  82
ATOM     82  C   UNL A   1      44.598  27.493  34.416  1.00  0.00     0.064 A 
ATOM     83  C   UNL A   1      44.344  26.404  35.262  1.00  0.00     0.173 A 
ATOM     84  C   UNL A   1      45.878  28.063  34.433  1.00  0.00     0.173 A 
ATOM     85  F   UNL A   1      43.127  25.841  35.290  1.00  0.00    -0.203 F 
ATOM     86  C   UNL A   1      45.332  25.917  36.110  1.00  0.00     0.198 A 
ATOM     87  C   UNL A   1      46.871  27.559  35.269  1.00  0.00     0.198 A 
ATOM     88  F   UNL A   1      46.166  29.105  33.639  1.00  0.00    -0.203 F 
ATOM     89  F   UNL A   1      45.058  24.901  36.941  1.00  0.00    -0.200 F 
ATOM     90  C   UNL A   1      46.596  26.490  36.110  1.00  0.00     0.200 A 
ATOM     91  F   UNL A   1      48.093  28.109  35.262  1.00  0.00    -0.200 F 
ATOM     92  F   UNL A   1      47.546  26.018  36.927  1.00  0.00    -0.200 F 
ENDBRANCH  59  82
ENDBRANCH  33  34
ENDBRANCH  26  28
ENDBRANCH  25  26
ENDBRANCH  24  25
ENDBRANCH   1  24
TORSDOF 13
ENDMDL
