MODEL 1
REMARK VINA RESULT:     -12.5      0.000      0.000
REMARK SMILES O=C(OCCOC(=O)c1ccc2nc(-n3cccc3)sc2c1)c1ccc(-c2c3nc(c(-c4c(F)c(F)c(F)c(F)c4F)c4ccc([nH]4)c(-c4c(F)c(F)c(F)c(F)c4F)c4nc(c(-c5c(F)c(F)c(F)c(F)c5F)c5ccc2[nH]5)C=C4)C=C3)cc1
REMARK SMILES IDX 4 1 3 2 2 3 1 4 23 5 24 6 85 7 25 8 84 9 26 10 27 11 28 12
REMARK SMILES IDX 78 13 29 14 83 15 77 16 79 17 30 18 82 19 76 20 75 21 31 23
REMARK SMILES IDX 63 24 43 25 62 26 44 27 47 28 61 29 80 30 45 31 46 32 60 34
REMARK SMILES IDX 81 35 48 36 32 37 33 38 41 39 34 40 35 41 39 42 42 43 36 44
REMARK SMILES IDX 37 45 40 46 38 47 64 48 65 49 73 50 66 51 67 52 71 53 74 54
REMARK SMILES IDX 68 55 69 56 72 57 70 58 49 59 50 60 58 61 51 62 52 63 56 64
REMARK SMILES IDX 59 65 53 66 54 67 57 68 55 69 5 70 6 71 7 72 8 73 9 74 10 75
REMARK SMILES IDX 22 76 11 77 21 78 12 79 20 80 13 81 14 82 15 83 16 84 19 85
REMARK SMILES IDX 17 86 18 87
REMARK H PARENT 79 22 47 33
REMARK Flexibility Score: inf
ROOT
ATOM      1  C   UNL A   1      34.032  30.352  26.693  1.00  0.00     0.275 C 
ENDROOT
BRANCH   1   2
ATOM      2  O   UNL A   1      35.038  29.858  27.600  1.00  0.00    -0.458 OA
BRANCH   2   3
ATOM      3  C   UNL A   1      36.185  30.542  27.820  1.00  0.00     0.338 C 
ATOM      4  O   UNL A   1      36.204  31.724  28.139  1.00  0.00    -0.246 OA
BRANCH   3   5
ATOM      5  C   UNL A   1      37.400  29.709  27.982  1.00  0.00     0.060 A 
ATOM      6  C   UNL A   1      38.457  29.717  27.069  1.00  0.00     0.016 A 
ATOM      7  C   UNL A   1      37.506  28.948  29.159  1.00  0.00     0.016 A 
ATOM      8  C   UNL A   1      39.573  28.922  27.284  1.00  0.00     0.010 A 
ATOM      9  C   UNL A   1      38.642  28.178  29.400  1.00  0.00     0.010 A 
ATOM     10  C   UNL A   1      39.677  28.168  28.458  1.00  0.00    -0.014 A 
BRANCH  10  11
ATOM     11  C   UNL A   1      40.990  27.548  28.745  1.00  0.00     0.031 A 
ATOM     12  C   UNL A   1      41.051  26.084  28.297  1.00  0.00     0.074 A 
ATOM     13  C   UNL A   1      41.907  28.313  29.402  1.00  0.00     0.049 A 
ATOM     14  N   UNL A   1      41.767  25.098  28.750  1.00  0.00    -0.248 NA
ATOM     15  C   UNL A   1      40.115  25.631  27.232  1.00  0.00     0.031 C 
ATOM     16  C   UNL A   1      41.689  29.724  29.763  1.00  0.00     0.029 A 
ATOM     17  N   UNL A   1      43.173  28.084  29.911  1.00  0.00    -0.354 N 
ATOM     18  C   UNL A   1      41.531  23.995  27.905  1.00  0.00     0.074 A 
ATOM     19  C   UNL A   1      40.407  24.338  27.088  1.00  0.00     0.031 C 
ATOM     20  C   UNL A   1      42.728  30.199  30.477  1.00  0.00     0.029 A 
ATOM     21  C   UNL A   1      43.734  29.166  30.635  1.00  0.00     0.049 A 
ATOM     22  H   UNL A   1      43.649  27.231  29.779  1.00  0.00     0.167 HD
ATOM     23  C   UNL A   1      42.379  22.931  27.806  1.00  0.00     0.037 A 
ATOM     24  C   UNL A   1      44.904  29.226  31.346  1.00  0.00     0.037 A 
ATOM     25  C   UNL A   1      43.441  23.041  28.748  1.00  0.00     0.049 A 
ATOM     26  C   UNL A   1      45.589  27.944  31.107  1.00  0.00     0.074 A 
ATOM     27  C   UNL A   1      43.540  22.856  30.101  1.00  0.00     0.029 A 
ATOM     28  N   UNL A   1      44.596  23.630  28.303  1.00  0.00    -0.354 N 
ATOM     29  N   UNL A   1      46.192  27.623  30.000  1.00  0.00    -0.248 NA
ATOM     30  C   UNL A   1      45.546  26.908  32.147  1.00  0.00     0.031 C 
ATOM     31  C   UNL A   1      44.621  23.678  30.495  1.00  0.00     0.029 A 
ATOM     32  C   UNL A   1      45.168  24.288  29.362  1.00  0.00     0.049 A 
ATOM     33  H   UNL A   1      44.953  23.588  27.385  1.00  0.00     0.167 HD
ATOM     34  C   UNL A   1      46.309  26.256  30.111  1.00  0.00     0.074 A 
ATOM     35  C   UNL A   1      46.205  25.942  31.515  1.00  0.00     0.031 C 
ATOM     36  C   UNL A   1      45.950  25.468  29.067  1.00  0.00     0.037 A 
BRANCH  23  37
ATOM     37  C   UNL A   1      42.531  21.891  26.723  1.00  0.00     0.064 A 
ATOM     38  C   UNL A   1      42.064  20.579  26.992  1.00  0.00     0.173 A 
ATOM     39  C   UNL A   1      43.427  22.016  25.651  1.00  0.00     0.173 A 
ATOM     40  F   UNL A   1      41.168  20.356  27.968  1.00  0.00    -0.203 F 
ATOM     41  C   UNL A   1      42.582  19.461  26.342  1.00  0.00     0.198 A 
ATOM     42  C   UNL A   1      43.903  20.893  24.965  1.00  0.00     0.198 A 
ATOM     43  F   UNL A   1      43.953  23.199  25.313  1.00  0.00    -0.203 F 
ATOM     44  F   UNL A   1      42.231  18.231  26.745  1.00  0.00    -0.200 F 
ATOM     45  C   UNL A   1      43.518  19.618  25.341  1.00  0.00     0.200 A 
ATOM     46  F   UNL A   1      44.815  21.050  23.995  1.00  0.00    -0.200 F 
ATOM     47  F   UNL A   1      44.083  18.546  24.769  1.00  0.00    -0.200 F 
ENDBRANCH  23  37
BRANCH  24  48
ATOM     48  C   UNL A   1      45.572  30.195  32.305  1.00  0.00     0.064 A 
ATOM     49  C   UNL A   1      45.292  30.330  33.671  1.00  0.00     0.173 A 
ATOM     50  C   UNL A   1      46.620  31.048  31.851  1.00  0.00     0.173 A 
ATOM     51  F   UNL A   1      44.237  29.731  34.229  1.00  0.00    -0.203 F 
ATOM     52  C   UNL A   1      46.071  31.132  34.526  1.00  0.00     0.198 A 
ATOM     53  C   UNL A   1      47.412  31.824  32.701  1.00  0.00     0.198 A 
ATOM     54  F   UNL A   1      46.922  31.169  30.553  1.00  0.00    -0.203 F 
ATOM     55  F   UNL A   1      45.769  31.197  35.830  1.00  0.00    -0.200 F 
ATOM     56  C   UNL A   1      47.152  31.849  34.048  1.00  0.00     0.200 A 
ATOM     57  F   UNL A   1      48.434  32.529  32.195  1.00  0.00    -0.200 F 
ATOM     58  F   UNL A   1      47.920  32.572  34.872  1.00  0.00    -0.200 F 
ENDBRANCH  24  48
BRANCH  36  59
ATOM     59  C   UNL A   1      46.005  26.184  27.733  1.00  0.00     0.064 A 
ATOM     60  C   UNL A   1      47.240  26.504  27.153  1.00  0.00     0.173 A 
ATOM     61  C   UNL A   1      44.866  26.684  27.082  1.00  0.00     0.173 A 
ATOM     62  F   UNL A   1      48.376  26.057  27.710  1.00  0.00    -0.203 F 
ATOM     63  C   UNL A   1      47.323  27.289  25.999  1.00  0.00     0.198 A 
ATOM     64  C   UNL A   1      44.941  27.458  25.925  1.00  0.00     0.198 A 
ATOM     65  F   UNL A   1      43.651  26.428  27.559  1.00  0.00    -0.203 F 
ATOM     66  F   UNL A   1      48.521  27.580  25.474  1.00  0.00    -0.200 F 
ATOM     67  C   UNL A   1      46.174  27.768  25.387  1.00  0.00     0.200 A 
ATOM     68  F   UNL A   1      43.818  27.897  25.337  1.00  0.00    -0.200 F 
ATOM     69  F   UNL A   1      46.255  28.513  24.276  1.00  0.00    -0.200 F 
ENDBRANCH  36  59
ENDBRANCH  10  11
ENDBRANCH   3   5
ENDBRANCH   2   3
ENDBRANCH   1   2
BRANCH   1  70
ATOM     70  C   UNL A   1      32.591  30.034  27.095  1.00  0.00     0.275 C 
BRANCH  70  71
ATOM     71  O   UNL A   1      32.041  28.952  26.322  1.00  0.00    -0.458 OA
BRANCH  71  72
ATOM     72  C   UNL A   1      31.709  27.850  27.037  1.00  0.00     0.338 C 
ATOM     73  O   UNL A   1      31.107  27.802  28.105  1.00  0.00    -0.246 OA
BRANCH  72  74
ATOM     74  C   UNL A   1      32.269  26.657  26.393  1.00  0.00     0.061 A 
ATOM     75  C   UNL A   1      33.577  26.724  25.916  1.00  0.00     0.018 A 
ATOM     76  C   UNL A   1      31.532  25.465  26.359  1.00  0.00     0.037 A 
ATOM     77  C   UNL A   1      34.203  25.571  25.434  1.00  0.00     0.031 A 
ATOM     78  C   UNL A   1      32.165  24.326  25.835  1.00  0.00     0.057 A 
ATOM     79  C   UNL A   1      33.504  24.348  25.422  1.00  0.00     0.084 A 
ATOM     80  S   UNL A   1      31.533  22.739  25.575  1.00  0.00    -0.096 S 
ATOM     81  N   UNL A   1      34.031  23.122  25.056  1.00  0.00    -0.219 NA
ATOM     82  C   UNL A   1      33.078  22.220  25.092  1.00  0.00     0.194 A 
BRANCH  82  83
ATOM     83  N   UNL A   1      33.306  20.870  24.797  1.00  0.00    -0.300 N 
ATOM     84  C   UNL A   1      34.490  20.156  24.874  1.00  0.00     0.093 A 
ATOM     85  C   UNL A   1      32.329  19.980  24.379  1.00  0.00     0.093 A 
ATOM     86  C   UNL A   1      34.254  18.845  24.521  1.00  0.00     0.020 A 
ATOM     87  C   UNL A   1      32.892  18.742  24.171  1.00  0.00     0.020 A 
ENDBRANCH  82  83
ENDBRANCH  72  74
ENDBRANCH  71  72
ENDBRANCH  70  71
ENDBRANCH   1  70
TORSDOF 12
ENDMDL
MODEL 2
REMARK VINA RESULT:     -12.5      5.175      9.900
REMARK SMILES O=C(OCCOC(=O)c1ccc2nc(-n3cccc3)sc2c1)c1ccc(-c2c3nc(c(-c4c(F)c(F)c(F)c(F)c4F)c4ccc([nH]4)c(-c4c(F)c(F)c(F)c(F)c4F)c4nc(c(-c5c(F)c(F)c(F)c(F)c5F)c5ccc2[nH]5)C=C4)C=C3)cc1
REMARK SMILES IDX 4 1 3 2 2 3 1 4 23 5 24 6 85 7 25 8 84 9 26 10 27 11 28 12
REMARK SMILES IDX 78 13 29 14 83 15 77 16 79 17 30 18 82 19 76 20 75 21 31 23
REMARK SMILES IDX 63 24 43 25 62 26 44 27 47 28 61 29 80 30 45 31 46 32 60 34
REMARK SMILES IDX 81 35 48 36 32 37 33 38 41 39 34 40 35 41 39 42 42 43 36 44
REMARK SMILES IDX 37 45 40 46 38 47 64 48 65 49 73 50 66 51 67 52 71 53 74 54
REMARK SMILES IDX 68 55 69 56 72 57 70 58 49 59 50 60 58 61 51 62 52 63 56 64
REMARK SMILES IDX 59 65 53 66 54 67 57 68 55 69 5 70 6 71 7 72 8 73 9 74 10 75
REMARK SMILES IDX 22 76 11 77 21 78 12 79 20 80 13 81 14 82 15 83 16 84 19 85
REMARK SMILES IDX 17 86 18 87
REMARK H PARENT 79 22 47 33
REMARK Flexibility Score: inf
ROOT
ATOM      1  C   UNL A   1      37.441  23.426  26.184  1.00  0.00     0.275 C 
ENDROOT
BRANCH   1   2
ATOM      2  O   UNL A   1      38.769  23.987  26.191  1.00  0.00    -0.458 OA
BRANCH   2   3
ATOM      3  C   UNL A   1      39.462  24.140  27.343  1.00  0.00     0.338 C 
ATOM      4  O   UNL A   1      40.280  23.322  27.742  1.00  0.00    -0.246 OA
BRANCH   3   5
ATOM      5  C   UNL A   1      39.428  25.502  27.928  1.00  0.00     0.060 A 
ATOM      6  C   UNL A   1      39.007  25.760  29.235  1.00  0.00     0.016 A 
ATOM      7  C   UNL A   1      39.927  26.553  27.141  1.00  0.00     0.016 A 
ATOM      8  C   UNL A   1      39.009  27.057  29.728  1.00  0.00     0.010 A 
ATOM      9  C   UNL A   1      39.970  27.853  27.644  1.00  0.00     0.010 A 
ATOM     10  C   UNL A   1      39.510  28.100  28.942  1.00  0.00    -0.014 A 
BRANCH  10  11
ATOM     11  C   UNL A   1      39.721  29.403  29.611  1.00  0.00     0.031 A 
ATOM     12  C   UNL A   1      38.554  30.369  29.382  1.00  0.00     0.074 A 
ATOM     13  C   UNL A   1      40.907  29.584  30.259  1.00  0.00     0.049 A 
ATOM     14  N   UNL A   1      38.532  31.669  29.370  1.00  0.00    -0.248 NA
ATOM     15  C   UNL A   1      37.223  29.801  29.037  1.00  0.00     0.031 C 
ATOM     16  C   UNL A   1      41.935  28.538  30.391  1.00  0.00     0.029 A 
ATOM     17  N   UNL A   1      41.501  30.648  30.912  1.00  0.00    -0.354 N 
ATOM     18  C   UNL A   1      37.183  32.058  29.237  1.00  0.00     0.074 A 
ATOM     19  C   UNL A   1      36.450  30.878  28.893  1.00  0.00     0.031 C 
ATOM     20  C   UNL A   1      43.032  29.023  31.005  1.00  0.00     0.029 A 
ATOM     21  C   UNL A   1      42.828  30.415  31.356  1.00  0.00     0.049 A 
ATOM     22  H   UNL A   1      41.036  31.504  31.059  1.00  0.00     0.167 HD
ATOM     23  C   UNL A   1      36.720  33.292  29.586  1.00  0.00     0.037 A 
ATOM     24  C   UNL A   1      43.720  31.282  31.929  1.00  0.00     0.037 A 
ATOM     25  C   UNL A   1      37.793  34.144  29.974  1.00  0.00     0.049 A 
ATOM     26  C   UNL A   1      42.981  32.539  32.147  1.00  0.00     0.074 A 
ATOM     27  C   UNL A   1      38.769  34.821  29.293  1.00  0.00     0.029 A 
ATOM     28  N   UNL A   1      38.080  34.195  31.313  1.00  0.00    -0.354 N 
ATOM     29  N   UNL A   1      42.091  32.721  33.077  1.00  0.00    -0.248 NA
ATOM     30  C   UNL A   1      43.192  33.659  31.220  1.00  0.00     0.031 C 
ATOM     31  C   UNL A   1      39.825  34.957  30.224  1.00  0.00     0.029 A 
ATOM     32  C   UNL A   1      39.430  34.405  31.446  1.00  0.00     0.049 A 
ATOM     33  H   UNL A   1      37.433  34.100  32.050  1.00  0.00     0.167 HD
ATOM     34  C   UNL A   1      41.430  33.847  32.639  1.00  0.00     0.074 A 
ATOM     35  C   UNL A   1      42.320  34.524  31.728  1.00  0.00     0.031 C 
ATOM     36  C   UNL A   1      40.074  33.859  32.620  1.00  0.00     0.037 A 
BRANCH  23  37
ATOM     37  C   UNL A   1      35.322  33.767  29.900  1.00  0.00     0.064 A 
ATOM     38  C   UNL A   1      34.663  34.574  28.938  1.00  0.00     0.173 A 
ATOM     39  C   UNL A   1      34.791  33.800  31.198  1.00  0.00     0.173 A 
ATOM     40  F   UNL A   1      35.063  34.580  27.657  1.00  0.00    -0.203 F 
ATOM     41  C   UNL A   1      33.653  35.468  29.290  1.00  0.00     0.198 A 
ATOM     42  C   UNL A   1      33.740  34.660  31.534  1.00  0.00     0.198 A 
ATOM     43  F   UNL A   1      35.340  33.098  32.197  1.00  0.00    -0.203 F 
ATOM     44  F   UNL A   1      33.174  36.327  28.379  1.00  0.00    -0.200 F 
ATOM     45  C   UNL A   1      33.206  35.524  30.594  1.00  0.00     0.200 A 
ATOM     46  F   UNL A   1      33.311  34.715  32.802  1.00  0.00    -0.200 F 
ATOM     47  F   UNL A   1      32.295  36.439  30.957  1.00  0.00    -0.200 F 
ENDBRANCH  23  37
BRANCH  24  48
ATOM     48  C   UNL A   1      45.193  31.278  32.298  1.00  0.00     0.064 A 
ATOM     49  C   UNL A   1      45.719  31.226  33.595  1.00  0.00     0.173 A 
ATOM     50  C   UNL A   1      46.189  31.284  31.278  1.00  0.00     0.173 A 
ATOM     51  F   UNL A   1      44.942  31.376  34.670  1.00  0.00    -0.203 F 
ATOM     52  C   UNL A   1      47.094  31.055  33.845  1.00  0.00     0.198 A 
ATOM     53  C   UNL A   1      47.551  31.089  31.522  1.00  0.00     0.198 A 
ATOM     54  F   UNL A   1      45.883  31.485  29.991  1.00  0.00    -0.203 F 
ATOM     55  F   UNL A   1      47.533  30.984  35.110  1.00  0.00    -0.200 F 
ATOM     56  C   UNL A   1      48.003  30.950  32.810  1.00  0.00     0.200 A 
ATOM     57  F   UNL A   1      48.406  31.021  30.492  1.00  0.00    -0.200 F 
ATOM     58  F   UNL A   1      49.304  30.740  33.051  1.00  0.00    -0.200 F 
ENDBRANCH  24  48
BRANCH  36  59
ATOM     59  C   UNL A   1      39.455  32.880  33.597  1.00  0.00     0.064 A 
ATOM     60  C   UNL A   1      39.494  33.135  34.974  1.00  0.00     0.173 A 
ATOM     61  C   UNL A   1      38.947  31.629  33.211  1.00  0.00     0.173 A 
ATOM     62  F   UNL A   1      39.958  34.310  35.424  1.00  0.00    -0.203 F 
ATOM     63  C   UNL A   1      39.062  32.185  35.904  1.00  0.00     0.198 A 
ATOM     64  C   UNL A   1      38.505  30.682  34.133  1.00  0.00     0.198 A 
ATOM     65  F   UNL A   1      38.869  31.302  31.924  1.00  0.00    -0.203 F 
ATOM     66  F   UNL A   1      39.118  32.460  37.215  1.00  0.00    -0.200 F 
ATOM     67  C   UNL A   1      38.570  30.958  35.483  1.00  0.00     0.200 A 
ATOM     68  F   UNL A   1      38.015  29.508  33.706  1.00  0.00    -0.200 F 
ATOM     69  F   UNL A   1      38.148  30.052  36.377  1.00  0.00    -0.200 F 
ENDBRANCH  36  59
ENDBRANCH  10  11
ENDBRANCH   3   5
ENDBRANCH   2   3
ENDBRANCH   1   2
BRANCH   1  70
ATOM     70  C   UNL A   1      36.680  23.592  24.868  1.00  0.00     0.275 C 
BRANCH  70  71
ATOM     71  O   UNL A   1      35.388  24.197  25.063  1.00  0.00    -0.458 OA
BRANCH  71  72
ATOM     72  C   UNL A   1      34.707  24.470  23.924  1.00  0.00     0.338 C 
ATOM     73  O   UNL A   1      34.889  23.993  22.809  1.00  0.00    -0.246 OA
BRANCH  72  74
ATOM     74  C   UNL A   1      33.731  25.535  24.178  1.00  0.00     0.061 A 
ATOM     75  C   UNL A   1      33.922  26.345  25.296  1.00  0.00     0.018 A 
ATOM     76  C   UNL A   1      32.704  25.780  23.256  1.00  0.00     0.037 A 
ATOM     77  C   UNL A   1      33.108  27.464  25.493  1.00  0.00     0.031 A 
ATOM     78  C   UNL A   1      31.871  26.887  23.493  1.00  0.00     0.057 A 
ATOM     79  C   UNL A   1      32.090  27.761  24.565  1.00  0.00     0.084 A 
ATOM     80  S   UNL A   1      30.482  27.424  22.616  1.00  0.00    -0.096 S 
ATOM     81  N   UNL A   1      31.276  28.879  24.593  1.00  0.00    -0.219 NA
ATOM     82  C   UNL A   1      30.396  28.791  23.623  1.00  0.00     0.194 A 
BRANCH  82  83
ATOM     83  N   UNL A   1      29.445  29.788  23.375  1.00  0.00    -0.300 N 
ATOM     84  C   UNL A   1      28.322  29.731  22.565  1.00  0.00     0.093 A 
ATOM     85  C   UNL A   1      29.461  31.051  23.947  1.00  0.00     0.093 A 
ATOM     86  C   UNL A   1      27.648  30.931  22.638  1.00  0.00     0.020 A 
ATOM     87  C   UNL A   1      28.390  31.780  23.484  1.00  0.00     0.020 A 
ENDBRANCH  82  83
ENDBRANCH  72  74
ENDBRANCH  71  72
ENDBRANCH  70  71
ENDBRANCH   1  70
TORSDOF 12
ENDMDL
MODEL 3
REMARK VINA RESULT:     -12.4      0.486      1.677
REMARK SMILES O=C(OCCOC(=O)c1ccc2nc(-n3cccc3)sc2c1)c1ccc(-c2c3nc(c(-c4c(F)c(F)c(F)c(F)c4F)c4ccc([nH]4)c(-c4c(F)c(F)c(F)c(F)c4F)c4nc(c(-c5c(F)c(F)c(F)c(F)c5F)c5ccc2[nH]5)C=C4)C=C3)cc1
REMARK SMILES IDX 4 1 3 2 2 3 1 4 23 5 24 6 85 7 25 8 84 9 26 10 27 11 28 12
REMARK SMILES IDX 78 13 29 14 83 15 77 16 79 17 30 18 82 19 76 20 75 21 31 23
REMARK SMILES IDX 63 24 43 25 62 26 44 27 47 28 61 29 80 30 45 31 46 32 60 34
REMARK SMILES IDX 81 35 48 36 32 37 33 38 41 39 34 40 35 41 39 42 42 43 36 44
REMARK SMILES IDX 37 45 40 46 38 47 64 48 65 49 73 50 66 51 67 52 71 53 74 54
REMARK SMILES IDX 68 55 69 56 72 57 70 58 49 59 50 60 58 61 51 62 52 63 56 64
REMARK SMILES IDX 59 65 53 66 54 67 57 68 55 69 5 70 6 71 7 72 8 73 9 74 10 75
REMARK SMILES IDX 22 76 11 77 21 78 12 79 20 80 13 81 14 82 15 83 16 84 19 85
REMARK SMILES IDX 17 86 18 87
REMARK H PARENT 79 22 47 33
REMARK Flexibility Score: inf
ROOT
ATOM      1  C   UNL A   1      33.645  30.451  27.550  1.00  0.00     0.275 C 
ENDROOT
BRANCH   1   2
ATOM      2  O   UNL A   1      34.947  29.848  27.409  1.00  0.00    -0.458 OA
BRANCH   2   3
ATOM      3  C   UNL A   1      36.077  30.544  27.671  1.00  0.00     0.338 C 
ATOM      4  O   UNL A   1      36.071  31.722  28.007  1.00  0.00    -0.246 OA
BRANCH   3   5
ATOM      5  C   UNL A   1      37.299  29.726  27.856  1.00  0.00     0.060 A 
ATOM      6  C   UNL A   1      38.373  29.748  26.964  1.00  0.00     0.016 A 
ATOM      7  C   UNL A   1      37.392  28.966  29.034  1.00  0.00     0.016 A 
ATOM      8  C   UNL A   1      39.495  28.966  27.200  1.00  0.00     0.010 A 
ATOM      9  C   UNL A   1      38.533  28.209  29.297  1.00  0.00     0.010 A 
ATOM     10  C   UNL A   1      39.585  28.213  28.375  1.00  0.00    -0.014 A 
BRANCH  10  11
ATOM     11  C   UNL A   1      40.900  27.609  28.687  1.00  0.00     0.031 A 
ATOM     12  C   UNL A   1      40.991  26.149  28.229  1.00  0.00     0.074 A 
ATOM     13  C   UNL A   1      41.792  28.381  29.370  1.00  0.00     0.049 A 
ATOM     14  N   UNL A   1      41.710  25.170  28.691  1.00  0.00    -0.248 NA
ATOM     15  C   UNL A   1      40.086  25.692  27.140  1.00  0.00     0.031 C 
ATOM     16  C   UNL A   1      41.546  29.785  29.736  1.00  0.00     0.029 A 
ATOM     17  N   UNL A   1      43.049  28.164  29.905  1.00  0.00    -0.354 N 
ATOM     18  C   UNL A   1      41.508  24.070  27.833  1.00  0.00     0.074 A 
ATOM     19  C   UNL A   1      40.398  24.404  26.993  1.00  0.00     0.031 C 
ATOM     20  C   UNL A   1      42.562  30.269  30.478  1.00  0.00     0.029 A 
ATOM     21  C   UNL A   1      43.578  29.249  30.650  1.00  0.00     0.049 A 
ATOM     22  H   UNL A   1      43.539  27.320  29.778  1.00  0.00     0.167 HD
ATOM     23  C   UNL A   1      42.373  23.018  27.744  1.00  0.00     0.037 A 
ATOM     24  C   UNL A   1      44.730  29.319  31.388  1.00  0.00     0.037 A 
ATOM     25  C   UNL A   1      43.412  23.135  28.711  1.00  0.00     0.049 A 
ATOM     26  C   UNL A   1      45.439  28.048  31.155  1.00  0.00     0.074 A 
ATOM     27  C   UNL A   1      43.483  22.942  30.065  1.00  0.00     0.029 A 
ATOM     28  N   UNL A   1      44.568  23.744  28.297  1.00  0.00    -0.354 N 
ATOM     29  N   UNL A   1      46.070  27.744  30.059  1.00  0.00    -0.248 NA
ATOM     30  C   UNL A   1      45.387  27.004  32.186  1.00  0.00     0.031 C 
ATOM     31  C   UNL A   1      44.544  23.775  30.489  1.00  0.00     0.029 A 
ATOM     32  C   UNL A   1      45.107  24.401  29.374  1.00  0.00     0.049 A 
ATOM     33  H   UNL A   1      44.946  23.713  27.387  1.00  0.00     0.167 HD
ATOM     34  C   UNL A   1      46.204  26.378  30.163  1.00  0.00     0.074 A 
ATOM     35  C   UNL A   1      46.073  26.052  31.562  1.00  0.00     0.031 C 
ATOM     36  C   UNL A   1      45.880  25.594  29.105  1.00  0.00     0.037 A 
BRANCH  23  37
ATOM     37  C   UNL A   1      42.564  21.988  26.657  1.00  0.00     0.064 A 
ATOM     38  C   UNL A   1      42.120  20.665  26.912  1.00  0.00     0.173 A 
ATOM     39  C   UNL A   1      43.473  22.139  25.600  1.00  0.00     0.173 A 
ATOM     40  F   UNL A   1      41.215  20.417  27.872  1.00  0.00    -0.203 F 
ATOM     41  C   UNL A   1      42.672  19.563  26.262  1.00  0.00     0.198 A 
ATOM     42  C   UNL A   1      43.984  21.032  24.915  1.00  0.00     0.198 A 
ATOM     43  F   UNL A   1      43.980  23.335  25.279  1.00  0.00    -0.203 F 
ATOM     44  F   UNL A   1      42.341  18.323  26.652  1.00  0.00    -0.200 F 
ATOM     45  C   UNL A   1      43.620  19.746  25.277  1.00  0.00     0.200 A 
ATOM     46  F   UNL A   1      44.907  21.214  23.960  1.00  0.00    -0.200 F 
ATOM     47  F   UNL A   1      44.216  18.690  24.707  1.00  0.00    -0.200 F 
ENDBRANCH  23  37
BRANCH  24  48
ATOM     48  C   UNL A   1      45.364  30.290  32.369  1.00  0.00     0.064 A 
ATOM     49  C   UNL A   1      46.561  30.992  32.179  1.00  0.00     0.173 A 
ATOM     50  C   UNL A   1      44.714  30.594  33.601  1.00  0.00     0.173 A 
ATOM     51  F   UNL A   1      47.380  30.712  31.162  1.00  0.00    -0.203 F 
ATOM     52  C   UNL A   1      46.994  32.000  33.061  1.00  0.00     0.198 A 
ATOM     53  C   UNL A   1      45.126  31.611  34.465  1.00  0.00     0.198 A 
ATOM     54  F   UNL A   1      43.644  29.911  34.024  1.00  0.00    -0.203 F 
ATOM     55  F   UNL A   1      48.134  32.656  32.809  1.00  0.00    -0.200 F 
ATOM     56  C   UNL A   1      46.259  32.333  34.183  1.00  0.00     0.200 A 
ATOM     57  F   UNL A   1      44.403  31.886  35.559  1.00  0.00    -0.200 F 
ATOM     58  F   UNL A   1      46.648  33.324  34.995  1.00  0.00    -0.200 F 
ENDBRANCH  24  48
BRANCH  36  59
ATOM     59  C   UNL A   1      45.955  26.321  27.778  1.00  0.00     0.064 A 
ATOM     60  C   UNL A   1      44.782  26.673  27.097  1.00  0.00     0.173 A 
ATOM     61  C   UNL A   1      47.162  26.554  27.097  1.00  0.00     0.173 A 
ATOM     62  F   UNL A   1      43.589  26.490  27.682  1.00  0.00    -0.203 F 
ATOM     63  C   UNL A   1      44.821  27.214  25.808  1.00  0.00     0.198 A 
ATOM     64  C   UNL A   1      47.207  27.102  25.817  1.00  0.00     0.198 A 
ATOM     65  F   UNL A   1      48.325  26.253  27.668  1.00  0.00    -0.203 F 
ATOM     66  F   UNL A   1      43.679  27.535  25.184  1.00  0.00    -0.200 F 
ATOM     67  C   UNL A   1      46.033  27.425  25.168  1.00  0.00     0.200 A 
ATOM     68  F   UNL A   1      48.390  27.316  25.220  1.00  0.00    -0.200 F 
ATOM     69  F   UNL A   1      46.068  27.951  23.935  1.00  0.00    -0.200 F 
ENDBRANCH  36  59
ENDBRANCH  10  11
ENDBRANCH   3   5
ENDBRANCH   2   3
ENDBRANCH   1   2
BRANCH   1  70
ATOM     70  C   UNL A   1      32.543  29.805  26.709  1.00  0.00     0.275 C 
BRANCH  70  71
ATOM     71  O   UNL A   1      32.939  28.520  26.194  1.00  0.00    -0.458 OA
BRANCH  71  72
ATOM     72  C   UNL A   1      32.252  27.467  26.697  1.00  0.00     0.338 C 
ATOM     73  O   UNL A   1      31.423  27.474  27.601  1.00  0.00    -0.246 OA
BRANCH  72  74
ATOM     74  C   UNL A   1      32.712  26.229  26.059  1.00  0.00     0.061 A 
ATOM     75  C   UNL A   1      33.978  26.225  25.474  1.00  0.00     0.018 A 
ATOM     76  C   UNL A   1      31.932  25.066  26.136  1.00  0.00     0.037 A 
ATOM     77  C   UNL A   1      34.519  25.031  24.991  1.00  0.00     0.031 A 
ATOM     78  C   UNL A   1      32.478  23.884  25.609  1.00  0.00     0.057 A 
ATOM     79  C   UNL A   1      33.776  23.836  25.087  1.00  0.00     0.084 A 
ATOM     80  S   UNL A   1      31.768  22.314  25.469  1.00  0.00    -0.096 S 
ATOM     81  N   UNL A   1      34.226  22.578  24.731  1.00  0.00    -0.219 NA
ATOM     82  C   UNL A   1      33.248  21.716  24.883  1.00  0.00     0.194 A 
BRANCH  82  83
ATOM     83  N   UNL A   1      33.401  20.348  24.626  1.00  0.00    -0.300 N 
ATOM     84  C   UNL A   1      34.534  19.563  24.765  1.00  0.00     0.093 A 
ATOM     85  C   UNL A   1      32.386  19.510  24.191  1.00  0.00     0.093 A 
ATOM     86  C   UNL A   1      34.229  18.261  24.431  1.00  0.00     0.020 A 
ATOM     87  C   UNL A   1      32.878  18.235  24.031  1.00  0.00     0.020 A 
ENDBRANCH  82  83
ENDBRANCH  72  74
ENDBRANCH  71  72
ENDBRANCH  70  71
ENDBRANCH   1  70
TORSDOF 12
ENDMDL
