MODEL 1
REMARK VINA RESULT:     -14.2      0.000      0.000
REMARK SMILES O=C(OCCOC(=O)[C@H]1CCCCN1c1ccnc2ccccc12)c1ccc(-c2c3nc(c(-c4c(F)c(F)c(F)c(F)c4F)c4ccc([nH]4)c(-c4c(F)c(F)c(F)c(F)c4F)c4nc(c(-c5c(F)c(F)c(F)c(F)c5F)c5ccc2[nH]5)C=C4)C=C3)cc1
REMARK SMILES IDX 4 1 3 2 2 3 1 4 25 5 26 6 87 7 27 8 86 9 28 10 29 11 30 12
REMARK SMILES IDX 80 13 31 14 85 15 79 16 81 17 32 18 84 19 78 20 77 21 33 23
REMARK SMILES IDX 65 24 45 25 64 26 46 27 49 28 63 29 82 30 47 31 48 32 62 34
REMARK SMILES IDX 83 35 50 36 34 37 35 38 43 39 36 40 37 41 41 42 44 43 38 44
REMARK SMILES IDX 39 45 42 46 40 47 66 48 67 49 75 50 68 51 69 52 73 53 76 54
REMARK SMILES IDX 70 55 71 56 74 57 72 58 51 59 52 60 60 61 53 62 54 63 58 64
REMARK SMILES IDX 61 65 55 66 56 67 59 68 57 69 5 70 6 71 7 72 8 73 9 74 10 75
REMARK SMILES IDX 14 76 11 77 13 78 12 79 15 80 16 81 24 82 17 83 19 84 23 85
REMARK SMILES IDX 18 86 20 87 22 88 21 89
REMARK H PARENT 81 22 49 33
REMARK Flexibility Score: inf
ROOT
ATOM      1  C   UNL A   1      37.832  21.986  24.980  1.00  0.00     0.275 C 
ENDROOT
BRANCH   1   2
ATOM      2  O   UNL A   1      38.715  21.694  26.105  1.00  0.00    -0.458 OA
BRANCH   2   3
ATOM      3  C   UNL A   1      40.008  22.162  26.255  1.00  0.00     0.338 C 
ATOM      4  O   UNL A   1      40.977  21.522  25.871  1.00  0.00    -0.246 OA
BRANCH   3   5
ATOM      5  C   UNL A   1      40.206  23.237  27.296  1.00  0.00     0.060 A 
ATOM      6  C   UNL A   1      41.793  23.639  27.430  1.00  0.00     0.016 A 
ATOM      7  C   UNL A   1      38.965  24.447  27.445  1.00  0.00     0.016 A 
ATOM      8  C   UNL A   1      42.271  25.307  27.610  1.00  0.00     0.010 A 
ATOM      9  C   UNL A   1      39.263  26.147  27.696  1.00  0.00     0.010 A 
ATOM     10  C   UNL A   1      40.946  26.729  27.848  1.00  0.00    -0.014 A 
BRANCH  10  11
ATOM     11  C   UNL A   1      40.672  27.943  29.063  1.00  0.00     0.031 A 
ATOM     12  C   UNL A   1      39.450  28.979  29.090  1.00  0.00     0.074 A 
ATOM     13  C   UNL A   1      41.432  28.021  30.174  1.00  0.00     0.049 A 
ATOM     14  N   UNL A   1      38.994  29.675  30.127  1.00  0.00    -0.248 NA
ATOM     15  C   UNL A   1      38.672  29.304  27.879  1.00  0.00     0.031 C 
ATOM     16  C   UNL A   1      42.669  27.326  30.267  1.00  0.00     0.029 A 
ATOM     17  N   UNL A   1      41.290  28.562  31.431  1.00  0.00    -0.354 N 
ATOM     18  C   UNL A   1      37.914  30.449  29.677  1.00  0.00     0.074 A 
ATOM     19  C   UNL A   1      37.728  30.128  28.295  1.00  0.00     0.031 C 
ATOM     20  C   UNL A   1      43.047  27.182  31.534  1.00  0.00     0.029 A 
ATOM     21  C   UNL A   1      42.193  28.030  32.343  1.00  0.00     0.049 A 
ATOM     22  H   UNL A   1      40.624  29.250  31.660  1.00  0.00     0.167 HD
ATOM     23  C   UNL A   1      37.166  31.401  30.294  1.00  0.00     0.037 A 
ATOM     24  C   UNL A   1      42.369  28.204  33.669  1.00  0.00     0.037 A 
ATOM     25  C   UNL A   1      37.399  31.869  31.632  1.00  0.00     0.049 A 
ATOM     26  C   UNL A   1      41.541  29.255  34.334  1.00  0.00     0.074 A 
ATOM     27  C   UNL A   1      36.756  32.886  32.316  1.00  0.00     0.029 A 
ATOM     28  N   UNL A   1      38.386  31.379  32.470  1.00  0.00    -0.354 N 
ATOM     29  N   UNL A   1      40.528  29.929  33.848  1.00  0.00    -0.248 NA
ATOM     30  C   UNL A   1      41.933  29.642  35.693  1.00  0.00     0.031 C 
ATOM     31  C   UNL A   1      37.407  33.063  33.540  1.00  0.00     0.029 A 
ATOM     32  C   UNL A   1      38.393  32.098  33.653  1.00  0.00     0.049 A 
ATOM     33  H   UNL A   1      38.990  30.631  32.257  1.00  0.00     0.167 HD
ATOM     34  C   UNL A   1      40.194  30.856  34.820  1.00  0.00     0.074 A 
ATOM     35  C   UNL A   1      41.065  30.608  35.952  1.00  0.00     0.031 C 
ATOM     36  C   UNL A   1      39.275  31.846  34.761  1.00  0.00     0.037 A 
BRANCH  23  37
ATOM     37  C   UNL A   1      36.087  32.102  29.487  1.00  0.00     0.064 A 
ATOM     38  C   UNL A   1      36.128  33.480  29.215  1.00  0.00     0.173 A 
ATOM     39  C   UNL A   1      35.004  31.375  28.961  1.00  0.00     0.173 A 
ATOM     40  F   UNL A   1      37.125  34.234  29.702  1.00  0.00    -0.203 F 
ATOM     41  C   UNL A   1      35.120  34.101  28.474  1.00  0.00     0.198 A 
ATOM     42  C   UNL A   1      34.015  31.993  28.196  1.00  0.00     0.198 A 
ATOM     43  F   UNL A   1      34.906  30.056  29.183  1.00  0.00    -0.203 F 
ATOM     44  F   UNL A   1      35.158  35.426  28.270  1.00  0.00    -0.200 F 
ATOM     45  C   UNL A   1      34.069  33.357  27.960  1.00  0.00     0.200 A 
ATOM     46  F   UNL A   1      33.007  31.268  27.693  1.00  0.00    -0.200 F 
ATOM     47  F   UNL A   1      33.103  33.956  27.248  1.00  0.00    -0.200 F 
ENDBRANCH  23  37
BRANCH  24  48
ATOM     48  C   UNL A   1      43.440  27.458  34.404  1.00  0.00     0.064 A 
ATOM     49  C   UNL A   1      44.745  27.961  34.525  1.00  0.00     0.173 A 
ATOM     50  C   UNL A   1      43.174  26.228  35.034  1.00  0.00     0.173 A 
ATOM     51  F   UNL A   1      45.084  29.104  33.910  1.00  0.00    -0.203 F 
ATOM     52  C   UNL A   1      45.721  27.279  35.257  1.00  0.00     0.198 A 
ATOM     53  C   UNL A   1      44.126  25.585  35.821  1.00  0.00     0.198 A 
ATOM     54  F   UNL A   1      41.961  25.663  34.922  1.00  0.00    -0.203 F 
ATOM     55  F   UNL A   1      46.973  27.755  35.309  1.00  0.00    -0.200 F 
ATOM     56  C   UNL A   1      45.403  26.106  35.924  1.00  0.00     0.200 A 
ATOM     57  F   UNL A   1      43.797  24.467  36.481  1.00  0.00    -0.200 F 
ATOM     58  F   UNL A   1      46.329  25.469  36.653  1.00  0.00    -0.200 F 
ENDBRANCH  24  48
BRANCH  36  59
ATOM     59  C   UNL A   1      39.158  32.729  35.962  1.00  0.00     0.064 A 
ATOM     60  C   UNL A   1      39.813  33.967  36.029  1.00  0.00     0.173 A 
ATOM     61  C   UNL A   1      38.361  32.340  37.047  1.00  0.00     0.173 A 
ATOM     62  F   UNL A   1      40.597  34.374  35.019  1.00  0.00    -0.203 F 
ATOM     63  C   UNL A   1      39.703  34.769  37.160  1.00  0.00     0.198 A 
ATOM     64  C   UNL A   1      38.223  33.161  38.159  1.00  0.00     0.198 A 
ATOM     65  F   UNL A   1      37.709  31.168  37.019  1.00  0.00    -0.203 F 
ATOM     66  F   UNL A   1      40.384  35.920  37.232  1.00  0.00    -0.200 F 
ATOM     67  C   UNL A   1      38.902  34.368  38.220  1.00  0.00     0.200 A 
ATOM     68  F   UNL A   1      37.437  32.779  39.174  1.00  0.00    -0.200 F 
ATOM     69  F   UNL A   1      38.792  35.144  39.306  1.00  0.00    -0.200 F 
ENDBRANCH  36  59
ENDBRANCH  10  11
ENDBRANCH   3   5
ENDBRANCH   2   3
ENDBRANCH   1   2
BRANCH   1  70
ATOM     70  C   UNL A   1      36.294  22.168  25.320  1.00  0.00     0.274 C 
BRANCH  70  71
ATOM     71  O   UNL A   1      35.658  23.451  25.021  1.00  0.00    -0.461 OA
BRANCH  71  72
ATOM     72  C   UNL A   1      35.139  23.658  23.771  1.00  0.00     0.328 C 
ATOM     73  O   UNL A   1      35.794  23.435  22.755  1.00  0.00    -0.250 OA
BRANCH  72  74
ATOM     74  C   UNL A   1      33.569  23.919  23.734  1.00  0.00     0.192 C 
ATOM     75  C   UNL A   1      32.713  22.266  23.603  1.00  0.00     0.037 C 
ATOM     76  N   UNL A   1      32.868  24.977  24.855  1.00  0.00    -0.358 N 
ATOM     77  C   UNL A   1      31.814  21.322  25.388  1.00  0.00     0.005 C 
ATOM     78  C   UNL A   1      32.065  24.540  26.415  1.00  0.00     0.117 C 
ATOM     79  C   UNL A   1      31.516  22.703  26.830  1.00  0.00     0.022 C 
BRANCH  76  80
ATOM     80  C   UNL A   1      32.836  26.268  24.256  1.00  0.00     0.048 A 
ATOM     81  C   UNL A   1      33.982  27.090  24.355  1.00  0.00     0.046 A 
ATOM     82  C   UNL A   1      31.676  26.918  23.773  1.00  0.00     0.024 A 
ATOM     83  C   UNL A   1      34.030  28.340  23.768  1.00  0.00     0.114 A 
ATOM     84  C   UNL A   1      31.814  28.244  23.256  1.00  0.00     0.072 A 
ATOM     85  C   UNL A   1      30.377  26.385  23.877  1.00  0.00     0.012 A 
ATOM     86  N   UNL A   1      32.971  28.908  23.187  1.00  0.00    -0.256 NA
ATOM     87  C   UNL A   1      30.696  28.950  22.850  1.00  0.00     0.029 A 
ATOM     88  C   UNL A   1      29.259  27.138  23.499  1.00  0.00     0.001 A 
ATOM     89  C   UNL A   1      29.419  28.419  22.979  1.00  0.00     0.002 A 
ENDBRANCH  76  80
ENDBRANCH  72  74
ENDBRANCH  71  72
ENDBRANCH  70  71
ENDBRANCH   1  70
TORSDOF 12
ENDMDL
MODEL 2
REMARK VINA RESULT:     -14.2      1.037      2.079
REMARK SMILES O=C(OCCOC(=O)[C@H]1CCCCN1c1ccnc2ccccc12)c1ccc(-c2c3nc(c(-c4c(F)c(F)c(F)c(F)c4F)c4ccc([nH]4)c(-c4c(F)c(F)c(F)c(F)c4F)c4nc(c(-c5c(F)c(F)c(F)c(F)c5F)c5ccc2[nH]5)C=C4)C=C3)cc1
REMARK SMILES IDX 4 1 3 2 2 3 1 4 25 5 26 6 87 7 27 8 86 9 28 10 29 11 30 12
REMARK SMILES IDX 80 13 31 14 85 15 79 16 81 17 32 18 84 19 78 20 77 21 33 23
REMARK SMILES IDX 65 24 45 25 64 26 46 27 49 28 63 29 82 30 47 31 48 32 62 34
REMARK SMILES IDX 83 35 50 36 34 37 35 38 43 39 36 40 37 41 41 42 44 43 38 44
REMARK SMILES IDX 39 45 42 46 40 47 66 48 67 49 75 50 68 51 69 52 73 53 76 54
REMARK SMILES IDX 70 55 71 56 74 57 72 58 51 59 52 60 60 61 53 62 54 63 58 64
REMARK SMILES IDX 61 65 55 66 56 67 59 68 57 69 5 70 6 71 7 72 8 73 9 74 10 75
REMARK SMILES IDX 14 76 11 77 13 78 12 79 15 80 16 81 24 82 17 83 19 84 23 85
REMARK SMILES IDX 18 86 20 87 22 88 21 89
REMARK H PARENT 81 22 49 33
REMARK Flexibility Score: inf
ROOT
ATOM      1  C   UNL A   1      38.817  21.850  26.266  1.00  0.00     0.275 C 
ENDROOT
BRANCH   1   2
ATOM      2  O   UNL A   1      40.199  21.455  26.015  1.00  0.00    -0.458 OA
BRANCH   2   3
ATOM      3  C   UNL A   1      41.279  22.314  25.933  1.00  0.00     0.338 C 
ATOM      4  O   UNL A   1      42.292  22.024  25.311  1.00  0.00    -0.246 OA
BRANCH   3   5
ATOM      5  C   UNL A   1      41.352  23.389  26.989  1.00  0.00     0.060 A 
ATOM      6  C   UNL A   1      42.820  24.127  26.976  1.00  0.00     0.016 A 
ATOM      7  C   UNL A   1      39.903  24.296  27.312  1.00  0.00     0.016 A 
ATOM      8  C   UNL A   1      42.943  25.857  27.171  1.00  0.00     0.010 A 
ATOM      9  C   UNL A   1      39.853  26.016  27.599  1.00  0.00     0.010 A 
ATOM     10  C   UNL A   1      41.377  26.949  27.600  1.00  0.00    -0.014 A 
BRANCH  10  11
ATOM     11  C   UNL A   1      40.981  28.055  28.883  1.00  0.00     0.031 A 
ATOM     12  C   UNL A   1      39.697  29.012  28.929  1.00  0.00     0.074 A 
ATOM     13  C   UNL A   1      41.689  28.096  30.029  1.00  0.00     0.049 A 
ATOM     14  N   UNL A   1      39.159  29.604  29.991  1.00  0.00    -0.248 NA
ATOM     15  C   UNL A   1      38.950  29.378  27.711  1.00  0.00     0.031 C 
ATOM     16  C   UNL A   1      42.962  27.470  30.127  1.00  0.00     0.029 A 
ATOM     17  N   UNL A   1      41.465  28.535  31.314  1.00  0.00    -0.354 N 
ATOM     18  C   UNL A   1      38.052  30.344  29.549  1.00  0.00     0.074 A 
ATOM     19  C   UNL A   1      37.941  30.114  28.141  1.00  0.00     0.031 C 
ATOM     20  C   UNL A   1      43.298  27.256  31.397  1.00  0.00     0.029 A 
ATOM     21  C   UNL A   1      42.362  27.992  32.225  1.00  0.00     0.049 A 
ATOM     22  H   UNL A   1      40.749  29.165  31.561  1.00  0.00     0.167 HD
ATOM     23  C   UNL A   1      37.223  31.204  30.198  1.00  0.00     0.037 A 
ATOM     24  C   UNL A   1      42.474  28.080  33.566  1.00  0.00     0.037 A 
ATOM     25  C   UNL A   1      37.373  31.586  31.574  1.00  0.00     0.049 A 
ATOM     26  C   UNL A   1      41.557  29.029  34.266  1.00  0.00     0.074 A 
ATOM     27  C   UNL A   1      36.643  32.512  32.299  1.00  0.00     0.029 A 
ATOM     28  N   UNL A   1      38.354  31.095  32.418  1.00  0.00    -0.354 N 
ATOM     29  N   UNL A   1      40.525  29.677  33.784  1.00  0.00    -0.248 NA
ATOM     30  C   UNL A   1      41.871  29.339  35.665  1.00  0.00     0.031 C 
ATOM     31  C   UNL A   1      37.232  32.638  33.559  1.00  0.00     0.029 A 
ATOM     32  C   UNL A   1      38.271  31.726  33.648  1.00  0.00     0.049 A 
ATOM     33  H   UNL A   1      39.011  30.402  32.180  1.00  0.00     0.167 HD
ATOM     34  C   UNL A   1      40.097  30.510  34.803  1.00  0.00     0.074 A 
ATOM     35  C   UNL A   1      40.935  30.232  35.952  1.00  0.00     0.031 C 
ATOM     36  C   UNL A   1      39.122  31.446  34.774  1.00  0.00     0.037 A 
BRANCH  23  37
ATOM     37  C   UNL A   1      36.135  31.897  29.395  1.00  0.00     0.064 A 
ATOM     38  C   UNL A   1      35.034  31.202  28.867  1.00  0.00     0.173 A 
ATOM     39  C   UNL A   1      36.188  33.284  29.171  1.00  0.00     0.173 A 
ATOM     40  F   UNL A   1      34.933  29.874  29.030  1.00  0.00    -0.203 F 
ATOM     41  C   UNL A   1      34.050  31.862  28.128  1.00  0.00     0.198 A 
ATOM     42  C   UNL A   1      35.188  33.945  28.459  1.00  0.00     0.198 A 
ATOM     43  F   UNL A   1      37.212  34.006  29.650  1.00  0.00    -0.203 F 
ATOM     44  F   UNL A   1      33.034  31.168  27.593  1.00  0.00    -0.200 F 
ATOM     45  C   UNL A   1      34.123  33.233  27.931  1.00  0.00     0.200 A 
ATOM     46  F   UNL A   1      35.258  35.271  28.280  1.00  0.00    -0.200 F 
ATOM     47  F   UNL A   1      33.176  33.865  27.222  1.00  0.00    -0.200 F 
ENDBRANCH  23  37
BRANCH  24  48
ATOM     48  C   UNL A   1      43.559  27.346  34.294  1.00  0.00     0.064 A 
ATOM     49  C   UNL A   1      43.342  26.086  34.872  1.00  0.00     0.173 A 
ATOM     50  C   UNL A   1      44.856  27.880  34.404  1.00  0.00     0.173 A 
ATOM     51  F   UNL A   1      42.119  25.536  34.849  1.00  0.00    -0.203 F 
ATOM     52  C   UNL A   1      44.377  25.390  35.505  1.00  0.00     0.198 A 
ATOM     53  C   UNL A   1      45.902  27.157  34.971  1.00  0.00     0.198 A 
ATOM     54  F   UNL A   1      45.124  29.101  33.916  1.00  0.00    -0.203 F 
ATOM     55  F   UNL A   1      44.128  24.213  36.097  1.00  0.00    -0.200 F 
ATOM     56  C   UNL A   1      45.660  25.915  35.531  1.00  0.00     0.200 A 
ATOM     57  F   UNL A   1      47.141  27.665  34.966  1.00  0.00    -0.200 F 
ATOM     58  F   UNL A   1      46.659  25.234  36.108  1.00  0.00    -0.200 F 
ENDBRANCH  24  48
BRANCH  36  59
ATOM     59  C   UNL A   1      38.903  32.232  36.027  1.00  0.00     0.064 A 
ATOM     60  C   UNL A   1      39.440  33.517  36.190  1.00  0.00     0.173 A 
ATOM     61  C   UNL A   1      38.127  31.699  37.065  1.00  0.00     0.173 A 
ATOM     62  F   UNL A   1      40.200  34.061  35.227  1.00  0.00    -0.203 F 
ATOM     63  C   UNL A   1      39.236  34.228  37.368  1.00  0.00     0.198 A 
ATOM     64  C   UNL A   1      37.895  32.427  38.225  1.00  0.00     0.198 A 
ATOM     65  F   UNL A   1      37.587  30.477  36.945  1.00  0.00    -0.203 F 
ATOM     66  F   UNL A   1      39.807  35.428  37.531  1.00  0.00    -0.200 F 
ATOM     67  C   UNL A   1      38.459  33.684  38.381  1.00  0.00     0.200 A 
ATOM     68  F   UNL A   1      37.130  31.907  39.195  1.00  0.00    -0.200 F 
ATOM     69  F   UNL A   1      38.259  34.371  39.513  1.00  0.00    -0.200 F 
ENDBRANCH  36  59
ENDBRANCH  10  11
ENDBRANCH   3   5
ENDBRANCH   2   3
ENDBRANCH   1   2
BRANCH   1  70
ATOM     70  C   UNL A   1      37.858  21.900  25.005  1.00  0.00     0.274 C 
BRANCH  70  71
ATOM     71  O   UNL A   1      36.841  22.950  24.939  1.00  0.00    -0.461 OA
BRANCH  71  72
ATOM     72  C   UNL A   1      36.127  23.110  23.782  1.00  0.00     0.328 C 
ATOM     73  O   UNL A   1      36.673  23.112  22.682  1.00  0.00    -0.250 OA
BRANCH  72  74
ATOM     74  C   UNL A   1      34.547  22.999  23.951  1.00  0.00     0.192 C 
ATOM     75  C   UNL A   1      34.130  21.217  24.314  1.00  0.00     0.037 C 
ATOM     76  N   UNL A   1      33.728  24.116  24.924  1.00  0.00    -0.358 N 
ATOM     77  C   UNL A   1      33.701  20.562  26.380  1.00  0.00     0.005 C 
ATOM     78  C   UNL A   1      33.237  23.906  26.652  1.00  0.00     0.117 C 
ATOM     79  C   UNL A   1      33.221  22.153  27.529  1.00  0.00     0.022 C 
BRANCH  76  80
ATOM     80  C   UNL A   1      33.303  25.182  24.080  1.00  0.00     0.048 A 
ATOM     81  C   UNL A   1      33.085  24.916  22.709  1.00  0.00     0.046 A 
ATOM     82  C   UNL A   1      33.310  26.553  24.428  1.00  0.00     0.024 A 
ATOM     83  C   UNL A   1      32.642  25.896  21.843  1.00  0.00     0.114 A 
ATOM     84  C   UNL A   1      32.908  27.501  23.436  1.00  0.00     0.072 A 
ATOM     85  C   UNL A   1      33.797  27.051  25.652  1.00  0.00     0.012 A 
ATOM     86  N   UNL A   1      32.514  27.176  22.201  1.00  0.00    -0.256 NA
ATOM     87  C   UNL A   1      32.977  28.856  23.702  1.00  0.00     0.029 A 
ATOM     88  C   UNL A   1      33.898  28.428  25.879  1.00  0.00     0.001 A 
ATOM     89  C   UNL A   1      33.481  29.332  24.907  1.00  0.00     0.002 A 
ENDBRANCH  76  80
ENDBRANCH  72  74
ENDBRANCH  71  72
ENDBRANCH  70  71
ENDBRANCH   1  70
TORSDOF 12
ENDMDL
MODEL 3
REMARK VINA RESULT:     -13.9      5.304     10.519
REMARK SMILES O=C(OCCOC(=O)[C@H]1CCCCN1c1ccnc2ccccc12)c1ccc(-c2c3nc(c(-c4c(F)c(F)c(F)c(F)c4F)c4ccc([nH]4)c(-c4c(F)c(F)c(F)c(F)c4F)c4nc(c(-c5c(F)c(F)c(F)c(F)c5F)c5ccc2[nH]5)C=C4)C=C3)cc1
REMARK SMILES IDX 4 1 3 2 2 3 1 4 25 5 26 6 87 7 27 8 86 9 28 10 29 11 30 12
REMARK SMILES IDX 80 13 31 14 85 15 79 16 81 17 32 18 84 19 78 20 77 21 33 23
REMARK SMILES IDX 65 24 45 25 64 26 46 27 49 28 63 29 82 30 47 31 48 32 62 34
REMARK SMILES IDX 83 35 50 36 34 37 35 38 43 39 36 40 37 41 41 42 44 43 38 44
REMARK SMILES IDX 39 45 42 46 40 47 66 48 67 49 75 50 68 51 69 52 73 53 76 54
REMARK SMILES IDX 70 55 71 56 74 57 72 58 51 59 52 60 60 61 53 62 54 63 58 64
REMARK SMILES IDX 61 65 55 66 56 67 59 68 57 69 5 70 6 71 7 72 8 73 9 74 10 75
REMARK SMILES IDX 14 76 11 77 13 78 12 79 15 80 16 81 24 82 17 83 19 84 23 85
REMARK SMILES IDX 18 86 20 87 22 88 21 89
REMARK H PARENT 81 22 49 33
REMARK Flexibility Score: inf
ROOT
ATOM      1  C   UNL A   1      32.857  30.738  26.994  1.00  0.00     0.275 C 
ENDROOT
BRANCH   1   2
ATOM      2  O   UNL A   1      33.649  30.982  28.195  1.00  0.00    -0.458 OA
BRANCH   2   3
ATOM      3  C   UNL A   1      34.561  32.008  28.362  1.00  0.00     0.338 C 
ATOM      4  O   UNL A   1      34.273  33.174  28.130  1.00  0.00    -0.246 OA
BRANCH   3   5
ATOM      5  C   UNL A   1      36.015  31.604  28.388  1.00  0.00     0.060 A 
ATOM      6  C   UNL A   1      36.698  31.964  29.837  1.00  0.00     0.016 A 
ATOM      7  C   UNL A   1      36.461  30.160  27.527  1.00  0.00     0.016 A 
ATOM      8  C   UNL A   1      37.801  30.846  30.598  1.00  0.00     0.010 A 
ATOM      9  C   UNL A   1      37.598  28.971  28.107  1.00  0.00     0.010 A 
ATOM     10  C   UNL A   1      38.409  29.228  29.679  1.00  0.00    -0.014 A 
BRANCH  10  11
ATOM     11  C   UNL A   1      39.969  28.586  29.252  1.00  0.00     0.031 A 
ATOM     12  C   UNL A   1      40.248  27.123  28.663  1.00  0.00     0.074 A 
ATOM     13  C   UNL A   1      41.081  29.348  29.274  1.00  0.00     0.049 A 
ATOM     14  N   UNL A   1      41.324  26.699  28.008  1.00  0.00    -0.248 NA
ATOM     15  C   UNL A   1      39.283  26.018  28.822  1.00  0.00     0.031 C 
ATOM     16  C   UNL A   1      41.094  30.609  29.932  1.00  0.00     0.029 A 
ATOM     17  N   UNL A   1      42.326  29.296  28.689  1.00  0.00    -0.354 N 
ATOM     18  C   UNL A   1      41.123  25.348  27.688  1.00  0.00     0.074 A 
ATOM     19  C   UNL A   1      39.818  25.005  28.165  1.00  0.00     0.031 C 
ATOM     20  C   UNL A   1      42.096  31.369  29.500  1.00  0.00     0.029 A 
ATOM     21  C   UNL A   1      42.974  30.524  28.712  1.00  0.00     0.049 A 
ATOM     22  H   UNL A   1      42.714  28.480  28.298  1.00  0.00     0.167 HD
ATOM     23  C   UNL A   1      41.940  24.422  27.121  1.00  0.00     0.037 A 
ATOM     24  C   UNL A   1      44.149  30.951  28.205  1.00  0.00     0.037 A 
ATOM     25  C   UNL A   1      43.307  24.668  26.755  1.00  0.00     0.049 A 
ATOM     26  C   UNL A   1      45.038  29.923  27.585  1.00  0.00     0.074 A 
ATOM     27  C   UNL A   1      44.243  23.779  26.257  1.00  0.00     0.029 A 
ATOM     28  N   UNL A   1      43.946  25.888  26.897  1.00  0.00    -0.354 N 
ATOM     29  N   UNL A   1      44.770  28.672  27.303  1.00  0.00    -0.248 NA
ATOM     30  C   UNL A   1      46.419  30.328  27.303  1.00  0.00     0.031 C 
ATOM     31  C   UNL A   1      45.469  24.442  26.171  1.00  0.00     0.029 A 
ATOM     32  C   UNL A   1      45.275  25.766  26.529  1.00  0.00     0.049 A 
ATOM     33  H   UNL A   1      43.519  26.718  27.211  1.00  0.00     0.167 HD
ATOM     34  C   UNL A   1      45.961  28.126  26.857  1.00  0.00     0.074 A 
ATOM     35  C   UNL A   1      46.934  29.200  26.838  1.00  0.00     0.031 C 
ATOM     36  C   UNL A   1      46.230  26.841  26.530  1.00  0.00     0.037 A 
BRANCH  23  37
ATOM     37  C   UNL A   1      41.421  23.003  26.966  1.00  0.00     0.064 A 
ATOM     38  C   UNL A   1      42.035  21.907  27.593  1.00  0.00     0.173 A 
ATOM     39  C   UNL A   1      40.276  22.743  26.193  1.00  0.00     0.173 A 
ATOM     40  F   UNL A   1      43.141  22.084  28.331  1.00  0.00    -0.203 F 
ATOM     41  C   UNL A   1      41.540  20.610  27.431  1.00  0.00     0.198 A 
ATOM     42  C   UNL A   1      39.766  21.452  26.057  1.00  0.00     0.198 A 
ATOM     43  F   UNL A   1      39.641  23.747  25.569  1.00  0.00    -0.203 F 
ATOM     44  F   UNL A   1      42.174  19.574  28.001  1.00  0.00    -0.200 F 
ATOM     45  C   UNL A   1      40.403  20.385  26.669  1.00  0.00     0.200 A 
ATOM     46  F   UNL A   1      38.662  21.241  25.328  1.00  0.00    -0.200 F 
ATOM     47  F   UNL A   1      39.930  19.140  26.516  1.00  0.00    -0.200 F 
ENDBRANCH  23  37
BRANCH  24  48
ATOM     48  C   UNL A   1      44.585  32.374  28.375  1.00  0.00     0.064 A 
ATOM     49  C   UNL A   1      44.346  33.346  27.391  1.00  0.00     0.173 A 
ATOM     50  C   UNL A   1      45.230  32.806  29.549  1.00  0.00     0.173 A 
ATOM     51  F   UNL A   1      43.778  32.998  26.227  1.00  0.00    -0.203 F 
ATOM     52  C   UNL A   1      44.713  34.681  27.584  1.00  0.00     0.198 A 
ATOM     53  C   UNL A   1      45.532  34.147  29.770  1.00  0.00     0.198 A 
ATOM     54  F   UNL A   1      45.534  31.923  30.513  1.00  0.00    -0.203 F 
ATOM     55  F   UNL A   1      44.523  35.576  26.605  1.00  0.00    -0.200 F 
ATOM     56  C   UNL A   1      45.282  35.083  28.783  1.00  0.00     0.200 A 
ATOM     57  F   UNL A   1      46.058  34.526  30.943  1.00  0.00    -0.200 F 
ATOM     58  F   UNL A   1      45.604  36.369  28.982  1.00  0.00    -0.200 F 
ENDBRANCH  24  48
BRANCH  36  59
ATOM     59  C   UNL A   1      47.632  26.531  26.115  1.00  0.00     0.064 A 
ATOM     60  C   UNL A   1      48.090  26.801  24.818  1.00  0.00     0.173 A 
ATOM     61  C   UNL A   1      48.533  25.978  27.035  1.00  0.00     0.173 A 
ATOM     62  F   UNL A   1      47.259  27.318  23.900  1.00  0.00    -0.203 F 
ATOM     63  C   UNL A   1      49.395  26.494  24.446  1.00  0.00     0.198 A 
ATOM     64  C   UNL A   1      49.846  25.706  26.671  1.00  0.00     0.198 A 
ATOM     65  F   UNL A   1      48.139  25.712  28.290  1.00  0.00    -0.203 F 
ATOM     66  F   UNL A   1      49.797  26.702  23.185  1.00  0.00    -0.200 F 
ATOM     67  C   UNL A   1      50.272  25.953  25.375  1.00  0.00     0.200 A 
ATOM     68  F   UNL A   1      50.696  25.200  27.574  1.00  0.00    -0.200 F 
ATOM     69  F   UNL A   1      51.530  25.662  25.017  1.00  0.00    -0.200 F 
ENDBRANCH  36  59
ENDBRANCH  10  11
ENDBRANCH   3   5
ENDBRANCH   2   3
ENDBRANCH   1   2
BRANCH   1  70
ATOM     70  C   UNL A   1      31.897  29.476  27.027  1.00  0.00     0.274 C 
BRANCH  70  71
ATOM     71  O   UNL A   1      32.471  28.168  27.342  1.00  0.00    -0.461 OA
BRANCH  71  72
ATOM     72  C   UNL A   1      33.212  27.522  26.388  1.00  0.00     0.328 C 
ATOM     73  O   UNL A   1      34.403  27.770  26.219  1.00  0.00    -0.250 OA
BRANCH  72  74
ATOM     74  C   UNL A   1      32.504  26.253  25.737  1.00  0.00     0.192 C 
ATOM     75  C   UNL A   1      30.722  26.696  25.402  1.00  0.00     0.037 C 
ATOM     76  N   UNL A   1      33.264  25.428  24.469  1.00  0.00    -0.358 N 
ATOM     77  C   UNL A   1      30.064  27.244  23.365  1.00  0.00     0.005 C 
ATOM     78  C   UNL A   1      32.973  25.642  22.696  1.00  0.00     0.117 C 
ATOM     79  C   UNL A   1      31.401  26.586  22.001  1.00  0.00     0.022 C 
BRANCH  76  80
ATOM     80  C   UNL A   1      34.034  24.379  25.047  1.00  0.00     0.048 A 
ATOM     81  C   UNL A   1      35.397  24.618  25.338  1.00  0.00     0.046 A 
ATOM     82  C   UNL A   1      33.633  23.026  25.139  1.00  0.00     0.024 A 
ATOM     83  C   UNL A   1      36.191  23.656  25.930  1.00  0.00     0.114 A 
ATOM     84  C   UNL A   1      34.557  22.087  25.696  1.00  0.00     0.072 A 
ATOM     85  C   UNL A   1      32.427  22.526  24.612  1.00  0.00     0.012 A 
ATOM     86  N   UNL A   1      35.774  22.406  26.146  1.00  0.00    -0.256 NA
ATOM     87  C   UNL A   1      34.243  20.741  25.730  1.00  0.00     0.029 A 
ATOM     88  C   UNL A   1      32.153  21.153  24.621  1.00  0.00     0.001 A 
ATOM     89  C   UNL A   1      33.058  20.260  25.186  1.00  0.00     0.002 A 
ENDBRANCH  76  80
ENDBRANCH  72  74
ENDBRANCH  71  72
ENDBRANCH  70  71
ENDBRANCH   1  70
TORSDOF 12
ENDMDL
