MODEL 1
REMARK VINA RESULT:     -10.5      0.000      0.000
REMARK SMILES CC[C@@H](NC(=O)[C@H](C)C[NH2+]C)C(=O)OCCOC(=O)c1ccc(-c2c3nc(c(-c4c(F)c(F)c(F)c(F)c4F)c4ccc([nH]4)c(-c4c(F)c(F)c(F)c(F)c4F)c4nc(c(-c5c(F)c(F)c(F)c(F)c5F)c5ccc2[nH]5)C=C4)C=C3)cc1
REMARK SMILES IDX 15 1 14 2 12 3 13 4 3 5 2 6 1 7 4 8 5 9 6 11 7 12 8 13 9 14
REMARK SMILES IDX 10 15 11 16 16 19 17 20 18 21 19 22 20 23 21 24 82 25 22 26
REMARK SMILES IDX 81 27 23 28 24 29 25 30 75 31 26 32 80 33 74 34 76 35 27 36
REMARK SMILES IDX 79 37 73 38 72 39 28 41 60 42 40 43 59 44 41 45 44 46 58 47
REMARK SMILES IDX 77 48 42 49 43 50 57 52 78 53 45 54 29 55 30 56 38 57 31 58
REMARK SMILES IDX 32 59 36 60 39 61 33 62 34 63 37 64 35 65 61 66 62 67 70 68
REMARK SMILES IDX 63 69 64 70 68 71 71 72 65 73 66 74 69 75 67 76 46 77 47 78
REMARK SMILES IDX 55 79 48 80 49 81 53 82 56 83 50 84 51 85 54 86 52 87
REMARK H PARENT 4 10 10 17 10 18 76 40 44 51
REMARK Flexibility Score: inf
ROOT
ATOM      1  C   UNL A   1      31.403  29.916  25.371  1.00  0.00     0.274 C 
ENDROOT
BRANCH   1   2
ATOM      2  O   UNL A   1      31.876  28.555  25.262  1.00  0.00    -0.461 OA
BRANCH   2   3
ATOM      3  C   UNL A   1      30.990  27.603  24.857  1.00  0.00     0.328 C 
ATOM      4  O   UNL A   1      30.559  26.707  25.574  1.00  0.00    -0.250 OA
BRANCH   3   5
ATOM      5  C   UNL A   1      30.668  27.706  23.346  1.00  0.00     0.192 C 
BRANCH   5   6
ATOM      6  C   UNL A   1      31.441  26.741  22.428  1.00  0.00     0.033 C 
ATOM      7  C   UNL A   1      32.891  27.166  22.211  1.00  0.00     0.007 C 
ENDBRANCH   5   6
BRANCH   5   8
ATOM      8  N   UNL A   1      29.238  27.800  22.988  1.00  0.00    -0.342 N 
ATOM      9  C   UNL A   1      28.334  28.824  23.063  1.00  0.00     0.229 C 
ATOM     10  H   UNL A   1      28.863  26.965  22.625  1.00  0.00     0.164 HD
ATOM     11  O   UNL A   1      27.139  28.526  23.079  1.00  0.00    -0.275 OA
BRANCH   9  12
ATOM     12  C   UNL A   1      28.807  30.273  23.028  1.00  0.00     0.130 C 
ATOM     13  C   UNL A   1      27.811  31.208  23.698  1.00  0.00     0.024 C 
BRANCH  12  14
ATOM     14  C   UNL A   1      29.107  30.741  21.585  1.00  0.00     0.273 C 
BRANCH  14  15
ATOM     15  N   UNL A   1      27.889  30.918  20.776  1.00  0.00    -0.348 N 
ATOM     16  C   UNL A   1      27.787  32.218  20.134  1.00  0.00     0.330 C 
ATOM     17  H   UNL A   1      27.080  30.798  21.386  1.00  0.00     0.346 HD
ATOM     18  H   UNL A   1      27.927  30.223  20.031  1.00  0.00     0.346 HD
ENDBRANCH  14  15
ENDBRANCH  12  14
ENDBRANCH   9  12
ENDBRANCH   5   8
ENDBRANCH   3   5
ENDBRANCH   2   3
ENDBRANCH   1   2
BRANCH   1  19
ATOM     19  C   UNL A   1      31.872  30.581  26.664  1.00  0.00     0.275 C 
BRANCH  19  20
ATOM     20  O   UNL A   1      33.288  30.786  26.618  1.00  0.00    -0.458 OA
BRANCH  20  21
ATOM     21  C   UNL A   1      33.725  31.784  27.414  1.00  0.00     0.338 C 
ATOM     22  O   UNL A   1      33.097  32.752  27.819  1.00  0.00    -0.246 OA
BRANCH  21  23
ATOM     23  C   UNL A   1      35.046  31.415  27.927  1.00  0.00     0.060 A 
ATOM     24  C   UNL A   1      35.239  30.082  28.308  1.00  0.00     0.016 A 
ATOM     25  C   UNL A   1      36.063  32.362  28.054  1.00  0.00     0.016 A 
ATOM     26  C   UNL A   1      36.450  29.690  28.853  1.00  0.00     0.010 A 
ATOM     27  C   UNL A   1      37.272  31.974  28.617  1.00  0.00     0.010 A 
ATOM     28  C   UNL A   1      37.452  30.648  29.047  1.00  0.00    -0.014 A 
BRANCH  28  29
ATOM     29  C   UNL A   1      38.616  30.316  29.885  1.00  0.00     0.031 A 
ATOM     30  C   UNL A   1      39.624  29.358  29.330  1.00  0.00     0.074 A 
ATOM     31  C   UNL A   1      38.748  30.859  31.105  1.00  0.00     0.049 A 
ATOM     32  N   UNL A   1      40.643  28.790  29.916  1.00  0.00    -0.248 NA
ATOM     33  C   UNL A   1      39.452  28.978  27.917  1.00  0.00     0.031 C 
ATOM     34  C   UNL A   1      37.842  31.845  31.693  1.00  0.00     0.029 A 
ATOM     35  N   UNL A   1      39.689  30.638  32.074  1.00  0.00    -0.354 N 
ATOM     36  C   UNL A   1      41.218  27.972  28.954  1.00  0.00     0.074 A 
ATOM     37  C   UNL A   1      40.427  28.098  27.751  1.00  0.00     0.031 C 
ATOM     38  C   UNL A   1      38.258  32.124  32.940  1.00  0.00     0.029 A 
ATOM     39  C   UNL A   1      39.426  31.304  33.244  1.00  0.00     0.049 A 
ATOM     40  H   UNL A   1      40.475  30.060  31.945  1.00  0.00     0.167 HD
ATOM     41  C   UNL A   1      42.313  27.186  29.075  1.00  0.00     0.037 A 
ATOM     42  C   UNL A   1      40.045  31.216  34.435  1.00  0.00     0.037 A 
ATOM     43  C   UNL A   1      43.076  27.077  30.289  1.00  0.00     0.049 A 
ATOM     44  C   UNL A   1      41.224  30.286  34.565  1.00  0.00     0.074 A 
ATOM     45  C   UNL A   1      44.197  26.310  30.541  1.00  0.00     0.029 A 
ATOM     46  N   UNL A   1      42.782  27.764  31.460  1.00  0.00    -0.354 N 
ATOM     47  N   UNL A   1      41.763  29.502  33.659  1.00  0.00    -0.248 NA
ATOM     48  C   UNL A   1      41.879  30.226  35.876  1.00  0.00     0.031 C 
ATOM     49  C   UNL A   1      44.558  26.501  31.880  1.00  0.00     0.029 A 
ATOM     50  C   UNL A   1      43.694  27.428  32.445  1.00  0.00     0.049 A 
ATOM     51  H   UNL A   1      42.037  28.397  31.572  1.00  0.00     0.167 HD
ATOM     52  C   UNL A   1      42.832  28.875  34.283  1.00  0.00     0.074 A 
ATOM     53  C   UNL A   1      42.874  29.382  35.640  1.00  0.00     0.031 C 
ATOM     54  C   UNL A   1      43.704  27.962  33.784  1.00  0.00     0.037 A 
BRANCH  41  55
ATOM     55  C   UNL A   1      42.711  26.367  27.883  1.00  0.00     0.064 A 
ATOM     56  C   UNL A   1      43.623  26.844  26.929  1.00  0.00     0.173 A 
ATOM     57  C   UNL A   1      42.174  25.085  27.691  1.00  0.00     0.173 A 
ATOM     58  F   UNL A   1      44.147  28.073  27.051  1.00  0.00    -0.203 F 
ATOM     59  C   UNL A   1      43.961  26.080  25.814  1.00  0.00     0.198 A 
ATOM     60  C   UNL A   1      42.537  24.312  26.591  1.00  0.00     0.198 A 
ATOM     61  F   UNL A   1      41.293  24.583  28.569  1.00  0.00    -0.203 F 
ATOM     62  F   UNL A   1      44.793  26.577  24.889  1.00  0.00    -0.200 F 
ATOM     63  C   UNL A   1      43.423  24.812  25.650  1.00  0.00     0.200 A 
ATOM     64  F   UNL A   1      42.021  23.084  26.438  1.00  0.00    -0.200 F 
ATOM     65  F   UNL A   1      43.751  24.076  24.579  1.00  0.00    -0.200 F 
ENDBRANCH  41  55
BRANCH  42  66
ATOM     66  C   UNL A   1      39.548  32.004  35.592  1.00  0.00     0.064 A 
ATOM     67  C   UNL A   1      38.592  31.477  36.469  1.00  0.00     0.173 A 
ATOM     68  C   UNL A   1      40.024  33.299  35.849  1.00  0.00     0.173 A 
ATOM     69  F   UNL A   1      38.089  30.251  36.255  1.00  0.00    -0.203 F 
ATOM     70  C   UNL A   1      38.117  32.220  37.549  1.00  0.00     0.198 A 
ATOM     71  C   UNL A   1      39.571  34.030  36.946  1.00  0.00     0.198 A 
ATOM     72  F   UNL A   1      40.942  33.850  35.041  1.00  0.00    -0.203 F 
ATOM     73  F   UNL A   1      37.171  31.708  38.347  1.00  0.00    -0.200 F 
ATOM     74  C   UNL A   1      38.613  33.493  37.790  1.00  0.00     0.200 A 
ATOM     75  F   UNL A   1      40.064  35.254  37.182  1.00  0.00    -0.200 F 
ATOM     76  F   UNL A   1      38.161  34.203  38.833  1.00  0.00    -0.200 F 
ENDBRANCH  42  66
BRANCH  54  77
ATOM     77  C   UNL A   1      44.792  27.490  34.701  1.00  0.00     0.064 A 
ATOM     78  C   UNL A   1      46.014  28.169  34.805  1.00  0.00     0.173 A 
ATOM     79  C   UNL A   1      44.587  26.367  35.520  1.00  0.00     0.173 A 
ATOM     80  F   UNL A   1      46.259  29.238  34.033  1.00  0.00    -0.203 F 
ATOM     81  C   UNL A   1      47.003  27.726  35.678  1.00  0.00     0.198 A 
ATOM     82  C   UNL A   1      45.568  25.947  36.413  1.00  0.00     0.198 A 
ATOM     83  F   UNL A   1      43.431  25.691  35.462  1.00  0.00    -0.203 F 
ATOM     84  F   UNL A   1      48.182  28.361  35.727  1.00  0.00    -0.200 F 
ATOM     85  C   UNL A   1      46.777  26.622  36.485  1.00  0.00     0.200 A 
ATOM     86  F   UNL A   1      45.341  24.889  37.204  1.00  0.00    -0.200 F 
ATOM     87  F   UNL A   1      47.728  26.203  37.331  1.00  0.00    -0.200 F 
ENDBRANCH  54  77
ENDBRANCH  28  29
ENDBRANCH  21  23
ENDBRANCH  20  21
ENDBRANCH  19  20
ENDBRANCH   1  19
TORSDOF 16
ENDMDL
MODEL 2
REMARK VINA RESULT:     -10.4      1.501      2.445
REMARK SMILES CC[C@@H](NC(=O)[C@H](C)C[NH2+]C)C(=O)OCCOC(=O)c1ccc(-c2c3nc(c(-c4c(F)c(F)c(F)c(F)c4F)c4ccc([nH]4)c(-c4c(F)c(F)c(F)c(F)c4F)c4nc(c(-c5c(F)c(F)c(F)c(F)c5F)c5ccc2[nH]5)C=C4)C=C3)cc1
REMARK SMILES IDX 15 1 14 2 12 3 13 4 3 5 2 6 1 7 4 8 5 9 6 11 7 12 8 13 9 14
REMARK SMILES IDX 10 15 11 16 16 19 17 20 18 21 19 22 20 23 21 24 82 25 22 26
REMARK SMILES IDX 81 27 23 28 24 29 25 30 75 31 26 32 80 33 74 34 76 35 27 36
REMARK SMILES IDX 79 37 73 38 72 39 28 41 60 42 40 43 59 44 41 45 44 46 58 47
REMARK SMILES IDX 77 48 42 49 43 50 57 52 78 53 45 54 29 55 30 56 38 57 31 58
REMARK SMILES IDX 32 59 36 60 39 61 33 62 34 63 37 64 35 65 61 66 62 67 70 68
REMARK SMILES IDX 63 69 64 70 68 71 71 72 65 73 66 74 69 75 67 76 46 77 47 78
REMARK SMILES IDX 55 79 48 80 49 81 53 82 56 83 50 84 51 85 54 86 52 87
REMARK H PARENT 4 10 10 17 10 18 76 40 44 51
REMARK Flexibility Score: inf
ROOT
ATOM      1  C   UNL A   1      31.638  29.780  25.395  1.00  0.00     0.274 C 
ENDROOT
BRANCH   1   2
ATOM      2  O   UNL A   1      32.282  28.567  25.843  1.00  0.00    -0.461 OA
BRANCH   2   3
ATOM      3  C   UNL A   1      31.501  27.595  26.393  1.00  0.00     0.328 C 
ATOM      4  O   UNL A   1      31.028  27.643  27.523  1.00  0.00    -0.250 OA
BRANCH   3   5
ATOM      5  C   UNL A   1      31.363  26.360  25.471  1.00  0.00     0.192 C 
BRANCH   5   6
ATOM      6  C   UNL A   1      30.766  25.100  26.124  1.00  0.00     0.033 C 
ATOM      7  C   UNL A   1      31.833  24.171  26.699  1.00  0.00     0.007 C 
ENDBRANCH   5   6
BRANCH   5   8
ATOM      8  N   UNL A   1      30.814  26.609  24.123  1.00  0.00    -0.342 N 
ATOM      9  C   UNL A   1      31.390  27.029  22.955  1.00  0.00     0.229 C 
ATOM     10  H   UNL A   1      29.846  26.442  24.049  1.00  0.00     0.164 HD
ATOM     11  O   UNL A   1      30.653  27.531  22.106  1.00  0.00    -0.275 OA
BRANCH   9  12
ATOM     12  C   UNL A   1      32.873  26.786  22.698  1.00  0.00     0.130 C 
ATOM     13  C   UNL A   1      33.592  28.064  22.293  1.00  0.00     0.024 C 
BRANCH  12  14
ATOM     14  C   UNL A   1      33.095  25.679  21.641  1.00  0.00     0.273 C 
BRANCH  14  15
ATOM     15  N   UNL A   1      32.168  24.545  21.797  1.00  0.00    -0.348 N 
ATOM     16  C   UNL A   1      32.608  23.547  22.758  1.00  0.00     0.330 C 
ATOM     17  H   UNL A   1      32.062  24.091  20.889  1.00  0.00     0.346 HD
ATOM     18  H   UNL A   1      31.291  24.928  22.150  1.00  0.00     0.346 HD
ENDBRANCH  14  15
ENDBRANCH  12  14
ENDBRANCH   9  12
ENDBRANCH   5   8
ENDBRANCH   3   5
ENDBRANCH   2   3
ENDBRANCH   1   2
BRANCH   1  19
ATOM     19  C   UNL A   1      31.749  30.899  26.429  1.00  0.00     0.275 C 
BRANCH  19  20
ATOM     20  O   UNL A   1      32.906  30.693  27.247  1.00  0.00    -0.458 OA
BRANCH  20  21
ATOM     21  C   UNL A   1      33.575  31.825  27.548  1.00  0.00     0.338 C 
ATOM     22  O   UNL A   1      33.139  32.966  27.594  1.00  0.00    -0.246 OA
BRANCH  21  23
ATOM     23  C   UNL A   1      34.900  31.454  28.048  1.00  0.00     0.060 A 
ATOM     24  C   UNL A   1      35.108  30.111  28.384  1.00  0.00     0.016 A 
ATOM     25  C   UNL A   1      35.907  32.407  28.208  1.00  0.00     0.016 A 
ATOM     26  C   UNL A   1      36.324  29.713  28.916  1.00  0.00     0.010 A 
ATOM     27  C   UNL A   1      37.120  32.013  28.758  1.00  0.00     0.010 A 
ATOM     28  C   UNL A   1      37.314  30.675  29.142  1.00  0.00    -0.014 A 
BRANCH  28  29
ATOM     29  C   UNL A   1      38.482  30.328  29.970  1.00  0.00     0.031 A 
ATOM     30  C   UNL A   1      39.470  29.354  29.406  1.00  0.00     0.074 A 
ATOM     31  C   UNL A   1      38.635  30.872  31.186  1.00  0.00     0.049 A 
ATOM     32  N   UNL A   1      40.486  28.772  29.984  1.00  0.00    -0.248 NA
ATOM     33  C   UNL A   1      39.277  28.972  27.996  1.00  0.00     0.031 C 
ATOM     34  C   UNL A   1      37.751  31.873  31.781  1.00  0.00     0.029 A 
ATOM     35  N   UNL A   1      39.582  30.639  32.146  1.00  0.00    -0.354 N 
ATOM     36  C   UNL A   1      41.039  27.943  29.018  1.00  0.00     0.074 A 
ATOM     37  C   UNL A   1      40.237  28.078  27.823  1.00  0.00     0.031 C 
ATOM     38  C   UNL A   1      38.183  32.150  33.022  1.00  0.00     0.029 A 
ATOM     39  C   UNL A   1      39.342  31.312  33.317  1.00  0.00     0.049 A 
ATOM     40  H   UNL A   1      40.358  30.050  32.010  1.00  0.00     0.167 HD
ATOM     41  C   UNL A   1      42.123  27.141  29.129  1.00  0.00     0.037 A 
ATOM     42  C   UNL A   1      39.973  31.218  34.502  1.00  0.00     0.037 A 
ATOM     43  C   UNL A   1      42.897  27.024  30.335  1.00  0.00     0.049 A 
ATOM     44  C   UNL A   1      41.138  30.271  34.621  1.00  0.00     0.074 A 
ATOM     45  C   UNL A   1      44.009  26.241  30.578  1.00  0.00     0.029 A 
ATOM     46  N   UNL A   1      42.626  27.718  31.507  1.00  0.00    -0.354 N 
ATOM     47  N   UNL A   1      41.656  29.477  33.712  1.00  0.00    -0.248 NA
ATOM     48  C   UNL A   1      41.806  30.204  35.926  1.00  0.00     0.031 C 
ATOM     49  C   UNL A   1      44.387  26.430  31.912  1.00  0.00     0.029 A 
ATOM     50  C   UNL A   1      43.543  27.371  32.484  1.00  0.00     0.049 A 
ATOM     51  H   UNL A   1      41.892  28.363  31.626  1.00  0.00     0.167 HD
ATOM     52  C   UNL A   1      42.722  28.835  34.326  1.00  0.00     0.074 A 
ATOM     53  C   UNL A   1      42.786  29.345  35.682  1.00  0.00     0.031 C 
ATOM     54  C   UNL A   1      43.575  27.908  33.821  1.00  0.00     0.037 A 
BRANCH  41  55
ATOM     55  C   UNL A   1      42.497  26.313  27.935  1.00  0.00     0.064 A 
ATOM     56  C   UNL A   1      43.454  26.745  27.005  1.00  0.00     0.173 A 
ATOM     57  C   UNL A   1      41.888  25.068  27.717  1.00  0.00     0.173 A 
ATOM     58  F   UNL A   1      44.048  27.940  27.153  1.00  0.00    -0.203 F 
ATOM     59  C   UNL A   1      43.769  25.975  25.888  1.00  0.00     0.198 A 
ATOM     60  C   UNL A   1      42.227  24.286  26.615  1.00  0.00     0.198 A 
ATOM     61  F   UNL A   1      40.962  24.608  28.572  1.00  0.00    -0.203 F 
ATOM     62  F   UNL A   1      44.648  26.433  24.985  1.00  0.00    -0.200 F 
ATOM     63  C   UNL A   1      43.161  24.743  25.698  1.00  0.00     0.200 A 
ATOM     64  F   UNL A   1      41.643  23.092  26.437  1.00  0.00    -0.200 F 
ATOM     65  F   UNL A   1      43.466  24.002  24.624  1.00  0.00    -0.200 F 
ENDBRANCH  41  55
BRANCH  42  66
ATOM     66  C   UNL A   1      39.499  32.017  35.661  1.00  0.00     0.064 A 
ATOM     67  C   UNL A   1      40.012  33.295  35.917  1.00  0.00     0.173 A 
ATOM     68  C   UNL A   1      38.518  31.523  36.534  1.00  0.00     0.173 A 
ATOM     69  F   UNL A   1      40.968  33.804  35.124  1.00  0.00    -0.203 F 
ATOM     70  C   UNL A   1      39.575  34.042  37.009  1.00  0.00     0.198 A 
ATOM     71  C   UNL A   1      38.060  32.282  37.609  1.00  0.00     0.198 A 
ATOM     72  F   UNL A   1      37.991  30.305  36.333  1.00  0.00    -0.203 F 
ATOM     73  F   UNL A   1      40.114  35.243  37.255  1.00  0.00    -0.200 F 
ATOM     74  C   UNL A   1      38.594  33.537  37.850  1.00  0.00     0.200 A 
ATOM     75  F   UNL A   1      37.102  31.795  38.411  1.00  0.00    -0.200 F 
ATOM     76  F   UNL A   1      38.170  34.258  38.897  1.00  0.00    -0.200 F 
ENDBRANCH  42  66
BRANCH  54  77
ATOM     77  C   UNL A   1      44.666  27.422  34.728  1.00  0.00     0.064 A 
ATOM     78  C   UNL A   1      45.896  28.086  34.822  1.00  0.00     0.173 A 
ATOM     79  C   UNL A   1      44.455  26.301  35.547  1.00  0.00     0.173 A 
ATOM     80  F   UNL A   1      46.147  29.154  34.049  1.00  0.00    -0.203 F 
ATOM     81  C   UNL A   1      46.888  27.631  35.685  1.00  0.00     0.198 A 
ATOM     82  C   UNL A   1      45.438  25.869  36.432  1.00  0.00     0.198 A 
ATOM     83  F   UNL A   1      43.290  25.638  35.500  1.00  0.00    -0.203 F 
ATOM     84  F   UNL A   1      48.075  28.252  35.725  1.00  0.00    -0.200 F 
ATOM     85  C   UNL A   1      46.656  26.529  36.494  1.00  0.00     0.200 A 
ATOM     86  F   UNL A   1      45.206  24.813  37.223  1.00  0.00    -0.200 F 
ATOM     87  F   UNL A   1      47.609  26.097  37.331  1.00  0.00    -0.200 F 
ENDBRANCH  54  77
ENDBRANCH  28  29
ENDBRANCH  21  23
ENDBRANCH  20  21
ENDBRANCH  19  20
ENDBRANCH   1  19
TORSDOF 16
ENDMDL
MODEL 3
REMARK VINA RESULT:     -10.4      1.461      2.929
REMARK SMILES CC[C@@H](NC(=O)[C@H](C)C[NH2+]C)C(=O)OCCOC(=O)c1ccc(-c2c3nc(c(-c4c(F)c(F)c(F)c(F)c4F)c4ccc([nH]4)c(-c4c(F)c(F)c(F)c(F)c4F)c4nc(c(-c5c(F)c(F)c(F)c(F)c5F)c5ccc2[nH]5)C=C4)C=C3)cc1
REMARK SMILES IDX 15 1 14 2 12 3 13 4 3 5 2 6 1 7 4 8 5 9 6 11 7 12 8 13 9 14
REMARK SMILES IDX 10 15 11 16 16 19 17 20 18 21 19 22 20 23 21 24 82 25 22 26
REMARK SMILES IDX 81 27 23 28 24 29 25 30 75 31 26 32 80 33 74 34 76 35 27 36
REMARK SMILES IDX 79 37 73 38 72 39 28 41 60 42 40 43 59 44 41 45 44 46 58 47
REMARK SMILES IDX 77 48 42 49 43 50 57 52 78 53 45 54 29 55 30 56 38 57 31 58
REMARK SMILES IDX 32 59 36 60 39 61 33 62 34 63 37 64 35 65 61 66 62 67 70 68
REMARK SMILES IDX 63 69 64 70 68 71 71 72 65 73 66 74 69 75 67 76 46 77 47 78
REMARK SMILES IDX 55 79 48 80 49 81 53 82 56 83 50 84 51 85 54 86 52 87
REMARK H PARENT 4 10 10 17 10 18 76 40 44 51
REMARK Flexibility Score: inf
ROOT
ATOM      1  C   UNL A   1      31.632  28.981  25.731  1.00  0.00     0.274 C 
ENDROOT
BRANCH   1   2
ATOM      2  O   UNL A   1      32.632  28.326  24.919  1.00  0.00    -0.461 OA
BRANCH   2   3
ATOM      3  C   UNL A   1      32.574  28.505  23.570  1.00  0.00     0.328 C 
ATOM      4  O   UNL A   1      33.224  29.341  22.952  1.00  0.00    -0.250 OA
BRANCH   3   5
ATOM      5  C   UNL A   1      31.506  27.605  22.904  1.00  0.00     0.192 C 
BRANCH   5   6
ATOM      6  C   UNL A   1      30.108  28.231  22.741  1.00  0.00     0.033 C 
ATOM      7  C   UNL A   1      29.025  27.464  23.497  1.00  0.00     0.007 C 
ENDBRANCH   5   6
BRANCH   5   8
ATOM      8  N   UNL A   1      31.933  26.863  21.700  1.00  0.00    -0.342 N 
ATOM      9  C   UNL A   1      32.678  25.728  21.533  1.00  0.00     0.229 C 
ATOM     10  H   UNL A   1      31.623  27.263  20.855  1.00  0.00     0.164 HD
ATOM     11  O   UNL A   1      33.214  25.557  20.436  1.00  0.00    -0.275 OA
BRANCH   9  12
ATOM     12  C   UNL A   1      32.749  24.683  22.640  1.00  0.00     0.130 C 
ATOM     13  C   UNL A   1      33.915  24.938  23.583  1.00  0.00     0.024 C 
BRANCH  12  14
ATOM     14  C   UNL A   1      32.816  23.248  22.067  1.00  0.00     0.273 C 
BRANCH  14  15
ATOM     15  N   UNL A   1      31.840  22.337  22.689  1.00  0.00    -0.348 N 
ATOM     16  C   UNL A   1      31.988  20.947  22.289  1.00  0.00     0.330 C 
ATOM     17  H   UNL A   1      30.903  22.647  22.429  1.00  0.00     0.346 HD
ATOM     18  H   UNL A   1      32.002  22.373  23.695  1.00  0.00     0.346 HD
ENDBRANCH  14  15
ENDBRANCH  12  14
ENDBRANCH   9  12
ENDBRANCH   5   8
ENDBRANCH   3   5
ENDBRANCH   2   3
ENDBRANCH   1   2
BRANCH   1  19
ATOM     19  C   UNL A   1      31.958  30.456  25.958  1.00  0.00     0.275 C 
BRANCH  19  20
ATOM     20  O   UNL A   1      32.573  30.627  27.239  1.00  0.00    -0.458 OA
BRANCH  20  21
ATOM     21  C   UNL A   1      33.285  31.766  27.359  1.00  0.00     0.338 C 
ATOM     22  O   UNL A   1      32.884  32.917  27.267  1.00  0.00    -0.246 OA
BRANCH  21  23
ATOM     23  C   UNL A   1      34.619  31.421  27.855  1.00  0.00     0.060 A 
ATOM     24  C   UNL A   1      34.849  30.086  28.208  1.00  0.00     0.016 A 
ATOM     25  C   UNL A   1      35.613  32.391  27.994  1.00  0.00     0.016 A 
ATOM     26  C   UNL A   1      36.075  29.714  28.735  1.00  0.00     0.010 A 
ATOM     27  C   UNL A   1      36.836  32.023  28.540  1.00  0.00     0.010 A 
ATOM     28  C   UNL A   1      37.053  30.693  28.942  1.00  0.00    -0.014 A 
BRANCH  28  29
ATOM     29  C   UNL A   1      38.232  30.375  29.765  1.00  0.00     0.031 A 
ATOM     30  C   UNL A   1      39.242  29.427  29.197  1.00  0.00     0.074 A 
ATOM     31  C   UNL A   1      38.375  30.921  30.981  1.00  0.00     0.049 A 
ATOM     32  N   UNL A   1      40.275  28.870  29.771  1.00  0.00    -0.248 NA
ATOM     33  C   UNL A   1      39.055  29.042  27.787  1.00  0.00     0.031 C 
ATOM     34  C   UNL A   1      37.467  31.898  31.581  1.00  0.00     0.029 A 
ATOM     35  N   UNL A   1      39.330  30.711  31.938  1.00  0.00    -0.354 N 
ATOM     36  C   UNL A   1      40.845  28.057  28.802  1.00  0.00     0.074 A 
ATOM     37  C   UNL A   1      40.037  28.173  27.609  1.00  0.00     0.031 C 
ATOM     38  C   UNL A   1      37.895  32.184  32.821  1.00  0.00     0.029 A 
ATOM     39  C   UNL A   1      39.076  31.376  33.111  1.00  0.00     0.049 A 
ATOM     40  H   UNL A   1      40.120  30.141  31.799  1.00  0.00     0.167 HD
ATOM     41  C   UNL A   1      41.949  27.282  28.909  1.00  0.00     0.037 A 
ATOM     42  C   UNL A   1      39.713  31.296  34.294  1.00  0.00     0.037 A 
ATOM     43  C   UNL A   1      42.730  27.183  30.112  1.00  0.00     0.049 A 
ATOM     44  C   UNL A   1      40.902  30.378  34.409  1.00  0.00     0.074 A 
ATOM     45  C   UNL A   1      43.863  26.428  30.351  1.00  0.00     0.029 A 
ATOM     46  N   UNL A   1      42.445  27.869  31.287  1.00  0.00    -0.354 N 
ATOM     47  N   UNL A   1      41.437  29.599  33.497  1.00  0.00    -0.248 NA
ATOM     48  C   UNL A   1      41.576  30.327  35.711  1.00  0.00     0.031 C 
ATOM     49  C   UNL A   1      44.239  26.625  31.684  1.00  0.00     0.029 A 
ATOM     50  C   UNL A   1      43.373  27.543  32.260  1.00  0.00     0.049 A 
ATOM     51  H   UNL A   1      41.695  28.494  31.408  1.00  0.00     0.167 HD
ATOM     52  C   UNL A   1      42.521  28.984  34.107  1.00  0.00     0.074 A 
ATOM     53  C   UNL A   1      42.576  29.493  35.463  1.00  0.00     0.031 C 
ATOM     54  C   UNL A   1      43.396  28.079  33.598  1.00  0.00     0.037 A 
BRANCH  41  55
ATOM     55  C   UNL A   1      42.341  26.466  27.713  1.00  0.00     0.064 A 
ATOM     56  C   UNL A   1      41.768  25.211  27.453  1.00  0.00     0.173 A 
ATOM     57  C   UNL A   1      43.304  26.944  26.812  1.00  0.00     0.173 A 
ATOM     58  F   UNL A   1      40.860  24.696  28.297  1.00  0.00    -0.203 F 
ATOM     59  C   UNL A   1      42.164  24.456  26.352  1.00  0.00     0.198 A 
ATOM     60  C   UNL A   1      43.676  26.199  25.695  1.00  0.00     0.198 A 
ATOM     61  F   UNL A   1      43.889  28.134  27.015  1.00  0.00    -0.203 F 
ATOM     62  F   UNL A   1      41.641  23.237  26.154  1.00  0.00    -0.200 F 
ATOM     63  C   UNL A   1      43.112  24.953  25.470  1.00  0.00     0.200 A 
ATOM     64  F   UNL A   1      44.588  26.684  24.840  1.00  0.00    -0.200 F 
ATOM     65  F   UNL A   1      43.490  24.226  24.410  1.00  0.00    -0.200 F 
ENDBRANCH  41  55
BRANCH  42  66
ATOM     66  C   UNL A   1      39.222  32.081  35.456  1.00  0.00     0.064 A 
ATOM     67  C   UNL A   1      38.408  31.495  36.433  1.00  0.00     0.173 A 
ATOM     68  C   UNL A   1      39.564  33.432  35.618  1.00  0.00     0.173 A 
ATOM     69  F   UNL A   1      38.035  30.211  36.313  1.00  0.00    -0.203 F 
ATOM     70  C   UNL A   1      37.940  32.233  37.519  1.00  0.00     0.198 A 
ATOM     71  C   UNL A   1      39.120  34.162  36.720  1.00  0.00     0.198 A 
ATOM     72  F   UNL A   1      40.344  34.041  34.712  1.00  0.00    -0.203 F 
ATOM     73  F   UNL A   1      37.127  31.659  38.416  1.00  0.00    -0.200 F 
ATOM     74  C   UNL A   1      38.303  33.564  37.664  1.00  0.00     0.200 A 
ATOM     75  F   UNL A   1      39.485  35.444  36.862  1.00  0.00    -0.200 F 
ATOM     76  F   UNL A   1      37.857  34.271  38.712  1.00  0.00    -0.200 F 
ENDBRANCH  42  66
BRANCH  54  77
ATOM     77  C   UNL A   1      44.501  27.620  34.501  1.00  0.00     0.064 A 
ATOM     78  C   UNL A   1      45.711  28.320  34.599  1.00  0.00     0.173 A 
ATOM     79  C   UNL A   1      44.325  26.487  35.311  1.00  0.00     0.173 A 
ATOM     80  F   UNL A   1      45.929  29.401  33.834  1.00  0.00    -0.203 F 
ATOM     81  C   UNL A   1      46.716  27.889  35.459  1.00  0.00     0.198 A 
ATOM     82  C   UNL A   1      45.321  26.078  36.192  1.00  0.00     0.198 A 
ATOM     83  F   UNL A   1      43.181  25.789  35.259  1.00  0.00    -0.203 F 
ATOM     84  F   UNL A   1      47.884  28.546  35.503  1.00  0.00    -0.200 F 
ATOM     85  C   UNL A   1      46.518  26.774  36.259  1.00  0.00     0.200 A 
ATOM     86  F   UNL A   1      45.121  25.009  36.976  1.00  0.00    -0.200 F 
ATOM     87  F   UNL A   1      47.485  26.365  37.093  1.00  0.00    -0.200 F 
ENDBRANCH  54  77
ENDBRANCH  28  29
ENDBRANCH  21  23
ENDBRANCH  20  21
ENDBRANCH  19  20
ENDBRANCH   1  19
TORSDOF 16
ENDMDL
