MODEL 1
REMARK VINA RESULT:     -12.1      0.000      0.000
REMARK SMILES COc1ccc(/C=N/Nc2cccc(C(=O)OCCOC(=O)c3ccc(-c4c5nc(c(-c6c(F)c(F)c(F)c(F)c6F)c6ccc([nH]6)c(-c6c(F)c(F)c(F)c(F)c6F)c6nc(c(-c7c(F)c(F)c(F)c(F)c7F)c7ccc4[nH]7)C=C6)C=C5)cc3)c2)cc1O
REMARK SMILES IDX 18 1 17 2 15 3 16 4 14 5 10 6 11 7 86 8 12 9 13 10 9 11 8 13
REMARK SMILES IDX 7 14 6 15 3 16 4 17 88 18 5 19 87 20 2 21 1 22 89 23 19 25
REMARK SMILES IDX 20 26 21 27 22 28 23 29 24 30 85 31 25 32 84 33 26 34 27 35
REMARK SMILES IDX 28 36 78 37 29 38 83 39 77 40 79 41 30 42 82 43 76 44 75 45
REMARK SMILES IDX 31 47 63 48 43 49 62 50 44 51 47 52 61 53 80 54 45 55 46 56
REMARK SMILES IDX 60 58 81 59 48 60 32 61 33 62 41 63 34 64 35 65 39 66 42 67
REMARK SMILES IDX 36 68 37 69 40 70 38 71 64 72 65 73 73 74 66 75 67 76 71 77
REMARK SMILES IDX 74 78 68 79 69 80 72 81 70 82 49 83 50 84 58 85 51 86 52 87
REMARK SMILES IDX 56 88 59 89 53 90 54 91 57 92 55 93
REMARK H PARENT 9 12 89 24 79 46 47 57
REMARK Flexibility Score: inf
ROOT
ATOM      1  C   UNL A   1      42.224  20.258  26.140  1.00  0.00     0.275 C 
ENDROOT
BRANCH   1   2
ATOM      2  O   UNL A   1      40.977  20.888  26.501  1.00  0.00    -0.458 OA
BRANCH   2   3
ATOM      3  C   UNL A   1      39.856  20.371  25.943  1.00  0.00     0.338 C 
ATOM      4  O   UNL A   1      39.638  19.194  25.703  1.00  0.00    -0.246 OA
BRANCH   3   5
ATOM      5  C   UNL A   1      38.847  21.435  25.718  1.00  0.00     0.062 A 
ATOM      6  C   UNL A   1      36.676  22.160  24.900  1.00  0.00     0.057 A 
ATOM      7  C   UNL A   1      36.927  23.442  25.407  1.00  0.00     0.028 A 
ATOM      8  C   UNL A   1      37.675  21.179  25.007  1.00  0.00     0.043 A 
ATOM      9  C   UNL A   1      38.101  23.709  26.108  1.00  0.00     0.003 A 
ATOM     10  C   UNL A   1      39.034  22.693  26.305  1.00  0.00     0.016 A 
BRANCH   6  11
ATOM     11  N   UNL A   1      35.365  21.832  24.500  1.00  0.00    -0.278 N 
ATOM     12  H   UNL A   1      35.154  20.891  24.301  1.00  0.00     0.190 HD
BRANCH  11  13
ATOM     13  N   UNL A   1      34.376  22.763  24.375  1.00  0.00    -0.183 NA
ATOM     14  C   UNL A   1      34.311  23.345  23.216  1.00  0.00     0.141 C 
BRANCH  14  15
ATOM     15  C   UNL A   1      33.400  24.460  22.940  1.00  0.00    -0.002 A 
ATOM     16  C   UNL A   1      31.727  26.597  22.312  1.00  0.00     0.160 A 
ATOM     17  C   UNL A   1      32.236  26.461  23.607  1.00  0.00     0.051 A 
ATOM     18  C   UNL A   1      32.101  25.678  21.328  1.00  0.00     0.158 A 
ATOM     19  C   UNL A   1      33.086  25.398  23.923  1.00  0.00     0.014 A 
ATOM     20  C   UNL A   1      32.899  24.585  21.641  1.00  0.00     0.060 A 
BRANCH  16  21
ATOM     21  O   UNL A   1      30.948  27.696  22.076  1.00  0.00    -0.493 OA
ATOM     22  C   UNL A   1      31.388  28.883  22.740  1.00  0.00     0.278 C 
ENDBRANCH  16  21
BRANCH  18  23
ATOM     23  O   UNL A   1      31.773  25.846  20.012  1.00  0.00    -0.504 OA
ATOM     24  H   UNL A   1      31.233  25.215  19.580  1.00  0.00     0.293 HD
ENDBRANCH  18  23
ENDBRANCH  14  15
ENDBRANCH  11  13
ENDBRANCH   6  11
ENDBRANCH   3   5
ENDBRANCH   2   3
ENDBRANCH   1   2
BRANCH   1  25
ATOM     25  C   UNL A   1      43.243  21.300  25.680  1.00  0.00     0.275 C 
BRANCH  25  26
ATOM     26  O   UNL A   1      42.552  22.450  25.160  1.00  0.00    -0.458 OA
BRANCH  26  27
ATOM     27  C   UNL A   1      43.258  23.598  25.114  1.00  0.00     0.338 C 
ATOM     28  O   UNL A   1      44.210  23.873  24.395  1.00  0.00    -0.246 OA
BRANCH  27  29
ATOM     29  C   UNL A   1      42.677  24.554  26.065  1.00  0.00     0.060 A 
ATOM     30  C   UNL A   1      42.999  25.903  25.934  1.00  0.00     0.016 A 
ATOM     31  C   UNL A   1      41.922  24.115  27.149  1.00  0.00     0.016 A 
ATOM     32  C   UNL A   1      42.619  26.820  26.908  1.00  0.00     0.010 A 
ATOM     33  C   UNL A   1      41.485  25.046  28.098  1.00  0.00     0.010 A 
ATOM     34  C   UNL A   1      41.857  26.401  28.004  1.00  0.00    -0.014 A 
BRANCH  34  35
ATOM     35  C   UNL A   1      41.530  27.358  29.095  1.00  0.00     0.031 A 
ATOM     36  C   UNL A   1      42.397  27.403  30.323  1.00  0.00     0.074 A 
ATOM     37  C   UNL A   1      40.492  28.208  28.982  1.00  0.00     0.049 A 
ATOM     38  N   UNL A   1      42.198  28.025  31.459  1.00  0.00    -0.248 NA
ATOM     39  C   UNL A   1      43.652  26.638  30.270  1.00  0.00     0.031 C 
ATOM     40  C   UNL A   1      39.613  28.326  27.819  1.00  0.00     0.029 A 
ATOM     41  N   UNL A   1      40.006  29.145  29.862  1.00  0.00    -0.354 N 
ATOM     42  C   UNL A   1      43.268  27.676  32.272  1.00  0.00     0.074 A 
ATOM     43  C   UNL A   1      44.118  26.796  31.500  1.00  0.00     0.031 C 
ATOM     44  C   UNL A   1      38.714  29.297  28.045  1.00  0.00     0.029 A 
ATOM     45  C   UNL A   1      38.904  29.817  29.395  1.00  0.00     0.049 A 
ATOM     46  H   UNL A   1      40.409  29.316  30.744  1.00  0.00     0.167 HD
ATOM     47  C   UNL A   1      43.514  28.052  33.549  1.00  0.00     0.037 A 
ATOM     48  C   UNL A   1      38.114  30.725  30.001  1.00  0.00     0.037 A 
ATOM     49  C   UNL A   1      42.699  28.975  34.295  1.00  0.00     0.049 A 
ATOM     50  C   UNL A   1      38.398  31.117  31.424  1.00  0.00     0.074 A 
ATOM     51  C   UNL A   1      42.862  29.416  35.597  1.00  0.00     0.029 A 
ATOM     52  N   UNL A   1      41.579  29.621  33.791  1.00  0.00    -0.354 N 
ATOM     53  N   UNL A   1      39.364  30.720  32.215  1.00  0.00    -0.248 NA
ATOM     54  C   UNL A   1      37.467  32.069  32.047  1.00  0.00     0.031 C 
ATOM     55  C   UNL A   1      41.825  30.311  35.888  1.00  0.00     0.029 A 
ATOM     56  C   UNL A   1      41.040  30.454  34.758  1.00  0.00     0.049 A 
ATOM     57  H   UNL A   1      41.221  29.502  32.882  1.00  0.00     0.167 HD
ATOM     58  C   UNL A   1      39.165  31.378  33.421  1.00  0.00     0.074 A 
ATOM     59  C   UNL A   1      37.997  32.216  33.253  1.00  0.00     0.031 C 
ATOM     60  C   UNL A   1      39.883  31.289  34.567  1.00  0.00     0.037 A 
BRANCH  47  61
ATOM     61  C   UNL A   1      44.693  27.432  34.237  1.00  0.00     0.064 A 
ATOM     62  C   UNL A   1      45.983  27.966  34.125  1.00  0.00     0.173 A 
ATOM     63  C   UNL A   1      44.518  26.293  35.038  1.00  0.00     0.173 A 
ATOM     64  F   UNL A   1      46.204  29.044  33.358  1.00  0.00    -0.203 F 
ATOM     65  C   UNL A   1      47.062  27.369  34.774  1.00  0.00     0.198 A 
ATOM     66  C   UNL A   1      45.594  25.714  35.704  1.00  0.00     0.198 A 
ATOM     67  F   UNL A   1      43.302  25.745  35.179  1.00  0.00    -0.203 F 
ATOM     68  F   UNL A   1      48.296  27.871  34.619  1.00  0.00    -0.200 F 
ATOM     69  C   UNL A   1      46.866  26.248  35.566  1.00  0.00     0.200 A 
ATOM     70  F   UNL A   1      45.400  24.635  36.477  1.00  0.00    -0.200 F 
ATOM     71  F   UNL A   1      47.905  25.677  36.192  1.00  0.00    -0.200 F 
ENDBRANCH  47  61
BRANCH  48  72
ATOM     72  C   UNL A   1      36.957  31.304  29.268  1.00  0.00     0.064 A 
ATOM     73  C   UNL A   1      35.837  30.521  28.961  1.00  0.00     0.173 A 
ATOM     74  C   UNL A   1      36.949  32.647  28.864  1.00  0.00     0.173 A 
ATOM     75  F   UNL A   1      35.812  29.224  29.301  1.00  0.00    -0.203 F 
ATOM     76  C   UNL A   1      34.753  31.058  28.269  1.00  0.00     0.198 A 
ATOM     77  C   UNL A   1      35.853  33.190  28.198  1.00  0.00     0.198 A 
ATOM     78  F   UNL A   1      38.000  33.435  29.130  1.00  0.00    -0.203 F 
ATOM     79  F   UNL A   1      33.710  30.279  27.955  1.00  0.00    -0.200 F 
ATOM     80  C   UNL A   1      34.759  32.394  27.896  1.00  0.00     0.200 A 
ATOM     81  F   UNL A   1      35.858  34.483  27.847  1.00  0.00    -0.200 F 
ATOM     82  F   UNL A   1      33.712  32.912  27.238  1.00  0.00    -0.200 F 
ENDBRANCH  48  72
BRANCH  60  83
ATOM     83  C   UNL A   1      39.442  32.143  35.717  1.00  0.00     0.064 A 
ATOM     84  C   UNL A   1      39.962  33.431  35.915  1.00  0.00     0.173 A 
ATOM     85  C   UNL A   1      38.465  31.681  36.611  1.00  0.00     0.173 A 
ATOM     86  F   UNL A   1      40.910  33.908  35.096  1.00  0.00    -0.203 F 
ATOM     87  C   UNL A   1      39.531  34.217  36.980  1.00  0.00     0.198 A 
ATOM     88  C   UNL A   1      38.022  32.479  37.662  1.00  0.00     0.198 A 
ATOM     89  F   UNL A   1      37.936  30.457  36.459  1.00  0.00    -0.203 F 
ATOM     90  F   UNL A   1      40.069  35.430  37.174  1.00  0.00    -0.200 F 
ATOM     91  C   UNL A   1      38.559  33.744  37.848  1.00  0.00     0.200 A 
ATOM     92  F   UNL A   1      37.077  32.023  38.494  1.00  0.00    -0.200 F 
ATOM     93  F   UNL A   1      38.145  34.504  38.872  1.00  0.00    -0.200 F 
ENDBRANCH  60  83
ENDBRANCH  34  35
ENDBRANCH  27  29
ENDBRANCH  26  27
ENDBRANCH  25  26
ENDBRANCH   1  25
TORSDOF 16
ENDMDL
MODEL 2
REMARK VINA RESULT:     -12.1      3.409      8.593
REMARK SMILES COc1ccc(/C=N/Nc2cccc(C(=O)OCCOC(=O)c3ccc(-c4c5nc(c(-c6c(F)c(F)c(F)c(F)c6F)c6ccc([nH]6)c(-c6c(F)c(F)c(F)c(F)c6F)c6nc(c(-c7c(F)c(F)c(F)c(F)c7F)c7ccc4[nH]7)C=C6)C=C5)cc3)c2)cc1O
REMARK SMILES IDX 18 1 17 2 15 3 16 4 14 5 10 6 11 7 86 8 12 9 13 10 9 11 8 13
REMARK SMILES IDX 7 14 6 15 3 16 4 17 88 18 5 19 87 20 2 21 1 22 89 23 19 25
REMARK SMILES IDX 20 26 21 27 22 28 23 29 24 30 85 31 25 32 84 33 26 34 27 35
REMARK SMILES IDX 28 36 78 37 29 38 83 39 77 40 79 41 30 42 82 43 76 44 75 45
REMARK SMILES IDX 31 47 63 48 43 49 62 50 44 51 47 52 61 53 80 54 45 55 46 56
REMARK SMILES IDX 60 58 81 59 48 60 32 61 33 62 41 63 34 64 35 65 39 66 42 67
REMARK SMILES IDX 36 68 37 69 40 70 38 71 64 72 65 73 73 74 66 75 67 76 71 77
REMARK SMILES IDX 74 78 68 79 69 80 72 81 70 82 49 83 50 84 58 85 51 86 52 87
REMARK SMILES IDX 56 88 59 89 53 90 54 91 57 92 55 93
REMARK H PARENT 9 12 89 24 79 46 47 57
REMARK Flexibility Score: inf
ROOT
ATOM      1  C   UNL A   1      31.380  28.972  25.172  1.00  0.00     0.275 C 
ENDROOT
BRANCH   1   2
ATOM      2  O   UNL A   1      31.089  29.053  23.762  1.00  0.00    -0.458 OA
BRANCH   2   3
ATOM      3  C   UNL A   1      30.445  27.992  23.216  1.00  0.00     0.338 C 
ATOM      4  O   UNL A   1      29.277  27.950  22.866  1.00  0.00    -0.246 OA
BRANCH   3   5
ATOM      5  C   UNL A   1      31.383  26.861  23.013  1.00  0.00     0.062 A 
ATOM      6  C   UNL A   1      31.831  24.477  22.870  1.00  0.00     0.057 A 
ATOM      7  C   UNL A   1      33.157  24.759  22.520  1.00  0.00     0.028 A 
ATOM      8  C   UNL A   1      30.967  25.541  23.178  1.00  0.00     0.043 A 
ATOM      9  C   UNL A   1      33.584  26.076  22.365  1.00  0.00     0.003 A 
ATOM     10  C   UNL A   1      32.684  27.121  22.563  1.00  0.00     0.016 A 
BRANCH   6  11
ATOM     11  N   UNL A   1      31.345  23.165  22.694  1.00  0.00    -0.278 N 
ATOM     12  H   UNL A   1      30.675  23.001  21.992  1.00  0.00     0.190 HD
BRANCH  11  13
ATOM     13  N   UNL A   1      31.763  22.114  23.457  1.00  0.00    -0.183 NA
ATOM     14  C   UNL A   1      32.028  21.026  22.798  1.00  0.00     0.141 C 
BRANCH  14  15
ATOM     15  C   UNL A   1      32.364  19.762  23.459  1.00  0.00    -0.002 A 
ATOM     16  C   UNL A   1      33.071  17.421  24.792  1.00  0.00     0.160 A 
ATOM     17  C   UNL A   1      33.052  17.454  23.394  1.00  0.00     0.051 A 
ATOM     18  C   UNL A   1      32.776  18.583  25.510  1.00  0.00     0.158 A 
ATOM     19  C   UNL A   1      32.710  18.630  22.721  1.00  0.00     0.014 A 
ATOM     20  C   UNL A   1      32.379  19.742  24.856  1.00  0.00     0.060 A 
BRANCH  16  21
ATOM     21  O   UNL A   1      33.469  16.246  25.368  1.00  0.00    -0.493 OA
ATOM     22  C   UNL A   1      32.439  15.260  25.465  1.00  0.00     0.278 C 
ENDBRANCH  16  21
BRANCH  18  23
ATOM     23  O   UNL A   1      32.935  18.661  26.865  1.00  0.00    -0.504 OA
ATOM     24  H   UNL A   1      32.185  18.650  27.426  1.00  0.00     0.293 HD
ENDBRANCH  18  23
ENDBRANCH  14  15
ENDBRANCH  11  13
ENDBRANCH   6  11
ENDBRANCH   3   5
ENDBRANCH   2   3
ENDBRANCH   1   2
BRANCH   1  25
ATOM     25  C   UNL A   1      31.767  30.343  25.724  1.00  0.00     0.275 C 
BRANCH  25  26
ATOM     26  O   UNL A   1      32.852  30.195  26.658  1.00  0.00    -0.458 OA
BRANCH  26  27
ATOM     27  C   UNL A   1      33.356  31.337  27.171  1.00  0.00     0.338 C 
ATOM     28  O   UNL A   1      32.826  32.438  27.229  1.00  0.00    -0.246 OA
BRANCH  27  29
ATOM     29  C   UNL A   1      34.688  31.063  27.724  1.00  0.00     0.060 A 
ATOM     30  C   UNL A   1      35.012  29.751  28.062  1.00  0.00     0.016 A 
ATOM     31  C   UNL A   1      35.566  32.101  28.021  1.00  0.00     0.016 A 
ATOM     32  C   UNL A   1      36.187  29.466  28.748  1.00  0.00     0.010 A 
ATOM     33  C   UNL A   1      36.779  31.809  28.657  1.00  0.00     0.010 A 
ATOM     34  C   UNL A   1      37.086  30.493  29.055  1.00  0.00    -0.014 A 
BRANCH  34  35
ATOM     35  C   UNL A   1      38.295  30.208  29.871  1.00  0.00     0.031 A 
ATOM     36  C   UNL A   1      39.406  29.380  29.286  1.00  0.00     0.074 A 
ATOM     37  C   UNL A   1      38.426  30.710  31.114  1.00  0.00     0.049 A 
ATOM     38  N   UNL A   1      40.459  28.866  29.872  1.00  0.00    -0.248 NA
ATOM     39  C   UNL A   1      39.315  29.083  27.848  1.00  0.00     0.031 C 
ATOM     40  C   UNL A   1      37.464  31.587  31.781  1.00  0.00     0.029 A 
ATOM     41  N   UNL A   1      39.432  30.558  32.037  1.00  0.00    -0.354 N 
ATOM     42  C   UNL A   1      41.117  28.137  28.891  1.00  0.00     0.074 A 
ATOM     43  C   UNL A   1      40.354  28.280  27.671  1.00  0.00     0.031 C 
ATOM     44  C   UNL A   1      37.937  31.918  32.992  1.00  0.00     0.029 A 
ATOM     45  C   UNL A   1      39.198  31.217  33.219  1.00  0.00     0.049 A 
ATOM     46  H   UNL A   1      40.243  30.027  31.868  1.00  0.00     0.167 HD
ATOM     47  C   UNL A   1      42.254  27.409  29.003  1.00  0.00     0.037 A 
ATOM     48  C   UNL A   1      39.901  31.227  34.367  1.00  0.00     0.037 A 
ATOM     49  C   UNL A   1      43.045  27.316  30.202  1.00  0.00     0.049 A 
ATOM     50  C   UNL A   1      41.152  30.399  34.473  1.00  0.00     0.074 A 
ATOM     51  C   UNL A   1      44.209  26.600  30.417  1.00  0.00     0.029 A 
ATOM     52  N   UNL A   1      42.762  27.985  31.384  1.00  0.00    -0.354 N 
ATOM     53  N   UNL A   1      41.725  29.646  33.567  1.00  0.00    -0.248 NA
ATOM     54  C   UNL A   1      41.843  30.407  35.770  1.00  0.00     0.031 C 
ATOM     55  C   UNL A   1      44.618  26.817  31.738  1.00  0.00     0.029 A 
ATOM     56  C   UNL A   1      43.729  27.695  32.333  1.00  0.00     0.049 A 
ATOM     57  H   UNL A   1      41.987  28.575  31.527  1.00  0.00     0.167 HD
ATOM     58  C   UNL A   1      42.845  29.100  34.177  1.00  0.00     0.074 A 
ATOM     59  C   UNL A   1      42.884  29.623  35.526  1.00  0.00     0.031 C 
ATOM     60  C   UNL A   1      43.756  28.236  33.667  1.00  0.00     0.037 A 
BRANCH  47  61
ATOM     61  C   UNL A   1      42.688  26.620  27.804  1.00  0.00     0.064 A 
ATOM     62  C   UNL A   1      43.570  27.144  26.850  1.00  0.00     0.173 A 
ATOM     63  C   UNL A   1      42.227  25.307  27.624  1.00  0.00     0.173 A 
ATOM     64  F   UNL A   1      44.025  28.400  26.969  1.00  0.00    -0.203 F 
ATOM     65  C   UNL A   1      43.957  26.390  25.744  1.00  0.00     0.198 A 
ATOM     66  C   UNL A   1      42.635  24.547  26.531  1.00  0.00     0.198 A 
ATOM     67  F   UNL A   1      41.383  24.758  28.511  1.00  0.00    -0.203 F 
ATOM     68  F   UNL A   1      44.767  26.926  24.820  1.00  0.00    -0.200 F 
ATOM     69  C   UNL A   1      43.494  25.092  25.589  1.00  0.00     0.200 A 
ATOM     70  F   UNL A   1      42.194  23.290  26.388  1.00  0.00    -0.200 F 
ATOM     71  F   UNL A   1      43.870  24.367  24.525  1.00  0.00    -0.200 F 
ENDBRANCH  47  61
BRANCH  48  72
ATOM     72  C   UNL A   1      39.418  32.027  35.523  1.00  0.00     0.064 A 
ATOM     73  C   UNL A   1      39.842  33.349  35.710  1.00  0.00     0.173 A 
ATOM     74  C   UNL A   1      38.525  31.487  36.460  1.00  0.00     0.173 A 
ATOM     75  F   UNL A   1      40.718  33.898  34.857  1.00  0.00    -0.203 F 
ATOM     76  C   UNL A   1      39.396  34.100  36.796  1.00  0.00     0.198 A 
ATOM     77  C   UNL A   1      38.058  32.247  37.529  1.00  0.00     0.198 A 
ATOM     78  F   UNL A   1      38.095  30.223  36.328  1.00  0.00    -0.203 F 
ATOM     79  F   UNL A   1      39.844  35.349  36.972  1.00  0.00    -0.200 F 
ATOM     80  C   UNL A   1      38.498  33.551  37.700  1.00  0.00     0.200 A 
ATOM     81  F   UNL A   1      37.183  31.716  38.395  1.00  0.00    -0.200 F 
ATOM     82  F   UNL A   1      38.063  34.276  38.739  1.00  0.00    -0.200 F 
ENDBRANCH  48  72
BRANCH  60  83
ATOM     83  C   UNL A   1      44.888  27.828  34.561  1.00  0.00     0.064 A 
ATOM     84  C   UNL A   1      46.072  28.577  34.633  1.00  0.00     0.173 A 
ATOM     85  C   UNL A   1      44.772  26.696  35.380  1.00  0.00     0.173 A 
ATOM     86  F   UNL A   1      46.234  29.658  33.856  1.00  0.00    -0.203 F 
ATOM     87  C   UNL A   1      47.108  28.193  35.480  1.00  0.00     0.198 A 
ATOM     88  C   UNL A   1      45.802  26.328  36.242  1.00  0.00     0.198 A 
ATOM     89  F   UNL A   1      43.656  25.951  35.350  1.00  0.00    -0.203 F 
ATOM     90  F   UNL A   1      48.246  28.900  35.505  1.00  0.00    -0.200 F 
ATOM     91  C   UNL A   1      46.970  27.073  36.287  1.00  0.00     0.200 A 
ATOM     92  F   UNL A   1      45.664  25.250  37.026  1.00  0.00    -0.200 F 
ATOM     93  F   UNL A   1      47.968  26.707  37.102  1.00  0.00    -0.200 F 
ENDBRANCH  60  83
ENDBRANCH  34  35
ENDBRANCH  27  29
ENDBRANCH  26  27
ENDBRANCH  25  26
ENDBRANCH   1  25
TORSDOF 16
ENDMDL
MODEL 3
REMARK VINA RESULT:     -11.9      5.689      8.259
REMARK SMILES COc1ccc(/C=N/Nc2cccc(C(=O)OCCOC(=O)c3ccc(-c4c5nc(c(-c6c(F)c(F)c(F)c(F)c6F)c6ccc([nH]6)c(-c6c(F)c(F)c(F)c(F)c6F)c6nc(c(-c7c(F)c(F)c(F)c(F)c7F)c7ccc4[nH]7)C=C6)C=C5)cc3)c2)cc1O
REMARK SMILES IDX 18 1 17 2 15 3 16 4 14 5 10 6 11 7 86 8 12 9 13 10 9 11 8 13
REMARK SMILES IDX 7 14 6 15 3 16 4 17 88 18 5 19 87 20 2 21 1 22 89 23 19 25
REMARK SMILES IDX 20 26 21 27 22 28 23 29 24 30 85 31 25 32 84 33 26 34 27 35
REMARK SMILES IDX 28 36 78 37 29 38 83 39 77 40 79 41 30 42 82 43 76 44 75 45
REMARK SMILES IDX 31 47 63 48 43 49 62 50 44 51 47 52 61 53 80 54 45 55 46 56
REMARK SMILES IDX 60 58 81 59 48 60 32 61 33 62 41 63 34 64 35 65 39 66 42 67
REMARK SMILES IDX 36 68 37 69 40 70 38 71 64 72 65 73 73 74 66 75 67 76 71 77
REMARK SMILES IDX 74 78 68 79 69 80 72 81 70 82 49 83 50 84 58 85 51 86 52 87
REMARK SMILES IDX 56 88 59 89 53 90 54 91 57 92 55 93
REMARK H PARENT 9 12 89 24 79 46 47 57
REMARK Flexibility Score: inf
ROOT
ATOM      1  C   UNL A   1      41.563  18.993  26.320  1.00  0.00     0.275 C 
ENDROOT
BRANCH   1   2
ATOM      2  O   UNL A   1      41.214  20.341  25.943  1.00  0.00    -0.458 OA
BRANCH   2   3
ATOM      3  C   UNL A   1      40.819  21.164  26.944  1.00  0.00     0.338 C 
ATOM      4  O   UNL A   1      41.330  21.269  28.047  1.00  0.00    -0.246 OA
BRANCH   3   5
ATOM      5  C   UNL A   1      39.691  22.019  26.500  1.00  0.00     0.062 A 
ATOM      6  C   UNL A   1      37.545  22.293  25.393  1.00  0.00     0.057 A 
ATOM      7  C   UNL A   1      37.533  23.642  25.774  1.00  0.00     0.028 A 
ATOM      8  C   UNL A   1      38.664  21.506  25.709  1.00  0.00     0.043 A 
ATOM      9  C   UNL A   1      38.562  24.165  26.554  1.00  0.00     0.003 A 
ATOM     10  C   UNL A   1      39.611  23.341  26.957  1.00  0.00     0.016 A 
BRANCH   6  11
ATOM     11  N   UNL A   1      36.355  21.716  24.904  1.00  0.00    -0.278 N 
ATOM     12  H   UNL A   1      35.713  22.290  24.428  1.00  0.00     0.190 HD
BRANCH  11  13
ATOM     13  N   UNL A   1      36.056  20.394  25.064  1.00  0.00    -0.183 NA
ATOM     14  C   UNL A   1      34.937  20.014  24.525  1.00  0.00     0.141 C 
BRANCH  14  15
ATOM     15  C   UNL A   1      34.390  18.665  24.705  1.00  0.00    -0.002 A 
ATOM     16  C   UNL A   1      33.439  16.062  24.976  1.00  0.00     0.160 A 
ATOM     17  C   UNL A   1      32.548  17.113  24.740  1.00  0.00     0.051 A 
ATOM     18  C   UNL A   1      34.811  16.324  25.029  1.00  0.00     0.158 A 
ATOM     19  C   UNL A   1      33.022  18.419  24.590  1.00  0.00     0.014 A 
ATOM     20  C   UNL A   1      35.292  17.624  24.940  1.00  0.00     0.060 A 
BRANCH  16  21
ATOM     21  O   UNL A   1      32.895  14.809  25.055  1.00  0.00    -0.493 OA
ATOM     22  C   UNL A   1      31.970  14.637  26.130  1.00  0.00     0.278 C 
ENDBRANCH  16  21
BRANCH  18  23
ATOM     23  O   UNL A   1      35.740  15.324  25.093  1.00  0.00    -0.504 OA
ATOM     24  H   UNL A   1      35.643  14.560  24.559  1.00  0.00     0.293 HD
ENDBRANCH  18  23
ENDBRANCH  14  15
ENDBRANCH  11  13
ENDBRANCH   6  11
ENDBRANCH   3   5
ENDBRANCH   2   3
ENDBRANCH   1   2
BRANCH   1  25
ATOM     25  C   UNL A   1      42.985  18.657  25.875  1.00  0.00     0.275 C 
BRANCH  25  26
ATOM     26  O   UNL A   1      43.251  19.280  24.605  1.00  0.00    -0.458 OA
BRANCH  26  27
ATOM     27  C   UNL A   1      44.550  19.465  24.292  1.00  0.00     0.338 C 
ATOM     28  O   UNL A   1      45.334  18.657  23.813  1.00  0.00    -0.246 OA
BRANCH  27  29
ATOM     29  C   UNL A   1      44.915  20.858  24.576  1.00  0.00     0.060 A 
ATOM     30  C   UNL A   1      45.532  21.150  25.791  1.00  0.00     0.016 A 
ATOM     31  C   UNL A   1      44.546  21.885  23.712  1.00  0.00     0.016 A 
ATOM     32  C   UNL A   1      45.738  22.469  26.181  1.00  0.00     0.010 A 
ATOM     33  C   UNL A   1      44.809  23.211  24.075  1.00  0.00     0.010 A 
ATOM     34  C   UNL A   1      45.377  23.517  25.327  1.00  0.00    -0.014 A 
BRANCH  34  35
ATOM     35  C   UNL A   1      45.507  24.927  25.780  1.00  0.00     0.031 A 
ATOM     36  C   UNL A   1      46.820  25.641  25.614  1.00  0.00     0.074 A 
ATOM     37  C   UNL A   1      44.454  25.585  26.304  1.00  0.00     0.049 A 
ATOM     38  N   UNL A   1      47.204  26.798  26.092  1.00  0.00    -0.248 NA
ATOM     39  C   UNL A   1      47.841  24.956  24.807  1.00  0.00     0.031 C 
ATOM     40  C   UNL A   1      43.105  25.043  26.457  1.00  0.00     0.029 A 
ATOM     41  N   UNL A   1      44.357  26.863  26.799  1.00  0.00    -0.354 N 
ATOM     42  C   UNL A   1      48.527  26.947  25.699  1.00  0.00     0.074 A 
ATOM     43  C   UNL A   1      48.878  25.770  24.934  1.00  0.00     0.031 C 
ATOM     44  C   UNL A   1      42.309  25.988  26.981  1.00  0.00     0.029 A 
ATOM     45  C   UNL A   1      43.107  27.176  27.271  1.00  0.00     0.049 A 
ATOM     46  H   UNL A   1      45.113  27.494  26.814  1.00  0.00     0.167 HD
ATOM     47  C   UNL A   1      49.372  27.974  25.957  1.00  0.00     0.037 A 
ATOM     48  C   UNL A   1      42.663  28.281  27.900  1.00  0.00     0.037 A 
ATOM     49  C   UNL A   1      49.004  29.171  26.666  1.00  0.00     0.049 A 
ATOM     50  C   UNL A   1      43.623  29.402  28.190  1.00  0.00     0.074 A 
ATOM     51  C   UNL A   1      49.790  30.265  26.983  1.00  0.00     0.029 A 
ATOM     52  N   UNL A   1      47.730  29.440  27.145  1.00  0.00    -0.354 N 
ATOM     53  N   UNL A   1      44.893  29.501  27.887  1.00  0.00    -0.248 NA
ATOM     54  C   UNL A   1      43.090  30.555  28.929  1.00  0.00     0.031 C 
ATOM     55  C   UNL A   1      48.996  31.187  27.676  1.00  0.00     0.029 A 
ATOM     56  C   UNL A   1      47.710  30.683  27.758  1.00  0.00     0.049 A 
ATOM     57  H   UNL A   1      46.957  28.837  27.063  1.00  0.00     0.167 HD
ATOM     58  C   UNL A   1      45.310  30.727  28.385  1.00  0.00     0.074 A 
ATOM     59  C   UNL A   1      44.152  31.346  28.995  1.00  0.00     0.031 C 
ATOM     60  C   UNL A   1      46.544  31.287  28.349  1.00  0.00     0.037 A 
BRANCH  47  61
ATOM     61  C   UNL A   1      50.794  27.827  25.505  1.00  0.00     0.064 A 
ATOM     62  C   UNL A   1      51.186  28.100  24.188  1.00  0.00     0.173 A 
ATOM     63  C   UNL A   1      51.782  27.425  26.417  1.00  0.00     0.173 A 
ATOM     64  F   UNL A   1      50.276  28.470  23.275  1.00  0.00    -0.203 F 
ATOM     65  C   UNL A   1      52.515  27.953  23.793  1.00  0.00     0.198 A 
ATOM     66  C   UNL A   1      53.113  27.305  26.025  1.00  0.00     0.198 A 
ATOM     67  F   UNL A   1      51.458  27.155  27.691  1.00  0.00    -0.203 F 
ATOM     68  F   UNL A   1      52.861  28.178  22.518  1.00  0.00    -0.200 F 
ATOM     69  C   UNL A   1      53.476  27.562  24.713  1.00  0.00     0.200 A 
ATOM     70  F   UNL A   1      54.042  26.935  26.919  1.00  0.00    -0.200 F 
ATOM     71  F   UNL A   1      54.755  27.426  24.331  1.00  0.00    -0.200 F 
ENDBRANCH  47  61
BRANCH  48  72
ATOM     72  C   UNL A   1      41.242  28.367  28.328  1.00  0.00     0.064 A 
ATOM     73  C   UNL A   1      40.265  28.899  27.475  1.00  0.00     0.173 A 
ATOM     74  C   UNL A   1      40.833  27.920  29.592  1.00  0.00     0.173 A 
ATOM     75  F   UNL A   1      40.613  29.366  26.267  1.00  0.00    -0.203 F 
ATOM     76  C   UNL A   1      38.933  28.986  27.874  1.00  0.00     0.198 A 
ATOM     77  C   UNL A   1      39.497  27.983  29.980  1.00  0.00     0.198 A 
ATOM     78  F   UNL A   1      41.732  27.409  30.447  1.00  0.00    -0.203 F 
ATOM     79  F   UNL A   1      38.025  29.532  27.055  1.00  0.00    -0.200 F 
ATOM     80  C   UNL A   1      38.549  28.521  29.124  1.00  0.00     0.200 A 
ATOM     81  F   UNL A   1      39.129  27.523  31.184  1.00  0.00    -0.200 F 
ATOM     82  F   UNL A   1      37.266  28.598  29.504  1.00  0.00    -0.200 F 
ENDBRANCH  48  72
BRANCH  60  83
ATOM     83  C   UNL A   1      46.696  32.647  28.957  1.00  0.00     0.064 A 
ATOM     84  C   UNL A   1      46.490  33.814  28.205  1.00  0.00     0.173 A 
ATOM     85  C   UNL A   1      47.018  32.785  30.315  1.00  0.00     0.173 A 
ATOM     86  F   UNL A   1      46.196  33.730  26.899  1.00  0.00    -0.203 F 
ATOM     87  C   UNL A   1      46.620  35.070  28.789  1.00  0.00     0.198 A 
ATOM     88  C   UNL A   1      47.127  34.044  30.900  1.00  0.00     0.198 A 
ATOM     89  F   UNL A   1      47.221  31.699  31.076  1.00  0.00    -0.203 F 
ATOM     90  F   UNL A   1      46.457  36.173  28.045  1.00  0.00    -0.200 F 
ATOM     91  C   UNL A   1      46.933  35.185  30.136  1.00  0.00     0.200 A 
ATOM     92  F   UNL A   1      47.422  34.153  32.202  1.00  0.00    -0.200 F 
ATOM     93  F   UNL A   1      47.057  36.396  30.695  1.00  0.00    -0.200 F 
ENDBRANCH  60  83
ENDBRANCH  34  35
ENDBRANCH  27  29
ENDBRANCH  26  27
ENDBRANCH  25  26
ENDBRANCH   1  25
TORSDOF 16
ENDMDL
