MODEL 1
REMARK VINA RESULT:     -12.8      0.000      0.000
REMARK SMILES O=C(C[C@@H]([NH2+]Cc1ccccc1)C(=O)/N=c1/[nH]c(-c2ccccc2)cs1)OCCOC(=O)c1ccc(-c2c3nc(c(-c4c(F)c(F)c(F)c(F)c4F)c4ccc([nH]4)c(-c4c(F)c(F)c(F)c(F)c4F)c4nc(c(-c5c(F)c(F)c(F)c(F)c5F)c5ccc2[nH]5)C=C4)C=C3)cc1
REMARK SMILES IDX 28 1 27 2 2 3 1 4 3 5 4 6 5 7 6 10 7 11 8 12 12 13 9 14
REMARK SMILES IDX 11 15 10 16 13 17 14 18 15 19 16 20 17 21 26 22 18 23 25 25
REMARK SMILES IDX 19 26 20 27 24 28 21 29 23 30 22 31 29 32 30 33 31 34 32 35
REMARK SMILES IDX 33 36 34 37 95 38 35 39 94 40 36 41 37 42 38 43 88 44 39 45
REMARK SMILES IDX 93 46 87 47 89 48 40 49 92 50 86 51 85 52 41 54 73 55 53 56
REMARK SMILES IDX 72 57 54 58 57 59 71 60 90 61 55 62 56 63 70 65 91 66 58 67
REMARK SMILES IDX 42 68 43 69 51 70 44 71 45 72 49 73 52 74 46 75 47 76 50 77
REMARK SMILES IDX 48 78 74 79 75 80 83 81 76 82 77 83 81 84 84 85 78 86 79 87
REMARK SMILES IDX 82 88 80 89 59 90 60 91 68 92 61 93 62 94 66 95 69 96 63 97
REMARK SMILES IDX 64 98 67 99 65 100
REMARK H PARENT 5 8 5 9 17 24 89 53 57 64
REMARK Flexibility Score: inf
ROOT
ATOM      1  C   UNL A   1      35.667  20.490  24.875  1.00  0.00     0.274 C 
ENDROOT
BRANCH   1   2
ATOM      2  O   UNL A   1      34.282  20.827  24.631  1.00  0.00    -0.462 OA
BRANCH   2   3
ATOM      3  C   UNL A   1      33.768  22.081  24.600  1.00  0.00     0.312 C 
ATOM      4  O   UNL A   1      33.028  22.467  25.502  1.00  0.00    -0.252 OA
BRANCH   3   5
ATOM      5  C   UNL A   1      34.083  22.979  23.435  1.00  0.00     0.198 C 
BRANCH   5   6
ATOM      6  C   UNL A   1      33.475  24.368  23.538  1.00  0.00     0.286 C 
BRANCH   6   7
ATOM      7  N   UNL A   1      34.299  25.336  24.312  1.00  0.00    -0.332 N 
ATOM      8  H   UNL A   1      34.391  26.190  23.762  1.00  0.00     0.347 HD
ATOM      9  H   UNL A   1      35.198  24.886  24.487  1.00  0.00     0.347 HD
BRANCH   7  10
ATOM     10  C   UNL A   1      33.730  25.687  25.626  1.00  0.00     0.297 C 
BRANCH  10  11
ATOM     11  C   UNL A   1      33.230  27.113  25.685  1.00  0.00     0.006 A 
ATOM     12  C   UNL A   1      33.649  28.066  24.744  1.00  0.00     0.009 A 
ATOM     13  C   UNL A   1      32.296  27.496  26.658  1.00  0.00     0.009 A 
ATOM     14  C   UNL A   1      33.105  29.350  24.739  1.00  0.00     0.001 A 
ATOM     15  C   UNL A   1      31.778  28.792  26.673  1.00  0.00     0.001 A 
ATOM     16  C   UNL A   1      32.169  29.713  25.703  1.00  0.00     0.000 A 
ENDBRANCH  10  11
ENDBRANCH   7  10
ENDBRANCH   6   7
BRANCH   6  17
ATOM     17  C   UNL A   1      33.078  24.945  22.138  1.00  0.00     0.307 C 
ATOM     18  O   UNL A   1      33.270  24.239  21.145  1.00  0.00    -0.265 OA
BRANCH  17  19
ATOM     19  N   UNL A   1      32.639  26.240  21.957  1.00  0.00    -0.180 NA
ATOM     20  C   UNL A   1      31.510  26.712  22.361  1.00  0.00     0.190 A 
ATOM     21  N   UNL A   1      31.043  27.975  22.065  1.00  0.00    -0.330 N 
ATOM     22  S   UNL A   1      30.307  25.962  23.432  1.00  0.00    -0.105 S 
ATOM     23  C   UNL A   1      29.930  28.398  22.762  1.00  0.00     0.058 A 
ATOM     24  H   UNL A   1      31.479  28.545  21.391  1.00  0.00     0.169 HD
ATOM     25  C   UNL A   1      29.471  27.480  23.631  1.00  0.00     0.095 A 
BRANCH  23  26
ATOM     26  C   UNL A   1      29.277  29.696  22.570  1.00  0.00    -0.001 A 
ATOM     27  C   UNL A   1      29.297  30.616  23.634  1.00  0.00     0.010 A 
ATOM     28  C   UNL A   1      28.675  30.077  21.365  1.00  0.00     0.010 A 
ATOM     29  C   UNL A   1      28.781  31.902  23.486  1.00  0.00     0.001 A 
ATOM     30  C   UNL A   1      28.155  31.370  21.220  1.00  0.00     0.001 A 
ATOM     31  C   UNL A   1      28.219  32.283  22.273  1.00  0.00     0.000 A 
ENDBRANCH  23  26
ENDBRANCH  17  19
ENDBRANCH   6  17
ENDBRANCH   5   6
ENDBRANCH   3   5
ENDBRANCH   2   3
ENDBRANCH   1   2
BRANCH   1  32
ATOM     32  C   UNL A   1      36.370  21.520  25.765  1.00  0.00     0.275 C 
BRANCH  32  33
ATOM     33  O   UNL A   1      37.610  21.942  25.169  1.00  0.00    -0.458 OA
BRANCH  33  34
ATOM     34  C   UNL A   1      38.734  21.558  25.823  1.00  0.00     0.338 C 
ATOM     35  O   UNL A   1      39.279  20.470  25.744  1.00  0.00    -0.246 OA
BRANCH  34  36
ATOM     36  C   UNL A   1      39.338  22.721  26.521  1.00  0.00     0.060 A 
ATOM     37  C   UNL A   1      38.769  23.977  26.287  1.00  0.00     0.016 A 
ATOM     38  C   UNL A   1      40.397  22.602  27.430  1.00  0.00     0.016 A 
ATOM     39  C   UNL A   1      39.292  25.116  26.902  1.00  0.00     0.010 A 
ATOM     40  C   UNL A   1      40.903  23.744  28.071  1.00  0.00     0.010 A 
ATOM     41  C   UNL A   1      40.388  25.018  27.772  1.00  0.00    -0.014 A 
BRANCH  41  42
ATOM     42  C   UNL A   1      41.067  26.270  28.210  1.00  0.00     0.031 A 
ATOM     43  C   UNL A   1      42.488  26.525  27.779  1.00  0.00     0.074 A 
ATOM     44  C   UNL A   1      40.411  27.223  28.900  1.00  0.00     0.049 A 
ATOM     45  N   UNL A   1      43.205  27.618  27.873  1.00  0.00    -0.248 NA
ATOM     46  C   UNL A   1      43.203  25.394  27.167  1.00  0.00     0.031 C 
ATOM     47  C   UNL A   1      39.051  27.110  29.422  1.00  0.00     0.029 A 
ATOM     48  N   UNL A   1      40.807  28.489  29.266  1.00  0.00    -0.354 N 
ATOM     49  C   UNL A   1      44.433  27.316  27.300  1.00  0.00     0.074 A 
ATOM     50  C   UNL A   1      44.399  25.916  26.939  1.00  0.00     0.031 C 
ATOM     51  C   UNL A   1      38.720  28.263  30.032  1.00  0.00     0.029 A 
ATOM     52  C   UNL A   1      39.840  29.200  29.934  1.00  0.00     0.049 A 
ATOM     53  H   UNL A   1      41.701  28.851  29.069  1.00  0.00     0.167 HD
ATOM     54  C   UNL A   1      45.485  28.135  27.055  1.00  0.00     0.037 A 
ATOM     55  C   UNL A   1      39.847  30.467  30.394  1.00  0.00     0.037 A 
ATOM     56  C   UNL A   1      45.541  29.525  27.418  1.00  0.00     0.049 A 
ATOM     57  C   UNL A   1      41.039  31.356  30.133  1.00  0.00     0.074 A 
ATOM     58  C   UNL A   1      46.560  30.436  27.192  1.00  0.00     0.029 A 
ATOM     59  N   UNL A   1      44.541  30.205  28.095  1.00  0.00    -0.354 N 
ATOM     60  N   UNL A   1      42.154  31.087  29.499  1.00  0.00    -0.248 NA
ATOM     61  C   UNL A   1      40.955  32.740  30.628  1.00  0.00     0.031 C 
ATOM     62  C   UNL A   1      46.194  31.656  27.770  1.00  0.00     0.029 A 
ATOM     63  C   UNL A   1      44.926  31.519  28.312  1.00  0.00     0.049 A 
ATOM     64  H   UNL A   1      43.685  29.812  28.381  1.00  0.00     0.167 HD
ATOM     65  C   UNL A   1      42.887  32.270  29.492  1.00  0.00     0.074 A 
ATOM     66  C   UNL A   1      42.082  33.265  30.166  1.00  0.00     0.031 C 
ATOM     67  C   UNL A   1      44.118  32.508  28.975  1.00  0.00     0.037 A 
BRANCH  54  68
ATOM     68  C   UNL A   1      46.660  27.542  26.336  1.00  0.00     0.064 A 
ATOM     69  C   UNL A   1      46.776  27.627  24.939  1.00  0.00     0.173 A 
ATOM     70  C   UNL A   1      47.696  26.916  27.043  1.00  0.00     0.173 A 
ATOM     71  F   UNL A   1      45.805  28.204  24.215  1.00  0.00    -0.203 F 
ATOM     72  C   UNL A   1      47.871  27.082  24.276  1.00  0.00     0.198 A 
ATOM     73  C   UNL A   1      48.805  26.398  26.379  1.00  0.00     0.198 A 
ATOM     74  F   UNL A   1      47.635  26.811  28.379  1.00  0.00    -0.203 F 
ATOM     75  F   UNL A   1      47.936  27.131  22.938  1.00  0.00    -0.200 F 
ATOM     76  C   UNL A   1      48.888  26.475  24.997  1.00  0.00     0.200 A 
ATOM     77  F   UNL A   1      49.792  25.821  27.077  1.00  0.00    -0.200 F 
ATOM     78  F   UNL A   1      49.945  25.955  24.358  1.00  0.00    -0.200 F 
ENDBRANCH  54  68
BRANCH  55  79
ATOM     79  C   UNL A   1      38.670  31.001  31.132  1.00  0.00     0.064 A 
ATOM     80  C   UNL A   1      38.604  30.953  32.532  1.00  0.00     0.173 A 
ATOM     81  C   UNL A   1      37.564  31.521  30.444  1.00  0.00     0.173 A 
ATOM     82  F   UNL A   1      39.623  30.434  33.232  1.00  0.00    -0.203 F 
ATOM     83  C   UNL A   1      37.465  31.375  33.214  1.00  0.00     0.198 A 
ATOM     84  C   UNL A   1      36.437  31.971  31.130  1.00  0.00     0.198 A 
ATOM     85  F   UNL A   1      37.574  31.582  29.105  1.00  0.00    -0.203 F 
ATOM     86  F   UNL A   1      37.402  31.256  34.547  1.00  0.00    -0.200 F 
ATOM     87  C   UNL A   1      36.383  31.886  32.513  1.00  0.00     0.200 A 
ATOM     88  F   UNL A   1      35.395  32.466  30.449  1.00  0.00    -0.200 F 
ATOM     89  F   UNL A   1      35.284  32.282  33.169  1.00  0.00    -0.200 F 
ENDBRANCH  55  79
BRANCH  67  90
ATOM     90  C   UNL A   1      44.661  33.906  29.087  1.00  0.00     0.064 A 
ATOM     91  C   UNL A   1      45.452  34.307  30.175  1.00  0.00     0.173 A 
ATOM     92  C   UNL A   1      44.413  34.849  28.077  1.00  0.00     0.173 A 
ATOM     93  F   UNL A   1      45.711  33.448  31.172  1.00  0.00    -0.203 F 
ATOM     94  C   UNL A   1      45.944  35.606  30.264  1.00  0.00     0.198 A 
ATOM     95  C   UNL A   1      44.933  36.138  28.154  1.00  0.00     0.198 A 
ATOM     96  F   UNL A   1      43.673  34.516  27.008  1.00  0.00    -0.203 F 
ATOM     97  F   UNL A   1      46.651  35.980  31.340  1.00  0.00    -0.200 F 
ATOM     98  C   UNL A   1      45.689  36.520  29.252  1.00  0.00     0.200 A 
ATOM     99  F   UNL A   1      44.700  37.013  27.166  1.00  0.00    -0.200 F 
ATOM    100  F   UNL A   1      46.166  37.769  29.339  1.00  0.00    -0.200 F 
ENDBRANCH  67  90
ENDBRANCH  41  42
ENDBRANCH  34  36
ENDBRANCH  33  34
ENDBRANCH  32  33
ENDBRANCH   1  32
TORSDOF 18
ENDMDL
MODEL 2
REMARK VINA RESULT:     -12.6      1.425      3.241
REMARK SMILES O=C(C[C@@H]([NH2+]Cc1ccccc1)C(=O)/N=c1/[nH]c(-c2ccccc2)cs1)OCCOC(=O)c1ccc(-c2c3nc(c(-c4c(F)c(F)c(F)c(F)c4F)c4ccc([nH]4)c(-c4c(F)c(F)c(F)c(F)c4F)c4nc(c(-c5c(F)c(F)c(F)c(F)c5F)c5ccc2[nH]5)C=C4)C=C3)cc1
REMARK SMILES IDX 28 1 27 2 2 3 1 4 3 5 4 6 5 7 6 10 7 11 8 12 12 13 9 14
REMARK SMILES IDX 11 15 10 16 13 17 14 18 15 19 16 20 17 21 26 22 18 23 25 25
REMARK SMILES IDX 19 26 20 27 24 28 21 29 23 30 22 31 29 32 30 33 31 34 32 35
REMARK SMILES IDX 33 36 34 37 95 38 35 39 94 40 36 41 37 42 38 43 88 44 39 45
REMARK SMILES IDX 93 46 87 47 89 48 40 49 92 50 86 51 85 52 41 54 73 55 53 56
REMARK SMILES IDX 72 57 54 58 57 59 71 60 90 61 55 62 56 63 70 65 91 66 58 67
REMARK SMILES IDX 42 68 43 69 51 70 44 71 45 72 49 73 52 74 46 75 47 76 50 77
REMARK SMILES IDX 48 78 74 79 75 80 83 81 76 82 77 83 81 84 84 85 78 86 79 87
REMARK SMILES IDX 82 88 80 89 59 90 60 91 68 92 61 93 62 94 66 95 69 96 63 97
REMARK SMILES IDX 64 98 67 99 65 100
REMARK H PARENT 5 8 5 9 17 24 89 53 57 64
REMARK Flexibility Score: inf
ROOT
ATOM      1  C   UNL A   1      36.107  20.590  25.028  1.00  0.00     0.274 C 
ENDROOT
BRANCH   1   2
ATOM      2  O   UNL A   1      35.699  21.410  26.147  1.00  0.00    -0.462 OA
BRANCH   2   3
ATOM      3  C   UNL A   1      34.439  21.849  26.388  1.00  0.00     0.312 C 
ATOM      4  O   UNL A   1      33.815  21.429  27.360  1.00  0.00    -0.252 OA
BRANCH   3   5
ATOM      5  C   UNL A   1      33.802  22.823  25.435  1.00  0.00     0.198 C 
BRANCH   5   6
ATOM      6  C   UNL A   1      33.487  22.240  24.067  1.00  0.00     0.286 C 
BRANCH   6   7
ATOM      7  N   UNL A   1      32.238  21.431  24.025  1.00  0.00    -0.332 N 
ATOM      8  H   UNL A   1      31.467  22.045  23.763  1.00  0.00     0.347 HD
ATOM      9  H   UNL A   1      32.116  21.025  24.952  1.00  0.00     0.347 HD
BRANCH   7  10
ATOM     10  C   UNL A   1      32.286  20.310  23.067  1.00  0.00     0.297 C 
BRANCH  10  11
ATOM     11  C   UNL A   1      32.607  18.988  23.730  1.00  0.00     0.006 A 
ATOM     12  C   UNL A   1      33.047  17.890  22.977  1.00  0.00     0.009 A 
ATOM     13  C   UNL A   1      32.514  18.855  25.122  1.00  0.00     0.009 A 
ATOM     14  C   UNL A   1      33.442  16.708  23.603  1.00  0.00     0.001 A 
ATOM     15  C   UNL A   1      32.876  17.659  25.746  1.00  0.00     0.001 A 
ATOM     16  C   UNL A   1      33.357  16.592  24.988  1.00  0.00     0.000 A 
ENDBRANCH  10  11
ENDBRANCH   7  10
ENDBRANCH   6   7
BRANCH   6  17
ATOM     17  C   UNL A   1      33.502  23.328  22.942  1.00  0.00     0.307 C 
ATOM     18  O   UNL A   1      34.579  23.580  22.396  1.00  0.00    -0.265 OA
BRANCH  17  19
ATOM     19  N   UNL A   1      32.400  24.093  22.623  1.00  0.00    -0.180 NA
ATOM     20  C   UNL A   1      32.218  25.322  22.964  1.00  0.00     0.190 A 
ATOM     21  N   UNL A   1      31.056  26.030  22.736  1.00  0.00    -0.330 N 
ATOM     22  S   UNL A   1      33.364  26.453  23.714  1.00  0.00    -0.105 S 
ATOM     23  C   UNL A   1      31.112  27.390  22.956  1.00  0.00     0.058 A 
ATOM     24  H   UNL A   1      30.230  25.588  22.434  1.00  0.00     0.169 HD
ATOM     25  C   UNL A   1      32.320  27.809  23.373  1.00  0.00     0.095 A 
BRANCH  23  26
ATOM     26  C   UNL A   1      29.977  28.302  22.790  1.00  0.00    -0.001 A 
ATOM     27  C   UNL A   1      30.192  29.520  22.119  1.00  0.00     0.010 A 
ATOM     28  C   UNL A   1      28.683  27.998  23.228  1.00  0.00     0.010 A 
ATOM     29  C   UNL A   1      29.138  30.388  21.842  1.00  0.00     0.001 A 
ATOM     30  C   UNL A   1      27.625  28.875  22.950  1.00  0.00     0.001 A 
ATOM     31  C   UNL A   1      27.850  30.060  22.249  1.00  0.00     0.000 A 
ENDBRANCH  23  26
ENDBRANCH  17  19
ENDBRANCH   6  17
ENDBRANCH   5   6
ENDBRANCH   3   5
ENDBRANCH   2   3
ENDBRANCH   1   2
BRANCH   1  32
ATOM     32  C   UNL A   1      37.630  20.455  24.928  1.00  0.00     0.275 C 
BRANCH  32  33
ATOM     33  O   UNL A   1      38.280  21.577  25.552  1.00  0.00    -0.458 OA
BRANCH  33  34
ATOM     34  C   UNL A   1      39.467  21.305  26.151  1.00  0.00     0.338 C 
ATOM     35  O   UNL A   1      40.103  20.269  26.057  1.00  0.00    -0.246 OA
BRANCH  34  36
ATOM     36  C   UNL A   1      39.999  22.530  26.800  1.00  0.00     0.060 A 
ATOM     37  C   UNL A   1      39.396  23.747  26.469  1.00  0.00     0.016 A 
ATOM     38  C   UNL A   1      41.023  22.505  27.757  1.00  0.00     0.016 A 
ATOM     39  C   UNL A   1      39.853  24.939  27.034  1.00  0.00     0.010 A 
ATOM     40  C   UNL A   1      41.461  23.701  28.347  1.00  0.00     0.010 A 
ATOM     41  C   UNL A   1      40.914  24.934  27.951  1.00  0.00    -0.014 A 
BRANCH  41  42
ATOM     42  C   UNL A   1      41.529  26.235  28.340  1.00  0.00     0.031 A 
ATOM     43  C   UNL A   1      42.928  26.553  27.879  1.00  0.00     0.074 A 
ATOM     44  C   UNL A   1      40.831  27.172  29.011  1.00  0.00     0.049 A 
ATOM     45  N   UNL A   1      43.585  27.686  27.927  1.00  0.00    -0.248 NA
ATOM     46  C   UNL A   1      43.695  25.444  27.291  1.00  0.00     0.031 C 
ATOM     47  C   UNL A   1      39.487  27.002  29.557  1.00  0.00     0.029 A 
ATOM     48  N   UNL A   1      41.163  28.469  29.331  1.00  0.00    -0.354 N 
ATOM     49  C   UNL A   1      44.820  27.433  27.344  1.00  0.00     0.074 A 
ATOM     50  C   UNL A   1      44.857  26.023  27.028  1.00  0.00     0.031 C 
ATOM     51  C   UNL A   1      39.102  28.154  30.135  1.00  0.00     0.029 A 
ATOM     52  C   UNL A   1      40.167  29.147  29.991  1.00  0.00     0.049 A 
ATOM     53  H   UNL A   1      42.033  28.873  29.108  1.00  0.00     0.167 HD
ATOM     54  C   UNL A   1      45.821  28.300  27.058  1.00  0.00     0.037 A 
ATOM     55  C   UNL A   1      40.112  30.427  30.412  1.00  0.00     0.037 A 
ATOM     56  C   UNL A   1      45.806  29.702  27.377  1.00  0.00     0.049 A 
ATOM     57  C   UNL A   1      41.248  31.371  30.104  1.00  0.00     0.074 A 
ATOM     58  C   UNL A   1      46.770  30.660  27.107  1.00  0.00     0.029 A 
ATOM     59  N   UNL A   1      44.780  30.347  28.049  1.00  0.00    -0.354 N 
ATOM     60  N   UNL A   1      42.368  31.143  29.461  1.00  0.00    -0.248 NA
ATOM     61  C   UNL A   1      41.096  32.763  30.557  1.00  0.00     0.031 C 
ATOM     62  C   UNL A   1      46.345  31.876  27.652  1.00  0.00     0.029 A 
ATOM     63  C   UNL A   1      45.095  31.687  28.218  1.00  0.00     0.049 A 
ATOM     64  H   UNL A   1      43.951  29.918  28.359  1.00  0.00     0.167 HD
ATOM     65  C   UNL A   1      43.034  32.362  29.407  1.00  0.00     0.074 A 
ATOM     66  C   UNL A   1      42.185  33.333  30.062  1.00  0.00     0.031 C 
ATOM     67  C   UNL A   1      44.243  32.651  28.863  1.00  0.00     0.037 A 
BRANCH  54  68
ATOM     68  C   UNL A   1      47.017  27.750  26.339  1.00  0.00     0.064 A 
ATOM     69  C   UNL A   1      47.064  27.702  24.937  1.00  0.00     0.173 A 
ATOM     70  C   UNL A   1      48.139  27.299  27.049  1.00  0.00     0.173 A 
ATOM     71  F   UNL A   1      46.010  28.108  24.212  1.00  0.00    -0.203 F 
ATOM     72  C   UNL A   1      48.178  27.197  24.273  1.00  0.00     0.198 A 
ATOM     73  C   UNL A   1      49.264  26.822  26.381  1.00  0.00     0.198 A 
ATOM     74  F   UNL A   1      48.147  27.325  28.390  1.00  0.00    -0.203 F 
ATOM     75  F   UNL A   1      48.179  27.114  22.935  1.00  0.00    -0.200 F 
ATOM     76  C   UNL A   1      49.279  26.765  24.995  1.00  0.00     0.200 A 
ATOM     77  F   UNL A   1      50.332  26.414  27.078  1.00  0.00    -0.200 F 
ATOM     78  F   UNL A   1      50.354  26.283  24.355  1.00  0.00    -0.200 F 
ENDBRANCH  54  68
BRANCH  55  79
ATOM     79  C   UNL A   1      38.917  30.918  31.151  1.00  0.00     0.064 A 
ATOM     80  C   UNL A   1      38.831  30.817  32.547  1.00  0.00     0.173 A 
ATOM     81  C   UNL A   1      37.815  31.452  30.467  1.00  0.00     0.173 A 
ATOM     82  F   UNL A   1      39.846  30.284  33.242  1.00  0.00    -0.203 F 
ATOM     83  C   UNL A   1      37.677  31.200  33.227  1.00  0.00     0.198 A 
ATOM     84  C   UNL A   1      36.672  31.862  31.151  1.00  0.00     0.198 A 
ATOM     85  F   UNL A   1      37.844  31.563  29.131  1.00  0.00    -0.203 F 
ATOM     86  F   UNL A   1      37.596  31.030  34.554  1.00  0.00    -0.200 F 
ATOM     87  C   UNL A   1      36.599  31.725  32.529  1.00  0.00     0.200 A 
ATOM     88  F   UNL A   1      35.635  32.371  30.474  1.00  0.00    -0.200 F 
ATOM     89  F   UNL A   1      35.486  32.083  33.183  1.00  0.00    -0.200 F 
ENDBRANCH  55  79
BRANCH  67  90
ATOM     90  C   UNL A   1      44.710  34.079  28.922  1.00  0.00     0.064 A 
ATOM     91  C   UNL A   1      44.382  35.006  27.921  1.00  0.00     0.173 A 
ATOM     92  C   UNL A   1      45.472  34.534  30.010  1.00  0.00     0.173 A 
ATOM     93  F   UNL A   1      43.664  34.621  26.855  1.00  0.00    -0.203 F 
ATOM     94  C   UNL A   1      44.826  36.324  27.990  1.00  0.00     0.198 A 
ATOM     95  C   UNL A   1      45.887  35.861  30.091  1.00  0.00     0.198 A 
ATOM     96  F   UNL A   1      45.805  33.694  31.001  1.00  0.00    -0.203 F 
ATOM     97  F   UNL A   1      44.544  37.177  26.995  1.00  0.00    -0.200 F 
ATOM     98  C   UNL A   1      45.573  36.752  29.077  1.00  0.00     0.200 A 
ATOM     99  F   UNL A   1      46.595  36.276  31.151  1.00  0.00    -0.200 F 
ATOM    100  F   UNL A   1      45.997  38.022  29.143  1.00  0.00    -0.200 F 
ENDBRANCH  67  90
ENDBRANCH  41  42
ENDBRANCH  34  36
ENDBRANCH  33  34
ENDBRANCH  32  33
ENDBRANCH   1  32
TORSDOF 18
ENDMDL
MODEL 3
REMARK VINA RESULT:     -12.5      1.207      2.547
REMARK SMILES O=C(C[C@@H]([NH2+]Cc1ccccc1)C(=O)/N=c1/[nH]c(-c2ccccc2)cs1)OCCOC(=O)c1ccc(-c2c3nc(c(-c4c(F)c(F)c(F)c(F)c4F)c4ccc([nH]4)c(-c4c(F)c(F)c(F)c(F)c4F)c4nc(c(-c5c(F)c(F)c(F)c(F)c5F)c5ccc2[nH]5)C=C4)C=C3)cc1
REMARK SMILES IDX 28 1 27 2 2 3 1 4 3 5 4 6 5 7 6 10 7 11 8 12 12 13 9 14
REMARK SMILES IDX 11 15 10 16 13 17 14 18 15 19 16 20 17 21 26 22 18 23 25 25
REMARK SMILES IDX 19 26 20 27 24 28 21 29 23 30 22 31 29 32 30 33 31 34 32 35
REMARK SMILES IDX 33 36 34 37 95 38 35 39 94 40 36 41 37 42 38 43 88 44 39 45
REMARK SMILES IDX 93 46 87 47 89 48 40 49 92 50 86 51 85 52 41 54 73 55 53 56
REMARK SMILES IDX 72 57 54 58 57 59 71 60 90 61 55 62 56 63 70 65 91 66 58 67
REMARK SMILES IDX 42 68 43 69 51 70 44 71 45 72 49 73 52 74 46 75 47 76 50 77
REMARK SMILES IDX 48 78 74 79 75 80 83 81 76 82 77 83 81 84 84 85 78 86 79 87
REMARK SMILES IDX 82 88 80 89 59 90 60 91 68 92 61 93 62 94 66 95 69 96 63 97
REMARK SMILES IDX 64 98 67 99 65 100
REMARK H PARENT 5 8 5 9 17 24 89 53 57 64
REMARK Flexibility Score: inf
ROOT
ATOM      1  C   UNL A   1      36.021  21.420  25.801  1.00  0.00     0.274 C 
ENDROOT
BRANCH   1   2
ATOM      2  O   UNL A   1      34.773  20.732  25.560  1.00  0.00    -0.462 OA
BRANCH   2   3
ATOM      3  C   UNL A   1      33.551  21.140  25.981  1.00  0.00     0.312 C 
ATOM      4  O   UNL A   1      32.539  20.776  25.386  1.00  0.00    -0.252 OA
BRANCH   3   5
ATOM      5  C   UNL A   1      33.450  22.070  27.160  1.00  0.00     0.198 C 
BRANCH   5   6
ATOM      6  C   UNL A   1      33.203  23.523  26.787  1.00  0.00     0.286 C 
BRANCH   6   7
ATOM      7  N   UNL A   1      33.671  23.886  25.421  1.00  0.00    -0.332 N 
ATOM      8  H   UNL A   1      32.853  24.063  24.838  1.00  0.00     0.347 HD
ATOM      9  H   UNL A   1      34.231  23.105  25.082  1.00  0.00     0.347 HD
BRANCH   7  10
ATOM     10  C   UNL A   1      34.535  25.082  25.386  1.00  0.00     0.297 C 
BRANCH  10  11
ATOM     11  C   UNL A   1      34.068  26.110  24.380  1.00  0.00     0.006 A 
ATOM     12  C   UNL A   1      33.955  27.464  24.729  1.00  0.00     0.009 A 
ATOM     13  C   UNL A   1      33.785  25.731  23.061  1.00  0.00     0.009 A 
ATOM     14  C   UNL A   1      33.627  28.423  23.771  1.00  0.00     0.001 A 
ATOM     15  C   UNL A   1      33.422  26.687  22.109  1.00  0.00     0.001 A 
ATOM     16  C   UNL A   1      33.360  28.034  22.461  1.00  0.00     0.000 A 
ENDBRANCH  10  11
ENDBRANCH   7  10
ENDBRANCH   6   7
BRANCH   6  17
ATOM     17  C   UNL A   1      31.713  23.947  27.013  1.00  0.00     0.307 C 
ATOM     18  O   UNL A   1      30.940  23.111  27.488  1.00  0.00    -0.265 OA
BRANCH  17  19
ATOM     19  N   UNL A   1      31.207  25.160  26.596  1.00  0.00    -0.180 NA
ATOM     20  C   UNL A   1      30.783  25.426  25.408  1.00  0.00     0.190 A 
ATOM     21  N   UNL A   1      30.394  26.680  24.984  1.00  0.00    -0.330 N 
ATOM     22  S   UNL A   1      30.505  24.318  24.049  1.00  0.00    -0.105 S 
ATOM     23  C   UNL A   1      29.755  26.743  23.763  1.00  0.00     0.058 A 
ATOM     24  H   UNL A   1      30.562  27.486  25.522  1.00  0.00     0.169 HD
ATOM     25  C   UNL A   1      29.623  25.542  23.173  1.00  0.00     0.095 A 
BRANCH  23  26
ATOM     26  C   UNL A   1      29.289  27.984  23.137  1.00  0.00    -0.001 A 
ATOM     27  C   UNL A   1      27.920  28.298  23.219  1.00  0.00     0.010 A 
ATOM     28  C   UNL A   1      30.147  28.888  22.502  1.00  0.00     0.010 A 
ATOM     29  C   UNL A   1      27.425  29.506  22.731  1.00  0.00     0.001 A 
ATOM     30  C   UNL A   1      29.647  30.102  22.010  1.00  0.00     0.001 A 
ATOM     31  C   UNL A   1      28.293  30.414  22.135  1.00  0.00     0.000 A 
ENDBRANCH  23  26
ENDBRANCH  17  19
ENDBRANCH   6  17
ENDBRANCH   5   6
ENDBRANCH   3   5
ENDBRANCH   2   3
ENDBRANCH   1   2
BRANCH   1  32
ATOM     32  C   UNL A   1      37.194  20.782  25.049  1.00  0.00     0.275 C 
BRANCH  32  33
ATOM     33  O   UNL A   1      38.350  21.639  25.093  1.00  0.00    -0.458 OA
BRANCH  33  34
ATOM     34  C   UNL A   1      39.301  21.289  25.995  1.00  0.00     0.338 C 
ATOM     35  O   UNL A   1      39.791  20.180  26.135  1.00  0.00    -0.246 OA
BRANCH  34  36
ATOM     36  C   UNL A   1      39.819  22.499  26.682  1.00  0.00     0.060 A 
ATOM     37  C   UNL A   1      39.231  23.725  26.353  1.00  0.00     0.016 A 
ATOM     38  C   UNL A   1      40.814  22.453  27.667  1.00  0.00     0.016 A 
ATOM     39  C   UNL A   1      39.675  24.905  26.953  1.00  0.00     0.010 A 
ATOM     40  C   UNL A   1      41.239  23.636  28.291  1.00  0.00     0.010 A 
ATOM     41  C   UNL A   1      40.709  24.879  27.901  1.00  0.00    -0.014 A 
BRANCH  41  42
ATOM     42  C   UNL A   1      41.317  26.170  28.330  1.00  0.00     0.031 A 
ATOM     43  C   UNL A   1      42.725  26.497  27.903  1.00  0.00     0.074 A 
ATOM     44  C   UNL A   1      40.607  27.093  29.009  1.00  0.00     0.049 A 
ATOM     45  N   UNL A   1      43.381  27.628  27.989  1.00  0.00    -0.248 NA
ATOM     46  C   UNL A   1      43.503  25.401  27.305  1.00  0.00     0.031 C 
ATOM     47  C   UNL A   1      39.253  26.911  29.525  1.00  0.00     0.029 A 
ATOM     48  N   UNL A   1      40.934  28.382  29.364  1.00  0.00    -0.354 N 
ATOM     49  C   UNL A   1      44.627  27.387  27.425  1.00  0.00     0.074 A 
ATOM     50  C   UNL A   1      44.669  25.984  27.077  1.00  0.00     0.031 C 
ATOM     51  C   UNL A   1      38.857  28.050  30.123  1.00  0.00     0.029 A 
ATOM     52  C   UNL A   1      39.926  29.045  30.021  1.00  0.00     0.049 A 
ATOM     53  H   UNL A   1      41.808  28.790  29.167  1.00  0.00     0.167 HD
ATOM     54  C   UNL A   1      45.634  28.260  27.177  1.00  0.00     0.037 A 
ATOM     55  C   UNL A   1      39.863  30.315  30.469  1.00  0.00     0.037 A 
ATOM     56  C   UNL A   1      45.614  29.654  27.527  1.00  0.00     0.049 A 
ATOM     57  C   UNL A   1      41.006  31.265  30.205  1.00  0.00     0.074 A 
ATOM     58  C   UNL A   1      46.583  30.616  27.297  1.00  0.00     0.029 A 
ATOM     59  N   UNL A   1      44.576  30.285  28.193  1.00  0.00    -0.354 N 
ATOM     60  N   UNL A   1      42.138  31.051  29.578  1.00  0.00    -0.248 NA
ATOM     61  C   UNL A   1      40.846  32.647  30.686  1.00  0.00     0.031 C 
ATOM     62  C   UNL A   1      46.149  31.820  27.861  1.00  0.00     0.029 A 
ATOM     63  C   UNL A   1      44.888  31.620  28.399  1.00  0.00     0.049 A 
ATOM     64  H   UNL A   1      43.741  29.849  28.479  1.00  0.00     0.167 HD
ATOM     65  C   UNL A   1      42.806  32.270  29.563  1.00  0.00     0.074 A 
ATOM     66  C   UNL A   1      41.945  33.227  30.224  1.00  0.00     0.031 C 
ATOM     67  C   UNL A   1      44.025  32.570  29.049  1.00  0.00     0.037 A 
BRANCH  54  68
ATOM     68  C   UNL A   1      46.843  27.724  26.469  1.00  0.00     0.064 A 
ATOM     69  C   UNL A   1      47.944  27.227  27.185  1.00  0.00     0.173 A 
ATOM     70  C   UNL A   1      46.894  27.673  25.069  1.00  0.00     0.173 A 
ATOM     71  F   UNL A   1      47.951  27.268  28.526  1.00  0.00    -0.203 F 
ATOM     72  C   UNL A   1      49.062  26.725  26.526  1.00  0.00     0.198 A 
ATOM     73  C   UNL A   1      48.001  27.142  24.412  1.00  0.00     0.198 A 
ATOM     74  F   UNL A   1      45.868  28.132  24.338  1.00  0.00    -0.203 F 
ATOM     75  F   UNL A   1      50.121  26.303  27.229  1.00  0.00    -0.200 F 
ATOM     76  C   UNL A   1      49.086  26.675  25.140  1.00  0.00     0.200 A 
ATOM     77  F   UNL A   1      48.021  27.085  23.074  1.00  0.00    -0.200 F 
ATOM     78  F   UNL A   1      50.161  26.187  24.505  1.00  0.00    -0.200 F 
ENDBRANCH  54  68
BRANCH  55  79
ATOM     79  C   UNL A   1      38.656  30.792  31.197  1.00  0.00     0.064 A 
ATOM     80  C   UNL A   1      37.559  31.334  30.511  1.00  0.00     0.173 A 
ATOM     81  C   UNL A   1      38.599  30.762  32.598  1.00  0.00     0.173 A 
ATOM     82  F   UNL A   1      37.580  31.413  29.173  1.00  0.00    -0.203 F 
ATOM     83  C   UNL A   1      36.466  31.857  31.200  1.00  0.00     0.198 A 
ATOM     84  C   UNL A   1      37.493  31.259  33.284  1.00  0.00     0.198 A 
ATOM     85  F   UNL A   1      39.625  30.262  33.301  1.00  0.00    -0.203 F 
ATOM     86  F   UNL A   1      35.462  32.429  30.522  1.00  0.00    -0.200 F 
ATOM     87  C   UNL A   1      36.432  31.817  32.586  1.00  0.00     0.200 A 
ATOM     88  F   UNL A   1      37.463  31.216  34.623  1.00  0.00    -0.200 F 
ATOM     89  F   UNL A   1      35.386  32.330  33.247  1.00  0.00    -0.200 F 
ENDBRANCH  55  79
BRANCH  67  90
ATOM     90  C   UNL A   1      44.492  33.996  29.150  1.00  0.00     0.064 A 
ATOM     91  C   UNL A   1      44.205  34.939  28.151  1.00  0.00     0.173 A 
ATOM     92  C   UNL A   1      45.209  34.432  30.274  1.00  0.00     0.173 A 
ATOM     93  F   UNL A   1      43.531  34.573  27.050  1.00  0.00    -0.203 F 
ATOM     94  C   UNL A   1      44.648  36.255  28.258  1.00  0.00     0.198 A 
ATOM     95  C   UNL A   1      45.623  35.756  30.393  1.00  0.00     0.198 A 
ATOM     96  F   UNL A   1      45.500  33.576  31.265  1.00  0.00    -0.203 F 
ATOM     97  F   UNL A   1      44.409  37.123  27.266  1.00  0.00    -0.200 F 
ATOM     98  C   UNL A   1      45.352  36.664  29.381  1.00  0.00     0.200 A 
ATOM     99  F   UNL A   1      46.288  36.154  31.487  1.00  0.00    -0.200 F 
ATOM    100  F   UNL A   1      45.775  37.932  29.484  1.00  0.00    -0.200 F 
ENDBRANCH  67  90
ENDBRANCH  41  42
ENDBRANCH  34  36
ENDBRANCH  33  34
ENDBRANCH  32  33
ENDBRANCH   1  32
TORSDOF 18
ENDMDL
