MODEL 1
REMARK VINA RESULT:     -11.2      0.000      0.000
REMARK SMILES CC(C)C[C@H](CNC(=O)c1ccc(O)cc1O)C(=O)OCCOC(=O)c1ccc(-c2c3nc(c(-c4c(F)c(F)c(F)c(F)c4F)c4ccc([nH]4)c(-c4c(F)c(F)c(F)c(F)c4F)c4nc(c(-c5c(F)c(F)c(F)c(F)c5F)c5ccc2[nH]5)C=C4)C=C3)cc1
REMARK SMILES IDX 21 1 20 2 18 3 19 4 5 5 4 6 2 7 1 8 3 9 6 10 7 11 8 12 9 14
REMARK SMILES IDX 10 15 11 16 16 17 12 18 15 19 13 20 17 21 14 23 22 25 23 26
REMARK SMILES IDX 24 27 25 28 26 29 27 30 88 31 28 32 87 33 29 34 30 35 31 36
REMARK SMILES IDX 81 37 32 38 86 39 80 40 82 41 33 42 85 43 79 44 78 45 34 47
REMARK SMILES IDX 66 48 46 49 65 50 47 51 50 52 64 53 83 54 48 55 49 56 63 58
REMARK SMILES IDX 84 59 51 60 35 61 36 62 44 63 37 64 38 65 42 66 45 67 39 68
REMARK SMILES IDX 40 69 43 70 41 71 67 72 68 73 76 74 69 75 70 76 74 77 77 78
REMARK SMILES IDX 71 79 72 80 75 81 73 82 52 83 53 84 61 85 54 86 55 87 59 88
REMARK SMILES IDX 62 89 56 90 57 91 60 92 58 93
REMARK H PARENT 7 13 17 22 14 24 82 46 50 57
REMARK Flexibility Score: inf
ROOT
ATOM      1  C   UNL A   1      31.029  29.177  24.741  1.00  0.00     0.274 C 
ENDROOT
BRANCH   1   2
ATOM      2  O   UNL A   1      31.789  28.760  23.585  1.00  0.00    -0.462 OA
BRANCH   2   3
ATOM      3  C   UNL A   1      31.409  27.570  23.057  1.00  0.00     0.310 C 
ATOM      4  O   UNL A   1      30.776  27.455  22.012  1.00  0.00    -0.252 OA
BRANCH   3   5
ATOM      5  C   UNL A   1      31.842  26.362  23.868  1.00  0.00     0.118 C 
BRANCH   5   6
ATOM      6  C   UNL A   1      33.332  26.283  24.255  1.00  0.00     0.020 C 
BRANCH   6   7
ATOM      7  C   UNL A   1      33.694  26.143  25.745  1.00  0.00    -0.017 C 
ATOM      8  C   UNL A   1      32.752  26.902  26.680  1.00  0.00     0.007 C 
ATOM      9  C   UNL A   1      33.669  24.657  26.128  1.00  0.00     0.007 C 
ENDBRANCH   6   7
ENDBRANCH   5   6
BRANCH   5  10
ATOM     10  C   UNL A   1      31.280  25.041  23.303  1.00  0.00     0.131 C 
BRANCH  10  11
ATOM     11  N   UNL A   1      31.850  24.652  22.019  1.00  0.00    -0.351 N 
ATOM     12  C   UNL A   1      32.828  23.719  21.774  1.00  0.00     0.255 C 
ATOM     13  H   UNL A   1      31.489  25.114  21.229  1.00  0.00     0.163 HD
ATOM     14  O   UNL A   1      33.473  23.745  20.728  1.00  0.00    -0.269 OA
BRANCH  12  15
ATOM     15  C   UNL A   1      33.169  22.702  22.791  1.00  0.00     0.081 A 
ATOM     16  C   UNL A   1      32.238  21.718  23.153  1.00  0.00     0.021 A 
ATOM     17  C   UNL A   1      34.448  22.691  23.360  1.00  0.00     0.132 A 
ATOM     18  C   UNL A   1      32.567  20.771  24.125  1.00  0.00     0.047 A 
ATOM     19  C   UNL A   1      34.770  21.760  24.342  1.00  0.00     0.093 A 
ATOM     20  C   UNL A   1      33.827  20.808  24.719  1.00  0.00     0.119 A 
BRANCH  17  21
ATOM     21  O   UNL A   1      35.427  23.572  22.988  1.00  0.00    -0.507 OA
ATOM     22  H   UNL A   1      35.380  24.003  22.158  1.00  0.00     0.293 HD
ENDBRANCH  17  21
BRANCH  20  23
ATOM     23  O   UNL A   1      34.183  19.907  25.679  1.00  0.00    -0.508 OA
ATOM     24  H   UNL A   1      35.040  19.938  26.055  1.00  0.00     0.293 HD
ENDBRANCH  20  23
ENDBRANCH  12  15
ENDBRANCH  10  11
ENDBRANCH   5  10
ENDBRANCH   3   5
ENDBRANCH   2   3
ENDBRANCH   1   2
BRANCH   1  25
ATOM     25  C   UNL A   1      31.561  30.465  25.391  1.00  0.00     0.275 C 
BRANCH  25  26
ATOM     26  O   UNL A   1      32.778  30.256  26.134  1.00  0.00    -0.458 OA
BRANCH  26  27
ATOM     27  C   UNL A   1      33.152  31.289  26.924  1.00  0.00     0.338 C 
ATOM     28  O   UNL A   1      32.482  32.264  27.221  1.00  0.00    -0.246 OA
BRANCH  27  29
ATOM     29  C   UNL A   1      34.462  31.024  27.545  1.00  0.00     0.060 A 
ATOM     30  C   UNL A   1      34.735  29.707  27.932  1.00  0.00     0.016 A 
ATOM     31  C   UNL A   1      35.368  32.044  27.835  1.00  0.00     0.016 A 
ATOM     32  C   UNL A   1      35.913  29.399  28.606  1.00  0.00     0.010 A 
ATOM     33  C   UNL A   1      36.547  31.738  28.529  1.00  0.00     0.010 A 
ATOM     34  C   UNL A   1      36.818  30.415  28.927  1.00  0.00    -0.014 A 
BRANCH  34  35
ATOM     35  C   UNL A   1      38.005  30.090  29.752  1.00  0.00     0.031 A 
ATOM     36  C   UNL A   1      39.061  29.177  29.202  1.00  0.00     0.074 A 
ATOM     37  C   UNL A   1      38.163  30.655  30.962  1.00  0.00     0.049 A 
ATOM     38  N   UNL A   1      40.145  28.720  29.775  1.00  0.00    -0.248 NA
ATOM     39  C   UNL A   1      38.875  28.724  27.815  1.00  0.00     0.031 C 
ATOM     40  C   UNL A   1      37.242  31.613  31.572  1.00  0.00     0.029 A 
ATOM     41  N   UNL A   1      39.159  30.504  31.895  1.00  0.00    -0.354 N 
ATOM     42  C   UNL A   1      40.762  27.914  28.828  1.00  0.00     0.074 A 
ATOM     43  C   UNL A   1      39.928  27.936  27.645  1.00  0.00     0.031 C 
ATOM     44  C   UNL A   1      37.712  31.959  32.782  1.00  0.00     0.029 A 
ATOM     45  C   UNL A   1      38.942  31.217  33.047  1.00  0.00     0.049 A 
ATOM     46  H   UNL A   1      39.952  29.939  31.751  1.00  0.00     0.167 HD
ATOM     47  C   UNL A   1      41.920  27.220  28.939  1.00  0.00     0.037 A 
ATOM     48  C   UNL A   1      39.643  31.241  34.198  1.00  0.00     0.037 A 
ATOM     49  C   UNL A   1      42.748  27.205  30.115  1.00  0.00     0.049 A 
ATOM     50  C   UNL A   1      40.885  30.400  34.322  1.00  0.00     0.074 A 
ATOM     51  C   UNL A   1      43.937  26.528  30.327  1.00  0.00     0.029 A 
ATOM     52  N   UNL A   1      42.473  27.904  31.281  1.00  0.00    -0.354 N 
ATOM     53  N   UNL A   1      41.452  29.625  33.429  1.00  0.00    -0.248 NA
ATOM     54  C   UNL A   1      41.581  30.432  35.615  1.00  0.00     0.031 C 
ATOM     55  C   UNL A   1      44.360  26.784  31.636  1.00  0.00     0.029 A 
ATOM     56  C   UNL A   1      43.459  27.657  32.225  1.00  0.00     0.049 A 
ATOM     57  H   UNL A   1      41.693  28.488  31.419  1.00  0.00     0.167 HD
ATOM     58  C   UNL A   1      42.577  29.093  34.045  1.00  0.00     0.074 A 
ATOM     59  C   UNL A   1      42.623  29.646  35.382  1.00  0.00     0.031 C 
ATOM     60  C   UNL A   1      43.489  28.221  33.549  1.00  0.00     0.037 A 
BRANCH  47  61
ATOM     61  C   UNL A   1      42.340  26.388  27.765  1.00  0.00     0.064 A 
ATOM     62  C   UNL A   1      41.810  25.109  27.539  1.00  0.00     0.173 A 
ATOM     63  C   UNL A   1      43.264  26.889  26.837  1.00  0.00     0.173 A 
ATOM     64  F   UNL A   1      40.936  24.578  28.409  1.00  0.00    -0.203 F 
ATOM     65  C   UNL A   1      42.204  24.356  26.436  1.00  0.00     0.198 A 
ATOM     66  C   UNL A   1      43.638  26.144  25.722  1.00  0.00     0.198 A 
ATOM     67  F   UNL A   1      43.800  28.108  27.007  1.00  0.00    -0.203 F 
ATOM     68  F   UNL A   1      41.714  23.121  26.262  1.00  0.00    -0.200 F 
ATOM     69  C   UNL A   1      43.112  24.876  25.525  1.00  0.00     0.200 A 
ATOM     70  F   UNL A   1      44.511  26.651  24.840  1.00  0.00    -0.200 F 
ATOM     71  F   UNL A   1      43.487  24.152  24.463  1.00  0.00    -0.200 F 
ENDBRANCH  47  61
BRANCH  48  72
ATOM     72  C   UNL A   1      39.166  32.065  35.339  1.00  0.00     0.064 A 
ATOM     73  C   UNL A   1      39.494  33.423  35.440  1.00  0.00     0.173 A 
ATOM     74  C   UNL A   1      38.390  31.502  36.363  1.00  0.00     0.173 A 
ATOM     75  F   UNL A   1      40.260  33.997  34.500  1.00  0.00    -0.203 F 
ATOM     76  C   UNL A   1      39.075  34.185  36.529  1.00  0.00     0.198 A 
ATOM     77  C   UNL A   1      37.949  32.272  37.437  1.00  0.00     0.198 A 
ATOM     78  F   UNL A   1      38.055  30.205  36.318  1.00  0.00    -0.203 F 
ATOM     79  F   UNL A   1      39.441  35.471  36.624  1.00  0.00    -0.200 F 
ATOM     80  C   UNL A   1      38.298  33.611  37.523  1.00  0.00     0.200 A 
ATOM     81  F   UNL A   1      37.191  31.715  38.392  1.00  0.00    -0.200 F 
ATOM     82  F   UNL A   1      37.894  34.345  38.569  1.00  0.00    -0.200 F 
ENDBRANCH  48  72
BRANCH  60  83
ATOM     83  C   UNL A   1      44.626  27.834  34.447  1.00  0.00     0.064 A 
ATOM     84  C   UNL A   1      44.552  26.710  35.282  1.00  0.00     0.173 A 
ATOM     85  C   UNL A   1      45.817  28.577  34.445  1.00  0.00     0.173 A 
ATOM     86  F   UNL A   1      43.429  25.978  35.329  1.00  0.00    -0.203 F 
ATOM     87  C   UNL A   1      45.622  26.356  36.100  1.00  0.00     0.198 A 
ATOM     88  C   UNL A   1      46.893  28.205  35.245  1.00  0.00     0.198 A 
ATOM     89  F   UNL A   1      45.939  29.657  33.659  1.00  0.00    -0.203 F 
ATOM     90  F   UNL A   1      45.515  25.302  36.921  1.00  0.00    -0.200 F 
ATOM     91  C   UNL A   1      46.793  27.099  36.076  1.00  0.00     0.200 A 
ATOM     92  F   UNL A   1      48.028  28.917  35.214  1.00  0.00    -0.200 F 
ATOM     93  F   UNL A   1      47.823  26.753  36.860  1.00  0.00    -0.200 F 
ENDBRANCH  60  83
ENDBRANCH  34  35
ENDBRANCH  27  29
ENDBRANCH  26  27
ENDBRANCH  25  26
ENDBRANCH   1  25
TORSDOF 18
ENDMDL
MODEL 2
REMARK VINA RESULT:     -11.2      2.203      8.102
REMARK SMILES CC(C)C[C@H](CNC(=O)c1ccc(O)cc1O)C(=O)OCCOC(=O)c1ccc(-c2c3nc(c(-c4c(F)c(F)c(F)c(F)c4F)c4ccc([nH]4)c(-c4c(F)c(F)c(F)c(F)c4F)c4nc(c(-c5c(F)c(F)c(F)c(F)c5F)c5ccc2[nH]5)C=C4)C=C3)cc1
REMARK SMILES IDX 21 1 20 2 18 3 19 4 5 5 4 6 2 7 1 8 3 9 6 10 7 11 8 12 9 14
REMARK SMILES IDX 10 15 11 16 16 17 12 18 15 19 13 20 17 21 14 23 22 25 23 26
REMARK SMILES IDX 24 27 25 28 26 29 27 30 88 31 28 32 87 33 29 34 30 35 31 36
REMARK SMILES IDX 81 37 32 38 86 39 80 40 82 41 33 42 85 43 79 44 78 45 34 47
REMARK SMILES IDX 66 48 46 49 65 50 47 51 50 52 64 53 83 54 48 55 49 56 63 58
REMARK SMILES IDX 84 59 51 60 35 61 36 62 44 63 37 64 38 65 42 66 45 67 39 68
REMARK SMILES IDX 40 69 43 70 41 71 67 72 68 73 76 74 69 75 70 76 74 77 77 78
REMARK SMILES IDX 71 79 72 80 75 81 73 82 52 83 53 84 61 85 54 86 55 87 59 88
REMARK SMILES IDX 62 89 56 90 57 91 60 92 58 93
REMARK H PARENT 7 13 17 22 14 24 82 46 50 57
REMARK Flexibility Score: inf
ROOT
ATOM      1  C   UNL A   1      32.209  31.922  26.857  1.00  0.00     0.274 C 
ENDROOT
BRANCH   1   2
ATOM      2  O   UNL A   1      32.198  30.534  27.257  1.00  0.00    -0.462 OA
BRANCH   2   3
ATOM      3  C   UNL A   1      33.286  29.823  26.867  1.00  0.00     0.310 C 
ATOM      4  O   UNL A   1      34.415  30.000  27.311  1.00  0.00    -0.252 OA
BRANCH   3   5
ATOM      5  C   UNL A   1      32.993  28.761  25.823  1.00  0.00     0.118 C 
BRANCH   5   6
ATOM      6  C   UNL A   1      33.918  27.528  25.807  1.00  0.00     0.020 C 
BRANCH   6   7
ATOM      7  C   UNL A   1      33.304  26.149  26.107  1.00  0.00    -0.017 C 
ATOM      8  C   UNL A   1      31.783  26.175  26.267  1.00  0.00     0.007 C 
ATOM      9  C   UNL A   1      33.658  25.184  24.967  1.00  0.00     0.007 C 
ENDBRANCH   6   7
ENDBRANCH   5   6
BRANCH   5  10
ATOM     10  C   UNL A   1      32.744  29.363  24.425  1.00  0.00     0.131 C 
BRANCH  10  11
ATOM     11  N   UNL A   1      32.944  28.425  23.327  1.00  0.00    -0.351 N 
ATOM     12  C   UNL A   1      32.000  27.673  22.672  1.00  0.00     0.255 C 
ATOM     13  H   UNL A   1      33.872  28.317  23.015  1.00  0.00     0.163 HD
ATOM     14  O   UNL A   1      32.324  26.670  22.039  1.00  0.00    -0.269 OA
BRANCH  12  15
ATOM     15  C   UNL A   1      30.566  28.016  22.768  1.00  0.00     0.081 A 
ATOM     16  C   UNL A   1      29.683  27.191  23.477  1.00  0.00     0.021 A 
ATOM     17  C   UNL A   1      30.096  29.200  22.187  1.00  0.00     0.132 A 
ATOM     18  C   UNL A   1      28.326  27.519  23.549  1.00  0.00     0.047 A 
ATOM     19  C   UNL A   1      28.742  29.519  22.242  1.00  0.00     0.093 A 
ATOM     20  C   UNL A   1      27.868  28.675  22.920  1.00  0.00     0.119 A 
BRANCH  17  21
ATOM     21  O   UNL A   1      30.922  30.089  21.553  1.00  0.00    -0.507 OA
ATOM     22  H   UNL A   1      31.502  30.629  22.053  1.00  0.00     0.293 HD
ENDBRANCH  17  21
BRANCH  20  23
ATOM     23  O   UNL A   1      26.549  29.024  22.958  1.00  0.00    -0.508 OA
ATOM     24  H   UNL A   1      26.303  29.894  23.202  1.00  0.00     0.293 HD
ENDBRANCH  20  23
ENDBRANCH  12  15
ENDBRANCH  10  11
ENDBRANCH   5  10
ENDBRANCH   3   5
ENDBRANCH   2   3
ENDBRANCH   1   2
BRANCH   1  25
ATOM     25  C   UNL A   1      32.866  32.852  27.890  1.00  0.00     0.275 C 
BRANCH  25  26
ATOM     26  O   UNL A   1      32.578  34.244  27.653  1.00  0.00    -0.458 OA
BRANCH  26  27
ATOM     27  C   UNL A   1      32.980  35.088  28.632  1.00  0.00     0.338 C 
ATOM     28  O   UNL A   1      32.447  36.134  28.962  1.00  0.00    -0.246 OA
BRANCH  27  29
ATOM     29  C   UNL A   1      34.094  34.504  29.401  1.00  0.00     0.060 A 
ATOM     30  C   UNL A   1      35.357  34.497  28.798  1.00  0.00     0.016 A 
ATOM     31  C   UNL A   1      33.903  33.890  30.639  1.00  0.00     0.016 A 
ATOM     32  C   UNL A   1      36.436  33.883  29.426  1.00  0.00     0.010 A 
ATOM     33  C   UNL A   1      34.985  33.256  31.264  1.00  0.00     0.010 A 
ATOM     34  C   UNL A   1      36.253  33.241  30.654  1.00  0.00    -0.014 A 
BRANCH  34  35
ATOM     35  C   UNL A   1      37.381  32.486  31.249  1.00  0.00     0.031 A 
ATOM     36  C   UNL A   1      37.862  32.837  32.627  1.00  0.00     0.074 A 
ATOM     37  C   UNL A   1      37.932  31.456  30.583  1.00  0.00     0.049 A 
ATOM     38  N   UNL A   1      38.865  32.344  33.306  1.00  0.00    -0.248 NA
ATOM     39  C   UNL A   1      37.106  33.879  33.337  1.00  0.00     0.031 C 
ATOM     40  C   UNL A   1      37.502  30.975  29.270  1.00  0.00     0.029 A 
ATOM     41  N   UNL A   1      38.972  30.628  30.921  1.00  0.00    -0.354 N 
ATOM     42  C   UNL A   1      38.872  33.025  34.517  1.00  0.00     0.074 A 
ATOM     43  C   UNL A   1      37.778  33.972  34.476  1.00  0.00     0.031 C 
ATOM     44  C   UNL A   1      38.278  29.939  28.911  1.00  0.00     0.029 A 
ATOM     45  C   UNL A   1      39.284  29.713  29.946  1.00  0.00     0.049 A 
ATOM     46  H   UNL A   1      39.450  30.684  31.780  1.00  0.00     0.167 HD
ATOM     47  C   UNL A   1      39.715  32.870  35.565  1.00  0.00     0.037 A 
ATOM     48  C   UNL A   1      40.288  28.816  29.886  1.00  0.00     0.037 A 
ATOM     49  C   UNL A   1      40.798  31.923  35.604  1.00  0.00     0.049 A 
ATOM     50  C   UNL A   1      41.258  28.718  31.033  1.00  0.00     0.074 A 
ATOM     51  C   UNL A   1      41.712  31.695  36.618  1.00  0.00     0.029 A 
ATOM     52  N   UNL A   1      41.112  31.043  34.578  1.00  0.00    -0.354 N 
ATOM     53  N   UNL A   1      41.270  29.378  32.165  1.00  0.00    -0.248 NA
ATOM     54  C   UNL A   1      42.358  27.754  30.890  1.00  0.00     0.031 C 
ATOM     55  C   UNL A   1      42.604  30.705  36.190  1.00  0.00     0.029 A 
ATOM     56  C   UNL A   1      42.219  30.285  34.928  1.00  0.00     0.049 A 
ATOM     57  H   UNL A   1      40.622  30.968  33.728  1.00  0.00     0.167 HD
ATOM     58  C   UNL A   1      42.363  28.900  32.875  1.00  0.00     0.074 A 
ATOM     59  C   UNL A   1      42.981  27.880  32.053  1.00  0.00     0.031 C 
ATOM     60  C   UNL A   1      42.816  29.272  34.097  1.00  0.00     0.037 A 
BRANCH  47  61
ATOM     61  C   UNL A   1      39.522  33.774  36.745  1.00  0.00     0.064 A 
ATOM     62  C   UNL A   1      38.765  33.382  37.859  1.00  0.00     0.173 A 
ATOM     63  C   UNL A   1      40.129  35.038  36.775  1.00  0.00     0.173 A 
ATOM     64  F   UNL A   1      38.149  32.189  37.870  1.00  0.00    -0.203 F 
ATOM     65  C   UNL A   1      38.607  34.232  38.951  1.00  0.00     0.198 A 
ATOM     66  C   UNL A   1      39.990  35.875  37.878  1.00  0.00     0.198 A 
ATOM     67  F   UNL A   1      40.865  35.459  35.735  1.00  0.00    -0.203 F 
ATOM     68  F   UNL A   1      37.846  33.853  39.987  1.00  0.00    -0.200 F 
ATOM     69  C   UNL A   1      39.225  35.474  38.963  1.00  0.00     0.200 A 
ATOM     70  F   UNL A   1      40.593  37.072  37.891  1.00  0.00    -0.200 F 
ATOM     71  F   UNL A   1      39.075  36.288  40.016  1.00  0.00    -0.200 F 
ENDBRANCH  47  61
BRANCH  48  72
ATOM     72  C   UNL A   1      40.448  27.962  28.680  1.00  0.00     0.064 A 
ATOM     73  C   UNL A   1      41.204  28.393  27.582  1.00  0.00     0.173 A 
ATOM     74  C   UNL A   1      39.830  26.706  28.596  1.00  0.00     0.173 A 
ATOM     75  F   UNL A   1      41.789  29.600  27.606  1.00  0.00    -0.203 F 
ATOM     76  C   UNL A   1      41.326  27.605  26.440  1.00  0.00     0.198 A 
ATOM     77  C   UNL A   1      39.974  25.908  27.463  1.00  0.00     0.198 A 
ATOM     78  F   UNL A   1      39.089  26.251  29.616  1.00  0.00    -0.203 F 
ATOM     79  F   UNL A   1      42.017  28.059  25.386  1.00  0.00    -0.200 F 
ATOM     80  C   UNL A   1      40.716  26.361  26.383  1.00  0.00     0.200 A 
ATOM     81  F   UNL A   1      39.390  24.703  27.416  1.00  0.00    -0.200 F 
ATOM     82  F   UNL A   1      40.833  25.603  25.284  1.00  0.00    -0.200 F 
ENDBRANCH  48  72
BRANCH  60  83
ATOM     83  C   UNL A   1      44.023  28.556  34.628  1.00  0.00     0.064 A 
ATOM     84  C   UNL A   1      43.906  27.358  35.348  1.00  0.00     0.173 A 
ATOM     85  C   UNL A   1      45.311  29.055  34.382  1.00  0.00     0.173 A 
ATOM     86  F   UNL A   1      42.695  26.850  35.621  1.00  0.00    -0.203 F 
ATOM     87  C   UNL A   1      45.037  26.697  35.822  1.00  0.00     0.198 A 
ATOM     88  C   UNL A   1      46.439  28.378  34.835  1.00  0.00     0.198 A 
ATOM     89  F   UNL A   1      45.475  30.193  33.692  1.00  0.00    -0.203 F 
ATOM     90  F   UNL A   1      44.901  25.575  36.544  1.00  0.00    -0.200 F 
ATOM     91  C   UNL A   1      46.301  27.203  35.560  1.00  0.00     0.200 A 
ATOM     92  F   UNL A   1      47.661  28.861  34.573  1.00  0.00    -0.200 F 
ATOM     93  F   UNL A   1      47.387  26.562  36.013  1.00  0.00    -0.200 F 
ENDBRANCH  60  83
ENDBRANCH  34  35
ENDBRANCH  27  29
ENDBRANCH  26  27
ENDBRANCH  25  26
ENDBRANCH   1  25
TORSDOF 18
ENDMDL
MODEL 3
REMARK VINA RESULT:     -11.1      2.125      3.659
REMARK SMILES CC(C)C[C@H](CNC(=O)c1ccc(O)cc1O)C(=O)OCCOC(=O)c1ccc(-c2c3nc(c(-c4c(F)c(F)c(F)c(F)c4F)c4ccc([nH]4)c(-c4c(F)c(F)c(F)c(F)c4F)c4nc(c(-c5c(F)c(F)c(F)c(F)c5F)c5ccc2[nH]5)C=C4)C=C3)cc1
REMARK SMILES IDX 21 1 20 2 18 3 19 4 5 5 4 6 2 7 1 8 3 9 6 10 7 11 8 12 9 14
REMARK SMILES IDX 10 15 11 16 16 17 12 18 15 19 13 20 17 21 14 23 22 25 23 26
REMARK SMILES IDX 24 27 25 28 26 29 27 30 88 31 28 32 87 33 29 34 30 35 31 36
REMARK SMILES IDX 81 37 32 38 86 39 80 40 82 41 33 42 85 43 79 44 78 45 34 47
REMARK SMILES IDX 66 48 46 49 65 50 47 51 50 52 64 53 83 54 48 55 49 56 63 58
REMARK SMILES IDX 84 59 51 60 35 61 36 62 44 63 37 64 38 65 42 66 45 67 39 68
REMARK SMILES IDX 40 69 43 70 41 71 67 72 68 73 76 74 69 75 70 76 74 77 77 78
REMARK SMILES IDX 71 79 72 80 75 81 73 82 52 83 53 84 61 85 54 86 55 87 59 88
REMARK SMILES IDX 62 89 56 90 57 91 60 92 58 93
REMARK H PARENT 7 13 17 22 14 24 82 46 50 57
REMARK Flexibility Score: inf
ROOT
ATOM      1  C   UNL A   1      32.255  31.450  27.179  1.00  0.00     0.274 C 
ENDROOT
BRANCH   1   2
ATOM      2  O   UNL A   1      33.023  30.257  26.906  1.00  0.00    -0.462 OA
BRANCH   2   3
ATOM      3  C   UNL A   1      32.289  29.119  26.824  1.00  0.00     0.310 C 
ATOM      4  O   UNL A   1      31.419  28.805  27.630  1.00  0.00    -0.252 OA
BRANCH   3   5
ATOM      5  C   UNL A   1      32.628  28.245  25.630  1.00  0.00     0.118 C 
BRANCH   5   6
ATOM      6  C   UNL A   1      33.733  27.189  25.832  1.00  0.00     0.020 C 
BRANCH   6   7
ATOM      7  C   UNL A   1      33.312  25.734  26.108  1.00  0.00    -0.017 C 
ATOM      8  C   UNL A   1      31.871  25.424  25.703  1.00  0.00     0.007 C 
ATOM      9  C   UNL A   1      34.248  24.789  25.343  1.00  0.00     0.007 C 
ENDBRANCH   6   7
ENDBRANCH   5   6
BRANCH   5  10
ATOM     10  C   UNL A   1      32.784  29.061  24.330  1.00  0.00     0.131 C 
BRANCH  10  11
ATOM     11  N   UNL A   1      32.925  28.246  23.129  1.00  0.00    -0.351 N 
ATOM     12  C   UNL A   1      31.943  27.581  22.436  1.00  0.00     0.255 C 
ATOM     13  H   UNL A   1      33.837  28.163  22.768  1.00  0.00     0.163 HD
ATOM     14  O   UNL A   1      32.225  26.651  21.684  1.00  0.00    -0.269 OA
BRANCH  12  15
ATOM     15  C   UNL A   1      30.519  27.927  22.631  1.00  0.00     0.081 A 
ATOM     16  C   UNL A   1      29.665  27.061  23.327  1.00  0.00     0.021 A 
ATOM     17  C   UNL A   1      30.033  29.152  22.159  1.00  0.00     0.132 A 
ATOM     18  C   UNL A   1      28.318  27.392  23.492  1.00  0.00     0.047 A 
ATOM     19  C   UNL A   1      28.687  29.476  22.306  1.00  0.00     0.093 A 
ATOM     20  C   UNL A   1      27.840  28.593  22.969  1.00  0.00     0.119 A 
BRANCH  17  21
ATOM     21  O   UNL A   1      30.834  30.077  21.546  1.00  0.00    -0.507 OA
ATOM     22  H   UNL A   1      31.603  30.392  21.979  1.00  0.00     0.293 HD
ENDBRANCH  17  21
BRANCH  20  23
ATOM     23  O   UNL A   1      26.529  28.948  23.101  1.00  0.00    -0.508 OA
ATOM     24  H   UNL A   1      25.999  28.544  23.759  1.00  0.00     0.293 HD
ENDBRANCH  20  23
ENDBRANCH  12  15
ENDBRANCH  10  11
ENDBRANCH   5  10
ENDBRANCH   3   5
ENDBRANCH   2   3
ENDBRANCH   1   2
BRANCH   1  25
ATOM     25  C   UNL A   1      33.109  32.726  27.245  1.00  0.00     0.275 C 
BRANCH  25  26
ATOM     26  O   UNL A   1      32.381  33.861  27.754  1.00  0.00    -0.458 OA
BRANCH  26  27
ATOM     27  C   UNL A   1      33.062  34.634  28.632  1.00  0.00     0.338 C 
ATOM     28  O   UNL A   1      32.709  35.708  29.090  1.00  0.00    -0.246 OA
BRANCH  27  29
ATOM     29  C   UNL A   1      34.263  33.934  29.123  1.00  0.00     0.060 A 
ATOM     30  C   UNL A   1      34.076  32.940  30.090  1.00  0.00     0.016 A 
ATOM     31  C   UNL A   1      35.550  34.297  28.727  1.00  0.00     0.016 A 
ATOM     32  C   UNL A   1      35.170  32.301  30.665  1.00  0.00     0.010 A 
ATOM     33  C   UNL A   1      36.653  33.665  29.318  1.00  0.00     0.010 A 
ATOM     34  C   UNL A   1      36.466  32.672  30.298  1.00  0.00    -0.014 A 
BRANCH  34  35
ATOM     35  C   UNL A   1      37.619  32.070  31.008  1.00  0.00     0.031 A 
ATOM     36  C   UNL A   1      38.434  31.008  30.330  1.00  0.00     0.074 A 
ATOM     37  C   UNL A   1      37.967  32.512  32.230  1.00  0.00     0.049 A 
ATOM     38  N   UNL A   1      39.442  30.314  30.791  1.00  0.00    -0.248 NA
ATOM     39  C   UNL A   1      38.070  30.693  28.940  1.00  0.00     0.031 C 
ATOM     40  C   UNL A   1      37.296  33.587  32.960  1.00  0.00     0.029 A 
ATOM     41  N   UNL A   1      38.973  32.110  33.072  1.00  0.00    -0.354 N 
ATOM     42  C   UNL A   1      39.823  29.468  29.758  1.00  0.00     0.074 A 
ATOM     43  C   UNL A   1      38.932  29.730  28.647  1.00  0.00     0.031 C 
ATOM     44  C   UNL A   1      37.905  33.755  34.145  1.00  0.00     0.029 A 
ATOM     45  C   UNL A   1      38.979  32.773  34.274  1.00  0.00     0.049 A 
ATOM     46  H   UNL A   1      39.628  31.413  32.837  1.00  0.00     0.167 HD
ATOM     47  C   UNL A   1      40.826  28.558  29.741  1.00  0.00     0.037 A 
ATOM     48  C   UNL A   1      39.747  32.585  35.365  1.00  0.00     0.037 A 
ATOM     49  C   UNL A   1      41.712  28.305  30.846  1.00  0.00     0.049 A 
ATOM     50  C   UNL A   1      40.804  31.513  35.347  1.00  0.00     0.074 A 
ATOM     51  C   UNL A   1      42.755  27.398  30.928  1.00  0.00     0.029 A 
ATOM     52  N   UNL A   1      41.660  28.965  32.065  1.00  0.00    -0.354 N 
ATOM     53  N   UNL A   1      41.145  30.704  34.373  1.00  0.00    -0.248 NA
ATOM     54  C   UNL A   1      41.578  31.324  36.581  1.00  0.00     0.031 C 
ATOM     55  C   UNL A   1      43.307  27.481  32.210  1.00  0.00     0.029 A 
ATOM     56  C   UNL A   1      42.638  28.470  32.913  1.00  0.00     0.049 A 
ATOM     57  H   UNL A   1      41.022  29.678  32.294  1.00  0.00     0.167 HD
ATOM     58  C   UNL A   1      42.182  29.925  34.869  1.00  0.00     0.074 A 
ATOM     59  C   UNL A   1      42.426  30.369  36.225  1.00  0.00     0.031 C 
ATOM     60  C   UNL A   1      42.868  28.928  34.258  1.00  0.00     0.037 A 
BRANCH  47  61
ATOM     61  C   UNL A   1      40.993  27.740  28.496  1.00  0.00     0.064 A 
ATOM     62  C   UNL A   1      40.280  26.550  28.293  1.00  0.00     0.173 A 
ATOM     63  C   UNL A   1      41.857  28.170  27.477  1.00  0.00     0.173 A 
ATOM     64  F   UNL A   1      39.455  26.087  29.245  1.00  0.00    -0.203 F 
ATOM     65  C   UNL A   1      40.441  25.810  27.124  1.00  0.00     0.198 A 
ATOM     66  C   UNL A   1      41.997  27.441  26.300  1.00  0.00     0.198 A 
ATOM     67  F   UNL A   1      42.562  29.303  27.622  1.00  0.00    -0.203 F 
ATOM     68  F   UNL A   1      39.779  24.655  26.969  1.00  0.00    -0.200 F 
ATOM     69  C   UNL A   1      41.293  26.259  26.126  1.00  0.00     0.200 A 
ATOM     70  F   UNL A   1      42.817  27.880  25.334  1.00  0.00    -0.200 F 
ATOM     71  F   UNL A   1      41.443  25.548  25.001  1.00  0.00    -0.200 F 
ENDBRANCH  47  61
BRANCH  48  72
ATOM     72  C   UNL A   1      39.521  33.407  36.582  1.00  0.00     0.064 A 
ATOM     73  C   UNL A   1      38.598  33.016  37.560  1.00  0.00     0.173 A 
ATOM     74  C   UNL A   1      40.210  34.613  36.779  1.00  0.00     0.173 A 
ATOM     75  F   UNL A   1      37.893  31.885  37.401  1.00  0.00    -0.203 F 
ATOM     76  C   UNL A   1      38.363  33.805  38.684  1.00  0.00     0.198 A 
ATOM     77  C   UNL A   1      39.994  35.388  37.916  1.00  0.00     0.198 A 
ATOM     78  F   UNL A   1      41.098  35.036  35.868  1.00  0.00    -0.203 F 
ATOM     79  F   UNL A   1      37.442  33.431  39.582  1.00  0.00    -0.200 F 
ATOM     80  C   UNL A   1      39.065  34.987  38.864  1.00  0.00     0.200 A 
ATOM     81  F   UNL A   1      40.681  36.525  38.090  1.00  0.00    -0.200 F 
ATOM     82  F   UNL A   1      38.840  35.746  39.946  1.00  0.00    -0.200 F 
ENDBRANCH  48  72
BRANCH  60  83
ATOM     83  C   UNL A   1      43.964  28.270  35.042  1.00  0.00     0.064 A 
ATOM     84  C   UNL A   1      43.734  27.107  35.792  1.00  0.00     0.173 A 
ATOM     85  C   UNL A   1      45.268  28.789  35.014  1.00  0.00     0.173 A 
ATOM     86  F   UNL A   1      42.501  26.584  35.862  1.00  0.00    -0.203 F 
ATOM     87  C   UNL A   1      44.766  26.501  36.504  1.00  0.00     0.198 A 
ATOM     88  C   UNL A   1      46.302  28.165  35.706  1.00  0.00     0.198 A 
ATOM     89  F   UNL A   1      45.540  29.895  34.306  1.00  0.00    -0.203 F 
ATOM     90  F   UNL A   1      44.515  25.414  37.247  1.00  0.00    -0.200 F 
ATOM     91  C   UNL A   1      46.049  27.025  36.454  1.00  0.00     0.200 A 
ATOM     92  F   UNL A   1      47.543  28.666  35.649  1.00  0.00    -0.200 F 
ATOM     93  F   UNL A   1      47.040  26.436  37.136  1.00  0.00    -0.200 F 
ENDBRANCH  60  83
ENDBRANCH  34  35
ENDBRANCH  27  29
ENDBRANCH  26  27
ENDBRANCH  25  26
ENDBRANCH   1  25
TORSDOF 18
ENDMDL
