MODEL 1
REMARK VINA RESULT:     -12.5      0.000      0.000
REMARK SMILES Cc1cc(C)c(OCC(=O)Nc2ccc(Cl)c(C(=O)OCCOC(=O)c3ccc(-c4c5nc(c(-c6c(F)c(F)c(F)c(F)c6F)c6ccc([nH]6)c(-c6c(F)c(F)c(F)c(F)c6F)c6nc(c(-c7c(F)c(F)c(F)c(F)c7F)c7ccc4[nH]7)C=C6)C=C5)cc3)c2)c(Cl)c1
REMARK SMILES IDX 21 1 20 2 18 3 19 4 17 5 12 6 13 7 89 8 14 9 15 10 16 11
REMARK SMILES IDX 11 12 9 13 10 14 8 16 7 17 6 18 1 19 2 20 3 21 92 22 4 23
REMARK SMILES IDX 90 24 5 25 91 26 22 27 23 28 24 29 25 30 26 31 27 32 88 33
REMARK SMILES IDX 28 34 87 35 29 36 30 37 31 38 81 39 32 40 86 41 80 42 82 43
REMARK SMILES IDX 33 44 85 45 79 46 78 47 34 49 66 50 46 51 65 52 47 53 50 54
REMARK SMILES IDX 64 55 83 56 48 57 49 58 63 60 84 61 51 62 35 63 36 64 44 65
REMARK SMILES IDX 37 66 38 67 42 68 45 69 39 70 40 71 43 72 41 73 67 74 68 75
REMARK SMILES IDX 76 76 69 77 70 78 74 79 77 80 71 81 72 82 75 83 73 84 52 85
REMARK SMILES IDX 53 86 61 87 54 88 55 89 59 90 62 91 56 92 57 93 60 94 58 95
REMARK H PARENT 11 15 82 48 50 59
REMARK Flexibility Score: inf
ROOT
ATOM      1  C   UNL A   1      31.030  30.445  24.636  1.00  0.00     0.275 C 
ENDROOT
BRANCH   1   2
ATOM      2  O   UNL A   1      30.314  29.231  24.337  1.00  0.00    -0.458 OA
BRANCH   2   3
ATOM      3  C   UNL A   1      30.969  28.312  23.592  1.00  0.00     0.339 C 
ATOM      4  O   UNL A   1      31.013  28.255  22.378  1.00  0.00    -0.246 OA
BRANCH   3   5
ATOM      5  C   UNL A   1      31.837  27.477  24.450  1.00  0.00     0.080 A 
ATOM      6  C   UNL A   1      31.846  25.751  26.166  1.00  0.00     0.042 A 
ATOM      7  C   UNL A   1      33.230  25.708  26.114  1.00  0.00     0.028 A 
ATOM      8  C   UNL A   1      31.160  26.640  25.348  1.00  0.00     0.043 A 
ATOM      9  C   UNL A   1      33.923  26.577  25.261  1.00  0.00     0.023 A 
ATOM     10  C   UNL A   1      33.232  27.467  24.426  1.00  0.00     0.055 A 
ATOM     11  Cl  UNL A   1      34.166  28.549  23.462  1.00  0.00    -0.083 Cl
BRANCH   6  12
ATOM     12  N   UNL A   1      31.073  24.876  26.926  1.00  0.00    -0.323 N 
ATOM     13  C   UNL A   1      30.668  23.607  26.635  1.00  0.00     0.262 C 
ATOM     14  O   UNL A   1      30.158  22.962  27.558  1.00  0.00    -0.271 OA
ATOM     15  H   UNL A   1      30.776  25.223  27.799  1.00  0.00     0.170 HD
BRANCH  13  16
ATOM     16  C   UNL A   1      31.023  22.938  25.301  1.00  0.00     0.329 C 
BRANCH  16  17
ATOM     17  O   UNL A   1      32.105  22.060  25.132  1.00  0.00    -0.482 OA
BRANCH  17  18
ATOM     18  C   UNL A   1      33.403  22.451  24.993  1.00  0.00     0.141 A 
ATOM     19  C   UNL A   1      37.562  23.666  25.240  1.00  0.00     0.044 C 
ATOM     20  C   UNL A   1      36.131  23.229  25.153  1.00  0.00    -0.049 A 
ATOM     21  C   UNL A   1      35.399  23.378  23.972  1.00  0.00     0.010 A 
ATOM     22  C   UNL A   1      35.508  22.652  26.253  1.00  0.00     0.027 A 
ATOM     23  C   UNL A   1      34.050  22.961  23.856  1.00  0.00    -0.007 A 
ATOM     24  C   UNL A   1      34.171  22.259  26.169  1.00  0.00     0.083 A 
ATOM     25  C   UNL A   1      33.469  23.107  22.479  1.00  0.00     0.048 C 
ATOM     26  Cl  UNL A   1      33.490  21.518  27.587  1.00  0.00    -0.080 Cl
ENDBRANCH  17  18
ENDBRANCH  16  17
ENDBRANCH  13  16
ENDBRANCH   6  12
ENDBRANCH   3   5
ENDBRANCH   2   3
ENDBRANCH   1   2
BRANCH   1  27
ATOM     27  C   UNL A   1      31.371  30.498  26.124  1.00  0.00     0.275 C 
BRANCH  27  28
ATOM     28  O   UNL A   1      32.801  30.553  26.304  1.00  0.00    -0.458 OA
BRANCH  28  29
ATOM     29  C   UNL A   1      33.255  31.585  27.046  1.00  0.00     0.338 C 
ATOM     30  O   UNL A   1      32.676  32.622  27.329  1.00  0.00    -0.246 OA
BRANCH  29  31
ATOM     31  C   UNL A   1      34.583  31.258  27.579  1.00  0.00     0.060 A 
ATOM     32  C   UNL A   1      34.854  29.930  27.887  1.00  0.00     0.016 A 
ATOM     33  C   UNL A   1      35.493  32.255  27.921  1.00  0.00     0.016 A 
ATOM     34  C   UNL A   1      35.983  29.592  28.627  1.00  0.00     0.010 A 
ATOM     35  C   UNL A   1      36.679  31.904  28.579  1.00  0.00     0.010 A 
ATOM     36  C   UNL A   1      36.921  30.574  28.977  1.00  0.00    -0.014 A 
BRANCH  36  37
ATOM     37  C   UNL A   1      38.124  30.220  29.790  1.00  0.00     0.031 A 
ATOM     38  C   UNL A   1      39.200  29.335  29.212  1.00  0.00     0.074 A 
ATOM     39  C   UNL A   1      38.276  30.700  31.041  1.00  0.00     0.049 A 
ATOM     40  N   UNL A   1      40.232  28.782  29.804  1.00  0.00    -0.248 NA
ATOM     41  C   UNL A   1      39.095  29.018  27.781  1.00  0.00     0.031 C 
ATOM     42  C   UNL A   1      37.351  31.608  31.718  1.00  0.00     0.029 A 
ATOM     43  N   UNL A   1      39.276  30.501  31.963  1.00  0.00    -0.354 N 
ATOM     44  C   UNL A   1      40.853  28.001  28.837  1.00  0.00     0.074 A 
ATOM     45  C   UNL A   1      40.084  28.152  27.619  1.00  0.00     0.031 C 
ATOM     46  C   UNL A   1      37.851  31.932  32.921  1.00  0.00     0.029 A 
ATOM     47  C   UNL A   1      39.083  31.181  33.141  1.00  0.00     0.049 A 
ATOM     48  H   UNL A   1      40.056  29.924  31.795  1.00  0.00     0.167 HD
ATOM     49  C   UNL A   1      41.960  27.228  28.954  1.00  0.00     0.037 A 
ATOM     50  C   UNL A   1      39.793  31.178  34.285  1.00  0.00     0.037 A 
ATOM     51  C   UNL A   1      42.767  27.134  30.144  1.00  0.00     0.049 A 
ATOM     52  C   UNL A   1      40.996  30.286  34.404  1.00  0.00     0.074 A 
ATOM     53  C   UNL A   1      43.929  26.408  30.346  1.00  0.00     0.029 A 
ATOM     54  N   UNL A   1      42.503  27.800  31.332  1.00  0.00    -0.354 N 
ATOM     55  N   UNL A   1      41.543  29.509  33.502  1.00  0.00    -0.248 NA
ATOM     56  C   UNL A   1      41.662  30.249  35.713  1.00  0.00     0.031 C 
ATOM     57  C   UNL A   1      44.345  26.603  31.668  1.00  0.00     0.029 A 
ATOM     58  C   UNL A   1      43.468  27.485  32.277  1.00  0.00     0.049 A 
ATOM     59  H   UNL A   1      41.743  28.407  31.482  1.00  0.00     0.167 HD
ATOM     60  C   UNL A   1      42.625  28.903  34.126  1.00  0.00     0.074 A 
ATOM     61  C   UNL A   1      42.667  29.415  35.480  1.00  0.00     0.031 C 
ATOM     62  C   UNL A   1      43.501  28.001  33.621  1.00  0.00     0.037 A 
BRANCH  49  63
ATOM     63  C   UNL A   1      42.343  26.380  27.774  1.00  0.00     0.064 A 
ATOM     64  C   UNL A   1      41.789  25.112  27.549  1.00  0.00     0.173 A 
ATOM     65  C   UNL A   1      43.276  26.862  26.840  1.00  0.00     0.173 A 
ATOM     66  F   UNL A   1      40.902  24.600  28.416  1.00  0.00    -0.203 F 
ATOM     67  C   UNL A   1      42.179  24.344  26.453  1.00  0.00     0.198 A 
ATOM     68  C   UNL A   1      43.640  26.104  25.731  1.00  0.00     0.198 A 
ATOM     69  F   UNL A   1      43.831  28.072  27.001  1.00  0.00    -0.203 F 
ATOM     70  F   UNL A   1      41.676  23.112  26.290  1.00  0.00    -0.200 F 
ATOM     71  C   UNL A   1      43.099  24.842  25.543  1.00  0.00     0.200 A 
ATOM     72  F   UNL A   1      44.519  26.593  24.845  1.00  0.00    -0.200 F 
ATOM     73  F   UNL A   1      43.472  24.100  24.491  1.00  0.00    -0.200 F 
ENDBRANCH  49  63
BRANCH  50  74
ATOM     74  C   UNL A   1      39.365  32.034  35.423  1.00  0.00     0.064 A 
ATOM     75  C   UNL A   1      38.482  31.545  36.395  1.00  0.00     0.173 A 
ATOM     76  C   UNL A   1      39.836  33.347  35.570  1.00  0.00     0.173 A 
ATOM     77  F   UNL A   1      37.980  30.307  36.280  1.00  0.00    -0.203 F 
ATOM     78  C   UNL A   1      38.087  32.337  37.471  1.00  0.00     0.198 A 
ATOM     79  C   UNL A   1      39.464  34.127  36.662  1.00  0.00     0.198 A 
ATOM     80  F   UNL A   1      40.678  33.865  34.663  1.00  0.00    -0.203 F 
ATOM     81  F   UNL A   1      37.216  31.856  38.369  1.00  0.00    -0.200 F 
ATOM     82  C   UNL A   1      38.587  33.623  37.610  1.00  0.00     0.200 A 
ATOM     83  F   UNL A   1      39.960  35.365  36.799  1.00  0.00    -0.200 F 
ATOM     84  F   UNL A   1      38.218  34.378  38.653  1.00  0.00    -0.200 F 
ENDBRANCH  50  74
BRANCH  62  85
ATOM     85  C   UNL A   1      44.599  27.533  34.529  1.00  0.00     0.064 A 
ATOM     86  C   UNL A   1      45.799  28.248  34.659  1.00  0.00     0.173 A 
ATOM     87  C   UNL A   1      44.440  26.369  35.295  1.00  0.00     0.173 A 
ATOM     88  F   UNL A   1      46.006  29.357  33.933  1.00  0.00    -0.203 F 
ATOM     89  C   UNL A   1      46.809  27.801  35.508  1.00  0.00     0.198 A 
ATOM     90  C   UNL A   1      45.442  25.939  36.162  1.00  0.00     0.198 A 
ATOM     91  F   UNL A   1      43.310  25.651  35.210  1.00  0.00    -0.203 F 
ATOM     92  F   UNL A   1      47.965  28.474  35.583  1.00  0.00    -0.200 F 
ATOM     93  C   UNL A   1      46.627  26.652  36.262  1.00  0.00     0.200 A 
ATOM     94  F   UNL A   1      45.260  24.834  36.898  1.00  0.00    -0.200 F 
ATOM     95  F   UNL A   1      47.600  26.225  37.081  1.00  0.00    -0.200 F 
ENDBRANCH  62  85
ENDBRANCH  36  37
ENDBRANCH  29  31
ENDBRANCH  28  29
ENDBRANCH  27  28
ENDBRANCH   1  27
TORSDOF 15
ENDMDL
MODEL 2
REMARK VINA RESULT:     -12.1      4.140      9.579
REMARK SMILES Cc1cc(C)c(OCC(=O)Nc2ccc(Cl)c(C(=O)OCCOC(=O)c3ccc(-c4c5nc(c(-c6c(F)c(F)c(F)c(F)c6F)c6ccc([nH]6)c(-c6c(F)c(F)c(F)c(F)c6F)c6nc(c(-c7c(F)c(F)c(F)c(F)c7F)c7ccc4[nH]7)C=C6)C=C5)cc3)c2)c(Cl)c1
REMARK SMILES IDX 21 1 20 2 18 3 19 4 17 5 12 6 13 7 89 8 14 9 15 10 16 11
REMARK SMILES IDX 11 12 9 13 10 14 8 16 7 17 6 18 1 19 2 20 3 21 92 22 4 23
REMARK SMILES IDX 90 24 5 25 91 26 22 27 23 28 24 29 25 30 26 31 27 32 88 33
REMARK SMILES IDX 28 34 87 35 29 36 30 37 31 38 81 39 32 40 86 41 80 42 82 43
REMARK SMILES IDX 33 44 85 45 79 46 78 47 34 49 66 50 46 51 65 52 47 53 50 54
REMARK SMILES IDX 64 55 83 56 48 57 49 58 63 60 84 61 51 62 35 63 36 64 44 65
REMARK SMILES IDX 37 66 38 67 42 68 45 69 39 70 40 71 43 72 41 73 67 74 68 75
REMARK SMILES IDX 76 76 69 77 70 78 74 79 77 80 71 81 72 82 75 83 73 84 52 85
REMARK SMILES IDX 53 86 61 87 54 88 55 89 59 90 62 91 56 92 57 93 60 94 58 95
REMARK H PARENT 11 15 82 48 50 59
REMARK Flexibility Score: inf
ROOT
ATOM      1  C   UNL A   1      35.461  21.405  25.711  1.00  0.00     0.275 C 
ENDROOT
BRANCH   1   2
ATOM      2  O   UNL A   1      34.585  21.985  24.726  1.00  0.00    -0.458 OA
BRANCH   2   3
ATOM      3  C   UNL A   1      33.299  21.568  24.742  1.00  0.00     0.339 C 
ATOM      4  O   UNL A   1      32.904  20.428  24.895  1.00  0.00    -0.246 OA
BRANCH   3   5
ATOM      5  C   UNL A   1      32.381  22.728  24.770  1.00  0.00     0.080 A 
ATOM      6  C   UNL A   1      31.354  24.467  23.412  1.00  0.00     0.042 A 
ATOM      7  C   UNL A   1      30.620  24.889  24.509  1.00  0.00     0.028 A 
ATOM      8  C   UNL A   1      32.236  23.402  23.550  1.00  0.00     0.043 A 
ATOM      9  C   UNL A   1      30.795  24.259  25.749  1.00  0.00     0.023 A 
ATOM     10  C   UNL A   1      31.677  23.177  25.887  1.00  0.00     0.055 A 
ATOM     11  Cl  UNL A   1      31.883  22.509  27.463  1.00  0.00    -0.083 Cl
BRANCH   6  12
ATOM     12  N   UNL A   1      31.191  24.982  22.128  1.00  0.00    -0.323 N 
ATOM     13  C   UNL A   1      32.064  25.703  21.369  1.00  0.00     0.262 C 
ATOM     14  O   UNL A   1      31.759  25.873  20.183  1.00  0.00    -0.271 OA
ATOM     15  H   UNL A   1      30.318  24.800  21.708  1.00  0.00     0.170 HD
BRANCH  13  16
ATOM     16  C   UNL A   1      33.451  26.094  21.896  1.00  0.00     0.329 C 
BRANCH  16  17
ATOM     17  O   UNL A   1      33.689  27.210  22.712  1.00  0.00    -0.482 OA
BRANCH  17  18
ATOM     18  C   UNL A   1      33.230  27.347  23.989  1.00  0.00     0.141 A 
ATOM     19  C   UNL A   1      31.455  28.354  27.819  1.00  0.00     0.044 C 
ATOM     20  C   UNL A   1      32.054  27.996  26.492  1.00  0.00    -0.049 A 
ATOM     21  C   UNL A   1      33.078  27.050  26.391  1.00  0.00     0.010 A 
ATOM     22  C   UNL A   1      31.586  28.596  25.329  1.00  0.00     0.027 A 
ATOM     23  C   UNL A   1      33.652  26.680  25.150  1.00  0.00    -0.007 A 
ATOM     24  C   UNL A   1      32.158  28.267  24.098  1.00  0.00     0.083 A 
ATOM     25  C   UNL A   1      34.663  25.573  25.236  1.00  0.00     0.048 C 
ATOM     26  Cl  UNL A   1      31.483  29.047  22.698  1.00  0.00    -0.080 Cl
ENDBRANCH  17  18
ENDBRANCH  16  17
ENDBRANCH  13  16
ENDBRANCH   6  12
ENDBRANCH   3   5
ENDBRANCH   2   3
ENDBRANCH   1   2
BRANCH   1  27
ATOM     27  C   UNL A   1      36.644  20.726  25.024  1.00  0.00     0.275 C 
BRANCH  27  28
ATOM     28  O   UNL A   1      37.793  21.598  25.037  1.00  0.00    -0.458 OA
BRANCH  28  29
ATOM     29  C   UNL A   1      38.796  21.227  25.860  1.00  0.00     0.338 C 
ATOM     30  O   UNL A   1      39.239  20.106  26.052  1.00  0.00    -0.246 OA
BRANCH  29  31
ATOM     31  C   UNL A   1      39.389  22.420  26.478  1.00  0.00     0.060 A 
ATOM     32  C   UNL A   1      38.880  23.663  26.118  1.00  0.00     0.016 A 
ATOM     33  C   UNL A   1      40.528  22.335  27.275  1.00  0.00     0.016 A 
ATOM     34  C   UNL A   1      39.556  24.830  26.462  1.00  0.00     0.010 A 
ATOM     35  C   UNL A   1      41.153  23.512  27.705  1.00  0.00     0.010 A 
ATOM     36  C   UNL A   1      40.700  24.774  27.271  1.00  0.00    -0.014 A 
BRANCH  36  37
ATOM     37  C   UNL A   1      41.442  26.022  27.625  1.00  0.00     0.031 A 
ATOM     38  C   UNL A   1      40.787  27.081  28.476  1.00  0.00     0.074 A 
ATOM     39  C   UNL A   1      42.709  26.212  27.207  1.00  0.00     0.049 A 
ATOM     40  N   UNL A   1      41.195  28.296  28.756  1.00  0.00    -0.248 NA
ATOM     41  C   UNL A   1      39.494  26.734  29.083  1.00  0.00     0.031 C 
ATOM     42  C   UNL A   1      43.496  25.259  26.424  1.00  0.00     0.029 A 
ATOM     43  N   UNL A   1      43.568  27.269  27.397  1.00  0.00    -0.354 N 
ATOM     44  C   UNL A   1      40.181  28.875  29.508  1.00  0.00     0.074 A 
ATOM     45  C   UNL A   1      39.138  27.880  29.644  1.00  0.00     0.031 C 
ATOM     46  C   UNL A   1      44.734  25.747  26.249  1.00  0.00     0.029 A 
ATOM     47  C   UNL A   1      44.802  27.087  26.822  1.00  0.00     0.049 A 
ATOM     48  H   UNL A   1      43.320  28.081  27.897  1.00  0.00     0.167 HD
ATOM     49  C   UNL A   1      40.123  30.123  30.035  1.00  0.00     0.037 A 
ATOM     50  C   UNL A   1      45.861  27.915  26.731  1.00  0.00     0.037 A 
ATOM     51  C   UNL A   1      41.190  31.089  29.964  1.00  0.00     0.049 A 
ATOM     52  C   UNL A   1      45.761  29.305  27.293  1.00  0.00     0.074 A 
ATOM     53  C   UNL A   1      41.239  32.364  30.502  1.00  0.00     0.029 A 
ATOM     54  N   UNL A   1      42.403  30.880  29.324  1.00  0.00    -0.354 N 
ATOM     55  N   UNL A   1      44.777  29.862  27.953  1.00  0.00    -0.248 NA
ATOM     56  C   UNL A   1      46.911  30.191  27.066  1.00  0.00     0.031 C 
ATOM     57  C   UNL A   1      42.466  32.941  30.153  1.00  0.00     0.029 A 
ATOM     58  C   UNL A   1      43.199  32.010  29.437  1.00  0.00     0.049 A 
ATOM     59  H   UNL A   1      42.661  30.051  28.860  1.00  0.00     0.167 HD
ATOM     60  C   UNL A   1      45.192  31.156  28.236  1.00  0.00     0.074 A 
ATOM     61  C   UNL A   1      46.525  31.297  27.688  1.00  0.00     0.031 C 
ATOM     62  C   UNL A   1      44.524  32.139  28.888  1.00  0.00     0.037 A 
BRANCH  49  63
ATOM     63  C   UNL A   1      38.841  30.536  30.702  1.00  0.00     0.064 A 
ATOM     64  C   UNL A   1      38.665  30.477  32.092  1.00  0.00     0.173 A 
ATOM     65  C   UNL A   1      37.773  31.018  29.927  1.00  0.00     0.173 A 
ATOM     66  F   UNL A   1      39.649  30.014  32.877  1.00  0.00    -0.203 F 
ATOM     67  C   UNL A   1      37.457  30.851  32.678  1.00  0.00     0.198 A 
ATOM     68  C   UNL A   1      36.579  31.420  30.519  1.00  0.00     0.198 A 
ATOM     69  F   UNL A   1      37.890  31.105  28.594  1.00  0.00    -0.203 F 
ATOM     70  F   UNL A   1      37.294  30.733  34.003  1.00  0.00    -0.200 F 
ATOM     71  C   UNL A   1      36.418  31.327  31.892  1.00  0.00     0.200 A 
ATOM     72  F   UNL A   1      35.581  31.892  29.759  1.00  0.00    -0.200 F 
ATOM     73  F   UNL A   1      35.257  31.685  32.459  1.00  0.00    -0.200 F 
ENDBRANCH  49  63
BRANCH  50  74
ATOM     74  C   UNL A   1      47.103  27.453  26.057  1.00  0.00     0.064 A 
ATOM     75  C   UNL A   1      47.267  27.608  24.674  1.00  0.00     0.173 A 
ATOM     76  C   UNL A   1      48.153  26.863  26.777  1.00  0.00     0.173 A 
ATOM     77  F   UNL A   1      46.279  28.138  23.939  1.00  0.00    -0.203 F 
ATOM     78  C   UNL A   1      48.434  27.191  24.038  1.00  0.00     0.198 A 
ATOM     79  C   UNL A   1      49.330  26.474  26.144  1.00  0.00     0.198 A 
ATOM     80  F   UNL A   1      48.042  26.686  28.103  1.00  0.00    -0.203 F 
ATOM     81  F   UNL A   1      48.552  27.321  22.709  1.00  0.00    -0.200 F 
ATOM     82  C   UNL A   1      49.469  26.635  24.774  1.00  0.00     0.200 A 
ATOM     83  F   UNL A   1      50.333  25.949  26.862  1.00  0.00    -0.200 F 
ATOM     84  F   UNL A   1      50.596  26.247  24.163  1.00  0.00    -0.200 F 
ENDBRANCH  50  74
BRANCH  62  85
ATOM     85  C   UNL A   1      45.240  33.445  29.072  1.00  0.00     0.064 A 
ATOM     86  C   UNL A   1      46.076  33.674  30.174  1.00  0.00     0.173 A 
ATOM     87  C   UNL A   1      45.105  34.468  28.123  1.00  0.00     0.173 A 
ATOM     88  F   UNL A   1      46.223  32.733  31.118  1.00  0.00    -0.203 F 
ATOM     89  C   UNL A   1      46.735  34.892  30.330  1.00  0.00     0.198 A 
ATOM     90  C   UNL A   1      45.785  35.674  28.269  1.00  0.00     0.198 A 
ATOM     91  F   UNL A   1      44.319  34.297  27.049  1.00  0.00    -0.203 F 
ATOM     92  F   UNL A   1      47.494  35.108  31.413  1.00  0.00    -0.200 F 
ATOM     93  C   UNL A   1      46.593  35.888  29.375  1.00  0.00     0.200 A 
ATOM     94  F   UNL A   1      45.655  36.632  27.340  1.00  0.00    -0.200 F 
ATOM     95  F   UNL A   1      47.230  37.058  29.525  1.00  0.00    -0.200 F 
ENDBRANCH  62  85
ENDBRANCH  36  37
ENDBRANCH  29  31
ENDBRANCH  28  29
ENDBRANCH  27  28
ENDBRANCH   1  27
TORSDOF 15
ENDMDL
MODEL 3
REMARK VINA RESULT:     -12.1      1.010      7.365
REMARK SMILES Cc1cc(C)c(OCC(=O)Nc2ccc(Cl)c(C(=O)OCCOC(=O)c3ccc(-c4c5nc(c(-c6c(F)c(F)c(F)c(F)c6F)c6ccc([nH]6)c(-c6c(F)c(F)c(F)c(F)c6F)c6nc(c(-c7c(F)c(F)c(F)c(F)c7F)c7ccc4[nH]7)C=C6)C=C5)cc3)c2)c(Cl)c1
REMARK SMILES IDX 21 1 20 2 18 3 19 4 17 5 12 6 13 7 89 8 14 9 15 10 16 11
REMARK SMILES IDX 11 12 9 13 10 14 8 16 7 17 6 18 1 19 2 20 3 21 92 22 4 23
REMARK SMILES IDX 90 24 5 25 91 26 22 27 23 28 24 29 25 30 26 31 27 32 88 33
REMARK SMILES IDX 28 34 87 35 29 36 30 37 31 38 81 39 32 40 86 41 80 42 82 43
REMARK SMILES IDX 33 44 85 45 79 46 78 47 34 49 66 50 46 51 65 52 47 53 50 54
REMARK SMILES IDX 64 55 83 56 48 57 49 58 63 60 84 61 51 62 35 63 36 64 44 65
REMARK SMILES IDX 37 66 38 67 42 68 45 69 39 70 40 71 43 72 41 73 67 74 68 75
REMARK SMILES IDX 76 76 69 77 70 78 74 79 77 80 71 81 72 82 75 83 73 84 52 85
REMARK SMILES IDX 53 86 61 87 54 88 55 89 59 90 62 91 56 92 57 93 60 94 58 95
REMARK H PARENT 11 15 82 48 50 59
REMARK Flexibility Score: inf
ROOT
ATOM      1  C   UNL A   1      31.029  31.237  25.704  1.00  0.00     0.275 C 
ENDROOT
BRANCH   1   2
ATOM      2  O   UNL A   1      31.852  30.083  25.956  1.00  0.00    -0.458 OA
BRANCH   2   3
ATOM      3  C   UNL A   1      32.232  29.365  24.874  1.00  0.00     0.339 C 
ATOM      4  O   UNL A   1      33.277  29.468  24.261  1.00  0.00    -0.246 OA
BRANCH   3   5
ATOM      5  C   UNL A   1      31.291  28.248  24.639  1.00  0.00     0.080 A 
ATOM      6  C   UNL A   1      30.527  26.099  25.487  1.00  0.00     0.042 A 
ATOM      7  C   UNL A   1      29.557  26.055  24.498  1.00  0.00     0.028 A 
ATOM      8  C   UNL A   1      31.393  27.183  25.545  1.00  0.00     0.043 A 
ATOM      9  C   UNL A   1      29.478  27.086  23.553  1.00  0.00     0.023 A 
ATOM     10  C   UNL A   1      30.345  28.187  23.616  1.00  0.00     0.055 A 
ATOM     11  Cl  UNL A   1      30.225  29.373  22.370  1.00  0.00    -0.083 Cl
BRANCH   6  12
ATOM     12  N   UNL A   1      30.630  25.160  26.511  1.00  0.00    -0.323 N 
ATOM     13  C   UNL A   1      30.860  23.818  26.432  1.00  0.00     0.262 C 
ATOM     14  O   UNL A   1      31.107  23.235  27.494  1.00  0.00    -0.271 OA
ATOM     15  H   UNL A   1      30.520  25.516  27.423  1.00  0.00     0.170 HD
BRANCH  13  16
ATOM     16  C   UNL A   1      31.020  23.110  25.081  1.00  0.00     0.329 C 
BRANCH  16  17
ATOM     17  O   UNL A   1      32.189  22.445  24.683  1.00  0.00    -0.482 OA
BRANCH  17  18
ATOM     18  C   UNL A   1      33.453  22.904  24.904  1.00  0.00     0.141 A 
ATOM     19  C   UNL A   1      37.498  23.902  26.121  1.00  0.00     0.044 C 
ATOM     20  C   UNL A   1      36.108  23.545  25.688  1.00  0.00    -0.049 A 
ATOM     21  C   UNL A   1      35.380  24.377  24.834  1.00  0.00     0.010 A 
ATOM     22  C   UNL A   1      35.521  22.364  26.126  1.00  0.00     0.027 A 
ATOM     23  C   UNL A   1      34.070  24.059  24.396  1.00  0.00    -0.007 A 
ATOM     24  C   UNL A   1      34.220  22.045  25.730  1.00  0.00     0.083 A 
ATOM     25  C   UNL A   1      33.494  25.022  23.398  1.00  0.00     0.048 C 
ATOM     26  Cl  UNL A   1      33.585  20.530  26.303  1.00  0.00    -0.080 Cl
ENDBRANCH  17  18
ENDBRANCH  16  17
ENDBRANCH  13  16
ENDBRANCH   6  12
ENDBRANCH   3   5
ENDBRANCH   2   3
ENDBRANCH   1   2
BRANCH   1  27
ATOM     27  C   UNL A   1      31.548  32.433  26.498  1.00  0.00     0.275 C 
BRANCH  27  28
ATOM     28  O   UNL A   1      32.622  32.023  27.368  1.00  0.00    -0.458 OA
BRANCH  28  29
ATOM     29  C   UNL A   1      33.554  32.964  27.628  1.00  0.00     0.338 C 
ATOM     30  O   UNL A   1      33.432  34.178  27.582  1.00  0.00    -0.246 OA
BRANCH  29  31
ATOM     31  C   UNL A   1      34.791  32.318  28.083  1.00  0.00     0.060 A 
ATOM     32  C   UNL A   1      34.754  30.954  28.351  1.00  0.00     0.016 A 
ATOM     33  C   UNL A   1      35.926  33.062  28.394  1.00  0.00     0.016 A 
ATOM     34  C   UNL A   1      35.806  30.338  29.023  1.00  0.00     0.010 A 
ATOM     35  C   UNL A   1      37.026  32.422  28.981  1.00  0.00     0.010 A 
ATOM     36  C   UNL A   1      36.965  31.060  29.341  1.00  0.00    -0.014 A 
BRANCH  36  37
ATOM     37  C   UNL A   1      38.088  30.408  30.081  1.00  0.00     0.031 A 
ATOM     38  C   UNL A   1      38.310  30.706  31.543  1.00  0.00     0.074 A 
ATOM     39  C   UNL A   1      38.905  29.533  29.461  1.00  0.00     0.049 A 
ATOM     40  N   UNL A   1      39.316  30.375  32.317  1.00  0.00    -0.248 NA
ATOM     41  C   UNL A   1      37.270  31.492  32.221  1.00  0.00     0.031 C 
ATOM     42  C   UNL A   1      38.786  29.103  28.068  1.00  0.00     0.029 A 
ATOM     43  N   UNL A   1      39.992  28.835  29.930  1.00  0.00    -0.354 N 
ATOM     44  C   UNL A   1      39.062  30.970  33.547  1.00  0.00     0.074 A 
ATOM     45  C   UNL A   1      37.807  31.680  33.418  1.00  0.00     0.031 C 
ATOM     46  C   UNL A   1      39.722  28.176  27.811  1.00  0.00     0.029 A 
ATOM     47  C   UNL A   1      40.568  28.015  28.989  1.00  0.00     0.049 A 
ATOM     48  H   UNL A   1      40.327  28.915  30.852  1.00  0.00     0.167 HD
ATOM     49  C   UNL A   1      39.807  30.929  34.679  1.00  0.00     0.037 A 
ATOM     50  C   UNL A   1      41.673  27.247  29.049  1.00  0.00     0.037 A 
ATOM     51  C   UNL A   1      41.018  30.162  34.830  1.00  0.00     0.049 A 
ATOM     52  C   UNL A   1      42.502  27.245  30.302  1.00  0.00     0.074 A 
ATOM     53  C   UNL A   1      41.820  30.027  35.950  1.00  0.00     0.029 A 
ATOM     54  N   UNL A   1      41.594  29.389  33.833  1.00  0.00    -0.354 N 
ATOM     55  N   UNL A   1      42.283  27.855  31.441  1.00  0.00    -0.248 NA
ATOM     56  C   UNL A   1      43.750  26.471  30.265  1.00  0.00     0.031 C 
ATOM     57  C   UNL A   1      42.903  29.204  35.619  1.00  0.00     0.029 A 
ATOM     58  C   UNL A   1      42.752  28.791  34.306  1.00  0.00     0.049 A 
ATOM     59  H   UNL A   1      41.232  29.281  32.923  1.00  0.00     0.167 HD
ATOM     60  C   UNL A   1      43.354  27.527  32.261  1.00  0.00     0.074 A 
ATOM     61  C   UNL A   1      44.215  26.651  31.494  1.00  0.00     0.031 C 
ATOM     62  C   UNL A   1      43.601  27.921  33.534  1.00  0.00     0.037 A 
BRANCH  49  63
ATOM     63  C   UNL A   1      39.358  31.775  35.836  1.00  0.00     0.064 A 
ATOM     64  C   UNL A   1      38.384  31.344  36.748  1.00  0.00     0.173 A 
ATOM     65  C   UNL A   1      39.933  33.040  36.043  1.00  0.00     0.173 A 
ATOM     66  F   UNL A   1      37.794  30.149  36.590  1.00  0.00    -0.203 F 
ATOM     67  C   UNL A   1      37.977  32.160  37.801  1.00  0.00     0.198 A 
ATOM     68  C   UNL A   1      39.546  33.840  37.114  1.00  0.00     0.198 A 
ATOM     69  F   UNL A   1      40.877  33.499  35.207  1.00  0.00    -0.203 F 
ATOM     70  F   UNL A   1      37.004  31.749  38.627  1.00  0.00    -0.200 F 
ATOM     71  C   UNL A   1      38.561  33.404  37.986  1.00  0.00     0.200 A 
ATOM     72  F   UNL A   1      40.122  35.036  37.299  1.00  0.00    -0.200 F 
ATOM     73  F   UNL A   1      38.167  34.187  39.001  1.00  0.00    -0.200 F 
ENDBRANCH  49  63
BRANCH  50  74
ATOM     74  C   UNL A   1      42.071  26.433  27.871  1.00  0.00     0.064 A 
ATOM     75  C   UNL A   1      43.026  26.909  26.962  1.00  0.00     0.173 A 
ATOM     76  C   UNL A   1      41.521  25.164  27.637  1.00  0.00     0.173 A 
ATOM     77  F   UNL A   1      43.557  28.129  27.126  1.00  0.00    -0.203 F 
ATOM     78  C   UNL A   1      43.415  26.145  25.863  1.00  0.00     0.198 A 
ATOM     79  C   UNL A   1      41.933  24.390  26.555  1.00  0.00     0.198 A 
ATOM     80  F   UNL A   1      40.599  24.666  28.474  1.00  0.00    -0.203 F 
ATOM     81  F   UNL A   1      44.305  26.637  24.990  1.00  0.00    -0.200 F 
ATOM     82  C   UNL A   1      42.877  24.882  25.666  1.00  0.00     0.200 A 
ATOM     83  F   UNL A   1      41.419  23.165  26.376  1.00  0.00    -0.200 F 
ATOM     84  F   UNL A   1      43.261  24.143  24.618  1.00  0.00    -0.200 F 
ENDBRANCH  50  74
BRANCH  62  85
ATOM     85  C   UNL A   1      44.839  27.381  34.188  1.00  0.00     0.064 A 
ATOM     86  C   UNL A   1      44.830  26.163  34.883  1.00  0.00     0.173 A 
ATOM     87  C   UNL A   1      46.052  28.079  34.098  1.00  0.00     0.173 A 
ATOM     88  F   UNL A   1      43.690  25.468  35.013  1.00  0.00    -0.203 F 
ATOM     89  C   UNL A   1      45.987  25.674  35.484  1.00  0.00     0.198 A 
ATOM     90  C   UNL A   1      47.213  27.575  34.678  1.00  0.00     0.198 A 
ATOM     91  F   UNL A   1      46.113  29.248  33.442  1.00  0.00    -0.203 F 
ATOM     92  F   UNL A   1      45.947  24.531  36.182  1.00  0.00    -0.200 F 
ATOM     93  C   UNL A   1      47.178  26.378  35.376  1.00  0.00     0.200 A 
ATOM     94  F   UNL A   1      48.365  28.251  34.564  1.00  0.00    -0.200 F 
ATOM     95  F   UNL A   1      48.292  25.905  35.953  1.00  0.00    -0.200 F 
ENDBRANCH  62  85
ENDBRANCH  36  37
ENDBRANCH  29  31
ENDBRANCH  28  29
ENDBRANCH  27  28
ENDBRANCH   1  27
TORSDOF 15
ENDMDL
