MODEL 1
REMARK VINA RESULT:     -12.7      0.000      0.000
REMARK SMILES CC(=O)NS(=O)(=O)c1ccc(-c2ccn(C(F)F)c(=O)c2)cc1C(=O)OCCOC(=O)c1ccc(-c2c3nc(c(-c4c(F)c(F)c(F)c(F)c4F)c4ccc([nH]4)c(-c4c(F)c(F)c(F)c(F)c4F)c4nc(c(-c5c(F)c(F)c(F)c(F)c5F)c5ccc2[nH]5)C=C4)C=C3)cc1
REMARK SMILES IDX 27 1 26 2 24 3 25 4 23 5 8 6 9 7 10 8 22 9 11 10 5 11 6 12
REMARK SMILES IDX 7 13 4 14 1 15 2 16 3 17 12 19 13 20 21 21 14 22 19 23 15 24
REMARK SMILES IDX 20 25 16 26 17 27 18 28 28 29 29 30 30 31 31 32 32 33 33 34
REMARK SMILES IDX 94 35 34 36 93 37 35 38 36 39 37 40 87 41 38 42 92 43 86 44
REMARK SMILES IDX 88 45 39 46 91 47 85 48 84 49 40 51 72 52 52 53 71 54 53 55
REMARK SMILES IDX 56 56 70 57 89 58 54 59 55 60 69 62 90 63 57 64 41 65 42 66
REMARK SMILES IDX 50 67 43 68 44 69 48 70 51 71 45 72 46 73 49 74 47 75 73 76
REMARK SMILES IDX 74 77 82 78 75 79 76 80 80 81 83 82 77 83 78 84 81 85 79 86
REMARK SMILES IDX 58 87 59 88 67 89 60 90 61 91 65 92 68 93 62 94 63 95 66 96
REMARK SMILES IDX 64 97
REMARK H PARENT 4 18 88 50 56 61
REMARK Flexibility Score: inf
ROOT
ATOM      1  C   UNL A   1      33.234  28.355  24.637  1.00  0.00     0.275 C 
ENDROOT
BRANCH   1   2
ATOM      2  O   UNL A   1      33.648  27.567  25.773  1.00  0.00    -0.458 OA
BRANCH   2   3
ATOM      3  C   UNL A   1      32.947  26.450  26.027  1.00  0.00     0.339 C 
ATOM      4  O   UNL A   1      32.032  26.350  26.830  1.00  0.00    -0.246 OA
BRANCH   3   5
ATOM      5  C   UNL A   1      33.315  25.306  25.146  1.00  0.00     0.081 A 
ATOM      6  C   UNL A   1      32.529  24.713  24.152  1.00  0.00     0.102 A 
ATOM      7  C   UNL A   1      33.117  23.807  23.249  1.00  0.00     0.024 A 
ATOM      8  C   UNL A   1      34.414  23.334  23.454  1.00  0.00     0.010 A 
ATOM      9  C   UNL A   1      34.632  24.831  25.320  1.00  0.00     0.025 A 
ATOM     10  C   UNL A   1      35.153  23.795  24.540  1.00  0.00    -0.017 A 
BRANCH   6  11
ATOM     11  S   UNL A   1      30.772  24.944  24.109  1.00  0.00     0.264 S 
ATOM     12  O   UNL A   1      30.244  24.023  23.126  1.00  0.00    -0.201 OA
ATOM     13  O   UNL A   1      30.499  26.362  24.088  1.00  0.00    -0.201 OA
BRANCH  11  14
ATOM     14  N   UNL A   1      30.227  24.390  25.587  1.00  0.00    -0.249 N 
ATOM     15  C   UNL A   1      31.039  22.014  25.540  1.00  0.00     0.115 C 
ATOM     16  C   UNL A   1      30.757  23.290  26.290  1.00  0.00     0.230 C 
ATOM     17  O   UNL A   1      30.789  23.337  27.514  1.00  0.00    -0.274 OA
ATOM     18  H   UNL A   1      29.475  24.872  26.002  1.00  0.00     0.183 HD
ENDBRANCH  11  14
ENDBRANCH   6  11
BRANCH  10  19
ATOM     19  C   UNL A   1      36.415  23.151  24.944  1.00  0.00    -0.011 A 
ATOM     20  C   UNL A   1      36.709  21.775  24.581  1.00  0.00     0.027 A 
ATOM     21  C   UNL A   1      37.309  23.842  25.670  1.00  0.00     0.080 A 
ATOM     22  C   UNL A   1      37.833  21.184  25.001  1.00  0.00     0.095 A 
ATOM     23  C   UNL A   1      38.577  23.202  26.125  1.00  0.00     0.255 A 
ATOM     24  N   UNL A   1      38.748  21.872  25.773  1.00  0.00    -0.258 N 
ATOM     25  O   UNL A   1      39.365  23.878  26.777  1.00  0.00    -0.269 OA
BRANCH  24  26
ATOM     26  C   UNL A   1      39.950  21.220  26.232  1.00  0.00     0.451 C 
ATOM     27  F   UNL A   1      40.084  21.348  27.575  1.00  0.00    -0.185 F 
ATOM     28  F   UNL A   1      39.924  19.897  25.937  1.00  0.00    -0.185 F 
ENDBRANCH  24  26
ENDBRANCH  10  19
ENDBRANCH   3   5
ENDBRANCH   2   3
ENDBRANCH   1   2
BRANCH   1  29
ATOM     29  C   UNL A   1      32.681  29.698  25.105  1.00  0.00     0.275 C 
BRANCH  29  30
ATOM     30  O   UNL A   1      32.804  29.775  26.536  1.00  0.00    -0.458 OA
BRANCH  30  31
ATOM     31  C   UNL A   1      33.278  30.938  27.032  1.00  0.00     0.338 C 
ATOM     32  O   UNL A   1      32.748  32.036  26.999  1.00  0.00    -0.246 OA
BRANCH  31  33
ATOM     33  C   UNL A   1      34.592  30.695  27.655  1.00  0.00     0.060 A 
ATOM     34  C   UNL A   1      34.973  29.398  28.002  1.00  0.00     0.016 A 
ATOM     35  C   UNL A   1      35.414  31.773  27.979  1.00  0.00     0.016 A 
ATOM     36  C   UNL A   1      36.142  29.179  28.728  1.00  0.00     0.010 A 
ATOM     37  C   UNL A   1      36.625  31.545  28.641  1.00  0.00     0.010 A 
ATOM     38  C   UNL A   1      36.986  30.249  29.056  1.00  0.00    -0.014 A 
BRANCH  38  39
ATOM     39  C   UNL A   1      38.206  30.034  29.886  1.00  0.00     0.031 A 
ATOM     40  C   UNL A   1      39.366  29.252  29.326  1.00  0.00     0.074 A 
ATOM     41  C   UNL A   1      38.299  30.541  31.131  1.00  0.00     0.049 A 
ATOM     42  N   UNL A   1      40.434  28.800  29.934  1.00  0.00    -0.248 NA
ATOM     43  C   UNL A   1      39.317  28.933  27.891  1.00  0.00     0.031 C 
ATOM     44  C   UNL A   1      37.282  31.358  31.792  1.00  0.00     0.029 A 
ATOM     45  N   UNL A   1      39.306  30.449  32.061  1.00  0.00    -0.354 N 
ATOM     46  C   UNL A   1      41.137  28.076  28.980  1.00  0.00     0.074 A 
ATOM     47  C   UNL A   1      40.392  28.173  27.744  1.00  0.00     0.031 C 
ATOM     48  C   UNL A   1      37.732  31.728  33.001  1.00  0.00     0.029 A 
ATOM     49  C   UNL A   1      39.031  31.106  33.236  1.00  0.00     0.049 A 
ATOM     50  H   UNL A   1      40.144  29.959  31.901  1.00  0.00     0.167 HD
ATOM     51  C   UNL A   1      42.292  27.384  29.126  1.00  0.00     0.037 A 
ATOM     52  C   UNL A   1      39.725  31.169  34.389  1.00  0.00     0.037 A 
ATOM     53  C   UNL A   1      43.069  27.337  30.336  1.00  0.00     0.049 A 
ATOM     54  C   UNL A   1      41.011  30.403  34.524  1.00  0.00     0.074 A 
ATOM     55  C   UNL A   1      44.264  26.677  30.570  1.00  0.00     0.029 A 
ATOM     56  N   UNL A   1      42.740  27.995  31.511  1.00  0.00    -0.354 N 
ATOM     57  N   UNL A   1      41.624  29.658  33.638  1.00  0.00    -0.248 NA
ATOM     58  C   UNL A   1      41.683  30.462  35.830  1.00  0.00     0.031 C 
ATOM     59  C   UNL A   1      44.649  26.923  31.893  1.00  0.00     0.029 A 
ATOM     60  C   UNL A   1      43.709  27.759  32.472  1.00  0.00     0.049 A 
ATOM     61  H   UNL A   1      41.936  28.546  31.643  1.00  0.00     0.167 HD
ATOM     62  C   UNL A   1      42.748  29.155  34.279  1.00  0.00     0.074 A 
ATOM     63  C   UNL A   1      42.749  29.702  35.620  1.00  0.00     0.031 C 
ATOM     64  C   UNL A   1      43.689  28.304  33.803  1.00  0.00     0.037 A 
BRANCH  51  65
ATOM     65  C   UNL A   1      42.775  26.588  27.951  1.00  0.00     0.064 A 
ATOM     66  C   UNL A   1      42.417  25.246  27.769  1.00  0.00     0.173 A 
ATOM     67  C   UNL A   1      43.581  27.194  26.975  1.00  0.00     0.173 A 
ATOM     68  F   UNL A   1      41.665  24.619  28.687  1.00  0.00    -0.203 F 
ATOM     69  C   UNL A   1      42.861  24.534  26.658  1.00  0.00     0.198 A 
ATOM     70  C   UNL A   1      44.005  26.486  25.855  1.00  0.00     0.198 A 
ATOM     71  F   UNL A   1      43.949  28.478  27.104  1.00  0.00    -0.203 F 
ATOM     72  F   UNL A   1      42.537  23.240  26.522  1.00  0.00    -0.200 F 
ATOM     73  C   UNL A   1      43.648  25.155  25.699  1.00  0.00     0.200 A 
ATOM     74  F   UNL A   1      44.759  27.090  24.927  1.00  0.00    -0.200 F 
ATOM     75  F   UNL A   1      44.070  24.468  24.629  1.00  0.00    -0.200 F 
ENDBRANCH  51  65
BRANCH  52  76
ATOM     76  C   UNL A   1      39.192  31.961  35.528  1.00  0.00     0.064 A 
ATOM     77  C   UNL A   1      38.368  31.366  36.493  1.00  0.00     0.173 A 
ATOM     78  C   UNL A   1      39.502  33.320  35.679  1.00  0.00     0.173 A 
ATOM     79  F   UNL A   1      38.016  30.078  36.369  1.00  0.00    -0.203 F 
ATOM     80  C   UNL A   1      37.874  32.103  37.568  1.00  0.00     0.198 A 
ATOM     81  C   UNL A   1      39.028  34.049  36.766  1.00  0.00     0.198 A 
ATOM     82  F   UNL A   1      40.279  33.935  34.775  1.00  0.00    -0.203 F 
ATOM     83  F   UNL A   1      37.061  31.520  38.459  1.00  0.00    -0.200 F 
ATOM     84  C   UNL A   1      38.212  33.441  37.708  1.00  0.00     0.200 A 
ATOM     85  F   UNL A   1      39.364  35.339  36.902  1.00  0.00    -0.200 F 
ATOM     86  F   UNL A   1      37.745  34.147  38.747  1.00  0.00    -0.200 F 
ENDBRANCH  52  76
BRANCH  64  87
ATOM     87  C   UNL A   1      44.796  27.919  34.736  1.00  0.00     0.064 A 
ATOM     88  C   UNL A   1      45.951  28.706  34.857  1.00  0.00     0.173 A 
ATOM     89  C   UNL A   1      44.689  26.773  35.535  1.00  0.00     0.173 A 
ATOM     90  F   UNL A   1      46.100  29.803  34.100  1.00  0.00    -0.203 F 
ATOM     91  C   UNL A   1      46.969  28.347  35.735  1.00  0.00     0.198 A 
ATOM     92  C   UNL A   1      45.701  26.427  36.426  1.00  0.00     0.198 A 
ATOM     93  F   UNL A   1      43.602  25.992  35.456  1.00  0.00    -0.203 F 
ATOM     94  F   UNL A   1      48.079  29.094  35.812  1.00  0.00    -0.200 F 
ATOM     95  C   UNL A   1      46.842  27.211  36.521  1.00  0.00     0.200 A 
ATOM     96  F   UNL A   1      45.576  25.333  37.190  1.00  0.00    -0.200 F 
ATOM     97  F   UNL A   1      47.824  26.869  37.367  1.00  0.00    -0.200 F 
ENDBRANCH  64  87
ENDBRANCH  38  39
ENDBRANCH  31  33
ENDBRANCH  30  31
ENDBRANCH  29  30
ENDBRANCH   1  29
TORSDOF 15
ENDMDL
MODEL 2
REMARK VINA RESULT:     -12.6      0.353      1.590
REMARK SMILES CC(=O)NS(=O)(=O)c1ccc(-c2ccn(C(F)F)c(=O)c2)cc1C(=O)OCCOC(=O)c1ccc(-c2c3nc(c(-c4c(F)c(F)c(F)c(F)c4F)c4ccc([nH]4)c(-c4c(F)c(F)c(F)c(F)c4F)c4nc(c(-c5c(F)c(F)c(F)c(F)c5F)c5ccc2[nH]5)C=C4)C=C3)cc1
REMARK SMILES IDX 27 1 26 2 24 3 25 4 23 5 8 6 9 7 10 8 22 9 11 10 5 11 6 12
REMARK SMILES IDX 7 13 4 14 1 15 2 16 3 17 12 19 13 20 21 21 14 22 19 23 15 24
REMARK SMILES IDX 20 25 16 26 17 27 18 28 28 29 29 30 30 31 31 32 32 33 33 34
REMARK SMILES IDX 94 35 34 36 93 37 35 38 36 39 37 40 87 41 38 42 92 43 86 44
REMARK SMILES IDX 88 45 39 46 91 47 85 48 84 49 40 51 72 52 52 53 71 54 53 55
REMARK SMILES IDX 56 56 70 57 89 58 54 59 55 60 69 62 90 63 57 64 41 65 42 66
REMARK SMILES IDX 50 67 43 68 44 69 48 70 51 71 45 72 46 73 49 74 47 75 73 76
REMARK SMILES IDX 74 77 82 78 75 79 76 80 80 81 83 82 77 83 78 84 81 85 79 86
REMARK SMILES IDX 58 87 59 88 67 89 60 90 61 91 65 92 68 93 62 94 63 95 66 96
REMARK SMILES IDX 64 97
REMARK H PARENT 4 18 88 50 56 61
REMARK Flexibility Score: inf
ROOT
ATOM      1  C   UNL A   1      31.787  28.506  26.423  1.00  0.00     0.275 C 
ENDROOT
BRANCH   1   2
ATOM      2  O   UNL A   1      32.707  27.557  25.845  1.00  0.00    -0.458 OA
BRANCH   2   3
ATOM      3  C   UNL A   1      32.627  26.288  26.280  1.00  0.00     0.339 C 
ATOM      4  O   UNL A   1      32.145  25.929  27.345  1.00  0.00    -0.246 OA
BRANCH   3   5
ATOM      5  C   UNL A   1      33.101  25.288  25.283  1.00  0.00     0.081 A 
ATOM      6  C   UNL A   1      32.397  24.789  24.182  1.00  0.00     0.102 A 
ATOM      7  C   UNL A   1      33.078  24.038  23.204  1.00  0.00     0.024 A 
ATOM      8  C   UNL A   1      34.389  23.609  23.417  1.00  0.00     0.010 A 
ATOM      9  C   UNL A   1      34.433  24.863  25.466  1.00  0.00     0.025 A 
ATOM     10  C   UNL A   1      35.049  23.963  24.590  1.00  0.00    -0.017 A 
BRANCH   6  11
ATOM     11  S   UNL A   1      30.633  24.933  24.074  1.00  0.00     0.264 S 
ATOM     12  O   UNL A   1      30.193  24.022  23.040  1.00  0.00    -0.201 OA
ATOM     13  O   UNL A   1      30.290  26.336  24.088  1.00  0.00    -0.201 OA
BRANCH  11  14
ATOM     14  N   UNL A   1      30.060  24.301  25.509  1.00  0.00    -0.249 N 
ATOM     15  C   UNL A   1      31.029  21.985  25.438  1.00  0.00     0.115 C 
ATOM     16  C   UNL A   1      30.629  23.218  26.207  1.00  0.00     0.230 C 
ATOM     17  O   UNL A   1      30.603  23.230  27.432  1.00  0.00    -0.274 OA
ATOM     18  H   UNL A   1      29.260  24.720  25.900  1.00  0.00     0.183 HD
ENDBRANCH  11  14
ENDBRANCH   6  11
BRANCH  10  19
ATOM     19  C   UNL A   1      36.326  23.338  24.977  1.00  0.00    -0.011 A 
ATOM     20  C   UNL A   1      36.641  21.972  24.596  1.00  0.00     0.027 A 
ATOM     21  C   UNL A   1      37.213  24.037  25.704  1.00  0.00     0.080 A 
ATOM     22  C   UNL A   1      37.779  21.397  25.001  1.00  0.00     0.095 A 
ATOM     23  C   UNL A   1      38.496  23.415  26.141  1.00  0.00     0.255 A 
ATOM     24  N   UNL A   1      38.688  22.093  25.772  1.00  0.00    -0.258 N 
ATOM     25  O   UNL A   1      39.277  24.099  26.794  1.00  0.00    -0.269 OA
BRANCH  24  26
ATOM     26  C   UNL A   1      39.905  21.457  26.215  1.00  0.00     0.451 C 
ATOM     27  F   UNL A   1      40.035  21.551  27.560  1.00  0.00    -0.185 F 
ATOM     28  F   UNL A   1      39.912  20.144  25.882  1.00  0.00    -0.185 F 
ENDBRANCH  24  26
ENDBRANCH  10  19
ENDBRANCH   3   5
ENDBRANCH   2   3
ENDBRANCH   1   2
BRANCH   1  29
ATOM     29  C   UNL A   1      31.899  29.848  25.705  1.00  0.00     0.275 C 
BRANCH  29  30
ATOM     30  O   UNL A   1      33.227  30.366  25.898  1.00  0.00    -0.458 OA
BRANCH  30  31
ATOM     31  C   UNL A   1      33.393  31.201  26.946  1.00  0.00     0.338 C 
ATOM     32  O   UNL A   1      32.631  32.065  27.343  1.00  0.00    -0.246 OA
BRANCH  31  33
ATOM     33  C   UNL A   1      34.690  30.913  27.587  1.00  0.00     0.060 A 
ATOM     34  C   UNL A   1      35.042  29.599  27.896  1.00  0.00     0.016 A 
ATOM     35  C   UNL A   1      35.522  31.965  27.966  1.00  0.00     0.016 A 
ATOM     36  C   UNL A   1      36.192  29.334  28.639  1.00  0.00     0.010 A 
ATOM     37  C   UNL A   1      36.715  31.693  28.645  1.00  0.00     0.010 A 
ATOM     38  C   UNL A   1      37.045  30.378  29.021  1.00  0.00    -0.014 A 
BRANCH  38  39
ATOM     39  C   UNL A   1      38.244  30.112  29.868  1.00  0.00     0.031 A 
ATOM     40  C   UNL A   1      39.387  29.300  29.318  1.00  0.00     0.074 A 
ATOM     41  C   UNL A   1      38.333  30.602  31.120  1.00  0.00     0.049 A 
ATOM     42  N   UNL A   1      40.430  28.805  29.937  1.00  0.00    -0.248 NA
ATOM     43  C   UNL A   1      39.351  28.999  27.878  1.00  0.00     0.031 C 
ATOM     44  C   UNL A   1      37.332  31.443  31.775  1.00  0.00     0.029 A 
ATOM     45  N   UNL A   1      39.320  30.465  32.066  1.00  0.00    -0.354 N 
ATOM     46  C   UNL A   1      41.124  28.070  28.986  1.00  0.00     0.074 A 
ATOM     47  C   UNL A   1      40.403  28.206  27.739  1.00  0.00     0.031 C 
ATOM     48  C   UNL A   1      37.774  31.784  32.996  1.00  0.00     0.029 A 
ATOM     49  C   UNL A   1      39.048  31.117  33.244  1.00  0.00     0.049 A 
ATOM     50  H   UNL A   1      40.145  29.950  31.913  1.00  0.00     0.167 HD
ATOM     51  C   UNL A   1      42.253  27.339  29.142  1.00  0.00     0.037 A 
ATOM     52  C   UNL A   1      39.724  31.143  34.409  1.00  0.00     0.037 A 
ATOM     53  C   UNL A   1      43.008  27.252  30.364  1.00  0.00     0.049 A 
ATOM     54  C   UNL A   1      40.982  30.334  34.555  1.00  0.00     0.074 A 
ATOM     55  C   UNL A   1      44.177  26.550  30.609  1.00  0.00     0.029 A 
ATOM     56  N   UNL A   1      42.681  27.906  31.541  1.00  0.00    -0.354 N 
ATOM     57  N   UNL A   1      41.585  29.579  33.670  1.00  0.00    -0.248 NA
ATOM     58  C   UNL A   1      41.634  30.355  35.873  1.00  0.00     0.031 C 
ATOM     59  C   UNL A   1      44.548  26.768  31.941  1.00  0.00     0.029 A 
ATOM     60  C   UNL A   1      43.626  27.627  32.514  1.00  0.00     0.049 A 
ATOM     61  H   UNL A   1      41.893  28.482  31.667  1.00  0.00     0.167 HD
ATOM     62  C   UNL A   1      42.682  29.032  34.323  1.00  0.00     0.074 A 
ATOM     63  C   UNL A   1      42.678  29.563  35.670  1.00  0.00     0.031 C 
ATOM     64  C   UNL A   1      43.602  28.156  33.851  1.00  0.00     0.037 A 
BRANCH  51  65
ATOM     65  C   UNL A   1      42.729  26.542  27.965  1.00  0.00     0.064 A 
ATOM     66  C   UNL A   1      43.552  27.100  26.977  1.00  0.00     0.173 A 
ATOM     67  C   UNL A   1      42.383  25.187  27.847  1.00  0.00     0.173 A 
ATOM     68  F   UNL A   1      43.892  28.397  27.038  1.00  0.00    -0.203 F 
ATOM     69  C   UNL A   1      43.999  26.333  25.904  1.00  0.00     0.198 A 
ATOM     70  C   UNL A   1      42.849  24.418  26.785  1.00  0.00     0.198 A 
ATOM     71  F   UNL A   1      41.598  24.607  28.768  1.00  0.00    -0.203 F 
ATOM     72  F   UNL A   1      44.755  26.895  24.951  1.00  0.00    -0.200 F 
ATOM     73  C   UNL A   1      43.653  24.992  25.812  1.00  0.00     0.200 A 
ATOM     74  F   UNL A   1      42.519  23.122  26.702  1.00  0.00    -0.200 F 
ATOM     75  F   UNL A   1      44.088  24.256  24.781  1.00  0.00    -0.200 F 
ENDBRANCH  51  65
BRANCH  52  76
ATOM     76  C   UNL A   1      39.199  31.939  35.549  1.00  0.00     0.064 A 
ATOM     77  C   UNL A   1      38.351  31.356  36.501  1.00  0.00     0.173 A 
ATOM     78  C   UNL A   1      39.539  33.289  35.714  1.00  0.00     0.173 A 
ATOM     79  F   UNL A   1      37.970  30.078  36.363  1.00  0.00    -0.203 F 
ATOM     80  C   UNL A   1      37.864  32.096  37.577  1.00  0.00     0.198 A 
ATOM     81  C   UNL A   1      39.071  34.020  36.802  1.00  0.00     0.198 A 
ATOM     82  F   UNL A   1      40.340  33.892  34.823  1.00  0.00    -0.203 F 
ATOM     83  F   UNL A   1      37.028  31.526  38.455  1.00  0.00    -0.200 F 
ATOM     84  C   UNL A   1      38.232  33.424  37.731  1.00  0.00     0.200 A 
ATOM     85  F   UNL A   1      39.436  35.301  36.952  1.00  0.00    -0.200 F 
ATOM     86  F   UNL A   1      37.771  34.133  38.770  1.00  0.00    -0.200 F 
ENDBRANCH  52  76
BRANCH  64  87
ATOM     87  C   UNL A   1      44.680  27.725  34.798  1.00  0.00     0.064 A 
ATOM     88  C   UNL A   1      44.536  26.576  35.588  1.00  0.00     0.173 A 
ATOM     89  C   UNL A   1      45.877  28.448  34.893  1.00  0.00     0.173 A 
ATOM     90  F   UNL A   1      43.401  25.862  35.538  1.00  0.00    -0.203 F 
ATOM     91  C   UNL A   1      45.548  26.176  36.456  1.00  0.00     0.198 A 
ATOM     92  C   UNL A   1      46.894  28.035  35.749  1.00  0.00     0.198 A 
ATOM     93  F   UNL A   1      46.061  29.552  34.154  1.00  0.00    -0.203 F 
ATOM     94  F   UNL A   1      45.377  25.093  37.228  1.00  0.00    -0.200 F 
ATOM     95  C   UNL A   1      46.727  26.902  36.532  1.00  0.00     0.200 A 
ATOM     96  F   UNL A   1      48.036  28.734  35.818  1.00  0.00    -0.200 F 
ATOM     97  F   UNL A   1      47.700  26.515  37.368  1.00  0.00    -0.200 F 
ENDBRANCH  64  87
ENDBRANCH  38  39
ENDBRANCH  31  33
ENDBRANCH  30  31
ENDBRANCH  29  30
ENDBRANCH   1  29
TORSDOF 15
ENDMDL
MODEL 3
REMARK VINA RESULT:     -12.5      0.989      1.943
REMARK SMILES CC(=O)NS(=O)(=O)c1ccc(-c2ccn(C(F)F)c(=O)c2)cc1C(=O)OCCOC(=O)c1ccc(-c2c3nc(c(-c4c(F)c(F)c(F)c(F)c4F)c4ccc([nH]4)c(-c4c(F)c(F)c(F)c(F)c4F)c4nc(c(-c5c(F)c(F)c(F)c(F)c5F)c5ccc2[nH]5)C=C4)C=C3)cc1
REMARK SMILES IDX 27 1 26 2 24 3 25 4 23 5 8 6 9 7 10 8 22 9 11 10 5 11 6 12
REMARK SMILES IDX 7 13 4 14 1 15 2 16 3 17 12 19 13 20 21 21 14 22 19 23 15 24
REMARK SMILES IDX 20 25 16 26 17 27 18 28 28 29 29 30 30 31 31 32 32 33 33 34
REMARK SMILES IDX 94 35 34 36 93 37 35 38 36 39 37 40 87 41 38 42 92 43 86 44
REMARK SMILES IDX 88 45 39 46 91 47 85 48 84 49 40 51 72 52 52 53 71 54 53 55
REMARK SMILES IDX 56 56 70 57 89 58 54 59 55 60 69 62 90 63 57 64 41 65 42 66
REMARK SMILES IDX 50 67 43 68 44 69 48 70 51 71 45 72 46 73 49 74 47 75 73 76
REMARK SMILES IDX 74 77 82 78 75 79 76 80 80 81 83 82 77 83 78 84 81 85 79 86
REMARK SMILES IDX 58 87 59 88 67 89 60 90 61 91 65 92 68 93 62 94 63 95 66 96
REMARK SMILES IDX 64 97
REMARK H PARENT 4 18 88 50 56 61
REMARK Flexibility Score: inf
ROOT
ATOM      1  C   UNL A   1      31.639  28.423  26.646  1.00  0.00     0.275 C 
ENDROOT
BRANCH   1   2
ATOM      2  O   UNL A   1      32.664  27.584  26.073  1.00  0.00    -0.458 OA
BRANCH   2   3
ATOM      3  C   UNL A   1      32.460  26.257  26.118  1.00  0.00     0.339 C 
ATOM      4  O   UNL A   1      31.701  25.677  26.880  1.00  0.00    -0.246 OA
BRANCH   3   5
ATOM      5  C   UNL A   1      33.186  25.510  25.052  1.00  0.00     0.081 A 
ATOM      6  C   UNL A   1      32.805  25.354  23.715  1.00  0.00     0.102 A 
ATOM      7  C   UNL A   1      33.725  24.829  22.787  1.00  0.00     0.024 A 
ATOM      8  C   UNL A   1      34.930  24.270  23.214  1.00  0.00     0.010 A 
ATOM      9  C   UNL A   1      34.421  24.962  25.457  1.00  0.00     0.025 A 
ATOM     10  C   UNL A   1      35.251  24.271  24.568  1.00  0.00    -0.017 A 
BRANCH   6  11
ATOM     11  S   UNL A   1      31.135  25.642  23.194  1.00  0.00     0.264 S 
ATOM     12  O   UNL A   1      30.278  24.852  24.051  1.00  0.00    -0.201 OA
ATOM     13  O   UNL A   1      31.090  25.573  21.752  1.00  0.00    -0.201 OA
BRANCH  11  14
ATOM     14  N   UNL A   1      30.828  27.235  23.590  1.00  0.00    -0.249 N 
ATOM     15  C   UNL A   1      32.804  28.381  22.545  1.00  0.00     0.115 C 
ATOM     16  C   UNL A   1      31.342  28.357  22.910  1.00  0.00     0.230 C 
ATOM     17  O   UNL A   1      30.638  29.354  22.810  1.00  0.00    -0.274 OA
ATOM     18  H   UNL A   1      30.240  27.404  24.361  1.00  0.00     0.183 HD
ENDBRANCH  11  14
ENDBRANCH   6  11
BRANCH  10  19
ATOM     19  C   UNL A   1      36.377  23.482  25.096  1.00  0.00    -0.011 A 
ATOM     20  C   UNL A   1      37.329  24.060  26.029  1.00  0.00     0.027 A 
ATOM     21  C   UNL A   1      36.535  22.207  24.705  1.00  0.00     0.080 A 
ATOM     22  C   UNL A   1      38.379  23.351  26.458  1.00  0.00     0.095 A 
ATOM     23  C   UNL A   1      37.688  21.398  25.195  1.00  0.00     0.255 A 
ATOM     24  N   UNL A   1      38.572  22.049  26.042  1.00  0.00    -0.258 N 
ATOM     25  O   UNL A   1      37.781  20.235  24.816  1.00  0.00    -0.269 OA
BRANCH  24  26
ATOM     26  C   UNL A   1      39.715  21.298  26.501  1.00  0.00     0.451 C 
ATOM     27  F   UNL A   1      40.719  21.348  25.592  1.00  0.00    -0.185 F 
ATOM     28  F   UNL A   1      40.181  21.798  27.671  1.00  0.00    -0.185 F 
ENDBRANCH  24  26
ENDBRANCH  10  19
ENDBRANCH   3   5
ENDBRANCH   2   3
ENDBRANCH   1   2
BRANCH   1  29
ATOM     29  C   UNL A   1      31.742  29.836  26.081  1.00  0.00     0.275 C 
BRANCH  29  30
ATOM     30  O   UNL A   1      33.119  30.252  26.125  1.00  0.00    -0.458 OA
BRANCH  30  31
ATOM     31  C   UNL A   1      33.415  31.238  26.998  1.00  0.00     0.338 C 
ATOM     32  O   UNL A   1      32.757  32.232  27.256  1.00  0.00    -0.246 OA
BRANCH  31  33
ATOM     33  C   UNL A   1      34.709  30.939  27.639  1.00  0.00     0.060 A 
ATOM     34  C   UNL A   1      35.035  29.626  27.980  1.00  0.00     0.016 A 
ATOM     35  C   UNL A   1      35.567  31.982  27.984  1.00  0.00     0.016 A 
ATOM     36  C   UNL A   1      36.184  29.356  28.722  1.00  0.00     0.010 A 
ATOM     37  C   UNL A   1      36.758  31.702  28.662  1.00  0.00     0.010 A 
ATOM     38  C   UNL A   1      37.062  30.391  29.072  1.00  0.00    -0.014 A 
BRANCH  38  39
ATOM     39  C   UNL A   1      38.260  30.121  29.918  1.00  0.00     0.031 A 
ATOM     40  C   UNL A   1      39.403  29.309  29.365  1.00  0.00     0.074 A 
ATOM     41  C   UNL A   1      38.350  30.607  31.171  1.00  0.00     0.049 A 
ATOM     42  N   UNL A   1      40.445  28.812  29.983  1.00  0.00    -0.248 NA
ATOM     43  C   UNL A   1      39.367  29.013  27.924  1.00  0.00     0.031 C 
ATOM     44  C   UNL A   1      37.350  31.448  31.829  1.00  0.00     0.029 A 
ATOM     45  N   UNL A   1      39.338  30.467  32.116  1.00  0.00    -0.354 N 
ATOM     46  C   UNL A   1      41.139  28.079  29.029  1.00  0.00     0.074 A 
ATOM     47  C   UNL A   1      40.418  28.219  27.783  1.00  0.00     0.031 C 
ATOM     48  C   UNL A   1      37.792  31.784  33.051  1.00  0.00     0.029 A 
ATOM     49  C   UNL A   1      39.066  31.115  33.297  1.00  0.00     0.049 A 
ATOM     50  H   UNL A   1      40.162  29.952  31.962  1.00  0.00     0.167 HD
ATOM     51  C   UNL A   1      42.267  27.347  29.183  1.00  0.00     0.037 A 
ATOM     52  C   UNL A   1      39.742  31.138  34.461  1.00  0.00     0.037 A 
ATOM     53  C   UNL A   1      43.023  27.255  30.405  1.00  0.00     0.049 A 
ATOM     54  C   UNL A   1      40.999  30.327  34.605  1.00  0.00     0.074 A 
ATOM     55  C   UNL A   1      44.191  26.552  30.648  1.00  0.00     0.029 A 
ATOM     56  N   UNL A   1      42.696  27.906  31.584  1.00  0.00    -0.354 N 
ATOM     57  N   UNL A   1      41.602  29.574  33.718  1.00  0.00    -0.248 NA
ATOM     58  C   UNL A   1      41.651  30.344  35.923  1.00  0.00     0.031 C 
ATOM     59  C   UNL A   1      44.561  26.765  31.980  1.00  0.00     0.029 A 
ATOM     60  C   UNL A   1      43.640  27.624  32.557  1.00  0.00     0.049 A 
ATOM     61  H   UNL A   1      41.908  28.483  31.711  1.00  0.00     0.167 HD
ATOM     62  C   UNL A   1      42.697  29.024  34.369  1.00  0.00     0.074 A 
ATOM     63  C   UNL A   1      42.694  29.551  35.718  1.00  0.00     0.031 C 
ATOM     64  C   UNL A   1      43.617  28.149  33.895  1.00  0.00     0.037 A 
BRANCH  51  65
ATOM     65  C   UNL A   1      42.743  26.552  28.004  1.00  0.00     0.064 A 
ATOM     66  C   UNL A   1      42.363  25.217  27.809  1.00  0.00     0.173 A 
ATOM     67  C   UNL A   1      43.563  27.153  27.036  1.00  0.00     0.173 A 
ATOM     68  F   UNL A   1      41.597  24.596  28.719  1.00  0.00    -0.203 F 
ATOM     69  C   UNL A   1      42.801  24.507  26.695  1.00  0.00     0.198 A 
ATOM     70  C   UNL A   1      43.981  26.446  25.913  1.00  0.00     0.198 A 
ATOM     71  F   UNL A   1      43.952  28.429  27.178  1.00  0.00    -0.203 F 
ATOM     72  F   UNL A   1      42.456  23.220  26.546  1.00  0.00    -0.200 F 
ATOM     73  C   UNL A   1      43.603  25.123  25.745  1.00  0.00     0.200 A 
ATOM     74  F   UNL A   1      44.750  27.045  24.993  1.00  0.00    -0.200 F 
ATOM     75  F   UNL A   1      44.019  24.437  24.671  1.00  0.00    -0.200 F 
ENDBRANCH  51  65
BRANCH  52  76
ATOM     76  C   UNL A   1      39.217  31.930  35.603  1.00  0.00     0.064 A 
ATOM     77  C   UNL A   1      38.356  31.350  36.545  1.00  0.00     0.173 A 
ATOM     78  C   UNL A   1      39.572  33.275  35.782  1.00  0.00     0.173 A 
ATOM     79  F   UNL A   1      37.961  30.078  36.394  1.00  0.00    -0.203 F 
ATOM     80  C   UNL A   1      37.869  32.087  37.623  1.00  0.00     0.198 A 
ATOM     81  C   UNL A   1      39.105  34.004  36.873  1.00  0.00     0.198 A 
ATOM     82  F   UNL A   1      40.387  33.876  34.902  1.00  0.00    -0.203 F 
ATOM     83  F   UNL A   1      37.020  31.520  38.490  1.00  0.00    -0.200 F 
ATOM     84  C   UNL A   1      38.251  33.410  37.791  1.00  0.00     0.200 A 
ATOM     85  F   UNL A   1      39.484  35.279  37.035  1.00  0.00    -0.200 F 
ATOM     86  F   UNL A   1      37.791  34.116  38.832  1.00  0.00    -0.200 F 
ENDBRANCH  52  76
BRANCH  64  87
ATOM     87  C   UNL A   1      44.695  27.713  34.840  1.00  0.00     0.064 A 
ATOM     88  C   UNL A   1      44.557  26.552  35.614  1.00  0.00     0.173 A 
ATOM     89  C   UNL A   1      45.885  28.446  34.951  1.00  0.00     0.173 A 
ATOM     90  F   UNL A   1      43.429  25.830  35.550  1.00  0.00    -0.203 F 
ATOM     91  C   UNL A   1      45.569  26.149  36.480  1.00  0.00     0.198 A 
ATOM     92  C   UNL A   1      46.902  28.030  35.805  1.00  0.00     0.198 A 
ATOM     93  F   UNL A   1      46.062  29.561  34.228  1.00  0.00    -0.203 F 
ATOM     94  F   UNL A   1      45.404  25.055  37.237  1.00  0.00    -0.200 F 
ATOM     95  C   UNL A   1      46.741  26.885  36.572  1.00  0.00     0.200 A 
ATOM     96  F   UNL A   1      48.037  28.737  35.889  1.00  0.00    -0.200 F 
ATOM     97  F   UNL A   1      47.714  26.494  37.407  1.00  0.00    -0.200 F 
ENDBRANCH  64  87
ENDBRANCH  38  39
ENDBRANCH  31  33
ENDBRANCH  30  31
ENDBRANCH  29  30
ENDBRANCH   1  29
TORSDOF 15
ENDMDL
