MODEL 1
REMARK VINA RESULT:     -11.7      0.000      0.000
REMARK SMILES C[C@@H]1[C@H](C(=O)OCCOC(=O)c2ccc(-c3c4nc(c(-c5c(F)c(F)c(F)c(F)c5F)c5ccc([nH]5)c(-c5c(F)c(F)c(F)c(F)c5F)c5nc(c(-c6c(F)c(F)c(F)c(F)c6F)c6ccc3[nH]6)C=C5)C=C4)cc2)CCN1C(=O)/C=C/c1cccc(Br)c1
REMARK SMILES IDX 7 1 6 2 4 3 5 4 3 5 1 6 2 7 77 8 75 9 76 10 78 11 79 12
REMARK SMILES IDX 80 13 81 14 82 15 83 16 88 17 84 18 86 19 85 20 87 21 8 22
REMARK SMILES IDX 9 23 10 24 11 25 12 26 13 27 74 28 14 29 73 30 15 31 16 32
REMARK SMILES IDX 17 33 67 34 18 35 72 36 66 37 68 38 19 39 71 40 65 41 64 42
REMARK SMILES IDX 20 44 52 45 32 46 51 47 33 48 36 49 50 50 69 51 34 52 35 53
REMARK SMILES IDX 49 55 70 56 37 57 21 58 22 59 30 60 23 61 24 62 28 63 31 64
REMARK SMILES IDX 25 65 26 66 29 67 27 68 53 69 54 70 62 71 55 72 56 73 60 74
REMARK SMILES IDX 63 75 57 76 58 77 61 78 59 79 38 80 39 81 47 82 40 83 41 84
REMARK SMILES IDX 45 85 48 86 42 87 43 88 46 89 44 90
REMARK H PARENT 68 43 36 54
REMARK Flexibility Score: inf
ROOT
ATOM      1  C   UNL A   1      31.243  29.539  24.499  1.00  0.00     0.274 C 
ENDROOT
BRANCH   1   2
ATOM      2  O   UNL A   1      30.391  28.394  24.302  1.00  0.00    -0.462 OA
BRANCH   2   3
ATOM      3  C   UNL A   1      30.412  27.793  23.093  1.00  0.00     0.311 C 
ATOM      4  O   UNL A   1      30.219  28.369  22.028  1.00  0.00    -0.252 OA
BRANCH   3   5
ATOM      5  C   UNL A   1      30.749  26.322  23.155  1.00  0.00     0.123 C 
ATOM      6  C   UNL A   1      33.297  26.555  23.681  1.00  0.00     0.032 C 
ATOM      7  C   UNL A   1      32.186  25.841  22.906  1.00  0.00     0.096 C 
ATOM      8  N   UNL A   1      32.125  24.436  23.330  1.00  0.00    -0.336 N 
ATOM      9  C   UNL A   1      30.370  25.609  24.442  1.00  0.00     0.039 C 
ATOM     10  C   UNL A   1      30.975  24.226  24.209  1.00  0.00     0.121 C 
BRANCH   8  11
ATOM     11  C   UNL A   1      32.922  23.365  23.003  1.00  0.00     0.246 C 
ATOM     12  O   UNL A   1      32.605  22.600  22.086  1.00  0.00    -0.270 OA
BRANCH  11  13
ATOM     13  C   UNL A   1      34.183  23.018  23.737  1.00  0.00     0.072 C 
ATOM     14  C   UNL A   1      35.475  23.228  23.445  1.00  0.00     0.014 C 
BRANCH  14  15
ATOM     15  C   UNL A   1      36.604  22.830  24.298  1.00  0.00    -0.024 A 
ATOM     16  C   UNL A   1      37.021  21.491  24.259  1.00  0.00     0.008 A 
ATOM     17  C   UNL A   1      37.200  23.704  25.212  1.00  0.00     0.023 A 
ATOM     18  C   UNL A   1      38.026  21.031  25.111  1.00  0.00     0.002 A 
ATOM     19  C   UNL A   1      38.200  23.235  26.067  1.00  0.00     0.018 A 
ATOM     20  C   UNL A   1      38.615  21.905  26.021  1.00  0.00     0.016 A 
ATOM     21  Br  UNL A   1      38.981  24.411  27.326  1.00  0.00    -0.051 Br
ENDBRANCH  14  15
ENDBRANCH  11  13
ENDBRANCH   8  11
ENDBRANCH   3   5
ENDBRANCH   2   3
ENDBRANCH   1   2
BRANCH   1  22
ATOM     22  C   UNL A   1      31.793  29.541  25.929  1.00  0.00     0.275 C 
BRANCH  22  23
ATOM     23  O   UNL A   1      33.128  30.083  25.974  1.00  0.00    -0.458 OA
BRANCH  23  24
ATOM     24  C   UNL A   1      33.330  31.057  26.892  1.00  0.00     0.338 C 
ATOM     25  O   UNL A   1      32.559  31.944  27.212  1.00  0.00    -0.246 OA
BRANCH  24  26
ATOM     26  C   UNL A   1      34.604  30.818  27.591  1.00  0.00     0.060 A 
ATOM     27  C   UNL A   1      34.835  29.546  28.119  1.00  0.00     0.016 A 
ATOM     28  C   UNL A   1      35.530  31.844  27.784  1.00  0.00     0.016 A 
ATOM     29  C   UNL A   1      35.998  29.288  28.841  1.00  0.00     0.010 A 
ATOM     30  C   UNL A   1      36.697  31.585  28.512  1.00  0.00     0.010 A 
ATOM     31  C   UNL A   1      36.934  30.308  29.049  1.00  0.00    -0.014 A 
BRANCH  31  32
ATOM     32  C   UNL A   1      38.141  30.039  29.867  1.00  0.00     0.031 A 
ATOM     33  C   UNL A   1      39.251  29.199  29.308  1.00  0.00     0.074 A 
ATOM     34  C   UNL A   1      38.250  30.576  31.096  1.00  0.00     0.049 A 
ATOM     35  N   UNL A   1      40.352  28.790  29.885  1.00  0.00    -0.248 NA
ATOM     36  C   UNL A   1      39.104  28.763  27.911  1.00  0.00     0.031 C 
ATOM     37  C   UNL A   1      37.262  31.453  31.724  1.00  0.00     0.029 A 
ATOM     38  N   UNL A   1      39.244  30.464  32.035  1.00  0.00    -0.354 N 
ATOM     39  C   UNL A   1      41.024  28.040  28.929  1.00  0.00     0.074 A 
ATOM     40  C   UNL A   1      40.198  28.033  27.740  1.00  0.00     0.031 C 
ATOM     41  C   UNL A   1      37.702  31.803  32.944  1.00  0.00     0.029 A 
ATOM     42  C   UNL A   1      38.977  31.139  33.200  1.00  0.00     0.049 A 
ATOM     43  H   UNL A   1      40.070  29.948  31.888  1.00  0.00     0.167 HD
ATOM     44  C   UNL A   1      42.223  27.419  29.036  1.00  0.00     0.037 A 
ATOM     45  C   UNL A   1      39.672  31.194  34.353  1.00  0.00     0.037 A 
ATOM     46  C   UNL A   1      43.045  27.435  30.217  1.00  0.00     0.049 A 
ATOM     47  C   UNL A   1      40.966  30.434  34.467  1.00  0.00     0.074 A 
ATOM     48  C   UNL A   1      44.272  26.830  30.426  1.00  0.00     0.029 A 
ATOM     49  N   UNL A   1      42.722  28.098  31.392  1.00  0.00    -0.354 N 
ATOM     50  N   UNL A   1      41.584  29.711  33.566  1.00  0.00    -0.248 NA
ATOM     51  C   UNL A   1      41.654  30.491  35.765  1.00  0.00     0.031 C 
ATOM     52  C   UNL A   1      44.675  27.096  31.738  1.00  0.00     0.029 A 
ATOM     53  C   UNL A   1      43.719  27.902  32.334  1.00  0.00     0.049 A 
ATOM     54  H   UNL A   1      41.906  28.629  31.536  1.00  0.00     0.167 HD
ATOM     55  C   UNL A   1      42.742  29.248  34.175  1.00  0.00     0.074 A 
ATOM     56  C   UNL A   1      42.748  29.782  35.521  1.00  0.00     0.031 C 
ATOM     57  C   UNL A   1      43.712  28.450  33.667  1.00  0.00     0.037 A 
BRANCH  44  58
ATOM     58  C   UNL A   1      42.709  26.646  27.846  1.00  0.00     0.064 A 
ATOM     59  C   UNL A   1      43.403  27.267  26.797  1.00  0.00     0.173 A 
ATOM     60  C   UNL A   1      42.510  25.259  27.774  1.00  0.00     0.173 A 
ATOM     61  F   UNL A   1      43.604  28.593  26.814  1.00  0.00    -0.203 F 
ATOM     62  C   UNL A   1      43.863  26.529  25.709  1.00  0.00     0.198 A 
ATOM     63  C   UNL A   1      42.994  24.521  26.695  1.00  0.00     0.198 A 
ATOM     64  F   UNL A   1      41.857  24.617  28.753  1.00  0.00    -0.203 F 
ATOM     65  F   UNL A   1      44.490  27.148  24.700  1.00  0.00    -0.200 F 
ATOM     66  C   UNL A   1      43.665  25.157  25.662  1.00  0.00     0.200 A 
ATOM     67  F   UNL A   1      42.810  23.194  26.657  1.00  0.00    -0.200 F 
ATOM     68  F   UNL A   1      44.113  24.449  24.618  1.00  0.00    -0.200 F 
ENDBRANCH  44  58
BRANCH  45  69
ATOM     69  C   UNL A   1      39.149  31.979  35.499  1.00  0.00     0.064 A 
ATOM     70  C   UNL A   1      38.344  31.380  36.478  1.00  0.00     0.173 A 
ATOM     71  C   UNL A   1      39.429  33.348  35.632  1.00  0.00     0.173 A 
ATOM     72  F   UNL A   1      38.027  30.081  36.380  1.00  0.00    -0.203 F 
ATOM     73  C   UNL A   1      37.826  32.124  37.537  1.00  0.00     0.198 A 
ATOM     74  C   UNL A   1      38.933  34.083  36.706  1.00  0.00     0.198 A 
ATOM     75  F   UNL A   1      40.190  33.969  34.719  1.00  0.00    -0.203 F 
ATOM     76  F   UNL A   1      37.022  31.537  38.434  1.00  0.00    -0.200 F 
ATOM     77  C   UNL A   1      38.127  33.473  37.654  1.00  0.00     0.200 A 
ATOM     78  F   UNL A   1      39.233  35.384  36.819  1.00  0.00    -0.200 F 
ATOM     79  F   UNL A   1      37.629  34.186  38.673  1.00  0.00    -0.200 F 
ENDBRANCH  45  69
BRANCH  57  80
ATOM     80  C   UNL A   1      44.876  28.135  34.558  1.00  0.00     0.064 A 
ATOM     81  C   UNL A   1      46.002  28.969  34.617  1.00  0.00     0.173 A 
ATOM     82  C   UNL A   1      44.850  27.005  35.389  1.00  0.00     0.173 A 
ATOM     83  F   UNL A   1      46.080  30.053  33.830  1.00  0.00    -0.203 F 
ATOM     84  C   UNL A   1      47.069  28.672  35.461  1.00  0.00     0.198 A 
ATOM     85  C   UNL A   1      45.907  26.724  36.249  1.00  0.00     0.198 A 
ATOM     86  F   UNL A   1      43.794  26.178  35.373  1.00  0.00    -0.203 F 
ATOM     87  F   UNL A   1      48.153  29.460  35.470  1.00  0.00    -0.200 F 
ATOM     88  C   UNL A   1      47.018  27.554  36.279  1.00  0.00     0.200 A 
ATOM     89  F   UNL A   1      45.853  25.649  37.048  1.00  0.00    -0.200 F 
ATOM     90  F   UNL A   1      48.044  27.271  37.094  1.00  0.00    -0.200 F 
ENDBRANCH  57  80
ENDBRANCH  31  32
ENDBRANCH  24  26
ENDBRANCH  23  24
ENDBRANCH  22  23
ENDBRANCH   1  22
TORSDOF 14
ENDMDL
MODEL 2
REMARK VINA RESULT:     -11.7      1.684      2.650
REMARK SMILES C[C@@H]1[C@H](C(=O)OCCOC(=O)c2ccc(-c3c4nc(c(-c5c(F)c(F)c(F)c(F)c5F)c5ccc([nH]5)c(-c5c(F)c(F)c(F)c(F)c5F)c5nc(c(-c6c(F)c(F)c(F)c(F)c6F)c6ccc3[nH]6)C=C5)C=C4)cc2)CCN1C(=O)/C=C/c1cccc(Br)c1
REMARK SMILES IDX 7 1 6 2 4 3 5 4 3 5 1 6 2 7 77 8 75 9 76 10 78 11 79 12
REMARK SMILES IDX 80 13 81 14 82 15 83 16 88 17 84 18 86 19 85 20 87 21 8 22
REMARK SMILES IDX 9 23 10 24 11 25 12 26 13 27 74 28 14 29 73 30 15 31 16 32
REMARK SMILES IDX 17 33 67 34 18 35 72 36 66 37 68 38 19 39 71 40 65 41 64 42
REMARK SMILES IDX 20 44 52 45 32 46 51 47 33 48 36 49 50 50 69 51 34 52 35 53
REMARK SMILES IDX 49 55 70 56 37 57 21 58 22 59 30 60 23 61 24 62 28 63 31 64
REMARK SMILES IDX 25 65 26 66 29 67 27 68 53 69 54 70 62 71 55 72 56 73 60 74
REMARK SMILES IDX 63 75 57 76 58 77 61 78 59 79 38 80 39 81 47 82 40 83 41 84
REMARK SMILES IDX 45 85 48 86 42 87 43 88 46 89 44 90
REMARK H PARENT 68 43 36 54
REMARK Flexibility Score: inf
ROOT
ATOM      1  C   UNL A   1      31.201  29.663  24.504  1.00  0.00     0.274 C 
ENDROOT
BRANCH   1   2
ATOM      2  O   UNL A   1      30.501  28.440  24.203  1.00  0.00    -0.462 OA
BRANCH   2   3
ATOM      3  C   UNL A   1      30.739  27.856  23.010  1.00  0.00     0.311 C 
ATOM      4  O   UNL A   1      30.165  28.149  21.966  1.00  0.00    -0.252 OA
BRANCH   3   5
ATOM      5  C   UNL A   1      31.833  26.815  23.053  1.00  0.00     0.123 C 
ATOM      6  C   UNL A   1      30.473  24.906  24.209  1.00  0.00     0.032 C 
ATOM      7  C   UNL A   1      31.788  25.681  24.089  1.00  0.00     0.096 C 
ATOM      8  N   UNL A   1      32.842  24.777  23.610  1.00  0.00    -0.336 N 
ATOM      9  C   UNL A   1      32.098  26.077  21.752  1.00  0.00     0.039 C 
ATOM     10  C   UNL A   1      33.127  25.039  22.199  1.00  0.00     0.121 C 
BRANCH   8  11
ATOM     11  C   UNL A   1      33.569  23.816  24.272  1.00  0.00     0.246 C 
ATOM     12  O   UNL A   1      34.339  24.127  25.186  1.00  0.00    -0.270 OA
BRANCH  11  13
ATOM     13  C   UNL A   1      33.524  22.358  23.921  1.00  0.00     0.072 C 
ATOM     14  C   UNL A   1      33.400  21.259  24.679  1.00  0.00     0.014 C 
BRANCH  14  15
ATOM     15  C   UNL A   1      33.358  19.884  24.164  1.00  0.00    -0.024 A 
ATOM     16  C   UNL A   1      32.474  19.600  23.111  1.00  0.00     0.008 A 
ATOM     17  C   UNL A   1      34.081  18.840  24.747  1.00  0.00     0.023 A 
ATOM     18  C   UNL A   1      32.321  18.296  22.639  1.00  0.00     0.002 A 
ATOM     19  C   UNL A   1      33.918  17.536  24.275  1.00  0.00     0.018 A 
ATOM     20  C   UNL A   1      33.043  17.259  23.225  1.00  0.00     0.016 A 
ATOM     21  Br  UNL A   1      34.873  16.119  25.088  1.00  0.00    -0.051 Br
ENDBRANCH  14  15
ENDBRANCH  11  13
ENDBRANCH   8  11
ENDBRANCH   3   5
ENDBRANCH   2   3
ENDBRANCH   1   2
BRANCH   1  22
ATOM     22  C   UNL A   1      31.825  29.578  25.900  1.00  0.00     0.275 C 
BRANCH  22  23
ATOM     23  O   UNL A   1      33.147  30.154  25.918  1.00  0.00    -0.458 OA
BRANCH  23  24
ATOM     24  C   UNL A   1      33.347  31.123  26.842  1.00  0.00     0.338 C 
ATOM     25  O   UNL A   1      32.577  32.011  27.162  1.00  0.00    -0.246 OA
BRANCH  24  26
ATOM     26  C   UNL A   1      34.617  30.877  27.545  1.00  0.00     0.060 A 
ATOM     27  C   UNL A   1      34.885  29.577  27.980  1.00  0.00     0.016 A 
ATOM     28  C   UNL A   1      35.502  31.917  27.833  1.00  0.00     0.016 A 
ATOM     29  C   UNL A   1      36.045  29.306  28.703  1.00  0.00     0.010 A 
ATOM     30  C   UNL A   1      36.664  31.644  28.561  1.00  0.00     0.010 A 
ATOM     31  C   UNL A   1      36.940  30.339  29.006  1.00  0.00    -0.014 A 
BRANCH  31  32
ATOM     32  C   UNL A   1      38.141  30.051  29.824  1.00  0.00     0.031 A 
ATOM     33  C   UNL A   1      39.230  29.178  29.274  1.00  0.00     0.074 A 
ATOM     34  C   UNL A   1      38.267  30.601  31.046  1.00  0.00     0.049 A 
ATOM     35  N   UNL A   1      40.322  28.750  29.853  1.00  0.00    -0.248 NA
ATOM     36  C   UNL A   1      39.069  28.728  27.882  1.00  0.00     0.031 C 
ATOM     37  C   UNL A   1      37.302  31.510  31.665  1.00  0.00     0.029 A 
ATOM     38  N   UNL A   1      39.260  30.476  31.984  1.00  0.00    -0.354 N 
ATOM     39  C   UNL A   1      40.973  27.972  28.905  1.00  0.00     0.074 A 
ATOM     40  C   UNL A   1      40.145  27.970  27.717  1.00  0.00     0.031 C 
ATOM     41  C   UNL A   1      37.753  31.864  32.880  1.00  0.00     0.029 A 
ATOM     42  C   UNL A   1      39.012  31.173  33.141  1.00  0.00     0.049 A 
ATOM     43  H   UNL A   1      40.073  29.939  31.842  1.00  0.00     0.167 HD
ATOM     44  C   UNL A   1      42.157  27.324  29.017  1.00  0.00     0.037 A 
ATOM     45  C   UNL A   1      39.711  31.225  34.291  1.00  0.00     0.037 A 
ATOM     46  C   UNL A   1      42.982  27.335  30.196  1.00  0.00     0.049 A 
ATOM     47  C   UNL A   1      40.987  30.435  34.413  1.00  0.00     0.074 A 
ATOM     48  C   UNL A   1      44.195  26.702  30.409  1.00  0.00     0.029 A 
ATOM     49  N   UNL A   1      42.679  28.020  31.363  1.00  0.00    -0.354 N 
ATOM     50  N   UNL A   1      41.585  29.687  33.519  1.00  0.00    -0.248 NA
ATOM     51  C   UNL A   1      41.679  30.492  35.708  1.00  0.00     0.031 C 
ATOM     52  C   UNL A   1      44.607  26.975  31.717  1.00  0.00     0.029 A 
ATOM     53  C   UNL A   1      43.673  27.811  32.306  1.00  0.00     0.049 A 
ATOM     54  H   UNL A   1      41.876  28.572  31.503  1.00  0.00     0.167 HD
ATOM     55  C   UNL A   1      42.733  29.204  34.132  1.00  0.00     0.074 A 
ATOM     56  C   UNL A   1      42.755  29.754  35.471  1.00  0.00     0.031 C 
ATOM     57  C   UNL A   1      43.682  28.375  33.631  1.00  0.00     0.037 A 
BRANCH  44  58
ATOM     58  C   UNL A   1      42.621  26.524  27.836  1.00  0.00     0.064 A 
ATOM     59  C   UNL A   1      42.183  25.210  27.617  1.00  0.00     0.173 A 
ATOM     60  C   UNL A   1      43.485  27.096  26.889  1.00  0.00     0.173 A 
ATOM     61  F   UNL A   1      41.368  24.616  28.501  1.00  0.00    -0.203 F 
ATOM     62  C   UNL A   1      42.609  24.490  26.504  1.00  0.00     0.198 A 
ATOM     63  C   UNL A   1      43.890  26.380  25.764  1.00  0.00     0.198 A 
ATOM     64  F   UNL A   1      43.930  28.351  27.049  1.00  0.00    -0.203 F 
ATOM     65  F   UNL A   1      42.208  23.222  26.335  1.00  0.00    -0.200 F 
ATOM     66  C   UNL A   1      43.456  25.077  25.576  1.00  0.00     0.200 A 
ATOM     67  F   UNL A   1      44.700  26.953  24.864  1.00  0.00    -0.200 F 
ATOM     68  F   UNL A   1      43.861  24.385  24.503  1.00  0.00    -0.200 F 
ENDBRANCH  44  58
BRANCH  45  69
ATOM     69  C   UNL A   1      39.210  32.037  35.429  1.00  0.00     0.064 A 
ATOM     70  C   UNL A   1      39.553  33.389  35.558  1.00  0.00     0.173 A 
ATOM     71  C   UNL A   1      38.392  31.474  36.421  1.00  0.00     0.173 A 
ATOM     72  F   UNL A   1      40.356  33.965  34.650  1.00  0.00    -0.203 F 
ATOM     73  C   UNL A   1      39.110  34.144  36.642  1.00  0.00     0.198 A 
ATOM     74  C   UNL A   1      37.927  32.237  37.489  1.00  0.00     0.198 A 
ATOM     75  F   UNL A   1      38.039  30.182  36.346  1.00  0.00    -0.203 F 
ATOM     76  F   UNL A   1      39.491  35.423  36.765  1.00  0.00    -0.200 F 
ATOM     77  C   UNL A   1      38.292  33.569  37.603  1.00  0.00     0.200 A 
ATOM     78  F   UNL A   1      37.130  31.679  38.410  1.00  0.00    -0.200 F 
ATOM     79  F   UNL A   1      37.866  34.295  38.645  1.00  0.00    -0.200 F 
ENDBRANCH  45  69
BRANCH  57  80
ATOM     80  C   UNL A   1      44.841  28.044  34.524  1.00  0.00     0.064 A 
ATOM     81  C   UNL A   1      45.985  28.853  34.572  1.00  0.00     0.173 A 
ATOM     82  C   UNL A   1      44.790  26.923  35.367  1.00  0.00     0.173 A 
ATOM     83  F   UNL A   1      46.086  29.927  33.774  1.00  0.00    -0.203 F 
ATOM     84  C   UNL A   1      47.047  28.541  35.417  1.00  0.00     0.198 A 
ATOM     85  C   UNL A   1      45.843  26.628  36.228  1.00  0.00     0.198 A 
ATOM     86  F   UNL A   1      43.716  26.121  35.360  1.00  0.00    -0.203 F 
ATOM     87  F   UNL A   1      48.148  29.304  35.417  1.00  0.00    -0.200 F 
ATOM     88  C   UNL A   1      46.972  27.432  36.247  1.00  0.00     0.200 A 
ATOM     89  F   UNL A   1      45.766  25.563  37.037  1.00  0.00    -0.200 F 
ATOM     90  F   UNL A   1      47.993  27.135  37.063  1.00  0.00    -0.200 F 
ENDBRANCH  57  80
ENDBRANCH  31  32
ENDBRANCH  24  26
ENDBRANCH  23  24
ENDBRANCH  22  23
ENDBRANCH   1  22
TORSDOF 14
ENDMDL
MODEL 3
REMARK VINA RESULT:     -11.6      2.099      2.431
REMARK SMILES C[C@@H]1[C@H](C(=O)OCCOC(=O)c2ccc(-c3c4nc(c(-c5c(F)c(F)c(F)c(F)c5F)c5ccc([nH]5)c(-c5c(F)c(F)c(F)c(F)c5F)c5nc(c(-c6c(F)c(F)c(F)c(F)c6F)c6ccc3[nH]6)C=C5)C=C4)cc2)CCN1C(=O)/C=C/c1cccc(Br)c1
REMARK SMILES IDX 7 1 6 2 4 3 5 4 3 5 1 6 2 7 77 8 75 9 76 10 78 11 79 12
REMARK SMILES IDX 80 13 81 14 82 15 83 16 88 17 84 18 86 19 85 20 87 21 8 22
REMARK SMILES IDX 9 23 10 24 11 25 12 26 13 27 74 28 14 29 73 30 15 31 16 32
REMARK SMILES IDX 17 33 67 34 18 35 72 36 66 37 68 38 19 39 71 40 65 41 64 42
REMARK SMILES IDX 20 44 52 45 32 46 51 47 33 48 36 49 50 50 69 51 34 52 35 53
REMARK SMILES IDX 49 55 70 56 37 57 21 58 22 59 30 60 23 61 24 62 28 63 31 64
REMARK SMILES IDX 25 65 26 66 29 67 27 68 53 69 54 70 62 71 55 72 56 73 60 74
REMARK SMILES IDX 63 75 57 76 58 77 61 78 59 79 38 80 39 81 47 82 40 83 41 84
REMARK SMILES IDX 45 85 48 86 42 87 43 88 46 89 44 90
REMARK H PARENT 68 43 36 54
REMARK Flexibility Score: inf
ROOT
ATOM      1  C   UNL A   1      31.421  29.090  24.848  1.00  0.00     0.274 C 
ENDROOT
BRANCH   1   2
ATOM      2  O   UNL A   1      32.609  28.275  24.833  1.00  0.00    -0.462 OA
BRANCH   2   3
ATOM      3  C   UNL A   1      32.702  27.312  23.892  1.00  0.00     0.311 C 
ATOM      4  O   UNL A   1      32.541  27.498  22.691  1.00  0.00    -0.252 OA
BRANCH   3   5
ATOM      5  C   UNL A   1      33.079  25.959  24.446  1.00  0.00     0.123 C 
ATOM      6  C   UNL A   1      30.680  24.930  24.554  1.00  0.00     0.032 C 
ATOM      7  C   UNL A   1      32.048  25.118  25.215  1.00  0.00     0.096 C 
ATOM      8  N   UNL A   1      32.720  23.815  25.317  1.00  0.00    -0.336 N 
ATOM      9  C   UNL A   1      33.649  24.968  23.446  1.00  0.00     0.039 C 
ATOM     10  C   UNL A   1      33.770  23.709  24.303  1.00  0.00     0.121 C 
BRANCH   8  11
ATOM     11  C   UNL A   1      32.534  22.777  26.199  1.00  0.00     0.246 C 
ATOM     12  O   UNL A   1      31.955  22.960  27.274  1.00  0.00    -0.270 OA
BRANCH  11  13
ATOM     13  C   UNL A   1      33.043  21.387  25.958  1.00  0.00     0.072 C 
ATOM     14  C   UNL A   1      32.491  20.324  25.354  1.00  0.00     0.014 C 
BRANCH  14  15
ATOM     15  C   UNL A   1      33.145  19.019  25.188  1.00  0.00    -0.024 A 
ATOM     16  C   UNL A   1      34.387  18.981  24.537  1.00  0.00     0.008 A 
ATOM     17  C   UNL A   1      32.532  17.818  25.559  1.00  0.00     0.023 A 
ATOM     18  C   UNL A   1      35.015  17.764  24.268  1.00  0.00     0.002 A 
ATOM     19  C   UNL A   1      33.162  16.604  25.280  1.00  0.00     0.018 A 
ATOM     20  C   UNL A   1      34.400  16.571  24.637  1.00  0.00     0.016 A 
ATOM     21  Br  UNL A   1      32.316  14.979  25.751  1.00  0.00    -0.051 Br
ENDBRANCH  14  15
ENDBRANCH  11  13
ENDBRANCH   8  11
ENDBRANCH   3   5
ENDBRANCH   2   3
ENDBRANCH   1   2
BRANCH   1  22
ATOM     22  C   UNL A   1      31.624  30.292  25.775  1.00  0.00     0.275 C 
BRANCH  22  23
ATOM     23  O   UNL A   1      33.021  30.493  26.072  1.00  0.00    -0.458 OA
BRANCH  23  24
ATOM     24  C   UNL A   1      33.289  31.461  26.979  1.00  0.00     0.338 C 
ATOM     25  O   UNL A   1      32.582  32.404  27.287  1.00  0.00    -0.246 OA
BRANCH  24  26
ATOM     26  C   UNL A   1      34.543  31.143  27.681  1.00  0.00     0.060 A 
ATOM     27  C   UNL A   1      34.756  29.820  28.078  1.00  0.00     0.016 A 
ATOM     28  C   UNL A   1      35.467  32.137  28.007  1.00  0.00     0.016 A 
ATOM     29  C   UNL A   1      35.898  29.481  28.799  1.00  0.00     0.010 A 
ATOM     30  C   UNL A   1      36.613  31.795  28.734  1.00  0.00     0.010 A 
ATOM     31  C   UNL A   1      36.832  30.467  29.139  1.00  0.00    -0.014 A 
BRANCH  31  32
ATOM     32  C   UNL A   1      38.015  30.106  29.956  1.00  0.00     0.031 A 
ATOM     33  C   UNL A   1      39.063  29.192  29.391  1.00  0.00     0.074 A 
ATOM     34  C   UNL A   1      38.161  30.624  31.189  1.00  0.00     0.049 A 
ATOM     35  N   UNL A   1      40.131  28.701  29.965  1.00  0.00    -0.248 NA
ATOM     36  C   UNL A   1      38.887  28.779  27.990  1.00  0.00     0.031 C 
ATOM     37  C   UNL A   1      37.238  31.566  31.823  1.00  0.00     0.029 A 
ATOM     38  N   UNL A   1      39.144  30.434  32.128  1.00  0.00    -0.354 N 
ATOM     39  C   UNL A   1      40.748  27.913  29.004  1.00  0.00     0.074 A 
ATOM     40  C   UNL A   1      39.926  27.974  27.814  1.00  0.00     0.031 C 
ATOM     41  C   UNL A   1      37.700  31.874  33.046  1.00  0.00     0.029 A 
ATOM     42  C   UNL A   1      38.924  31.118  33.298  1.00  0.00     0.049 A 
ATOM     43  H   UNL A   1      39.931  29.862  31.977  1.00  0.00     0.167 HD
ATOM     44  C   UNL A   1      41.900  27.206  29.107  1.00  0.00     0.037 A 
ATOM     45  C   UNL A   1      39.620  31.113  34.451  1.00  0.00     0.037 A 
ATOM     46  C   UNL A   1      42.719  27.155  30.288  1.00  0.00     0.049 A 
ATOM     47  C   UNL A   1      40.856  30.262  34.561  1.00  0.00     0.074 A 
ATOM     48  C   UNL A   1      43.900  26.461  30.493  1.00  0.00     0.029 A 
ATOM     49  N   UNL A   1      42.444  27.830  31.469  1.00  0.00    -0.354 N 
ATOM     50  N   UNL A   1      41.422  29.504  33.654  1.00  0.00    -0.248 NA
ATOM     51  C   UNL A   1      41.545  30.259  35.859  1.00  0.00     0.031 C 
ATOM     52  C   UNL A   1      44.319  26.687  31.808  1.00  0.00     0.029 A 
ATOM     53  C   UNL A   1      43.423  27.556  32.410  1.00  0.00     0.049 A 
ATOM     54  H   UNL A   1      41.668  28.417  31.616  1.00  0.00     0.167 HD
ATOM     55  C   UNL A   1      42.542  28.954  34.261  1.00  0.00     0.074 A 
ATOM     56  C   UNL A   1      42.585  29.476  35.610  1.00  0.00     0.031 C 
ATOM     57  C   UNL A   1      43.453  28.092  33.746  1.00  0.00     0.037 A 
BRANCH  44  58
ATOM     58  C   UNL A   1      42.330  26.410  27.911  1.00  0.00     0.064 A 
ATOM     59  C   UNL A   1      43.254  26.913  26.984  1.00  0.00     0.173 A 
ATOM     60  C   UNL A   1      41.840  25.110  27.712  1.00  0.00     0.173 A 
ATOM     61  F   UNL A   1      43.741  28.155  27.123  1.00  0.00    -0.203 F 
ATOM     62  C   UNL A   1      43.657  26.150  25.890  1.00  0.00     0.198 A 
ATOM     63  C   UNL A   1      42.263  24.342  26.630  1.00  0.00     0.198 A 
ATOM     64  F   UNL A   1      40.957  24.581  28.573  1.00  0.00    -0.203 F 
ATOM     65  F   UNL A   1      44.512  26.665  24.996  1.00  0.00    -0.200 F 
ATOM     66  C   UNL A   1      43.167  24.865  25.718  1.00  0.00     0.200 A 
ATOM     67  F   UNL A   1      41.796  23.096  26.471  1.00  0.00    -0.200 F 
ATOM     68  F   UNL A   1      43.560  24.131  24.668  1.00  0.00    -0.200 F 
ENDBRANCH  44  58
BRANCH  45  69
ATOM     69  C   UNL A   1      39.153  31.926  35.603  1.00  0.00     0.064 A 
ATOM     70  C   UNL A   1      38.332  31.370  36.594  1.00  0.00     0.173 A 
ATOM     71  C   UNL A   1      39.505  33.278  35.730  1.00  0.00     0.173 A 
ATOM     72  F   UNL A   1      37.948  30.088  36.502  1.00  0.00    -0.203 F 
ATOM     73  C   UNL A   1      37.867  32.139  37.658  1.00  0.00     0.198 A 
ATOM     74  C   UNL A   1      39.062  34.039  36.809  1.00  0.00     0.198 A 
ATOM     75  F   UNL A   1      40.284  33.859  34.806  1.00  0.00    -0.203 F 
ATOM     76  F   UNL A   1      37.046  31.595  38.567  1.00  0.00    -0.200 F 
ATOM     77  C   UNL A   1      38.238  33.472  37.769  1.00  0.00     0.200 A 
ATOM     78  F   UNL A   1      39.430  35.323  36.916  1.00  0.00    -0.200 F 
ATOM     79  F   UNL A   1      37.791  34.211  38.793  1.00  0.00    -0.200 F 
ENDBRANCH  45  69
BRANCH  57  80
ATOM     80  C   UNL A   1      44.591  27.688  34.636  1.00  0.00     0.064 A 
ATOM     81  C   UNL A   1      45.775  28.436  34.699  1.00  0.00     0.173 A 
ATOM     82  C   UNL A   1      44.481  26.559  35.462  1.00  0.00     0.173 A 
ATOM     83  F   UNL A   1      45.934  29.514  33.916  1.00  0.00    -0.203 F 
ATOM     84  C   UNL A   1      46.818  28.056  35.540  1.00  0.00     0.198 A 
ATOM     85  C   UNL A   1      45.514  26.197  36.321  1.00  0.00     0.198 A 
ATOM     86  F   UNL A   1      43.366  25.813  35.442  1.00  0.00    -0.203 F 
ATOM     87  F   UNL A   1      47.957  28.761  35.553  1.00  0.00    -0.200 F 
ATOM     88  C   UNL A   1      46.684  26.941  36.354  1.00  0.00     0.200 A 
ATOM     89  F   UNL A   1      45.380  25.125  37.114  1.00  0.00    -0.200 F 
ATOM     90  F   UNL A   1      47.686  26.579  37.167  1.00  0.00    -0.200 F 
ENDBRANCH  57  80
ENDBRANCH  31  32
ENDBRANCH  24  26
ENDBRANCH  23  24
ENDBRANCH  22  23
ENDBRANCH   1  22
TORSDOF 14
ENDMDL
