MODEL 1
REMARK VINA RESULT:     -12.9      0.000      0.000
REMARK SMILES Cc1c(Cc2ccccc2)c(=O)oc2c(C)c(O[C@H](C)C(=O)OCCOC(=O)c3ccc(-c4c5nc(c(-c6c(F)c(F)c(F)c(F)c6F)c6ccc([nH]6)c(-c6c(F)c(F)c(F)c(F)c6F)c6nc(c(-c7c(F)c(F)c(F)c(F)c7F)c7ccc4[nH]7)C=C6)C=C5)cc3)ccc12
REMARK SMILES IDX 24 1 23 2 21 3 22 4 19 5 20 6 18 7 17 8 1 9 2 10 3 11 94 12
REMARK SMILES IDX 11 13 14 14 93 15 12 16 13 17 15 18 92 19 16 20 4 21 5 22
REMARK SMILES IDX 6 23 10 24 7 25 9 26 8 27 25 28 26 29 27 30 28 31 29 32
REMARK SMILES IDX 30 33 91 34 31 35 90 36 32 37 33 38 34 39 84 40 35 41 89 42
REMARK SMILES IDX 83 43 85 44 36 45 88 46 82 47 81 48 37 50 69 51 49 52 68 53
REMARK SMILES IDX 50 54 53 55 67 56 86 57 51 58 52 59 66 61 87 62 54 63 38 64
REMARK SMILES IDX 39 65 47 66 40 67 41 68 45 69 48 70 42 71 43 72 46 73 44 74
REMARK SMILES IDX 70 75 71 76 79 77 72 78 73 79 77 80 80 81 74 82 75 83 78 84
REMARK SMILES IDX 76 85 55 86 56 87 64 88 57 89 58 90 62 91 65 92 59 93 60 94
REMARK SMILES IDX 63 95 61 96
REMARK H PARENT 85 49 53 60
REMARK Flexibility Score: inf
ROOT
ATOM      1  C   UNL A   1      43.963  20.951  25.359  1.00  0.00     0.274 C 
ENDROOT
BRANCH   1   2
ATOM      2  O   UNL A   1      42.943  21.058  26.367  1.00  0.00    -0.459 OA
BRANCH   2   3
ATOM      3  C   UNL A   1      41.801  20.350  26.168  1.00  0.00     0.347 C 
ATOM      4  O   UNL A   1      41.754  19.300  25.532  1.00  0.00    -0.248 OA
BRANCH   3   5
ATOM      5  C   UNL A   1      40.579  20.962  26.873  1.00  0.00     0.279 C 
ATOM      6  C   UNL A   1      40.903  21.728  28.154  1.00  0.00     0.066 C 
BRANCH   5   7
ATOM      7  O   UNL A   1      39.991  21.738  25.836  1.00  0.00    -0.479 OA
BRANCH   7   8
ATOM      8  C   UNL A   1      38.680  22.057  25.692  1.00  0.00     0.127 A 
ATOM      9  C   UNL A   1      34.517  25.182  25.760  1.00  0.00     0.046 C 
ATOM     10  C   UNL A   1      34.728  23.713  25.997  1.00  0.00    -0.029 A 
ATOM     11  C   UNL A   1      33.774  22.834  26.372  1.00  0.00     0.046 A 
ATOM     12  C   UNL A   1      36.098  23.205  25.852  1.00  0.00     0.021 A 
ATOM     13  C   UNL A   1      34.054  21.369  26.317  1.00  0.00     0.340 A 
ATOM     14  C   UNL A   1      36.294  21.856  25.572  1.00  0.00     0.145 A 
ATOM     15  C   UNL A   1      37.224  23.998  26.038  1.00  0.00     0.016 A 
ATOM     16  O   UNL A   1      33.272  20.533  26.754  1.00  0.00    -0.246 OA
ATOM     17  O   UNL A   1      35.181  20.990  25.595  1.00  0.00    -0.422 OA
ATOM     18  C   UNL A   1      37.570  21.280  25.355  1.00  0.00     0.035 A 
ATOM     19  C   UNL A   1      38.490  23.416  26.001  1.00  0.00     0.047 A 
ATOM     20  C   UNL A   1      37.603  19.890  24.795  1.00  0.00     0.052 C 
BRANCH  11  21
ATOM     21  C   UNL A   1      32.374  23.199  26.817  1.00  0.00     0.079 C 
BRANCH  21  22
ATOM     22  C   UNL A   1      31.560  23.865  25.720  1.00  0.00    -0.043 A 
ATOM     23  C   UNL A   1      30.923  25.092  25.947  1.00  0.00     0.004 A 
ATOM     24  C   UNL A   1      31.441  23.278  24.451  1.00  0.00     0.004 A 
ATOM     25  C   UNL A   1      30.183  25.708  24.932  1.00  0.00     0.000 A 
ATOM     26  C   UNL A   1      30.721  23.903  23.431  1.00  0.00     0.000 A 
ATOM     27  C   UNL A   1      30.087  25.117  23.673  1.00  0.00     0.000 A 
ENDBRANCH  21  22
ENDBRANCH  11  21
ENDBRANCH   7   8
ENDBRANCH   5   7
ENDBRANCH   3   5
ENDBRANCH   2   3
ENDBRANCH   1   2
BRANCH   1  28
ATOM     28  C   UNL A   1      43.919  22.184  24.453  1.00  0.00     0.275 C 
BRANCH  28  29
ATOM     29  O   UNL A   1      43.225  23.280  25.081  1.00  0.00    -0.458 OA
BRANCH  29  30
ATOM     30  C   UNL A   1      43.930  24.426  25.209  1.00  0.00     0.338 C 
ATOM     31  O   UNL A   1      44.908  24.780  24.574  1.00  0.00    -0.246 OA
BRANCH  30  32
ATOM     32  C   UNL A   1      43.276  25.291  26.199  1.00  0.00     0.060 A 
ATOM     33  C   UNL A   1      43.721  26.608  26.343  1.00  0.00     0.016 A 
ATOM     34  C   UNL A   1      42.307  24.766  27.054  1.00  0.00     0.016 A 
ATOM     35  C   UNL A   1      43.214  27.404  27.364  1.00  0.00     0.010 A 
ATOM     36  C   UNL A   1      41.785  25.573  28.068  1.00  0.00     0.010 A 
ATOM     37  C   UNL A   1      42.252  26.887  28.240  1.00  0.00    -0.014 A 
BRANCH  37  38
ATOM     38  C   UNL A   1      41.778  27.714  29.372  1.00  0.00     0.031 A 
ATOM     39  C   UNL A   1      42.519  27.684  30.676  1.00  0.00     0.074 A 
ATOM     40  C   UNL A   1      40.704  28.508  29.215  1.00  0.00     0.049 A 
ATOM     41  N   UNL A   1      42.248  28.304  31.795  1.00  0.00    -0.248 NA
ATOM     42  C   UNL A   1      43.728  26.847  30.728  1.00  0.00     0.031 C 
ATOM     43  C   UNL A   1      39.935  28.647  27.979  1.00  0.00     0.029 A 
ATOM     44  N   UNL A   1      40.077  29.348  30.099  1.00  0.00    -0.354 N 
ATOM     45  C   UNL A   1      43.247  27.930  32.683  1.00  0.00     0.074 A 
ATOM     46  C   UNL A   1      44.114  27.007  31.985  1.00  0.00     0.031 C 
ATOM     47  C   UNL A   1      38.941  29.526  28.181  1.00  0.00     0.029 A 
ATOM     48  C   UNL A   1      38.980  29.979  29.570  1.00  0.00     0.049 A 
ATOM     49  H   UNL A   1      40.385  29.483  31.024  1.00  0.00     0.167 HD
ATOM     50  C   UNL A   1      43.427  28.337  33.962  1.00  0.00     0.037 A 
ATOM     51  C   UNL A   1      38.095  30.812  30.148  1.00  0.00     0.037 A 
ATOM     52  C   UNL A   1      42.567  29.265  34.646  1.00  0.00     0.049 A 
ATOM     53  C   UNL A   1      38.266  31.176  31.597  1.00  0.00     0.074 A 
ATOM     54  C   UNL A   1      42.687  29.768  35.929  1.00  0.00     0.029 A 
ATOM     55  N   UNL A   1      41.422  29.828  34.099  1.00  0.00    -0.354 N 
ATOM     56  N   UNL A   1      39.222  30.832  32.426  1.00  0.00    -0.248 NA
ATOM     57  C   UNL A   1      37.231  32.030  32.195  1.00  0.00     0.031 C 
ATOM     58  C   UNL A   1      41.589  30.598  36.176  1.00  0.00     0.029 A 
ATOM     59  C   UNL A   1      40.805  30.643  35.034  1.00  0.00     0.049 A 
ATOM     60  H   UNL A   1      41.096  29.670  33.184  1.00  0.00     0.167 HD
ATOM     61  C   UNL A   1      38.909  31.431  33.638  1.00  0.00     0.074 A 
ATOM     62  C   UNL A   1      37.684  32.174  33.434  1.00  0.00     0.031 C 
ATOM     63  C   UNL A   1      39.577  31.364  34.816  1.00  0.00     0.037 A 
BRANCH  50  64
ATOM     64  C   UNL A   1      44.592  27.768  34.713  1.00  0.00     0.064 A 
ATOM     65  C   UNL A   1      44.489  26.564  35.424  1.00  0.00     0.173 A 
ATOM     66  C   UNL A   1      45.839  28.411  34.682  1.00  0.00     0.173 A 
ATOM     67  F   UNL A   1      43.315  25.918  35.492  1.00  0.00    -0.203 F 
ATOM     68  C   UNL A   1      45.589  26.031  36.090  1.00  0.00     0.198 A 
ATOM     69  C   UNL A   1      46.942  27.863  35.331  1.00  0.00     0.198 A 
ATOM     70  F   UNL A   1      45.989  29.563  34.013  1.00  0.00    -0.203 F 
ATOM     71  F   UNL A   1      45.460  24.895  36.791  1.00  0.00    -0.200 F 
ATOM     72  C   UNL A   1      46.816  26.677  36.038  1.00  0.00     0.200 A 
ATOM     73  F   UNL A   1      48.129  28.484  35.273  1.00  0.00    -0.200 F 
ATOM     74  F   UNL A   1      47.875  26.158  36.675  1.00  0.00    -0.200 F 
ENDBRANCH  50  64
BRANCH  51  75
ATOM     75  C   UNL A   1      36.964  31.346  29.349  1.00  0.00     0.064 A 
ATOM     76  C   UNL A   1      35.883  30.528  28.995  1.00  0.00     0.173 A 
ATOM     77  C   UNL A   1      36.927  32.691  28.949  1.00  0.00     0.173 A 
ATOM     78  F   UNL A   1      35.887  29.232  29.335  1.00  0.00    -0.203 F 
ATOM     79  C   UNL A   1      34.805  31.035  28.272  1.00  0.00     0.198 A 
ATOM     80  C   UNL A   1      35.838  33.202  28.246  1.00  0.00     0.198 A 
ATOM     81  F   UNL A   1      37.939  33.512  29.262  1.00  0.00    -0.203 F 
ATOM     82  F   UNL A   1      33.796  30.227  27.925  1.00  0.00    -0.200 F 
ATOM     83  C   UNL A   1      34.780  32.373  27.905  1.00  0.00     0.200 A 
ATOM     84  F   UNL A   1      35.812  34.497  27.902  1.00  0.00    -0.200 F 
ATOM     85  F   UNL A   1      33.737  32.862  27.220  1.00  0.00    -0.200 F 
ENDBRANCH  51  75
BRANCH  63  86
ATOM     86  C   UNL A   1      38.998  32.103  35.984  1.00  0.00     0.064 A 
ATOM     87  C   UNL A   1      38.166  31.455  36.907  1.00  0.00     0.173 A 
ATOM     88  C   UNL A   1      39.346  33.439  36.231  1.00  0.00     0.173 A 
ATOM     89  F   UNL A   1      37.794  30.183  36.706  1.00  0.00    -0.203 F 
ATOM     90  C   UNL A   1      37.702  32.121  38.039  1.00  0.00     0.198 A 
ATOM     91  C   UNL A   1      38.898  34.094  37.374  1.00  0.00     0.198 A 
ATOM     92  F   UNL A   1      40.145  34.098  35.379  1.00  0.00    -0.203 F 
ATOM     93  F   UNL A   1      36.891  31.490  38.900  1.00  0.00    -0.200 F 
ATOM     94  C   UNL A   1      38.077  33.435  38.277  1.00  0.00     0.200 A 
ATOM     95  F   UNL A   1      39.273  35.359  37.610  1.00  0.00    -0.200 F 
ATOM     96  F   UNL A   1      37.645  34.067  39.377  1.00  0.00    -0.200 F 
ENDBRANCH  63  86
ENDBRANCH  37  38
ENDBRANCH  30  32
ENDBRANCH  29  30
ENDBRANCH  28  29
ENDBRANCH   1  28
TORSDOF 15
ENDMDL
MODEL 2
REMARK VINA RESULT:     -12.6      4.567      9.051
REMARK SMILES Cc1c(Cc2ccccc2)c(=O)oc2c(C)c(O[C@H](C)C(=O)OCCOC(=O)c3ccc(-c4c5nc(c(-c6c(F)c(F)c(F)c(F)c6F)c6ccc([nH]6)c(-c6c(F)c(F)c(F)c(F)c6F)c6nc(c(-c7c(F)c(F)c(F)c(F)c7F)c7ccc4[nH]7)C=C6)C=C5)cc3)ccc12
REMARK SMILES IDX 24 1 23 2 21 3 22 4 19 5 20 6 18 7 17 8 1 9 2 10 3 11 94 12
REMARK SMILES IDX 11 13 14 14 93 15 12 16 13 17 15 18 92 19 16 20 4 21 5 22
REMARK SMILES IDX 6 23 10 24 7 25 9 26 8 27 25 28 26 29 27 30 28 31 29 32
REMARK SMILES IDX 30 33 91 34 31 35 90 36 32 37 33 38 34 39 84 40 35 41 89 42
REMARK SMILES IDX 83 43 85 44 36 45 88 46 82 47 81 48 37 50 69 51 49 52 68 53
REMARK SMILES IDX 50 54 53 55 67 56 86 57 51 58 52 59 66 61 87 62 54 63 38 64
REMARK SMILES IDX 39 65 47 66 40 67 41 68 45 69 48 70 42 71 43 72 46 73 44 74
REMARK SMILES IDX 70 75 71 76 79 77 72 78 73 79 77 80 80 81 74 82 75 83 78 84
REMARK SMILES IDX 76 85 55 86 56 87 64 88 57 89 58 90 62 91 65 92 59 93 60 94
REMARK SMILES IDX 63 95 61 96
REMARK H PARENT 85 49 53 60
REMARK Flexibility Score: inf
ROOT
ATOM      1  C   UNL A   1      36.371  19.967  24.989  1.00  0.00     0.274 C 
ENDROOT
BRANCH   1   2
ATOM      2  O   UNL A   1      35.225  20.820  24.827  1.00  0.00    -0.459 OA
BRANCH   2   3
ATOM      3  C   UNL A   1      34.005  20.262  25.042  1.00  0.00     0.347 C 
ATOM      4  O   UNL A   1      33.686  19.148  24.634  1.00  0.00    -0.248 OA
BRANCH   3   5
ATOM      5  C   UNL A   1      33.082  21.139  25.903  1.00  0.00     0.279 C 
ATOM      6  C   UNL A   1      33.810  22.050  26.890  1.00  0.00     0.066 C 
BRANCH   5   7
ATOM      7  O   UNL A   1      32.304  21.812  24.920  1.00  0.00    -0.479 OA
BRANCH   7   8
ATOM      8  C   UNL A   1      31.962  23.125  24.902  1.00  0.00     0.127 A 
ATOM      9  C   UNL A   1      32.061  28.036  23.179  1.00  0.00     0.046 C 
ATOM     10  C   UNL A   1      31.834  27.402  24.522  1.00  0.00    -0.029 A 
ATOM     11  C   UNL A   1      31.649  28.068  25.682  1.00  0.00     0.046 A 
ATOM     12  C   UNL A   1      31.865  25.935  24.580  1.00  0.00     0.021 A 
ATOM     13  C   UNL A   1      31.174  27.331  26.891  1.00  0.00     0.340 A 
ATOM     14  C   UNL A   1      31.205  25.284  25.618  1.00  0.00     0.145 A 
ATOM     15  C   UNL A   1      32.574  25.156  23.674  1.00  0.00     0.016 A 
ATOM     16  O   UNL A   1      31.101  27.857  27.996  1.00  0.00    -0.246 OA
ATOM     17  O   UNL A   1      30.664  26.057  26.668  1.00  0.00    -0.422 OA
ATOM     18  C   UNL A   1      31.124  23.875  25.731  1.00  0.00     0.035 A 
ATOM     19  C   UNL A   1      32.653  23.778  23.866  1.00  0.00     0.047 A 
ATOM     20  C   UNL A   1      30.155  23.326  26.735  1.00  0.00     0.052 C 
BRANCH  11  21
ATOM     21  C   UNL A   1      31.836  29.557  25.877  1.00  0.00     0.079 C 
BRANCH  21  22
ATOM     22  C   UNL A   1      33.128  29.900  26.598  1.00  0.00    -0.043 A 
ATOM     23  C   UNL A   1      34.203  29.001  26.608  1.00  0.00     0.004 A 
ATOM     24  C   UNL A   1      33.284  31.130  27.257  1.00  0.00     0.004 A 
ATOM     25  C   UNL A   1      35.396  29.324  27.264  1.00  0.00     0.000 A 
ATOM     26  C   UNL A   1      34.481  31.462  27.893  1.00  0.00     0.000 A 
ATOM     27  C   UNL A   1      35.537  30.556  27.901  1.00  0.00     0.000 A 
ENDBRANCH  21  22
ENDBRANCH  11  21
ENDBRANCH   7   8
ENDBRANCH   5   7
ENDBRANCH   3   5
ENDBRANCH   2   3
ENDBRANCH   1   2
BRANCH   1  28
ATOM     28  C   UNL A   1      37.649  20.774  24.744  1.00  0.00     0.275 C 
BRANCH  28  29
ATOM     29  O   UNL A   1      38.022  21.543  25.905  1.00  0.00    -0.458 OA
BRANCH  29  30
ATOM     30  C   UNL A   1      39.280  21.349  26.359  1.00  0.00     0.338 C 
ATOM     31  O   UNL A   1      39.928  20.317  26.355  1.00  0.00    -0.246 OA
BRANCH  30  32
ATOM     32  C   UNL A   1      39.843  22.633  26.795  1.00  0.00     0.060 A 
ATOM     33  C   UNL A   1      39.386  23.809  26.193  1.00  0.00     0.016 A 
ATOM     34  C   UNL A   1      40.893  22.660  27.712  1.00  0.00     0.016 A 
ATOM     35  C   UNL A   1      39.998  25.022  26.490  1.00  0.00     0.010 A 
ATOM     36  C   UNL A   1      41.494  23.882  28.023  1.00  0.00     0.010 A 
ATOM     37  C   UNL A   1      41.064  25.064  27.397  1.00  0.00    -0.014 A 
BRANCH  37  38
ATOM     38  C   UNL A   1      41.760  26.346  27.643  1.00  0.00     0.031 A 
ATOM     39  C   UNL A   1      41.084  27.418  28.445  1.00  0.00     0.074 A 
ATOM     40  C   UNL A   1      43.006  26.530  27.172  1.00  0.00     0.049 A 
ATOM     41  N   UNL A   1      41.506  28.620  28.743  1.00  0.00    -0.248 NA
ATOM     42  C   UNL A   1      39.754  27.096  28.987  1.00  0.00     0.031 C 
ATOM     43  C   UNL A   1      43.774  25.540  26.418  1.00  0.00     0.029 A 
ATOM     44  N   UNL A   1      43.844  27.612  27.260  1.00  0.00    -0.354 N 
ATOM     45  C   UNL A   1      40.497  29.196  29.501  1.00  0.00     0.074 A 
ATOM     46  C   UNL A   1      39.428  28.227  29.595  1.00  0.00     0.031 C 
ATOM     47  C   UNL A   1      44.975  26.058  26.116  1.00  0.00     0.029 A 
ATOM     48  C   UNL A   1      45.043  27.428  26.620  1.00  0.00     0.049 A 
ATOM     49  H   UNL A   1      43.606  28.440  27.735  1.00  0.00     0.167 HD
ATOM     50  C   UNL A   1      40.477  30.421  30.077  1.00  0.00     0.037 A 
ATOM     51  C   UNL A   1      46.072  28.278  26.443  1.00  0.00     0.037 A 
ATOM     52  C   UNL A   1      41.550  31.375  29.990  1.00  0.00     0.049 A 
ATOM     53  C   UNL A   1      45.986  29.666  27.015  1.00  0.00     0.074 A 
ATOM     54  C   UNL A   1      41.640  32.628  30.571  1.00  0.00     0.029 A 
ATOM     55  N   UNL A   1      42.720  31.181  29.271  1.00  0.00    -0.354 N 
ATOM     56  N   UNL A   1      45.036  30.199  27.745  1.00  0.00    -0.248 NA
ATOM     57  C   UNL A   1      47.105  30.574  26.730  1.00  0.00     0.031 C 
ATOM     58  C   UNL A   1      42.844  33.210  30.164  1.00  0.00     0.029 A 
ATOM     59  C   UNL A   1      43.522  32.306  29.361  1.00  0.00     0.049 A 
ATOM     60  H   UNL A   1      42.947  30.364  28.769  1.00  0.00     0.167 HD
ATOM     61  C   UNL A   1      45.443  31.498  28.012  1.00  0.00     0.074 A 
ATOM     62  C   UNL A   1      46.735  31.670  27.381  1.00  0.00     0.031 C 
ATOM     63  C   UNL A   1      44.800  32.463  28.714  1.00  0.00     0.037 A 
BRANCH  50  64
ATOM     64  C   UNL A   1      39.249  30.807  30.843  1.00  0.00     0.064 A 
ATOM     65  C   UNL A   1      39.091  30.470  32.195  1.00  0.00     0.173 A 
ATOM     66  C   UNL A   1      38.239  31.566  30.231  1.00  0.00     0.173 A 
ATOM     67  F   UNL A   1      40.024  29.737  32.821  1.00  0.00    -0.203 F 
ATOM     68  C   UNL A   1      37.958  30.864  32.903  1.00  0.00     0.198 A 
ATOM     69  C   UNL A   1      37.119  31.977  30.948  1.00  0.00     0.198 A 
ATOM     70  F   UNL A   1      38.345  31.917  28.941  1.00  0.00    -0.203 F 
ATOM     71  F   UNL A   1      37.813  30.502  34.185  1.00  0.00    -0.200 F 
ATOM     72  C   UNL A   1      36.977  31.623  32.281  1.00  0.00     0.200 A 
ATOM     73  F   UNL A   1      36.175  32.717  30.349  1.00  0.00    -0.200 F 
ATOM     74  F   UNL A   1      35.892  32.007  32.967  1.00  0.00    -0.200 F 
ENDBRANCH  50  64
BRANCH  51  75
ATOM     75  C   UNL A   1      47.264  27.834  25.678  1.00  0.00     0.064 A 
ATOM     76  C   UNL A   1      47.265  27.842  24.278  1.00  0.00     0.173 A 
ATOM     77  C   UNL A   1      48.435  27.422  26.332  1.00  0.00     0.173 A 
ATOM     78  F   UNL A   1      46.161  28.206  23.611  1.00  0.00    -0.203 F 
ATOM     79  C   UNL A   1      48.393  27.455  23.558  1.00  0.00     0.198 A 
ATOM     80  C   UNL A   1      49.570  27.057  25.612  1.00  0.00     0.198 A 
ATOM     81  F   UNL A   1      48.482  27.395  27.671  1.00  0.00    -0.203 F 
ATOM     82  F   UNL A   1      48.361  27.449  22.219  1.00  0.00    -0.200 F 
ATOM     83  C   UNL A   1      49.548  27.071  24.225  1.00  0.00     0.200 A 
ATOM     84  F   UNL A   1      50.686  26.697  26.260  1.00  0.00    -0.200 F 
ATOM     85  F   UNL A   1      50.637  26.711  23.532  1.00  0.00    -0.200 F 
ENDBRANCH  51  75
BRANCH  63  86
ATOM     86  C   UNL A   1      45.470  33.798  28.831  1.00  0.00     0.064 A 
ATOM     87  C   UNL A   1      45.193  34.828  27.921  1.00  0.00     0.173 A 
ATOM     88  C   UNL A   1      46.324  34.080  29.907  1.00  0.00     0.173 A 
ATOM     89  F   UNL A   1      44.394  34.603  26.868  1.00  0.00    -0.203 F 
ATOM     90  C   UNL A   1      45.749  36.094  28.084  1.00  0.00     0.198 A 
ATOM     91  C   UNL A   1      46.860  35.352  30.080  1.00  0.00     0.198 A 
ATOM     92  F   UNL A   1      46.613  33.128  30.807  1.00  0.00    -0.203 F 
ATOM     93  F   UNL A   1      45.487  37.059  27.192  1.00  0.00    -0.200 F 
ATOM     94  C   UNL A   1      46.573  36.358  29.169  1.00  0.00     0.200 A 
ATOM     95  F   UNL A   1      47.645  35.609  31.136  1.00  0.00    -0.200 F 
ATOM     96  F   UNL A   1      47.091  37.582  29.335  1.00  0.00    -0.200 F 
ENDBRANCH  63  86
ENDBRANCH  37  38
ENDBRANCH  30  32
ENDBRANCH  29  30
ENDBRANCH  28  29
ENDBRANCH   1  28
TORSDOF 15
ENDMDL
MODEL 3
REMARK VINA RESULT:     -12.5      1.172      2.016
REMARK SMILES Cc1c(Cc2ccccc2)c(=O)oc2c(C)c(O[C@H](C)C(=O)OCCOC(=O)c3ccc(-c4c5nc(c(-c6c(F)c(F)c(F)c(F)c6F)c6ccc([nH]6)c(-c6c(F)c(F)c(F)c(F)c6F)c6nc(c(-c7c(F)c(F)c(F)c(F)c7F)c7ccc4[nH]7)C=C6)C=C5)cc3)ccc12
REMARK SMILES IDX 24 1 23 2 21 3 22 4 19 5 20 6 18 7 17 8 1 9 2 10 3 11 94 12
REMARK SMILES IDX 11 13 14 14 93 15 12 16 13 17 15 18 92 19 16 20 4 21 5 22
REMARK SMILES IDX 6 23 10 24 7 25 9 26 8 27 25 28 26 29 27 30 28 31 29 32
REMARK SMILES IDX 30 33 91 34 31 35 90 36 32 37 33 38 34 39 84 40 35 41 89 42
REMARK SMILES IDX 83 43 85 44 36 45 88 46 82 47 81 48 37 50 69 51 49 52 68 53
REMARK SMILES IDX 50 54 53 55 67 56 86 57 51 58 52 59 66 61 87 62 54 63 38 64
REMARK SMILES IDX 39 65 47 66 40 67 41 68 45 69 48 70 42 71 43 72 46 73 44 74
REMARK SMILES IDX 70 75 71 76 79 77 72 78 73 79 77 80 80 81 74 82 75 83 78 84
REMARK SMILES IDX 76 85 55 86 56 87 64 88 57 89 58 90 62 91 65 92 59 93 60 94
REMARK SMILES IDX 63 95 61 96
REMARK H PARENT 85 49 53 60
REMARK Flexibility Score: inf
ROOT
ATOM      1  C   UNL A   1      42.013  20.658  26.110  1.00  0.00     0.274 C 
ENDROOT
BRANCH   1   2
ATOM      2  O   UNL A   1      40.790  21.411  26.044  1.00  0.00    -0.459 OA
BRANCH   2   3
ATOM      3  C   UNL A   1      39.651  20.717  25.790  1.00  0.00     0.347 C 
ATOM      4  O   UNL A   1      39.631  19.518  25.519  1.00  0.00    -0.248 OA
BRANCH   3   5
ATOM      5  C   UNL A   1      38.378  21.567  25.937  1.00  0.00     0.279 C 
ATOM      6  C   UNL A   1      38.628  23.020  26.338  1.00  0.00     0.066 C 
BRANCH   5   7
ATOM      7  O   UNL A   1      37.749  21.388  24.673  1.00  0.00    -0.479 OA
BRANCH   7   8
ATOM      8  C   UNL A   1      36.509  21.800  24.309  1.00  0.00     0.127 A 
ATOM      9  C   UNL A   1      33.019  24.915  22.024  1.00  0.00     0.046 C 
ATOM     10  C   UNL A   1      32.996  24.027  23.238  1.00  0.00    -0.029 A 
ATOM     11  C   UNL A   1      31.962  23.901  24.097  1.00  0.00     0.046 A 
ATOM     12  C   UNL A   1      34.220  23.273  23.534  1.00  0.00     0.021 A 
ATOM     13  C   UNL A   1      31.966  22.798  25.103  1.00  0.00     0.340 A 
ATOM     14  C   UNL A   1      34.133  22.113  24.297  1.00  0.00     0.145 A 
ATOM     15  C   UNL A   1      35.484  23.692  23.137  1.00  0.00     0.016 A 
ATOM     16  O   UNL A   1      31.116  22.705  25.981  1.00  0.00    -0.246 OA
ATOM     17  O   UNL A   1      32.896  21.786  24.895  1.00  0.00    -0.422 OA
ATOM     18  C   UNL A   1      35.242  21.283  24.589  1.00  0.00     0.035 A 
ATOM     19  C   UNL A   1      36.608  22.986  23.559  1.00  0.00     0.047 A 
ATOM     20  C   UNL A   1      34.950  19.936  25.178  1.00  0.00     0.052 C 
BRANCH  11  21
ATOM     21  C   UNL A   1      30.725  24.773  24.112  1.00  0.00     0.079 C 
BRANCH  21  22
ATOM     22  C   UNL A   1      30.982  26.153  24.694  1.00  0.00    -0.043 A 
ATOM     23  C   UNL A   1      30.847  27.300  23.901  1.00  0.00     0.004 A 
ATOM     24  C   UNL A   1      31.344  26.314  26.041  1.00  0.00     0.004 A 
ATOM     25  C   UNL A   1      31.074  28.570  24.442  1.00  0.00     0.000 A 
ATOM     26  C   UNL A   1      31.550  27.582  26.586  1.00  0.00     0.000 A 
ATOM     27  C   UNL A   1      31.420  28.712  25.785  1.00  0.00     0.000 A 
ENDBRANCH  21  22
ENDBRANCH  11  21
ENDBRANCH   7   8
ENDBRANCH   5   7
ENDBRANCH   3   5
ENDBRANCH   2   3
ENDBRANCH   1   2
BRANCH   1  28
ATOM     28  C   UNL A   1      43.171  21.514  25.590  1.00  0.00     0.275 C 
BRANCH  28  29
ATOM     29  O   UNL A   1      42.697  22.718  24.954  1.00  0.00    -0.458 OA
BRANCH  29  30
ATOM     30  C   UNL A   1      43.502  23.798  25.064  1.00  0.00     0.338 C 
ATOM     31  O   UNL A   1      44.512  24.048  24.430  1.00  0.00    -0.246 OA
BRANCH  30  32
ATOM     32  C   UNL A   1      42.925  24.738  26.032  1.00  0.00     0.060 A 
ATOM     33  C   UNL A   1      43.415  26.046  26.076  1.00  0.00     0.016 A 
ATOM     34  C   UNL A   1      41.985  24.295  26.962  1.00  0.00     0.016 A 
ATOM     35  C   UNL A   1      42.983  26.916  27.072  1.00  0.00     0.010 A 
ATOM     36  C   UNL A   1      41.538  25.175  27.950  1.00  0.00     0.010 A 
ATOM     37  C   UNL A   1      42.051  26.481  28.022  1.00  0.00    -0.014 A 
BRANCH  37  38
ATOM     38  C   UNL A   1      41.659  27.387  29.125  1.00  0.00     0.031 A 
ATOM     39  C   UNL A   1      42.469  27.417  30.386  1.00  0.00     0.074 A 
ATOM     40  C   UNL A   1      40.595  28.197  28.977  1.00  0.00     0.049 A 
ATOM     41  N   UNL A   1      42.274  28.110  31.478  1.00  0.00    -0.248 NA
ATOM     42  C   UNL A   1      43.660  26.554  30.425  1.00  0.00     0.031 C 
ATOM     43  C   UNL A   1      39.763  28.281  27.777  1.00  0.00     0.029 A 
ATOM     44  N   UNL A   1      40.037  29.105  29.840  1.00  0.00    -0.354 N 
ATOM     45  C   UNL A   1      43.312  27.765  32.333  1.00  0.00     0.074 A 
ATOM     46  C   UNL A   1      44.118  26.780  31.648  1.00  0.00     0.031 C 
ATOM     47  C   UNL A   1      38.801  29.196  27.977  1.00  0.00     0.029 A 
ATOM     48  C   UNL A   1      38.927  29.731  29.332  1.00  0.00     0.049 A 
ATOM     49  H   UNL A   1      40.398  29.288  30.736  1.00  0.00     0.167 HD
ATOM     50  C   UNL A   1      43.571  28.243  33.572  1.00  0.00     0.037 A 
ATOM     51  C   UNL A   1      38.094  30.620  29.904  1.00  0.00     0.037 A 
ATOM     52  C   UNL A   1      42.771  29.233  34.243  1.00  0.00     0.049 A 
ATOM     53  C   UNL A   1      38.352  31.065  31.317  1.00  0.00     0.074 A 
ATOM     54  C   UNL A   1      42.972  29.809  35.485  1.00  0.00     0.029 A 
ATOM     55  N   UNL A   1      41.610  29.790  33.725  1.00  0.00    -0.354 N 
ATOM     56  N   UNL A   1      39.344  30.748  32.113  1.00  0.00    -0.248 NA
ATOM     57  C   UNL A   1      37.371  31.981  31.915  1.00  0.00     0.031 C 
ATOM     58  C   UNL A   1      41.909  30.680  35.738  1.00  0.00     0.029 A 
ATOM     59  C   UNL A   1      41.064  30.676  34.639  1.00  0.00     0.049 A 
ATOM     60  H   UNL A   1      41.231  29.586  32.839  1.00  0.00     0.167 HD
ATOM     61  C   UNL A   1      39.112  31.427  33.301  1.00  0.00     0.074 A 
ATOM     62  C   UNL A   1      37.894  32.188  33.117  1.00  0.00     0.031 C 
ATOM     63  C   UNL A   1      39.842  31.414  34.443  1.00  0.00     0.037 A 
BRANCH  50  64
ATOM     64  C   UNL A   1      44.762  27.691  34.294  1.00  0.00     0.064 A 
ATOM     65  C   UNL A   1      46.021  28.302  34.204  1.00  0.00     0.173 A 
ATOM     66  C   UNL A   1      44.633  26.567  35.123  1.00  0.00     0.173 A 
ATOM     67  F   UNL A   1      46.197  29.373  33.416  1.00  0.00    -0.203 F 
ATOM     68  C   UNL A   1      47.113  27.797  34.906  1.00  0.00     0.198 A 
ATOM     69  C   UNL A   1      45.721  26.078  35.840  1.00  0.00     0.198 A 
ATOM     70  F   UNL A   1      43.449  25.949  35.245  1.00  0.00    -0.203 F 
ATOM     71  F   UNL A   1      48.315  28.377  34.780  1.00  0.00    -0.200 F 
ATOM     72  C   UNL A   1      46.960  26.690  35.728  1.00  0.00     0.200 A 
ATOM     73  F   UNL A   1      45.571  25.014  36.642  1.00  0.00    -0.200 F 
ATOM     74  F   UNL A   1      48.011  26.211  36.409  1.00  0.00    -0.200 F 
ENDBRANCH  50  64
BRANCH  51  75
ATOM     75  C   UNL A   1      36.933  31.134  29.135  1.00  0.00     0.064 A 
ATOM     76  C   UNL A   1      35.814  30.325  28.896  1.00  0.00     0.173 A 
ATOM     77  C   UNL A   1      36.906  32.450  28.652  1.00  0.00     0.173 A 
ATOM     78  F   UNL A   1      35.805  29.053  29.318  1.00  0.00    -0.203 F 
ATOM     79  C   UNL A   1      34.710  30.815  28.201  1.00  0.00     0.198 A 
ATOM     80  C   UNL A   1      35.792  32.946  27.978  1.00  0.00     0.198 A 
ATOM     81  F   UNL A   1      37.954  33.261  28.854  1.00  0.00    -0.203 F 
ATOM     82  F   UNL A   1      33.662  30.015  27.963  1.00  0.00    -0.200 F 
ATOM     83  C   UNL A   1      34.696  32.127  27.750  1.00  0.00     0.200 A 
ATOM     84  F   UNL A   1      35.779  34.217  27.552  1.00  0.00    -0.200 F 
ATOM     85  F   UNL A   1      33.629  32.601  27.093  1.00  0.00    -0.200 F 
ENDBRANCH  51  75
BRANCH  63  86
ATOM     86  C   UNL A   1      39.345  32.237  35.592  1.00  0.00     0.064 A 
ATOM     87  C   UNL A   1      38.515  31.678  36.575  1.00  0.00     0.173 A 
ATOM     88  C   UNL A   1      39.770  33.562  35.762  1.00  0.00     0.173 A 
ATOM     89  F   UNL A   1      38.071  30.419  36.448  1.00  0.00    -0.203 F 
ATOM     90  C   UNL A   1      38.127  32.420  37.687  1.00  0.00     0.198 A 
ATOM     91  C   UNL A   1      39.398  34.293  36.887  1.00  0.00     0.198 A 
ATOM     92  F   UNL A   1      40.569  34.138  34.852  1.00  0.00    -0.203 F 
ATOM     93  F   UNL A   1      37.317  31.874  38.605  1.00  0.00    -0.200 F 
ATOM     94  C   UNL A   1      38.577  33.722  37.848  1.00  0.00     0.200 A 
ATOM     95  F   UNL A   1      39.846  35.546  37.048  1.00  0.00    -0.200 F 
ATOM     96  F   UNL A   1      38.219  34.427  38.930  1.00  0.00    -0.200 F 
ENDBRANCH  63  86
ENDBRANCH  37  38
ENDBRANCH  30  32
ENDBRANCH  29  30
ENDBRANCH  28  29
ENDBRANCH   1  28
TORSDOF 15
ENDMDL
