MODEL 1
REMARK VINA RESULT:     -12.9      0.000      0.000
REMARK SMILES N#C/C(=C\c1ccc(-c2ccc(C(=O)OCCOC(=O)c3ccc(-c4c5nc(c(-c6c(F)c(F)c(F)c(F)c6F)c6ccc([nH]6)c(-c6c(F)c(F)c(F)c(F)c6F)c6nc(c(-c7c(F)c(F)c(F)c(F)c7F)c7ccc4[nH]7)C=C6)C=C5)cc3)cc2)o1)[C@@H]1N=c2cc(Br)cnc2=N1
REMARK SMILES IDX 16 1 15 2 13 3 14 4 12 5 9 6 10 7 85 8 11 9 84 10 8 11 5 12
REMARK SMILES IDX 6 13 86 14 7 15 4 16 3 17 2 18 1 19 87 20 88 21 96 22 89 23
REMARK SMILES IDX 95 24 90 25 94 26 91 27 93 28 92 29 17 30 18 31 19 32 20 33
REMARK SMILES IDX 21 34 22 35 83 36 23 37 82 38 24 39 25 40 26 41 76 42 27 43
REMARK SMILES IDX 81 44 75 45 77 46 28 47 80 48 74 49 73 50 29 52 61 53 41 54
REMARK SMILES IDX 60 55 42 56 45 57 59 58 78 59 43 60 44 61 58 63 79 64 46 65
REMARK SMILES IDX 30 66 31 67 39 68 32 69 33 70 37 71 40 72 34 73 35 74 38 75
REMARK SMILES IDX 36 76 62 77 63 78 71 79 64 80 65 81 69 82 72 83 66 84 67 85
REMARK SMILES IDX 70 86 68 87 47 88 48 89 56 90 49 91 50 92 54 93 57 94 51 95
REMARK SMILES IDX 52 96 55 97 53 98
REMARK H PARENT 77 51 45 62
REMARK Flexibility Score: inf
ROOT
ATOM      1  C   UNL A   1      43.713  19.576  25.506  1.00  0.00     0.275 C 
ENDROOT
BRANCH   1   2
ATOM      2  O   UNL A   1      42.278  19.574  25.339  1.00  0.00    -0.458 OA
BRANCH   2   3
ATOM      3  C   UNL A   1      41.560  19.693  26.482  1.00  0.00     0.338 C 
ATOM      4  O   UNL A   1      41.904  19.324  27.594  1.00  0.00    -0.246 OA
BRANCH   3   5
ATOM      5  C   UNL A   1      40.280  20.401  26.250  1.00  0.00     0.060 A 
ATOM      6  C   UNL A   1      37.995  21.799  25.417  1.00  0.00     0.017 A 
ATOM      7  C   UNL A   1      38.138  20.453  25.099  1.00  0.00     0.013 A 
ATOM      8  C   UNL A   1      38.967  22.424  26.216  1.00  0.00     0.013 A 
ATOM      9  C   UNL A   1      39.289  19.777  25.483  1.00  0.00     0.016 A 
ATOM     10  C   UNL A   1      40.100  21.724  26.652  1.00  0.00     0.016 A 
BRANCH   6  11
ATOM     11  C   UNL A   1      36.947  22.561  24.771  1.00  0.00     0.134 A 
ATOM     12  C   UNL A   1      35.166  23.887  24.786  1.00  0.00     0.128 A 
ATOM     13  C   UNL A   1      35.366  23.441  23.483  1.00  0.00     0.051 A 
ATOM     14  O   UNL A   1      36.163  23.339  25.565  1.00  0.00    -0.457 OA
ATOM     15  C   UNL A   1      36.495  22.596  23.476  1.00  0.00     0.051 A 
BRANCH  12  16
ATOM     16  C   UNL A   1      34.200  24.789  25.311  1.00  0.00     0.066 C 
ATOM     17  C   UNL A   1      32.965  24.448  25.734  1.00  0.00     0.080 C 
BRANCH  17  18
ATOM     18  C   UNL A   1      32.528  23.089  25.817  1.00  0.00     0.099 C 
ATOM     19  N   UNL A   1      32.184  21.986  25.868  1.00  0.00    -0.193 NA
ENDBRANCH  17  18
BRANCH  17  20
ATOM     20  C   UNL A   1      31.947  25.490  26.133  1.00  0.00     0.265 C 
ATOM     21  N   UNL A   1      30.780  25.447  25.196  1.00  0.00    -0.249 NA
ATOM     22  N   UNL A   1      32.553  26.844  26.146  1.00  0.00    -0.232 NA
ATOM     23  C   UNL A   1      30.714  26.666  24.791  1.00  0.00     0.106 A 
ATOM     24  C   UNL A   1      31.775  27.517  25.371  1.00  0.00     0.175 A 
ATOM     25  C   UNL A   1      29.790  27.283  23.844  1.00  0.00     0.049 A 
ATOM     26  N   UNL A   1      31.940  28.842  25.100  1.00  0.00    -0.234 NA
ATOM     27  C   UNL A   1      29.972  28.584  23.577  1.00  0.00     0.038 A 
ATOM     28  C   UNL A   1      31.084  29.326  24.256  1.00  0.00     0.129 A 
ATOM     29  Br  UNL A   1      28.904  29.526  22.384  1.00  0.00    -0.049 Br
ENDBRANCH  17  20
ENDBRANCH  12  16
ENDBRANCH   6  11
ENDBRANCH   3   5
ENDBRANCH   2   3
ENDBRANCH   1   2
BRANCH   1  30
ATOM     30  C   UNL A   1      44.320  20.935  25.149  1.00  0.00     0.275 C 
BRANCH  30  31
ATOM     31  O   UNL A   1      44.000  21.928  26.143  1.00  0.00    -0.458 OA
BRANCH  31  32
ATOM     32  C   UNL A   1      43.458  23.064  25.651  1.00  0.00     0.338 C 
ATOM     33  O   UNL A   1      43.000  23.249  24.536  1.00  0.00    -0.246 OA
BRANCH  32  34
ATOM     34  C   UNL A   1      43.374  24.091  26.696  1.00  0.00     0.060 A 
ATOM     35  C   UNL A   1      42.753  23.739  27.883  1.00  0.00     0.016 A 
ATOM     36  C   UNL A   1      43.673  25.425  26.441  1.00  0.00     0.016 A 
ATOM     37  C   UNL A   1      42.256  24.716  28.733  1.00  0.00     0.010 A 
ATOM     38  C   UNL A   1      43.347  26.396  27.400  1.00  0.00     0.010 A 
ATOM     39  C   UNL A   1      42.602  26.057  28.544  1.00  0.00    -0.014 A 
BRANCH  39  40
ATOM     40  C   UNL A   1      42.229  27.062  29.582  1.00  0.00     0.031 A 
ATOM     41  C   UNL A   1      43.001  27.176  30.869  1.00  0.00     0.074 A 
ATOM     42  C   UNL A   1      41.175  27.880  29.362  1.00  0.00     0.049 A 
ATOM     43  N   UNL A   1      42.714  27.861  31.948  1.00  0.00    -0.248 NA
ATOM     44  C   UNL A   1      44.253  26.411  30.967  1.00  0.00     0.031 C 
ATOM     45  C   UNL A   1      40.360  27.905  28.143  1.00  0.00     0.029 A 
ATOM     46  N   UNL A   1      40.604  28.851  30.148  1.00  0.00    -0.354 N 
ATOM     47  C   UNL A   1      43.716  27.571  32.866  1.00  0.00     0.074 A 
ATOM     48  C   UNL A   1      44.616  26.638  32.222  1.00  0.00     0.031 C 
ATOM     49  C   UNL A   1      39.435  28.865  28.241  1.00  0.00     0.029 A 
ATOM     50  C   UNL A   1      39.497  29.434  29.577  1.00  0.00     0.049 A 
ATOM     51  H   UNL A   1      40.954  29.105  31.033  1.00  0.00     0.167 HD
ATOM     52  C   UNL A   1      43.861  28.040  34.129  1.00  0.00     0.037 A 
ATOM     53  C   UNL A   1      38.581  30.277  30.087  1.00  0.00     0.037 A 
ATOM     54  C   UNL A   1      42.973  28.997  34.743  1.00  0.00     0.049 A 
ATOM     55  C   UNL A   1      38.727  30.720  31.512  1.00  0.00     0.074 A 
ATOM     56  C   UNL A   1      43.054  29.563  36.003  1.00  0.00     0.029 A 
ATOM     57  N   UNL A   1      41.840  29.528  34.141  1.00  0.00    -0.354 N 
ATOM     58  N   UNL A   1      39.670  30.431  32.374  1.00  0.00    -0.248 NA
ATOM     59  C   UNL A   1      37.672  31.593  32.043  1.00  0.00     0.031 C 
ATOM     60  C   UNL A   1      41.931  30.374  36.193  1.00  0.00     0.029 A 
ATOM     61  C   UNL A   1      41.188  30.376  35.024  1.00  0.00     0.049 A 
ATOM     62  H   UNL A   1      41.543  29.331  33.223  1.00  0.00     0.167 HD
ATOM     63  C   UNL A   1      39.334  31.097  33.543  1.00  0.00     0.074 A 
ATOM     64  C   UNL A   1      38.115  31.830  33.268  1.00  0.00     0.031 C 
ATOM     65  C   UNL A   1      39.972  31.094  34.738  1.00  0.00     0.037 A 
BRANCH  52  66
ATOM     66  C   UNL A   1      44.990  27.495  34.961  1.00  0.00     0.064 A 
ATOM     67  C   UNL A   1      46.261  28.087  34.983  1.00  0.00     0.173 A 
ATOM     68  C   UNL A   1      44.772  26.388  35.799  1.00  0.00     0.173 A 
ATOM     69  F   UNL A   1      46.530  29.142  34.199  1.00  0.00    -0.203 F 
ATOM     70  C   UNL A   1      47.278  27.576  35.789  1.00  0.00     0.198 A 
ATOM     71  C   UNL A   1      45.780  25.902  36.629  1.00  0.00     0.198 A 
ATOM     72  F   UNL A   1      43.574  25.785  35.827  1.00  0.00    -0.203 F 
ATOM     73  F   UNL A   1      48.499  28.128  35.756  1.00  0.00    -0.200 F 
ATOM     74  C   UNL A   1      47.034  26.491  36.617  1.00  0.00     0.200 A 
ATOM     75  F   UNL A   1      45.534  24.865  37.442  1.00  0.00    -0.200 F 
ATOM     76  F   UNL A   1      48.009  26.009  37.401  1.00  0.00    -0.200 F 
ENDBRANCH  52  66
BRANCH  53  77
ATOM     77  C   UNL A   1      37.411  30.689  29.264  1.00  0.00     0.064 A 
ATOM     78  C   UNL A   1      37.300  31.992  28.762  1.00  0.00     0.173 A 
ATOM     79  C   UNL A   1      36.376  29.787  28.963  1.00  0.00     0.173 A 
ATOM     80  F   UNL A   1      38.250  32.899  29.038  1.00  0.00    -0.203 F 
ATOM     81  C   UNL A   1      36.192  32.384  28.013  1.00  0.00     0.198 A 
ATOM     82  C   UNL A   1      35.291  30.167  28.178  1.00  0.00     0.198 A 
ATOM     83  F   UNL A   1      36.429  28.525  29.415  1.00  0.00    -0.203 F 
ATOM     84  F   UNL A   1      36.084  33.653  27.597  1.00  0.00    -0.200 F 
ATOM     85  C   UNL A   1      35.193  31.470  27.714  1.00  0.00     0.200 A 
ATOM     86  F   UNL A   1      34.341  29.273  27.874  1.00  0.00    -0.200 F 
ATOM     87  F   UNL A   1      34.132  31.846  26.989  1.00  0.00    -0.200 F 
ENDBRANCH  53  77
BRANCH  65  88
ATOM     88  C   UNL A   1      39.371  31.928  35.831  1.00  0.00     0.064 A 
ATOM     89  C   UNL A   1      38.413  31.407  36.714  1.00  0.00     0.173 A 
ATOM     90  C   UNL A   1      39.780  33.258  36.018  1.00  0.00     0.173 A 
ATOM     91  F   UNL A   1      37.974  30.148  36.567  1.00  0.00    -0.203 F 
ATOM     92  C   UNL A   1      37.865  32.195  37.722  1.00  0.00     0.198 A 
ATOM     93  C   UNL A   1      39.259  34.030  37.051  1.00  0.00     0.198 A 
ATOM     94  F   UNL A   1      40.698  33.804  35.205  1.00  0.00    -0.203 F 
ATOM     95  F   UNL A   1      36.907  31.694  38.514  1.00  0.00    -0.200 F 
ATOM     96  C   UNL A   1      38.296  33.502  37.896  1.00  0.00     0.200 A 
ATOM     97  F   UNL A   1      39.690  35.287  37.229  1.00  0.00    -0.200 F 
ATOM     98  F   UNL A   1      37.774  34.255  38.874  1.00  0.00    -0.200 F 
ENDBRANCH  65  88
ENDBRANCH  39  40
ENDBRANCH  32  34
ENDBRANCH  31  32
ENDBRANCH  30  31
ENDBRANCH   1  30
TORSDOF 15
ENDMDL
MODEL 2
REMARK VINA RESULT:     -12.8      0.233      1.211
REMARK SMILES N#C/C(=C\c1ccc(-c2ccc(C(=O)OCCOC(=O)c3ccc(-c4c5nc(c(-c6c(F)c(F)c(F)c(F)c6F)c6ccc([nH]6)c(-c6c(F)c(F)c(F)c(F)c6F)c6nc(c(-c7c(F)c(F)c(F)c(F)c7F)c7ccc4[nH]7)C=C6)C=C5)cc3)cc2)o1)[C@@H]1N=c2cc(Br)cnc2=N1
REMARK SMILES IDX 16 1 15 2 13 3 14 4 12 5 9 6 10 7 85 8 11 9 84 10 8 11 5 12
REMARK SMILES IDX 6 13 86 14 7 15 4 16 3 17 2 18 1 19 87 20 88 21 96 22 89 23
REMARK SMILES IDX 95 24 90 25 94 26 91 27 93 28 92 29 17 30 18 31 19 32 20 33
REMARK SMILES IDX 21 34 22 35 83 36 23 37 82 38 24 39 25 40 26 41 76 42 27 43
REMARK SMILES IDX 81 44 75 45 77 46 28 47 80 48 74 49 73 50 29 52 61 53 41 54
REMARK SMILES IDX 60 55 42 56 45 57 59 58 78 59 43 60 44 61 58 63 79 64 46 65
REMARK SMILES IDX 30 66 31 67 39 68 32 69 33 70 37 71 40 72 34 73 35 74 38 75
REMARK SMILES IDX 36 76 62 77 63 78 71 79 64 80 65 81 69 82 72 83 66 84 67 85
REMARK SMILES IDX 70 86 68 87 47 88 48 89 56 90 49 91 50 92 54 93 57 94 51 95
REMARK SMILES IDX 52 96 55 97 53 98
REMARK H PARENT 77 51 45 62
REMARK Flexibility Score: inf
ROOT
ATOM      1  C   UNL A   1      43.717  19.678  25.404  1.00  0.00     0.275 C 
ENDROOT
BRANCH   1   2
ATOM      2  O   UNL A   1      42.292  19.502  25.247  1.00  0.00    -0.458 OA
BRANCH   2   3
ATOM      3  C   UNL A   1      41.567  19.581  26.388  1.00  0.00     0.338 C 
ATOM      4  O   UNL A   1      41.903  19.173  27.489  1.00  0.00    -0.246 OA
BRANCH   3   5
ATOM      5  C   UNL A   1      40.288  20.298  26.173  1.00  0.00     0.060 A 
ATOM      6  C   UNL A   1      38.009  21.725  25.374  1.00  0.00     0.017 A 
ATOM      7  C   UNL A   1      38.153  20.390  25.012  1.00  0.00     0.013 A 
ATOM      8  C   UNL A   1      38.977  22.322  26.198  1.00  0.00     0.013 A 
ATOM      9  C   UNL A   1      39.301  19.700  25.380  1.00  0.00     0.016 A 
ATOM     10  C   UNL A   1      40.108  21.607  26.617  1.00  0.00     0.016 A 
BRANCH   6  11
ATOM     11  C   UNL A   1      36.965  22.509  24.747  1.00  0.00     0.134 A 
ATOM     12  C   UNL A   1      35.194  23.846  24.796  1.00  0.00     0.128 A 
ATOM     13  C   UNL A   1      35.389  23.430  23.483  1.00  0.00     0.051 A 
ATOM     14  O   UNL A   1      36.188  23.274  25.561  1.00  0.00    -0.457 OA
ATOM     15  C   UNL A   1      36.513  22.578  23.454  1.00  0.00     0.051 A 
BRANCH  12  16
ATOM     16  C   UNL A   1      34.235  24.743  25.344  1.00  0.00     0.066 C 
ATOM     17  C   UNL A   1      32.964  24.421  25.667  1.00  0.00     0.080 C 
BRANCH  17  18
ATOM     18  C   UNL A   1      32.471  23.081  25.608  1.00  0.00     0.099 C 
ATOM     19  N   UNL A   1      32.067  21.999  25.542  1.00  0.00    -0.193 NA
ENDBRANCH  17  18
BRANCH  17  20
ATOM     20  C   UNL A   1      31.966  25.470  26.098  1.00  0.00     0.265 C 
ATOM     21  N   UNL A   1      30.777  25.445  25.190  1.00  0.00    -0.249 NA
ATOM     22  N   UNL A   1      32.586  26.818  26.108  1.00  0.00    -0.232 NA
ATOM     23  C   UNL A   1      30.713  26.667  24.796  1.00  0.00     0.106 A 
ATOM     24  C   UNL A   1      31.796  27.504  25.357  1.00  0.00     0.175 A 
ATOM     25  C   UNL A   1      29.772  27.301  23.876  1.00  0.00     0.049 A 
ATOM     26  N   UNL A   1      31.967  28.830  25.093  1.00  0.00    -0.234 NA
ATOM     27  C   UNL A   1      29.961  28.602  23.615  1.00  0.00     0.038 A 
ATOM     28  C   UNL A   1      31.095  29.328  24.273  1.00  0.00     0.129 A 
ATOM     29  Br  UNL A   1      28.873  29.564  22.455  1.00  0.00    -0.049 Br
ENDBRANCH  17  20
ENDBRANCH  12  16
ENDBRANCH   6  11
ENDBRANCH   3   5
ENDBRANCH   2   3
ENDBRANCH   1   2
BRANCH   1  30
ATOM     30  C   UNL A   1      44.160  21.084  24.991  1.00  0.00     0.275 C 
BRANCH  30  31
ATOM     31  O   UNL A   1      43.587  22.087  25.852  1.00  0.00    -0.458 OA
BRANCH  31  32
ATOM     32  C   UNL A   1      43.626  23.344  25.358  1.00  0.00     0.338 C 
ATOM     33  O   UNL A   1      44.013  23.700  24.257  1.00  0.00    -0.246 OA
BRANCH  32  34
ATOM     34  C   UNL A   1      43.020  24.290  26.302  1.00  0.00     0.060 A 
ATOM     35  C   UNL A   1      43.443  25.608  26.239  1.00  0.00     0.016 A 
ATOM     36  C   UNL A   1      42.245  23.863  27.375  1.00  0.00     0.016 A 
ATOM     37  C   UNL A   1      43.265  26.456  27.321  1.00  0.00     0.010 A 
ATOM     38  C   UNL A   1      41.895  24.782  28.376  1.00  0.00     0.010 A 
ATOM     39  C   UNL A   1      42.431  26.083  28.379  1.00  0.00    -0.014 A 
BRANCH  39  40
ATOM     40  C   UNL A   1      42.089  27.086  29.430  1.00  0.00     0.031 A 
ATOM     41  C   UNL A   1      42.891  27.186  30.701  1.00  0.00     0.074 A 
ATOM     42  C   UNL A   1      41.039  27.914  29.238  1.00  0.00     0.049 A 
ATOM     43  N   UNL A   1      42.633  27.867  31.790  1.00  0.00    -0.248 NA
ATOM     44  C   UNL A   1      44.138  26.409  30.767  1.00  0.00     0.031 C 
ATOM     45  C   UNL A   1      40.197  27.953  28.037  1.00  0.00     0.029 A 
ATOM     46  N   UNL A   1      40.494  28.885  30.041  1.00  0.00    -0.354 N 
ATOM     47  C   UNL A   1      43.653  27.563  32.683  1.00  0.00     0.074 A 
ATOM     48  C   UNL A   1      44.531  26.626  32.015  1.00  0.00     0.031 C 
ATOM     49  C   UNL A   1      39.283  28.921  28.161  1.00  0.00     0.029 A 
ATOM     50  C   UNL A   1      39.380  29.481  29.498  1.00  0.00     0.049 A 
ATOM     51  H   UNL A   1      40.865  29.132  30.920  1.00  0.00     0.167 HD
ATOM     52  C   UNL A   1      43.830  28.024  33.945  1.00  0.00     0.037 A 
ATOM     53  C   UNL A   1      38.482  30.329  30.033  1.00  0.00     0.037 A 
ATOM     54  C   UNL A   1      42.965  28.985  34.584  1.00  0.00     0.049 A 
ATOM     55  C   UNL A   1      38.663  30.763  31.457  1.00  0.00     0.074 A 
ATOM     56  C   UNL A   1      43.078  29.543  35.845  1.00  0.00     0.029 A 
ATOM     57  N   UNL A   1      41.823  29.529  34.010  1.00  0.00    -0.354 N 
ATOM     58  N   UNL A   1      39.623  30.461  32.296  1.00  0.00    -0.248 NA
ATOM     59  C   UNL A   1      37.629  31.642  32.015  1.00  0.00     0.031 C 
ATOM     60  C   UNL A   1      41.967  30.363  36.064  1.00  0.00     0.029 A 
ATOM     61  C   UNL A   1      41.199  30.378  34.912  1.00  0.00     0.049 A 
ATOM     62  H   UNL A   1      41.504  29.340  33.098  1.00  0.00     0.167 HD
ATOM     63  C   UNL A   1      39.318  31.124  33.476  1.00  0.00     0.074 A 
ATOM     64  C   UNL A   1      38.100  31.868  33.232  1.00  0.00     0.031 C 
ATOM     65  C   UNL A   1      39.982  31.108  34.657  1.00  0.00     0.037 A 
BRANCH  52  66
ATOM     66  C   UNL A   1      44.972  27.465  34.749  1.00  0.00     0.064 A 
ATOM     67  C   UNL A   1      46.245  28.054  34.759  1.00  0.00     0.173 A 
ATOM     68  C   UNL A   1      44.767  26.345  35.574  1.00  0.00     0.173 A 
ATOM     69  F   UNL A   1      46.502  29.121  33.987  1.00  0.00    -0.203 F 
ATOM     70  C   UNL A   1      47.274  27.530  35.539  1.00  0.00     0.198 A 
ATOM     71  C   UNL A   1      45.788  25.844  36.378  1.00  0.00     0.198 A 
ATOM     72  F   UNL A   1      43.568  25.744  35.613  1.00  0.00    -0.203 F 
ATOM     73  F   UNL A   1      48.496  28.080  35.493  1.00  0.00    -0.200 F 
ATOM     74  C   UNL A   1      47.043  26.432  36.355  1.00  0.00     0.200 A 
ATOM     75  F   UNL A   1      45.554  24.796  37.180  1.00  0.00    -0.200 F 
ATOM     76  F   UNL A   1      48.030  25.936  37.114  1.00  0.00    -0.200 F 
ENDBRANCH  52  66
BRANCH  53  77
ATOM     77  C   UNL A   1      37.298  30.756  29.238  1.00  0.00     0.064 A 
ATOM     78  C   UNL A   1      37.186  32.064  28.751  1.00  0.00     0.173 A 
ATOM     79  C   UNL A   1      36.251  29.863  28.951  1.00  0.00     0.173 A 
ATOM     80  F   UNL A   1      38.146  32.962  29.014  1.00  0.00    -0.203 F 
ATOM     81  C   UNL A   1      36.065  32.470  28.028  1.00  0.00     0.198 A 
ATOM     82  C   UNL A   1      35.153  30.258  28.192  1.00  0.00     0.198 A 
ATOM     83  F   UNL A   1      36.306  28.597  29.390  1.00  0.00    -0.203 F 
ATOM     84  F   UNL A   1      35.956  33.743  27.626  1.00  0.00    -0.200 F 
ATOM     85  C   UNL A   1      35.054  31.565  27.742  1.00  0.00     0.200 A 
ATOM     86  F   UNL A   1      34.191  29.372  27.900  1.00  0.00    -0.200 F 
ATOM     87  F   UNL A   1      33.980  31.954  27.042  1.00  0.00    -0.200 F 
ENDBRANCH  53  77
BRANCH  65  88
ATOM     88  C   UNL A   1      39.414  31.942  35.767  1.00  0.00     0.064 A 
ATOM     89  C   UNL A   1      39.763  33.291  35.928  1.00  0.00     0.173 A 
ATOM     90  C   UNL A   1      38.486  31.392  36.666  1.00  0.00     0.173 A 
ATOM     91  F   UNL A   1      40.660  33.859  35.109  1.00  0.00    -0.203 F 
ATOM     92  C   UNL A   1      39.227  34.051  36.965  1.00  0.00     0.198 A 
ATOM     93  C   UNL A   1      37.923  32.166  37.676  1.00  0.00     0.198 A 
ATOM     94  F   UNL A   1      38.114  30.108  36.554  1.00  0.00    -0.203 F 
ATOM     95  F   UNL A   1      39.621  35.320  37.135  1.00  0.00    -0.200 F 
ATOM     96  C   UNL A   1      38.300  33.490  37.831  1.00  0.00     0.200 A 
ATOM     97  F   UNL A   1      37.014  31.627  38.501  1.00  0.00    -0.200 F 
ATOM     98  F   UNL A   1      37.778  34.226  38.822  1.00  0.00    -0.200 F 
ENDBRANCH  65  88
ENDBRANCH  39  40
ENDBRANCH  32  34
ENDBRANCH  31  32
ENDBRANCH  30  31
ENDBRANCH   1  30
TORSDOF 15
ENDMDL
MODEL 3
REMARK VINA RESULT:     -12.8      4.090      9.646
REMARK SMILES N#C/C(=C\c1ccc(-c2ccc(C(=O)OCCOC(=O)c3ccc(-c4c5nc(c(-c6c(F)c(F)c(F)c(F)c6F)c6ccc([nH]6)c(-c6c(F)c(F)c(F)c(F)c6F)c6nc(c(-c7c(F)c(F)c(F)c(F)c7F)c7ccc4[nH]7)C=C6)C=C5)cc3)cc2)o1)[C@@H]1N=c2cc(Br)cnc2=N1
REMARK SMILES IDX 16 1 15 2 13 3 14 4 12 5 9 6 10 7 85 8 11 9 84 10 8 11 5 12
REMARK SMILES IDX 6 13 86 14 7 15 4 16 3 17 2 18 1 19 87 20 88 21 96 22 89 23
REMARK SMILES IDX 95 24 90 25 94 26 91 27 93 28 92 29 17 30 18 31 19 32 20 33
REMARK SMILES IDX 21 34 22 35 83 36 23 37 82 38 24 39 25 40 26 41 76 42 27 43
REMARK SMILES IDX 81 44 75 45 77 46 28 47 80 48 74 49 73 50 29 52 61 53 41 54
REMARK SMILES IDX 60 55 42 56 45 57 59 58 78 59 43 60 44 61 58 63 79 64 46 65
REMARK SMILES IDX 30 66 31 67 39 68 32 69 33 70 37 71 40 72 34 73 35 74 38 75
REMARK SMILES IDX 36 76 62 77 63 78 71 79 64 80 65 81 69 82 72 83 66 84 67 85
REMARK SMILES IDX 70 86 68 87 47 88 48 89 56 90 49 91 50 92 54 93 57 94 51 95
REMARK SMILES IDX 52 96 55 97 53 98
REMARK H PARENT 77 51 45 62
REMARK Flexibility Score: inf
ROOT
ATOM      1  C   UNL A   1      34.161  36.154  28.722  1.00  0.00     0.275 C 
ENDROOT
BRANCH   1   2
ATOM      2  O   UNL A   1      34.406  34.955  27.955  1.00  0.00    -0.458 OA
BRANCH   2   3
ATOM      3  C   UNL A   1      34.919  33.913  28.653  1.00  0.00     0.338 C 
ATOM      4  O   UNL A   1      35.536  33.980  29.705  1.00  0.00    -0.246 OA
BRANCH   3   5
ATOM      5  C   UNL A   1      34.591  32.616  28.016  1.00  0.00     0.060 A 
ATOM      6  C   UNL A   1      33.767  30.071  27.170  1.00  0.00     0.017 A 
ATOM      7  C   UNL A   1      32.877  31.139  27.124  1.00  0.00     0.013 A 
ATOM      8  C   UNL A   1      35.093  30.298  27.575  1.00  0.00     0.013 A 
ATOM      9  C   UNL A   1      33.281  32.388  27.579  1.00  0.00     0.016 A 
ATOM     10  C   UNL A   1      35.515  31.573  27.979  1.00  0.00     0.016 A 
BRANCH   6  11
ATOM     11  C   UNL A   1      33.259  28.730  26.974  1.00  0.00     0.134 A 
ATOM     12  C   UNL A   1      33.276  26.726  26.019  1.00  0.00     0.128 A 
ATOM     13  C   UNL A   1      32.112  26.839  26.773  1.00  0.00     0.051 A 
ATOM     14  O   UNL A   1      33.977  27.904  26.167  1.00  0.00    -0.457 OA
ATOM     15  C   UNL A   1      32.101  28.114  27.377  1.00  0.00     0.051 A 
BRANCH  12  16
ATOM     16  C   UNL A   1      33.780  25.631  25.264  1.00  0.00     0.066 C 
ATOM     17  C   UNL A   1      33.611  25.458  23.936  1.00  0.00     0.080 C 
BRANCH  17  18
ATOM     18  C   UNL A   1      32.998  26.445  23.103  1.00  0.00     0.099 C 
ATOM     19  N   UNL A   1      32.488  27.231  22.425  1.00  0.00    -0.193 NA
ENDBRANCH  17  18
BRANCH  17  20
ATOM     20  C   UNL A   1      34.046  24.189  23.240  1.00  0.00     0.265 C 
ATOM     21  N   UNL A   1      32.886  23.251  23.120  1.00  0.00    -0.249 NA
ATOM     22  N   UNL A   1      35.165  23.543  23.968  1.00  0.00    -0.232 NA
ATOM     23  C   UNL A   1      33.346  22.182  23.666  1.00  0.00     0.106 A 
ATOM     24  C   UNL A   1      34.727  22.349  24.170  1.00  0.00     0.175 A 
ATOM     25  C   UNL A   1      32.697  20.891  23.879  1.00  0.00     0.049 A 
ATOM     26  N   UNL A   1      35.445  21.377  24.800  1.00  0.00    -0.234 NA
ATOM     27  C   UNL A   1      33.410  19.949  24.512  1.00  0.00     0.038 A 
ATOM     28  C   UNL A   1      34.810  20.257  24.951  1.00  0.00     0.129 A 
ATOM     29  Br  UNL A   1      32.737  18.258  24.885  1.00  0.00    -0.049 Br
ENDBRANCH  17  20
ENDBRANCH  12  16
ENDBRANCH   6  11
ENDBRANCH   3   5
ENDBRANCH   2   3
ENDBRANCH   1   2
BRANCH   1  30
ATOM     30  C   UNL A   1      32.938  36.003  29.630  1.00  0.00     0.275 C 
BRANCH  30  31
ATOM     31  O   UNL A   1      33.154  36.637  30.906  1.00  0.00    -0.458 OA
BRANCH  31  32
ATOM     32  C   UNL A   1      32.649  35.962  31.963  1.00  0.00     0.338 C 
ATOM     33  O   UNL A   1      31.484  35.897  32.318  1.00  0.00    -0.246 OA
BRANCH  32  34
ATOM     34  C   UNL A   1      33.698  35.177  32.625  1.00  0.00     0.060 A 
ATOM     35  C   UNL A   1      34.960  35.744  32.702  1.00  0.00     0.016 A 
ATOM     36  C   UNL A   1      33.522  33.835  32.944  1.00  0.00     0.016 A 
ATOM     37  C   UNL A   1      36.076  34.948  32.909  1.00  0.00     0.010 A 
ATOM     38  C   UNL A   1      34.630  33.077  33.350  1.00  0.00     0.010 A 
ATOM     39  C   UNL A   1      35.929  33.615  33.304  1.00  0.00    -0.014 A 
BRANCH  39  40
ATOM     40  C   UNL A   1      37.132  32.837  33.719  1.00  0.00     0.031 A 
ATOM     41  C   UNL A   1      37.817  33.104  35.034  1.00  0.00     0.074 A 
ATOM     42  C   UNL A   1      37.617  31.880  32.898  1.00  0.00     0.049 A 
ATOM     43  N   UNL A   1      38.966  32.655  35.474  1.00  0.00    -0.248 NA
ATOM     44  C   UNL A   1      37.131  34.004  35.973  1.00  0.00     0.031 C 
ATOM     45  C   UNL A   1      37.032  31.490  31.611  1.00  0.00     0.029 A 
ATOM     46  N   UNL A   1      38.710  31.056  33.014  1.00  0.00    -0.354 N 
ATOM     47  C   UNL A   1      39.164  33.254  36.712  1.00  0.00     0.074 A 
ATOM     48  C   UNL A   1      38.020  34.110  36.951  1.00  0.00     0.031 C 
ATOM     49  C   UNL A   1      37.735  30.481  31.085  1.00  0.00     0.029 A 
ATOM     50  C   UNL A   1      38.898  30.241  31.923  1.00  0.00     0.049 A 
ATOM     51  H   UNL A   1      39.301  31.050  33.803  1.00  0.00     0.167 HD
ATOM     52  C   UNL A   1      40.208  33.103  37.562  1.00  0.00     0.037 A 
ATOM     53  C   UNL A   1      39.925  29.440  31.584  1.00  0.00     0.037 A 
ATOM     54  C   UNL A   1      41.323  32.219  37.324  1.00  0.00     0.049 A 
ATOM     55  C   UNL A   1      41.102  29.351  32.510  1.00  0.00     0.074 A 
ATOM     56  C   UNL A   1      42.412  31.966  38.139  1.00  0.00     0.029 A 
ATOM     57  N   UNL A   1      41.491  31.444  36.183  1.00  0.00    -0.354 N 
ATOM     58  N   UNL A   1      41.284  29.930  33.671  1.00  0.00    -0.248 NA
ATOM     59  C   UNL A   1      42.223  28.512  32.072  1.00  0.00     0.031 C 
ATOM     60  C   UNL A   1      43.276  31.102  37.460  1.00  0.00     0.029 A 
ATOM     61  C   UNL A   1      42.691  30.753  36.255  1.00  0.00     0.049 A 
ATOM     62  H   UNL A   1      40.854  31.394  35.435  1.00  0.00     0.167 HD
ATOM     63  C   UNL A   1      42.532  29.514  34.111  1.00  0.00     0.074 A 
ATOM     64  C   UNL A   1      43.047  28.609  33.104  1.00  0.00     0.031 C 
ATOM     65  C   UNL A   1      43.194  29.859  35.242  1.00  0.00     0.037 A 
BRANCH  52  66
ATOM     66  C   UNL A   1      40.233  33.943  38.810  1.00  0.00     0.064 A 
ATOM     67  C   UNL A   1      39.628  33.530  40.006  1.00  0.00     0.173 A 
ATOM     68  C   UNL A   1      40.929  35.164  38.819  1.00  0.00     0.173 A 
ATOM     69  F   UNL A   1      38.944  32.377  40.055  1.00  0.00    -0.203 F 
ATOM     70  C   UNL A   1      39.695  34.318  41.154  1.00  0.00     0.198 A 
ATOM     71  C   UNL A   1      41.024  35.932  39.977  1.00  0.00     0.198 A 
ATOM     72  F   UNL A   1      41.535  35.607  37.707  1.00  0.00    -0.203 F 
ATOM     73  F   UNL A   1      39.068  33.926  42.272  1.00  0.00    -0.200 F 
ATOM     74  C   UNL A   1      40.400  35.513  41.142  1.00  0.00     0.200 A 
ATOM     75  F   UNL A   1      41.722  37.076  39.966  1.00  0.00    -0.200 F 
ATOM     76  F   UNL A   1      40.474  36.263  42.250  1.00  0.00    -0.200 F 
ENDBRANCH  52  66
BRANCH  53  77
ATOM     77  C   UNL A   1      39.912  28.726  30.278  1.00  0.00     0.064 A 
ATOM     78  C   UNL A   1      39.346  27.451  30.156  1.00  0.00     0.173 A 
ATOM     79  C   UNL A   1      40.468  29.304  29.125  1.00  0.00     0.173 A 
ATOM     80  F   UNL A   1      38.820  26.845  31.230  1.00  0.00    -0.203 F 
ATOM     81  C   UNL A   1      39.357  26.773  28.938  1.00  0.00     0.198 A 
ATOM     82  C   UNL A   1      40.439  28.644  27.900  1.00  0.00     0.198 A 
ATOM     83  F   UNL A   1      41.022  30.525  29.182  1.00  0.00    -0.203 F 
ATOM     84  F   UNL A   1      38.862  25.530  28.863  1.00  0.00    -0.200 F 
ATOM     85  C   UNL A   1      39.895  27.372  27.810  1.00  0.00     0.200 A 
ATOM     86  F   UNL A   1      40.940  29.239  26.809  1.00  0.00    -0.200 F 
ATOM     87  F   UNL A   1      39.899  26.722  26.639  1.00  0.00    -0.200 F 
ENDBRANCH  53  77
BRANCH  65  88
ATOM     88  C   UNL A   1      44.541  29.234  35.457  1.00  0.00     0.064 A 
ATOM     89  C   UNL A   1      44.685  28.001  36.113  1.00  0.00     0.173 A 
ATOM     90  C   UNL A   1      45.702  29.861  34.977  1.00  0.00     0.173 A 
ATOM     91  F   UNL A   1      43.609  27.371  36.609  1.00  0.00    -0.203 F 
ATOM     92  C   UNL A   1      45.942  27.436  36.307  1.00  0.00     0.198 A 
ATOM     93  C   UNL A   1      46.952  29.272  35.138  1.00  0.00     0.198 A 
ATOM     94  F   UNL A   1      45.620  31.038  34.339  1.00  0.00    -0.203 F 
ATOM     95  F   UNL A   1      46.059  26.289  36.989  1.00  0.00    -0.200 F 
ATOM     96  C   UNL A   1      47.073  28.067  35.810  1.00  0.00     0.200 A 
ATOM     97  F   UNL A   1      48.042  29.874  34.641  1.00  0.00    -0.200 F 
ATOM     98  F   UNL A   1      48.281  27.515  35.988  1.00  0.00    -0.200 F 
ENDBRANCH  65  88
ENDBRANCH  39  40
ENDBRANCH  32  34
ENDBRANCH  31  32
ENDBRANCH  30  31
ENDBRANCH   1  30
TORSDOF 15
ENDMDL
