MODEL 1
REMARK VINA RESULT:     -13.0      0.000      0.000
REMARK SMILES O=C(OCCOC(=O)c1ccc(-c2c3nc(c(-c4c(F)c(F)c(F)c(F)c4F)c4ccc([nH]4)c(-c4c(F)c(F)c(F)c(F)c4F)c4nc(c(-c5c(F)c(F)c(F)c(F)c5F)c5ccc2[nH]5)C=C4)C=C3)cc1)C1=Cc2cc(Cl)c(Cl)cc2O[C@@H]1C(F)(F)F
REMARK SMILES IDX 5 1 4 2 3 3 2 4 1 5 72 6 73 7 83 8 74 9 82 10 75 11 81 12
REMARK SMILES IDX 76 13 80 14 77 15 78 16 79 17 84 18 85 19 86 20 87 21 6 22
REMARK SMILES IDX 7 23 8 24 9 25 10 26 71 27 11 28 70 29 12 30 13 31 14 32
REMARK SMILES IDX 64 33 15 34 69 35 63 36 65 37 16 38 68 39 62 40 61 41 17 43
REMARK SMILES IDX 49 44 29 45 48 46 30 47 33 48 47 49 66 50 31 51 32 52 46 54
REMARK SMILES IDX 67 55 34 56 18 57 19 58 27 59 20 60 21 61 25 62 28 63 22 64
REMARK SMILES IDX 23 65 26 66 24 67 50 68 51 69 59 70 52 71 53 72 57 73 60 74
REMARK SMILES IDX 54 75 55 76 58 77 56 78 35 79 36 80 44 81 37 82 38 83 42 84
REMARK SMILES IDX 45 85 39 86 40 87 43 88 41 89
REMARK H PARENT 65 42 33 53
REMARK Flexibility Score: inf
ROOT
ATOM      1  C   UNL A   1      31.781  31.636  26.519  1.00  0.00     0.275 C 
ENDROOT
BRANCH   1   2
ATOM      2  C   UNL A   1      31.753  30.277  25.787  1.00  0.00     0.275 C 
BRANCH   2   3
ATOM      3  O   UNL A   1      32.471  29.263  26.521  1.00  0.00    -0.459 OA
BRANCH   3   4
ATOM      4  C   UNL A   1      31.763  28.146  26.816  1.00  0.00     0.338 C 
ATOM      5  O   UNL A   1      31.406  27.859  27.949  1.00  0.00    -0.246 OA
BRANCH   4   6
ATOM      6  C   UNL A   1      31.539  27.257  25.635  1.00  0.00     0.087 C 
ATOM      7  C   UNL A   1      32.705  26.794  25.148  1.00  0.00     0.027 C 
ATOM      8  C   UNL A   1      30.374  26.303  25.718  1.00  0.00     0.316 C 
ATOM      9  C   UNL A   1      33.004  25.406  25.543  1.00  0.00     0.019 A 
ATOM     10  O   UNL A   1      30.729  25.036  26.328  1.00  0.00    -0.475 OA
ATOM     11  C   UNL A   1      34.302  24.911  25.410  1.00  0.00     0.034 A 
ATOM     12  C   UNL A   1      32.036  24.643  26.206  1.00  0.00     0.129 A 
ATOM     13  C   UNL A   1      34.658  23.713  26.037  1.00  0.00     0.060 A 
ATOM     14  C   UNL A   1      32.392  23.466  26.859  1.00  0.00     0.069 A 
ATOM     15  Cl  UNL A   1      36.291  23.176  25.871  1.00  0.00    -0.083 Cl
ATOM     16  C   UNL A   1      33.714  23.015  26.801  1.00  0.00     0.063 A 
ATOM     17  Cl  UNL A   1      34.124  21.621  27.734  1.00  0.00    -0.083 Cl
BRANCH   8  18
ATOM     18  C   UNL A   1      29.650  26.127  24.379  1.00  0.00     0.430 C 
ATOM     19  F   UNL A   1      30.005  27.112  23.516  1.00  0.00    -0.167 F 
ATOM     20  F   UNL A   1      29.930  24.948  23.782  1.00  0.00    -0.167 F 
ATOM     21  F   UNL A   1      28.307  26.200  24.529  1.00  0.00    -0.167 F 
ENDBRANCH   8  18
ENDBRANCH   4   6
ENDBRANCH   3   4
ENDBRANCH   2   3
ENDBRANCH   1   2
BRANCH   1  22
ATOM     22  O   UNL A   1      32.658  31.622  27.658  1.00  0.00    -0.458 OA
BRANCH  22  23
ATOM     23  C   UNL A   1      33.487  32.696  27.730  1.00  0.00     0.338 C 
ATOM     24  O   UNL A   1      33.160  33.867  27.635  1.00  0.00    -0.246 OA
BRANCH  23  25
ATOM     25  C   UNL A   1      34.829  32.257  28.185  1.00  0.00     0.060 A 
ATOM     26  C   UNL A   1      34.969  30.912  28.543  1.00  0.00     0.016 A 
ATOM     27  C   UNL A   1      35.946  33.101  28.204  1.00  0.00     0.016 A 
ATOM     28  C   UNL A   1      36.205  30.421  28.964  1.00  0.00     0.010 A 
ATOM     29  C   UNL A   1      37.195  32.598  28.602  1.00  0.00     0.010 A 
ATOM     30  C   UNL A   1      37.325  31.262  29.023  1.00  0.00    -0.014 A 
BRANCH  30  31
ATOM     31  C   UNL A   1      38.563  30.749  29.673  1.00  0.00     0.031 A 
ATOM     32  C   UNL A   1      38.859  31.143  31.096  1.00  0.00     0.074 A 
ATOM     33  C   UNL A   1      39.361  29.857  29.056  1.00  0.00     0.049 A 
ATOM     34  N   UNL A   1      39.743  30.650  31.927  1.00  0.00    -0.248 NA
ATOM     35  C   UNL A   1      38.046  32.232  31.660  1.00  0.00     0.031 C 
ATOM     36  C   UNL A   1      39.215  29.398  27.677  1.00  0.00     0.029 A 
ATOM     37  N   UNL A   1      40.450  29.161  29.526  1.00  0.00    -0.354 N 
ATOM     38  C   UNL A   1      39.557  31.333  33.121  1.00  0.00     0.074 A 
ATOM     39  C   UNL A   1      38.542  32.335  32.883  1.00  0.00     0.031 C 
ATOM     40  C   UNL A   1      40.174  28.492  27.412  1.00  0.00     0.029 A 
ATOM     41  C   UNL A   1      40.995  28.297  28.606  1.00  0.00     0.049 A 
ATOM     42  H   UNL A   1      40.808  29.272  30.437  1.00  0.00     0.167 HD
ATOM     43  C   UNL A   1      40.145  31.123  34.322  1.00  0.00     0.037 A 
ATOM     44  C   UNL A   1      42.024  27.433  28.721  1.00  0.00     0.037 A 
ATOM     45  C   UNL A   1      41.179  30.154  34.568  1.00  0.00     0.049 A 
ATOM     46  C   UNL A   1      42.709  27.262  30.054  1.00  0.00     0.074 A 
ATOM     47  C   UNL A   1      41.837  29.873  35.753  1.00  0.00     0.029 A 
ATOM     48  N   UNL A   1      41.719  29.319  33.603  1.00  0.00    -0.354 N 
ATOM     49  N   UNL A   1      42.453  27.840  31.203  1.00  0.00    -0.248 NA
ATOM     50  C   UNL A   1      43.811  26.289  30.111  1.00  0.00     0.031 C 
ATOM     51  C   UNL A   1      42.805  28.896  35.495  1.00  0.00     0.029 A 
ATOM     52  C   UNL A   1      42.716  28.536  34.160  1.00  0.00     0.049 A 
ATOM     53  H   UNL A   1      41.435  29.286  32.660  1.00  0.00     0.167 HD
ATOM     54  C   UNL A   1      43.333  27.278  32.120  1.00  0.00     0.074 A 
ATOM     55  C   UNL A   1      44.115  26.297  31.401  1.00  0.00     0.031 C 
ATOM     56  C   UNL A   1      43.482  27.551  33.440  1.00  0.00     0.037 A 
BRANCH  43  57
ATOM     57  C   UNL A   1      39.658  31.956  35.471  1.00  0.00     0.064 A 
ATOM     58  C   UNL A   1      40.210  33.220  35.732  1.00  0.00     0.173 A 
ATOM     59  C   UNL A   1      38.631  31.500  36.308  1.00  0.00     0.173 A 
ATOM     60  F   UNL A   1      41.208  33.692  34.968  1.00  0.00    -0.203 F 
ATOM     61  C   UNL A   1      39.773  33.983  36.811  1.00  0.00     0.198 A 
ATOM     62  C   UNL A   1      38.176  32.278  37.369  1.00  0.00     0.198 A 
ATOM     63  F   UNL A   1      38.069  30.301  36.098  1.00  0.00    -0.203 F 
ATOM     64  F   UNL A   1      40.352  35.164  37.072  1.00  0.00    -0.200 F 
ATOM     65  C   UNL A   1      38.753  33.515  37.624  1.00  0.00     0.200 A 
ATOM     66  F   UNL A   1      37.186  31.829  38.151  1.00  0.00    -0.200 F 
ATOM     67  F   UNL A   1      38.333  34.250  38.663  1.00  0.00    -0.200 F 
ENDBRANCH  43  57
BRANCH  44  68
ATOM     68  C   UNL A   1      42.469  26.633  27.548  1.00  0.00     0.064 A 
ATOM     69  C   UNL A   1      41.964  25.346  27.309  1.00  0.00     0.173 A 
ATOM     70  C   UNL A   1      43.470  27.109  26.689  1.00  0.00     0.173 A 
ATOM     71  F   UNL A   1      41.026  24.834  28.121  1.00  0.00    -0.203 F 
ATOM     72  C   UNL A   1      42.471  24.552  26.283  1.00  0.00     0.198 A 
ATOM     73  C   UNL A   1      43.955  26.326  25.643  1.00  0.00     0.198 A 
ATOM     74  F   UNL A   1      43.989  28.331  26.874  1.00  0.00    -0.203 F 
ATOM     75  F   UNL A   1      42.022  23.300  26.123  1.00  0.00    -0.200 F 
ATOM     76  C   UNL A   1      43.465  25.043  25.450  1.00  0.00     0.200 A 
ATOM     77  F   UNL A   1      44.912  26.805  24.838  1.00  0.00    -0.200 F 
ATOM     78  F   UNL A   1      43.966  24.272  24.474  1.00  0.00    -0.200 F 
ENDBRANCH  44  68
BRANCH  56  79
ATOM     79  C   UNL A   1      44.506  26.757  34.202  1.00  0.00     0.064 A 
ATOM     80  C   UNL A   1      45.824  27.209  34.359  1.00  0.00     0.173 A 
ATOM     81  C   UNL A   1      44.155  25.541  34.810  1.00  0.00     0.173 A 
ATOM     82  F   UNL A   1      46.216  28.359  33.787  1.00  0.00    -0.203 F 
ATOM     83  C   UNL A   1      46.761  26.458  35.065  1.00  0.00     0.198 A 
ATOM     84  C   UNL A   1      45.085  24.810  35.544  1.00  0.00     0.198 A 
ATOM     85  F   UNL A   1      42.905  25.066  34.701  1.00  0.00    -0.203 F 
ATOM     86  F   UNL A   1      48.029  26.884  35.152  1.00  0.00    -0.200 F 
ATOM     87  C   UNL A   1      46.390  25.264  35.662  1.00  0.00     0.200 A 
ATOM     88  F   UNL A   1      44.720  23.663  36.133  1.00  0.00    -0.200 F 
ATOM     89  F   UNL A   1      47.292  24.546  36.345  1.00  0.00    -0.200 F 
ENDBRANCH  56  79
ENDBRANCH  30  31
ENDBRANCH  23  25
ENDBRANCH  22  23
ENDBRANCH   1  22
TORSDOF 12
ENDMDL
MODEL 2
REMARK VINA RESULT:     -12.9      0.209      1.624
REMARK SMILES O=C(OCCOC(=O)c1ccc(-c2c3nc(c(-c4c(F)c(F)c(F)c(F)c4F)c4ccc([nH]4)c(-c4c(F)c(F)c(F)c(F)c4F)c4nc(c(-c5c(F)c(F)c(F)c(F)c5F)c5ccc2[nH]5)C=C4)C=C3)cc1)C1=Cc2cc(Cl)c(Cl)cc2O[C@@H]1C(F)(F)F
REMARK SMILES IDX 5 1 4 2 3 3 2 4 1 5 72 6 73 7 83 8 74 9 82 10 75 11 81 12
REMARK SMILES IDX 76 13 80 14 77 15 78 16 79 17 84 18 85 19 86 20 87 21 6 22
REMARK SMILES IDX 7 23 8 24 9 25 10 26 71 27 11 28 70 29 12 30 13 31 14 32
REMARK SMILES IDX 64 33 15 34 69 35 63 36 65 37 16 38 68 39 62 40 61 41 17 43
REMARK SMILES IDX 49 44 29 45 48 46 30 47 33 48 47 49 66 50 31 51 32 52 46 54
REMARK SMILES IDX 67 55 34 56 18 57 19 58 27 59 20 60 21 61 25 62 28 63 22 64
REMARK SMILES IDX 23 65 26 66 24 67 50 68 51 69 59 70 52 71 53 72 57 73 60 74
REMARK SMILES IDX 54 75 55 76 58 77 56 78 35 79 36 80 44 81 37 82 38 83 42 84
REMARK SMILES IDX 45 85 39 86 40 87 43 88 41 89
REMARK H PARENT 65 42 33 53
REMARK Flexibility Score: inf
ROOT
ATOM      1  C   UNL A   1      31.904  31.662  26.551  1.00  0.00     0.275 C 
ENDROOT
BRANCH   1   2
ATOM      2  C   UNL A   1      31.780  30.285  25.865  1.00  0.00     0.275 C 
BRANCH   2   3
ATOM      3  O   UNL A   1      32.478  29.259  26.601  1.00  0.00    -0.459 OA
BRANCH   3   4
ATOM      4  C   UNL A   1      31.756  28.146  26.876  1.00  0.00     0.338 C 
ATOM      5  O   UNL A   1      31.384  27.851  28.002  1.00  0.00    -0.246 OA
BRANCH   4   6
ATOM      6  C   UNL A   1      31.537  27.271  25.684  1.00  0.00     0.087 C 
ATOM      7  C   UNL A   1      32.707  26.821  25.190  1.00  0.00     0.027 C 
ATOM      8  C   UNL A   1      30.379  26.307  25.756  1.00  0.00     0.316 C 
ATOM      9  C   UNL A   1      33.015  25.431  25.568  1.00  0.00     0.019 A 
ATOM     10  O   UNL A   1      30.744  25.036  26.349  1.00  0.00    -0.475 OA
ATOM     11  C   UNL A   1      34.317  24.947  25.427  1.00  0.00     0.034 A 
ATOM     12  C   UNL A   1      32.052  24.653  26.221  1.00  0.00     0.129 A 
ATOM     13  C   UNL A   1      34.681  23.743  26.039  1.00  0.00     0.060 A 
ATOM     14  C   UNL A   1      32.417  23.470  26.858  1.00  0.00     0.069 A 
ATOM     15  Cl  UNL A   1      36.317  23.219  25.866  1.00  0.00    -0.083 Cl
ATOM     16  C   UNL A   1      33.742  23.029  26.794  1.00  0.00     0.063 A 
ATOM     17  Cl  UNL A   1      34.162  21.626  27.709  1.00  0.00    -0.083 Cl
BRANCH   8  18
ATOM     18  C   UNL A   1      29.656  26.144  24.415  1.00  0.00     0.430 C 
ATOM     19  F   UNL A   1      30.014  27.135  23.560  1.00  0.00    -0.167 F 
ATOM     20  F   UNL A   1      29.934  24.969  23.808  1.00  0.00    -0.167 F 
ATOM     21  F   UNL A   1      28.313  26.220  24.564  1.00  0.00    -0.167 F 
ENDBRANCH   8  18
ENDBRANCH   4   6
ENDBRANCH   3   4
ENDBRANCH   2   3
ENDBRANCH   1   2
BRANCH   1  22
ATOM     22  O   UNL A   1      32.785  31.627  27.686  1.00  0.00    -0.458 OA
BRANCH  22  23
ATOM     23  C   UNL A   1      33.615  32.698  27.774  1.00  0.00     0.338 C 
ATOM     24  O   UNL A   1      33.292  33.870  27.671  1.00  0.00    -0.246 OA
BRANCH  23  25
ATOM     25  C   UNL A   1      34.946  32.257  28.258  1.00  0.00     0.060 A 
ATOM     26  C   UNL A   1      35.071  30.917  28.637  1.00  0.00     0.016 A 
ATOM     27  C   UNL A   1      36.068  33.095  28.286  1.00  0.00     0.016 A 
ATOM     28  C   UNL A   1      36.296  30.424  29.087  1.00  0.00     0.010 A 
ATOM     29  C   UNL A   1      37.306  32.589  28.713  1.00  0.00     0.010 A 
ATOM     30  C   UNL A   1      37.420  31.259  29.154  1.00  0.00    -0.014 A 
BRANCH  30  31
ATOM     31  C   UNL A   1      38.643  30.747  29.833  1.00  0.00     0.031 A 
ATOM     32  C   UNL A   1      38.915  31.157  31.256  1.00  0.00     0.074 A 
ATOM     33  C   UNL A   1      39.447  29.842  29.242  1.00  0.00     0.049 A 
ATOM     34  N   UNL A   1      39.781  30.669  32.109  1.00  0.00    -0.248 NA
ATOM     35  C   UNL A   1      38.099  32.257  31.792  1.00  0.00     0.031 C 
ATOM     36  C   UNL A   1      39.323  29.367  27.866  1.00  0.00     0.029 A 
ATOM     37  N   UNL A   1      40.524  29.146  29.739  1.00  0.00    -0.354 N 
ATOM     38  C   UNL A   1      39.577  31.368  33.291  1.00  0.00     0.074 A 
ATOM     39  C   UNL A   1      38.573  32.372  33.023  1.00  0.00     0.031 C 
ATOM     40  C   UNL A   1      40.282  28.453  27.629  1.00  0.00     0.029 A 
ATOM     41  C   UNL A   1      41.080  28.268  28.841  1.00  0.00     0.049 A 
ATOM     42  H   UNL A   1      40.865  29.266  30.656  1.00  0.00     0.167 HD
ATOM     43  C   UNL A   1      40.142  31.169  34.505  1.00  0.00     0.037 A 
ATOM     44  C   UNL A   1      42.101  27.400  28.985  1.00  0.00     0.037 A 
ATOM     45  C   UNL A   1      41.166  30.198  34.782  1.00  0.00     0.049 A 
ATOM     46  C   UNL A   1      42.761  27.242  30.332  1.00  0.00     0.074 A 
ATOM     47  C   UNL A   1      41.801  29.927  35.982  1.00  0.00     0.029 A 
ATOM     48  N   UNL A   1      41.718  29.347  33.837  1.00  0.00    -0.354 N 
ATOM     49  N   UNL A   1      42.488  27.835  31.469  1.00  0.00    -0.248 NA
ATOM     50  C   UNL A   1      43.856  26.263  30.422  1.00  0.00     0.031 C 
ATOM     51  C   UNL A   1      42.768  28.942  35.753  1.00  0.00     0.029 A 
ATOM     52  C   UNL A   1      42.701  28.566  34.422  1.00  0.00     0.049 A 
ATOM     53  H   UNL A   1      41.451  29.305  32.890  1.00  0.00     0.167 HD
ATOM     54  C   UNL A   1      43.348  27.279  32.408  1.00  0.00     0.074 A 
ATOM     55  C   UNL A   1      44.137  26.285  31.716  1.00  0.00     0.031 C 
ATOM     56  C   UNL A   1      43.474  27.568  33.728  1.00  0.00     0.037 A 
BRANCH  43  57
ATOM     57  C   UNL A   1      39.640  32.019  35.635  1.00  0.00     0.064 A 
ATOM     58  C   UNL A   1      40.206  33.276  35.901  1.00  0.00     0.173 A 
ATOM     59  C   UNL A   1      38.584  31.586  36.448  1.00  0.00     0.173 A 
ATOM     60  F   UNL A   1      41.230  33.726  35.159  1.00  0.00    -0.203 F 
ATOM     61  C   UNL A   1      39.753  34.055  36.962  1.00  0.00     0.198 A 
ATOM     62  C   UNL A   1      38.115  32.380  37.491  1.00  0.00     0.198 A 
ATOM     63  F   UNL A   1      38.008  30.394  36.233  1.00  0.00    -0.203 F 
ATOM     64  F   UNL A   1      40.344  35.228  37.229  1.00  0.00    -0.200 F 
ATOM     65  C   UNL A   1      38.705  33.609  37.752  1.00  0.00     0.200 A 
ATOM     66  F   UNL A   1      37.097  31.953  38.250  1.00  0.00    -0.200 F 
ATOM     67  F   UNL A   1      38.270  34.359  38.773  1.00  0.00    -0.200 F 
ENDBRANCH  43  57
BRANCH  44  68
ATOM     68  C   UNL A   1      42.563  26.582  27.830  1.00  0.00     0.064 A 
ATOM     69  C   UNL A   1      43.545  27.057  26.948  1.00  0.00     0.173 A 
ATOM     70  C   UNL A   1      41.973  25.343  27.543  1.00  0.00     0.173 A 
ATOM     71  F   UNL A   1      44.119  28.250  27.164  1.00  0.00    -0.203 F 
ATOM     72  C   UNL A   1      43.887  26.343  25.801  1.00  0.00     0.198 A 
ATOM     73  C   UNL A   1      42.338  24.616  26.411  1.00  0.00     0.198 A 
ATOM     74  F   UNL A   1      41.028  24.845  28.353  1.00  0.00    -0.203 F 
ATOM     75  F   UNL A   1      44.775  26.855  24.936  1.00  0.00    -0.200 F 
ATOM     76  C   UNL A   1      43.285  25.123  25.534  1.00  0.00     0.200 A 
ATOM     77  F   UNL A   1      41.758  23.435  26.160  1.00  0.00    -0.200 F 
ATOM     78  F   UNL A   1      43.601  24.446  24.421  1.00  0.00    -0.200 F 
ENDBRANCH  44  68
BRANCH  56  79
ATOM     79  C   UNL A   1      44.479  26.778  34.518  1.00  0.00     0.064 A 
ATOM     80  C   UNL A   1      44.144  25.565  35.137  1.00  0.00     0.173 A 
ATOM     81  C   UNL A   1      45.806  27.225  34.631  1.00  0.00     0.173 A 
ATOM     82  F   UNL A   1      42.887  25.099  35.071  1.00  0.00    -0.203 F 
ATOM     83  C   UNL A   1      45.087  24.848  35.870  1.00  0.00     0.198 A 
ATOM     84  C   UNL A   1      46.754  26.488  35.336  1.00  0.00     0.198 A 
ATOM     85  F   UNL A   1      46.186  28.373  34.051  1.00  0.00    -0.203 F 
ATOM     86  F   UNL A   1      44.726  23.721  36.500  1.00  0.00    -0.200 F 
ATOM     87  C   UNL A   1      46.392  25.306  35.962  1.00  0.00     0.200 A 
ATOM     88  F   UNL A   1      48.019  26.924  35.411  1.00  0.00    -0.200 F 
ATOM     89  F   UNL A   1      47.299  24.611  36.663  1.00  0.00    -0.200 F 
ENDBRANCH  56  79
ENDBRANCH  30  31
ENDBRANCH  23  25
ENDBRANCH  22  23
ENDBRANCH   1  22
TORSDOF 12
ENDMDL
MODEL 3
REMARK VINA RESULT:     -12.9      0.111      1.665
REMARK SMILES O=C(OCCOC(=O)c1ccc(-c2c3nc(c(-c4c(F)c(F)c(F)c(F)c4F)c4ccc([nH]4)c(-c4c(F)c(F)c(F)c(F)c4F)c4nc(c(-c5c(F)c(F)c(F)c(F)c5F)c5ccc2[nH]5)C=C4)C=C3)cc1)C1=Cc2cc(Cl)c(Cl)cc2O[C@@H]1C(F)(F)F
REMARK SMILES IDX 5 1 4 2 3 3 2 4 1 5 72 6 73 7 83 8 74 9 82 10 75 11 81 12
REMARK SMILES IDX 76 13 80 14 77 15 78 16 79 17 84 18 85 19 86 20 87 21 6 22
REMARK SMILES IDX 7 23 8 24 9 25 10 26 71 27 11 28 70 29 12 30 13 31 14 32
REMARK SMILES IDX 64 33 15 34 69 35 63 36 65 37 16 38 68 39 62 40 61 41 17 43
REMARK SMILES IDX 49 44 29 45 48 46 30 47 33 48 47 49 66 50 31 51 32 52 46 54
REMARK SMILES IDX 67 55 34 56 18 57 19 58 27 59 20 60 21 61 25 62 28 63 22 64
REMARK SMILES IDX 23 65 26 66 24 67 50 68 51 69 59 70 52 71 53 72 57 73 60 74
REMARK SMILES IDX 54 75 55 76 58 77 56 78 35 79 36 80 44 81 37 82 38 83 42 84
REMARK SMILES IDX 45 85 39 86 40 87 43 88 41 89
REMARK H PARENT 65 42 33 53
REMARK Flexibility Score: inf
ROOT
ATOM      1  C   UNL A   1      31.901  31.753  26.517  1.00  0.00     0.275 C 
ENDROOT
BRANCH   1   2
ATOM      2  C   UNL A   1      31.613  30.344  25.955  1.00  0.00     0.275 C 
BRANCH   2   3
ATOM      3  O   UNL A   1      32.394  29.334  26.626  1.00  0.00    -0.459 OA
BRANCH   3   4
ATOM      4  C   UNL A   1      31.742  28.177  26.897  1.00  0.00     0.338 C 
ATOM      5  O   UNL A   1      31.420  27.838  28.026  1.00  0.00    -0.246 OA
BRANCH   4   6
ATOM      6  C   UNL A   1      31.535  27.318  25.692  1.00  0.00     0.087 C 
ATOM      7  C   UNL A   1      32.709  26.864  25.211  1.00  0.00     0.027 C 
ATOM      8  C   UNL A   1      30.368  26.362  25.735  1.00  0.00     0.316 C 
ATOM      9  C   UNL A   1      33.000  25.468  25.578  1.00  0.00     0.019 A 
ATOM     10  O   UNL A   1      30.714  25.082  26.319  1.00  0.00    -0.475 OA
ATOM     11  C   UNL A   1      34.300  24.975  25.452  1.00  0.00     0.034 A 
ATOM     12  C   UNL A   1      32.021  24.690  26.207  1.00  0.00     0.129 A 
ATOM     13  C   UNL A   1      34.645  23.761  26.055  1.00  0.00     0.060 A 
ATOM     14  C   UNL A   1      32.367  23.497  26.837  1.00  0.00     0.069 A 
ATOM     15  Cl  UNL A   1      36.280  23.226  25.901  1.00  0.00    -0.083 Cl
ATOM     16  C   UNL A   1      33.689  23.046  26.788  1.00  0.00     0.063 A 
ATOM     17  Cl  UNL A   1      34.084  21.630  27.693  1.00  0.00    -0.083 Cl
BRANCH   8  18
ATOM     18  C   UNL A   1      29.664  26.220  24.381  1.00  0.00     0.430 C 
ATOM     19  F   UNL A   1      28.319  26.289  24.538  1.00  0.00    -0.167 F 
ATOM     20  F   UNL A   1      30.018  27.182  23.501  1.00  0.00    -0.167 F 
ATOM     21  F   UNL A   1      29.933  25.023  23.807  1.00  0.00    -0.167 F 
ENDBRANCH   8  18
ENDBRANCH   4   6
ENDBRANCH   3   4
ENDBRANCH   2   3
ENDBRANCH   1   2
BRANCH   1  22
ATOM     22  O   UNL A   1      32.786  31.716  27.650  1.00  0.00    -0.458 OA
BRANCH  22  23
ATOM     23  C   UNL A   1      33.631  32.777  27.724  1.00  0.00     0.338 C 
ATOM     24  O   UNL A   1      33.323  33.953  27.630  1.00  0.00    -0.246 OA
BRANCH  23  25
ATOM     25  C   UNL A   1      34.966  32.316  28.182  1.00  0.00     0.060 A 
ATOM     26  C   UNL A   1      35.085  30.969  28.537  1.00  0.00     0.016 A 
ATOM     27  C   UNL A   1      36.095  33.144  28.207  1.00  0.00     0.016 A 
ATOM     28  C   UNL A   1      36.312  30.458  28.959  1.00  0.00     0.010 A 
ATOM     29  C   UNL A   1      37.335  32.621  28.607  1.00  0.00     0.010 A 
ATOM     30  C   UNL A   1      37.444  31.283  29.025  1.00  0.00    -0.014 A 
BRANCH  30  31
ATOM     31  C   UNL A   1      38.672  30.750  29.677  1.00  0.00     0.031 A 
ATOM     32  C   UNL A   1      38.968  31.133  31.102  1.00  0.00     0.074 A 
ATOM     33  C   UNL A   1      39.460  29.849  29.059  1.00  0.00     0.049 A 
ATOM     34  N   UNL A   1      39.842  30.623  31.935  1.00  0.00    -0.248 NA
ATOM     35  C   UNL A   1      38.169  32.230  31.669  1.00  0.00     0.031 C 
ATOM     36  C   UNL A   1      39.313  29.399  27.677  1.00  0.00     0.029 A 
ATOM     37  N   UNL A   1      40.538  29.136  29.529  1.00  0.00    -0.354 N 
ATOM     38  C   UNL A   1      39.661  31.303  33.132  1.00  0.00     0.074 A 
ATOM     39  C   UNL A   1      38.661  32.320  32.895  1.00  0.00     0.031 C 
ATOM     40  C   UNL A   1      40.260  28.481  27.411  1.00  0.00     0.029 A 
ATOM     41  C   UNL A   1      41.074  28.269  28.607  1.00  0.00     0.049 A 
ATOM     42  H   UNL A   1      40.894  29.238  30.442  1.00  0.00     0.167 HD
ATOM     43  C   UNL A   1      40.241  31.079  34.334  1.00  0.00     0.037 A 
ATOM     44  C   UNL A   1      42.091  27.391  28.722  1.00  0.00     0.037 A 
ATOM     45  C   UNL A   1      41.261  30.095  34.579  1.00  0.00     0.049 A 
ATOM     46  C   UNL A   1      42.769  27.204  30.057  1.00  0.00     0.074 A 
ATOM     47  C   UNL A   1      41.911  29.799  35.765  1.00  0.00     0.029 A 
ATOM     48  N   UNL A   1      41.793  29.257  33.612  1.00  0.00    -0.354 N 
ATOM     49  N   UNL A   1      42.516  27.779  31.207  1.00  0.00    -0.248 NA
ATOM     50  C   UNL A   1      43.857  26.216  30.113  1.00  0.00     0.031 C 
ATOM     51  C   UNL A   1      42.866  28.810  35.505  1.00  0.00     0.029 A 
ATOM     52  C   UNL A   1      42.778  28.457  34.169  1.00  0.00     0.049 A 
ATOM     53  H   UNL A   1      41.512  29.233  32.668  1.00  0.00     0.167 HD
ATOM     54  C   UNL A   1      43.385  27.201  32.125  1.00  0.00     0.074 A 
ATOM     55  C   UNL A   1      44.156  26.212  31.404  1.00  0.00     0.031 C 
ATOM     56  C   UNL A   1      43.533  27.466  33.447  1.00  0.00     0.037 A 
BRANCH  43  57
ATOM     57  C   UNL A   1      39.762  31.913  35.485  1.00  0.00     0.064 A 
ATOM     58  C   UNL A   1      38.716  31.473  36.311  1.00  0.00     0.173 A 
ATOM     59  C   UNL A   1      40.353  33.151  35.773  1.00  0.00     0.173 A 
ATOM     60  F   UNL A   1      38.109  30.301  36.065  1.00  0.00    -0.203 F 
ATOM     61  C   UNL A   1      38.258  32.257  37.366  1.00  0.00     0.198 A 
ATOM     62  C   UNL A   1      39.910  33.921  36.846  1.00  0.00     0.198 A 
ATOM     63  F   UNL A   1      41.357  33.614  35.015  1.00  0.00    -0.203 F 
ATOM     64  F   UNL A   1      37.223  31.839  38.108  1.00  0.00    -0.200 F 
ATOM     65  C   UNL A   1      38.859  33.477  37.635  1.00  0.00     0.200 A 
ATOM     66  F   UNL A   1      40.496  35.096  37.111  1.00  0.00    -0.200 F 
ATOM     67  F   UNL A   1      38.417  34.232  38.651  1.00  0.00    -0.200 F 
ENDBRANCH  43  57
BRANCH  44  68
ATOM     68  C   UNL A   1      42.530  26.589  27.547  1.00  0.00     0.064 A 
ATOM     69  C   UNL A   1      41.998  25.317  27.293  1.00  0.00     0.173 A 
ATOM     70  C   UNL A   1      43.549  27.050  26.701  1.00  0.00     0.173 A 
ATOM     71  F   UNL A   1      41.041  24.820  28.091  1.00  0.00    -0.203 F 
ATOM     72  C   UNL A   1      42.497  24.520  26.264  1.00  0.00     0.198 A 
ATOM     73  C   UNL A   1      44.027  26.264  25.654  1.00  0.00     0.198 A 
ATOM     74  F   UNL A   1      44.094  28.259  26.902  1.00  0.00    -0.203 F 
ATOM     75  F   UNL A   1      42.022  23.279  26.090  1.00  0.00    -0.200 F 
ATOM     76  C   UNL A   1      43.510  24.994  25.445  1.00  0.00     0.200 A 
ATOM     77  F   UNL A   1      45.002  26.729  24.861  1.00  0.00    -0.200 F 
ATOM     78  F   UNL A   1      44.003  24.220  24.468  1.00  0.00    -0.200 F 
ENDBRANCH  44  68
BRANCH  56  79
ATOM     79  C   UNL A   1      44.542  26.655  34.208  1.00  0.00     0.064 A 
ATOM     80  C   UNL A   1      44.211  25.424  34.794  1.00  0.00     0.173 A 
ATOM     81  C   UNL A   1      45.869  27.099  34.328  1.00  0.00     0.173 A 
ATOM     82  F   UNL A   1      42.954  24.958  34.720  1.00  0.00    -0.203 F 
ATOM     83  C   UNL A   1      45.158  24.686  35.501  1.00  0.00     0.198 A 
ATOM     84  C   UNL A   1      46.821  26.343  35.006  1.00  0.00     0.198 A 
ATOM     85  F   UNL A   1      46.245  28.264  33.780  1.00  0.00    -0.203 F 
ATOM     86  F   UNL A   1      44.802  23.542  36.100  1.00  0.00    -0.200 F 
ATOM     87  C   UNL A   1      46.463  25.143  35.600  1.00  0.00     0.200 A 
ATOM     88  F   UNL A   1      48.086  26.779  35.088  1.00  0.00    -0.200 F 
ATOM     89  F   UNL A   1      47.374  24.429  36.276  1.00  0.00    -0.200 F 
ENDBRANCH  56  79
ENDBRANCH  30  31
ENDBRANCH  23  25
ENDBRANCH  22  23
ENDBRANCH   1  22
TORSDOF 12
ENDMDL
