MODEL 1
REMARK VINA RESULT:     -13.3      0.000      0.000
REMARK SMILES CC1=C(C)C[C@@H](C(=O)OCCOC(=O)c2ccc(-c3c4nc(c(-c5c(F)c(F)c(F)c(F)c5F)c5ccc([nH]5)c(-c5c(F)c(F)c(F)c(F)c5F)c5nc(c(-c6c(F)c(F)c(F)c(F)c6F)c6ccc3[nH]6)C=C5)C=C4)cc2)[C@@H](C(=O)N2CCN(c3cccc(C(F)(F)F)c3)CC2)C1
REMARK SMILES IDX 10 1 9 2 7 3 8 4 6 5 1 6 2 7 3 8 97 9 4 10 5 11 78 12 79 13
REMARK SMILES IDX 80 14 81 15 82 16 96 17 83 18 95 19 84 20 85 21 86 22 94 23
REMARK SMILES IDX 87 24 89 25 88 26 90 27 91 28 92 29 93 30 11 31 12 32 13 33
REMARK SMILES IDX 14 34 15 35 16 36 77 37 17 38 76 39 18 40 19 41 20 42 70 43
REMARK SMILES IDX 21 44 75 45 69 46 71 47 22 48 74 49 68 50 67 51 23 53 55 54
REMARK SMILES IDX 35 55 54 56 36 57 39 58 53 59 72 60 37 61 38 62 52 64 73 65
REMARK SMILES IDX 40 66 24 67 25 68 33 69 26 70 27 71 31 72 34 73 28 74 29 75
REMARK SMILES IDX 32 76 30 77 56 78 57 79 65 80 58 81 59 82 63 83 66 84 60 85
REMARK SMILES IDX 61 86 64 87 62 88 41 89 42 90 50 91 43 92 44 93 48 94 51 95
REMARK SMILES IDX 45 96 46 97 49 98 47 99
REMARK H PARENT 71 52 39 63
REMARK Flexibility Score: inf
ROOT
ATOM      1  C   UNL A   1      35.997  22.180  25.808  1.00  0.00     0.274 C 
ENDROOT
BRANCH   1   2
ATOM      2  O   UNL A   1      35.112  21.470  26.714  1.00  0.00    -0.462 OA
BRANCH   2   3
ATOM      3  C   UNL A   1      33.806  21.772  26.722  1.00  0.00     0.310 C 
ATOM      4  O   UNL A   1      33.307  22.566  27.516  1.00  0.00    -0.252 OA
BRANCH   3   5
ATOM      5  C   UNL A   1      32.935  20.992  25.734  1.00  0.00     0.116 C 
ATOM      6  C   UNL A   1      32.569  18.533  22.035  1.00  0.00     0.039 C 
ATOM      7  C   UNL A   1      32.670  19.253  23.355  1.00  0.00    -0.074 C 
ATOM      8  C   UNL A   1      33.443  18.828  24.372  1.00  0.00    -0.073 C 
ATOM      9  C   UNL A   1      31.787  20.472  23.500  1.00  0.00     0.045 C 
ATOM     10  C   UNL A   1      34.267  17.564  24.367  1.00  0.00     0.039 C 
ATOM     11  C   UNL A   1      33.534  19.577  25.667  1.00  0.00     0.046 C 
ATOM     12  C   UNL A   1      32.317  21.577  24.437  1.00  0.00     0.097 C 
BRANCH  12  13
ATOM     13  C   UNL A   1      32.934  22.671  23.550  1.00  0.00     0.227 C 
ATOM     14  O   UNL A   1      33.930  22.442  22.859  1.00  0.00    -0.275 OA
ATOM     15  N   UNL A   1      32.515  23.952  23.748  1.00  0.00    -0.339 N 
ATOM     16  C   UNL A   1      31.748  24.623  22.724  1.00  0.00     0.141 C 
ATOM     17  C   UNL A   1      33.184  24.896  24.631  1.00  0.00     0.141 C 
ATOM     18  C   UNL A   1      30.548  25.236  23.445  1.00  0.00     0.138 C 
ATOM     19  C   UNL A   1      32.141  25.800  25.332  1.00  0.00     0.138 C 
ATOM     20  N   UNL A   1      31.029  26.204  24.442  1.00  0.00    -0.368 N 
BRANCH  20  21
ATOM     21  C   UNL A   1      30.713  27.509  24.142  1.00  0.00     0.037 A 
ATOM     22  C   UNL A   1      31.487  28.537  24.699  1.00  0.00     0.026 A 
ATOM     23  C   UNL A   1      29.552  27.841  23.447  1.00  0.00     0.039 A 
ATOM     24  C   UNL A   1      31.108  29.869  24.584  1.00  0.00     0.003 A 
ATOM     25  C   UNL A   1      29.138  29.178  23.347  1.00  0.00     0.058 A 
ATOM     26  C   UNL A   1      29.932  30.188  23.914  1.00  0.00     0.013 A 
BRANCH  25  27
ATOM     27  C   UNL A   1      27.845  29.527  22.661  1.00  0.00     0.416 C 
ATOM     28  F   UNL A   1      27.308  30.691  23.123  1.00  0.00    -0.166 F 
ATOM     29  F   UNL A   1      27.997  29.690  21.319  1.00  0.00    -0.166 F 
ATOM     30  F   UNL A   1      26.874  28.585  22.818  1.00  0.00    -0.166 F 
ENDBRANCH  25  27
ENDBRANCH  20  21
ENDBRANCH  12  13
ENDBRANCH   3   5
ENDBRANCH   2   3
ENDBRANCH   1   2
BRANCH   1  31
ATOM     31  C   UNL A   1      37.124  21.257  25.327  1.00  0.00     0.275 C 
BRANCH  31  32
ATOM     32  O   UNL A   1      38.369  21.960  25.349  1.00  0.00    -0.458 OA
BRANCH  32  33
ATOM     33  C   UNL A   1      39.229  21.563  26.314  1.00  0.00     0.338 C 
ATOM     34  O   UNL A   1      39.559  20.433  26.617  1.00  0.00    -0.246 OA
BRANCH  33  35
ATOM     35  C   UNL A   1      39.908  22.762  26.785  1.00  0.00     0.060 A 
ATOM     36  C   UNL A   1      40.885  22.638  27.778  1.00  0.00     0.016 A 
ATOM     37  C   UNL A   1      39.624  23.982  26.182  1.00  0.00     0.016 A 
ATOM     38  C   UNL A   1      41.626  23.739  28.157  1.00  0.00     0.010 A 
ATOM     39  C   UNL A   1      40.365  25.085  26.558  1.00  0.00     0.010 A 
ATOM     40  C   UNL A   1      41.368  24.960  27.536  1.00  0.00    -0.014 A 
BRANCH  40  41
ATOM     41  C   UNL A   1      42.101  26.166  27.930  1.00  0.00     0.031 A 
ATOM     42  C   UNL A   1      41.360  27.202  28.703  1.00  0.00     0.074 A 
ATOM     43  C   UNL A   1      43.354  26.335  27.481  1.00  0.00     0.049 A 
ATOM     44  N   UNL A   1      41.666  28.450  28.913  1.00  0.00    -0.248 NA
ATOM     45  C   UNL A   1      40.070  26.783  29.279  1.00  0.00     0.031 C 
ATOM     46  C   UNL A   1      44.132  25.337  26.745  1.00  0.00     0.029 A 
ATOM     47  N   UNL A   1      44.175  27.427  27.541  1.00  0.00    -0.354 N 
ATOM     48  C   UNL A   1      40.590  28.978  29.611  1.00  0.00     0.074 A 
ATOM     49  C   UNL A   1      39.611  27.926  29.764  1.00  0.00     0.031 C 
ATOM     50  C   UNL A   1      45.312  25.874  26.396  1.00  0.00     0.029 A 
ATOM     51  C   UNL A   1      45.338  27.265  26.833  1.00  0.00     0.049 A 
ATOM     52  H   UNL A   1      43.953  28.245  28.041  1.00  0.00     0.167 HD
ATOM     53  C   UNL A   1      40.451  30.241  30.071  1.00  0.00     0.037 A 
ATOM     54  C   UNL A   1      46.286  28.168  26.536  1.00  0.00     0.037 A 
ATOM     55  C   UNL A   1      41.461  31.249  29.889  1.00  0.00     0.049 A 
ATOM     56  C   UNL A   1      46.091  29.576  27.033  1.00  0.00     0.074 A 
ATOM     57  C   UNL A   1      41.465  32.560  30.323  1.00  0.00     0.029 A 
ATOM     58  N   UNL A   1      42.655  31.044  29.205  1.00  0.00    -0.354 N 
ATOM     59  N   UNL A   1      45.083  30.083  27.703  1.00  0.00    -0.248 NA
ATOM     60  C   UNL A   1      47.160  30.533  26.734  1.00  0.00     0.031 C 
ATOM     61  C   UNL A   1      42.637  33.163  29.855  1.00  0.00     0.029 A 
ATOM     62  C   UNL A   1      43.398  32.211  29.190  1.00  0.00     0.049 A 
ATOM     63  H   UNL A   1      42.930  30.194  28.792  1.00  0.00     0.167 HD
ATOM     64  C   UNL A   1      45.410  31.409  27.942  1.00  0.00     0.074 A 
ATOM     65  C   UNL A   1      46.716  31.622  27.348  1.00  0.00     0.031 C 
ATOM     66  C   UNL A   1      44.704  32.366  28.595  1.00  0.00     0.037 A 
BRANCH  53  67
ATOM     67  C   UNL A   1      39.168  30.590  30.768  1.00  0.00     0.064 A 
ATOM     68  C   UNL A   1      39.025  30.477  32.160  1.00  0.00     0.173 A 
ATOM     69  C   UNL A   1      38.061  31.038  30.033  1.00  0.00     0.173 A 
ATOM     70  F   UNL A   1      40.044  30.032  32.911  1.00  0.00    -0.203 F 
ATOM     71  C   UNL A   1      37.814  30.770  32.784  1.00  0.00     0.198 A 
ATOM     72  C   UNL A   1      36.863  31.363  30.663  1.00  0.00     0.198 A 
ATOM     73  F   UNL A   1      38.138  31.158  28.699  1.00  0.00    -0.203 F 
ATOM     74  F   UNL A   1      37.685  30.595  34.106  1.00  0.00    -0.200 F 
ATOM     75  C   UNL A   1      36.737  31.219  32.036  1.00  0.00     0.200 A 
ATOM     76  F   UNL A   1      35.826  31.808  29.940  1.00  0.00    -0.200 F 
ATOM     77  F   UNL A   1      35.574  31.506  32.638  1.00  0.00    -0.200 F 
ENDBRANCH  53  67
BRANCH  54  78
ATOM     78  C   UNL A   1      47.478  27.769  25.744  1.00  0.00     0.064 A 
ATOM     79  C   UNL A   1      47.435  27.762  24.344  1.00  0.00     0.173 A 
ATOM     80  C   UNL A   1      48.687  27.411  26.359  1.00  0.00     0.173 A 
ATOM     81  F   UNL A   1      46.299  28.088  23.708  1.00  0.00    -0.203 F 
ATOM     82  C   UNL A   1      48.545  27.391  23.589  1.00  0.00     0.198 A 
ATOM     83  C   UNL A   1      49.808  27.070  25.603  1.00  0.00     0.198 A 
ATOM     84  F   UNL A   1      48.789  27.411  27.696  1.00  0.00    -0.203 F 
ATOM     85  F   UNL A   1      48.462  27.352  22.252  1.00  0.00    -0.200 F 
ATOM     86  C   UNL A   1      49.733  27.051  24.219  1.00  0.00     0.200 A 
ATOM     87  F   UNL A   1      50.959  26.762  26.215  1.00  0.00    -0.200 F 
ATOM     88  F   UNL A   1      50.803  26.701  23.492  1.00  0.00    -0.200 F 
ENDBRANCH  54  78
BRANCH  66  89
ATOM     89  C   UNL A   1      45.363  33.704  28.750  1.00  0.00     0.064 A 
ATOM     90  C   UNL A   1      46.217  33.989  29.824  1.00  0.00     0.173 A 
ATOM     91  C   UNL A   1      45.173  34.694  27.774  1.00  0.00     0.173 A 
ATOM     92  F   UNL A   1      46.417  33.078  30.789  1.00  0.00    -0.203 F 
ATOM     93  C   UNL A   1      46.838  35.230  29.929  1.00  0.00     0.198 A 
ATOM     94  C   UNL A   1      45.824  35.918  27.862  1.00  0.00     0.198 A 
ATOM     95  F   UNL A   1      44.370  34.464  26.723  1.00  0.00    -0.203 F 
ATOM     96  F   UNL A   1      47.610  35.502  30.990  1.00  0.00    -0.200 F 
ATOM     97  C   UNL A   1      46.650  36.188  28.943  1.00  0.00     0.200 A 
ATOM     98  F   UNL A   1      45.657  36.835  26.900  1.00  0.00    -0.200 F 
ATOM     99  F   UNL A   1      47.260  37.377  29.040  1.00  0.00    -0.200 F 
ENDBRANCH  66  89
ENDBRANCH  40  41
ENDBRANCH  33  35
ENDBRANCH  32  33
ENDBRANCH  31  32
ENDBRANCH   1  31
TORSDOF 14
ENDMDL
MODEL 2
REMARK VINA RESULT:     -13.3      5.181     10.714
REMARK SMILES CC1=C(C)C[C@@H](C(=O)OCCOC(=O)c2ccc(-c3c4nc(c(-c5c(F)c(F)c(F)c(F)c5F)c5ccc([nH]5)c(-c5c(F)c(F)c(F)c(F)c5F)c5nc(c(-c6c(F)c(F)c(F)c(F)c6F)c6ccc3[nH]6)C=C5)C=C4)cc2)[C@@H](C(=O)N2CCN(c3cccc(C(F)(F)F)c3)CC2)C1
REMARK SMILES IDX 10 1 9 2 7 3 8 4 6 5 1 6 2 7 3 8 97 9 4 10 5 11 78 12 79 13
REMARK SMILES IDX 80 14 81 15 82 16 96 17 83 18 95 19 84 20 85 21 86 22 94 23
REMARK SMILES IDX 87 24 89 25 88 26 90 27 91 28 92 29 93 30 11 31 12 32 13 33
REMARK SMILES IDX 14 34 15 35 16 36 77 37 17 38 76 39 18 40 19 41 20 42 70 43
REMARK SMILES IDX 21 44 75 45 69 46 71 47 22 48 74 49 68 50 67 51 23 53 55 54
REMARK SMILES IDX 35 55 54 56 36 57 39 58 53 59 72 60 37 61 38 62 52 64 73 65
REMARK SMILES IDX 40 66 24 67 25 68 33 69 26 70 27 71 31 72 34 73 28 74 29 75
REMARK SMILES IDX 32 76 30 77 56 78 57 79 65 80 58 81 59 82 63 83 66 84 60 85
REMARK SMILES IDX 61 86 64 87 62 88 41 89 42 90 50 91 43 92 44 93 48 94 51 95
REMARK SMILES IDX 45 96 46 97 49 98 47 99
REMARK H PARENT 71 52 39 63
REMARK Flexibility Score: inf
ROOT
ATOM      1  C   UNL A   1      32.917  31.308  27.256  1.00  0.00     0.274 C 
ENDROOT
BRANCH   1   2
ATOM      2  O   UNL A   1      32.033  30.485  26.451  1.00  0.00    -0.462 OA
BRANCH   2   3
ATOM      3  C   UNL A   1      32.563  29.625  25.570  1.00  0.00     0.310 C 
ATOM      4  O   UNL A   1      33.686  29.142  25.698  1.00  0.00    -0.252 OA
BRANCH   3   5
ATOM      5  C   UNL A   1      31.719  29.341  24.325  1.00  0.00     0.116 C 
ATOM      6  C   UNL A   1      27.730  28.704  22.443  1.00  0.00     0.039 C 
ATOM      7  C   UNL A   1      29.081  29.039  23.019  1.00  0.00    -0.074 C 
ATOM      8  C   UNL A   1      29.348  30.194  23.656  1.00  0.00    -0.073 C 
ATOM      9  C   UNL A   1      30.163  28.008  22.783  1.00  0.00     0.045 C 
ATOM     10  C   UNL A   1      28.374  31.331  23.838  1.00  0.00     0.039 C 
ATOM     11  C   UNL A   1      30.700  30.489  24.233  1.00  0.00     0.046 C 
ATOM     12  C   UNL A   1      31.265  27.933  23.859  1.00  0.00     0.097 C 
BRANCH  12  13
ATOM     13  C   UNL A   1      30.935  26.737  24.769  1.00  0.00     0.227 C 
ATOM     14  O   UNL A   1      29.925  26.739  25.478  1.00  0.00    -0.275 OA
ATOM     15  N   UNL A   1      31.911  25.808  24.964  1.00  0.00    -0.339 N 
ATOM     16  C   UNL A   1      31.748  24.473  24.436  1.00  0.00     0.141 C 
ATOM     17  C   UNL A   1      32.850  25.840  26.077  1.00  0.00     0.141 C 
ATOM     18  C   UNL A   1      33.056  24.155  23.713  1.00  0.00     0.138 C 
ATOM     19  C   UNL A   1      34.239  25.336  25.615  1.00  0.00     0.138 C 
ATOM     20  N   UNL A   1      34.162  24.191  24.681  1.00  0.00    -0.368 N 
BRANCH  20  21
ATOM     21  C   UNL A   1      34.729  22.960  24.917  1.00  0.00     0.037 A 
ATOM     22  C   UNL A   1      36.117  22.880  25.105  1.00  0.00     0.026 A 
ATOM     23  C   UNL A   1      33.996  21.781  24.804  1.00  0.00     0.039 A 
ATOM     24  C   UNL A   1      36.767  21.654  25.162  1.00  0.00     0.003 A 
ATOM     25  C   UNL A   1      34.640  20.535  24.829  1.00  0.00     0.058 A 
ATOM     26  C   UNL A   1      36.031  20.483  25.018  1.00  0.00     0.013 A 
BRANCH  25  27
ATOM     27  C   UNL A   1      33.856  19.266  24.630  1.00  0.00     0.416 C 
ATOM     28  F   UNL A   1      34.656  18.196  24.360  1.00  0.00    -0.166 F 
ATOM     29  F   UNL A   1      33.133  18.925  25.732  1.00  0.00    -0.166 F 
ATOM     30  F   UNL A   1      32.965  19.331  23.601  1.00  0.00    -0.166 F 
ENDBRANCH  25  27
ENDBRANCH  20  21
ENDBRANCH  12  13
ENDBRANCH   3   5
ENDBRANCH   2   3
ENDBRANCH   1   2
BRANCH   1  31
ATOM     31  C   UNL A   1      32.529  32.787  27.136  1.00  0.00     0.275 C 
BRANCH  31  32
ATOM     32  O   UNL A   1      32.351  33.349  28.438  1.00  0.00    -0.458 OA
BRANCH  32  33
ATOM     33  C   UNL A   1      33.065  34.474  28.675  1.00  0.00     0.338 C 
ATOM     34  O   UNL A   1      32.714  35.632  28.562  1.00  0.00    -0.246 OA
BRANCH  33  35
ATOM     35  C   UNL A   1      34.287  34.057  29.348  1.00  0.00     0.060 A 
ATOM     36  C   UNL A   1      34.195  33.155  30.414  1.00  0.00     0.016 A 
ATOM     37  C   UNL A   1      35.512  34.503  28.866  1.00  0.00     0.016 A 
ATOM     38  C   UNL A   1      35.344  32.652  30.991  1.00  0.00     0.010 A 
ATOM     39  C   UNL A   1      36.663  33.999  29.440  1.00  0.00     0.010 A 
ATOM     40  C   UNL A   1      36.576  33.070  30.493  1.00  0.00    -0.014 A 
BRANCH  40  41
ATOM     41  C   UNL A   1      37.824  32.595  31.097  1.00  0.00     0.031 A 
ATOM     42  C   UNL A   1      38.551  31.495  30.402  1.00  0.00     0.074 A 
ATOM     43  C   UNL A   1      38.189  33.080  32.293  1.00  0.00     0.049 A 
ATOM     44  N   UNL A   1      39.484  30.709  30.855  1.00  0.00    -0.248 NA
ATOM     45  C   UNL A   1      38.132  31.213  29.018  1.00  0.00     0.031 C 
ATOM     46  C   UNL A   1      37.525  34.178  33.000  1.00  0.00     0.029 A 
ATOM     47  N   UNL A   1      39.181  32.682  33.144  1.00  0.00    -0.354 N 
ATOM     48  C   UNL A   1      39.739  29.812  29.828  1.00  0.00     0.074 A 
ATOM     49  C   UNL A   1      38.842  30.132  28.739  1.00  0.00     0.031 C 
ATOM     50  C   UNL A   1      38.114  34.347  34.194  1.00  0.00     0.029 A 
ATOM     51  C   UNL A   1      39.149  33.333  34.351  1.00  0.00     0.049 A 
ATOM     52  H   UNL A   1      39.850  31.998  32.913  1.00  0.00     0.167 HD
ATOM     53  C   UNL A   1      40.646  28.811  29.818  1.00  0.00     0.037 A 
ATOM     54  C   UNL A   1      39.851  33.087  35.469  1.00  0.00     0.037 A 
ATOM     55  C   UNL A   1      41.513  28.539  30.933  1.00  0.00     0.049 A 
ATOM     56  C   UNL A   1      40.831  31.945  35.442  1.00  0.00     0.074 A 
ATOM     57  C   UNL A   1      42.494  27.575  31.053  1.00  0.00     0.029 A 
ATOM     58  N   UNL A   1      41.491  29.246  32.132  1.00  0.00    -0.354 N 
ATOM     59  N   UNL A   1      41.088  31.098  34.472  1.00  0.00    -0.248 NA
ATOM     60  C   UNL A   1      41.618  31.724  36.659  1.00  0.00     0.031 C 
ATOM     61  C   UNL A   1      43.028  27.664  32.343  1.00  0.00     0.029 A 
ATOM     62  C   UNL A   1      42.431  28.728  33.004  1.00  0.00     0.049 A 
ATOM     63  H   UNL A   1      40.893  30.003  32.329  1.00  0.00     0.167 HD
ATOM     64  C   UNL A   1      42.092  30.267  34.944  1.00  0.00     0.074 A 
ATOM     65  C   UNL A   1      42.400  30.719  36.288  1.00  0.00     0.031 C 
ATOM     66  C   UNL A   1      42.709  29.227  34.329  1.00  0.00     0.037 A 
BRANCH  53  67
ATOM     67  C   UNL A   1      40.709  27.941  28.597  1.00  0.00     0.064 A 
ATOM     68  C   UNL A   1      41.485  28.286  27.479  1.00  0.00     0.173 A 
ATOM     69  C   UNL A   1      39.977  26.746  28.539  1.00  0.00     0.173 A 
ATOM     70  F   UNL A   1      42.188  29.429  27.470  1.00  0.00    -0.203 F 
ATOM     71  C   UNL A   1      41.500  27.484  26.340  1.00  0.00     0.198 A 
ATOM     72  C   UNL A   1      40.021  25.929  27.413  1.00  0.00     0.198 A 
ATOM     73  F   UNL A   1      39.212  26.370  29.575  1.00  0.00    -0.203 F 
ATOM     74  F   UNL A   1      42.200  27.867  25.263  1.00  0.00    -0.200 F 
ATOM     75  C   UNL A   1      40.775  26.304  26.310  1.00  0.00     0.200 A 
ATOM     76  F   UNL A   1      39.328  24.783  27.390  1.00  0.00    -0.200 F 
ATOM     77  F   UNL A   1      40.795  25.529  25.216  1.00  0.00    -0.200 F 
ENDBRANCH  53  67
BRANCH  54  78
ATOM     78  C   UNL A   1      39.651  33.927  36.678  1.00  0.00     0.064 A 
ATOM     79  C   UNL A   1      40.268  35.180  36.786  1.00  0.00     0.173 A 
ATOM     80  C   UNL A   1      38.826  33.515  37.735  1.00  0.00     0.173 A 
ATOM     81  F   UNL A   1      41.074  35.616  35.807  1.00  0.00    -0.203 F 
ATOM     82  C   UNL A   1      40.088  35.979  37.914  1.00  0.00     0.198 A 
ATOM     83  C   UNL A   1      38.620  34.328  38.848  1.00  0.00     0.198 A 
ATOM     84  F   UNL A   1      38.199  32.331  37.679  1.00  0.00    -0.203 F 
ATOM     85  F   UNL A   1      40.725  37.153  38.009  1.00  0.00    -0.200 F 
ATOM     86  C   UNL A   1      39.258  35.555  38.941  1.00  0.00     0.200 A 
ATOM     87  F   UNL A   1      37.802  33.924  39.830  1.00  0.00    -0.200 F 
ATOM     88  F   UNL A   1      39.080  36.327  40.022  1.00  0.00    -0.200 F 
ENDBRANCH  54  78
BRANCH  66  89
ATOM     89  C   UNL A   1      43.818  28.558  35.085  1.00  0.00     0.064 A 
ATOM     90  C   UNL A   1      45.149  28.987  34.983  1.00  0.00     0.173 A 
ATOM     91  C   UNL A   1      43.528  27.504  35.965  1.00  0.00     0.173 A 
ATOM     92  F   UNL A   1      45.476  29.981  34.143  1.00  0.00    -0.203 F 
ATOM     93  C   UNL A   1      46.155  28.366  35.716  1.00  0.00     0.198 A 
ATOM     94  C   UNL A   1      44.530  26.911  36.724  1.00  0.00     0.198 A 
ATOM     95  F   UNL A   1      42.268  27.065  36.103  1.00  0.00    -0.203 F 
ATOM     96  F   UNL A   1      47.428  28.755  35.565  1.00  0.00    -0.200 F 
ATOM     97  C   UNL A   1      45.843  27.337  36.593  1.00  0.00     0.200 A 
ATOM     98  F   UNL A   1      44.224  25.932  37.585  1.00  0.00    -0.200 F 
ATOM     99  F   UNL A   1      46.812  26.750  37.308  1.00  0.00    -0.200 F 
ENDBRANCH  66  89
ENDBRANCH  40  41
ENDBRANCH  33  35
ENDBRANCH  32  33
ENDBRANCH  31  32
ENDBRANCH   1  31
TORSDOF 14
ENDMDL
MODEL 3
REMARK VINA RESULT:     -13.2      5.083     10.598
REMARK SMILES CC1=C(C)C[C@@H](C(=O)OCCOC(=O)c2ccc(-c3c4nc(c(-c5c(F)c(F)c(F)c(F)c5F)c5ccc([nH]5)c(-c5c(F)c(F)c(F)c(F)c5F)c5nc(c(-c6c(F)c(F)c(F)c(F)c6F)c6ccc3[nH]6)C=C5)C=C4)cc2)[C@@H](C(=O)N2CCN(c3cccc(C(F)(F)F)c3)CC2)C1
REMARK SMILES IDX 10 1 9 2 7 3 8 4 6 5 1 6 2 7 3 8 97 9 4 10 5 11 78 12 79 13
REMARK SMILES IDX 80 14 81 15 82 16 96 17 83 18 95 19 84 20 85 21 86 22 94 23
REMARK SMILES IDX 87 24 89 25 88 26 90 27 91 28 92 29 93 30 11 31 12 32 13 33
REMARK SMILES IDX 14 34 15 35 16 36 77 37 17 38 76 39 18 40 19 41 20 42 70 43
REMARK SMILES IDX 21 44 75 45 69 46 71 47 22 48 74 49 68 50 67 51 23 53 55 54
REMARK SMILES IDX 35 55 54 56 36 57 39 58 53 59 72 60 37 61 38 62 52 64 73 65
REMARK SMILES IDX 40 66 24 67 25 68 33 69 26 70 27 71 31 72 34 73 28 74 29 75
REMARK SMILES IDX 32 76 30 77 56 78 57 79 65 80 58 81 59 82 63 83 66 84 60 85
REMARK SMILES IDX 61 86 64 87 62 88 41 89 42 90 50 91 43 92 44 93 48 94 51 95
REMARK SMILES IDX 45 96 46 97 49 98 47 99
REMARK H PARENT 71 52 39 63
REMARK Flexibility Score: inf
ROOT
ATOM      1  C   UNL A   1      32.896  31.047  27.205  1.00  0.00     0.274 C 
ENDROOT
BRANCH   1   2
ATOM      2  O   UNL A   1      32.041  30.137  26.464  1.00  0.00    -0.462 OA
BRANCH   2   3
ATOM      3  C   UNL A   1      32.575  29.387  25.489  1.00  0.00     0.310 C 
ATOM      4  O   UNL A   1      33.722  28.947  25.534  1.00  0.00    -0.252 OA
BRANCH   3   5
ATOM      5  C   UNL A   1      31.699  29.178  24.253  1.00  0.00     0.116 C 
ATOM      6  C   UNL A   1      27.654  28.772  22.426  1.00  0.00     0.039 C 
ATOM      7  C   UNL A   1      29.028  29.030  22.987  1.00  0.00    -0.074 C 
ATOM      8  C   UNL A   1      29.355  30.152  23.654  1.00  0.00    -0.073 C 
ATOM      9  C   UNL A   1      30.060  27.963  22.698  1.00  0.00     0.045 C 
ATOM     10  C   UNL A   1      28.433  31.323  23.891  1.00  0.00     0.039 C 
ATOM     11  C   UNL A   1      30.728  30.371  24.215  1.00  0.00     0.046 C 
ATOM     12  C   UNL A   1      31.177  27.807  23.751  1.00  0.00     0.097 C 
BRANCH  12  13
ATOM     13  C   UNL A   1      30.811  26.598  24.629  1.00  0.00     0.227 C 
ATOM     14  O   UNL A   1      29.768  26.583  25.287  1.00  0.00    -0.275 OA
ATOM     15  N   UNL A   1      31.784  25.673  24.861  1.00  0.00    -0.339 N 
ATOM     16  C   UNL A   1      31.658  24.344  24.311  1.00  0.00     0.141 C 
ATOM     17  C   UNL A   1      32.667  25.699  26.020  1.00  0.00     0.141 C 
ATOM     18  C   UNL A   1      33.003  24.044  23.650  1.00  0.00     0.138 C 
ATOM     19  C   UNL A   1      34.080  25.211  25.622  1.00  0.00     0.138 C 
ATOM     20  N   UNL A   1      34.059  24.077  24.672  1.00  0.00    -0.368 N 
BRANCH  20  21
ATOM     21  C   UNL A   1      34.624  22.847  24.921  1.00  0.00     0.037 A 
ATOM     22  C   UNL A   1      36.007  22.770  25.137  1.00  0.00     0.026 A 
ATOM     23  C   UNL A   1      33.895  21.667  24.795  1.00  0.00     0.039 A 
ATOM     24  C   UNL A   1      36.659  21.545  25.209  1.00  0.00     0.003 A 
ATOM     25  C   UNL A   1      34.541  20.422  24.835  1.00  0.00     0.058 A 
ATOM     26  C   UNL A   1      35.928  20.373  25.052  1.00  0.00     0.013 A 
BRANCH  25  27
ATOM     27  C   UNL A   1      33.764  19.151  24.624  1.00  0.00     0.416 C 
ATOM     28  F   UNL A   1      32.916  18.881  25.656  1.00  0.00    -0.166 F 
ATOM     29  F   UNL A   1      32.991  19.197  23.505  1.00  0.00    -0.166 F 
ATOM     30  F   UNL A   1      34.550  18.047  24.492  1.00  0.00    -0.166 F 
ENDBRANCH  25  27
ENDBRANCH  20  21
ENDBRANCH  12  13
ENDBRANCH   3   5
ENDBRANCH   2   3
ENDBRANCH   1   2
BRANCH   1  31
ATOM     31  C   UNL A   1      32.219  32.415  27.355  1.00  0.00     0.275 C 
BRANCH  31  32
ATOM     32  O   UNL A   1      33.208  33.448  27.356  1.00  0.00    -0.458 OA
BRANCH  32  33
ATOM     33  C   UNL A   1      33.260  34.184  28.490  1.00  0.00     0.338 C 
ATOM     34  O   UNL A   1      32.397  34.889  28.976  1.00  0.00    -0.246 OA
BRANCH  33  35
ATOM     35  C   UNL A   1      34.474  33.787  29.188  1.00  0.00     0.060 A 
ATOM     36  C   UNL A   1      34.394  32.792  30.168  1.00  0.00     0.016 A 
ATOM     37  C   UNL A   1      35.688  34.348  28.808  1.00  0.00     0.016 A 
ATOM     38  C   UNL A   1      35.545  32.313  30.760  1.00  0.00     0.010 A 
ATOM     39  C   UNL A   1      36.842  33.869  29.397  1.00  0.00     0.010 A 
ATOM     40  C   UNL A   1      36.769  32.849  30.364  1.00  0.00    -0.014 A 
BRANCH  40  41
ATOM     41  C   UNL A   1      38.016  32.401  30.989  1.00  0.00     0.031 A 
ATOM     42  C   UNL A   1      38.772  31.307  30.315  1.00  0.00     0.074 A 
ATOM     43  C   UNL A   1      38.355  32.904  32.185  1.00  0.00     0.049 A 
ATOM     44  N   UNL A   1      39.713  30.543  30.788  1.00  0.00    -0.248 NA
ATOM     45  C   UNL A   1      38.377  31.005  28.928  1.00  0.00     0.031 C 
ATOM     46  C   UNL A   1      37.662  33.996  32.872  1.00  0.00     0.029 A 
ATOM     47  N   UNL A   1      39.342  32.531  33.054  1.00  0.00    -0.354 N 
ATOM     48  C   UNL A   1      39.997  29.641  29.774  1.00  0.00     0.074 A 
ATOM     49  C   UNL A   1      39.110  29.934  28.670  1.00  0.00     0.031 C 
ATOM     50  C   UNL A   1      38.231  34.187  34.073  1.00  0.00     0.029 A 
ATOM     51  C   UNL A   1      39.281  33.192  34.255  1.00  0.00     0.049 A 
ATOM     52  H   UNL A   1      40.026  31.856  32.840  1.00  0.00     0.167 HD
ATOM     53  C   UNL A   1      40.922  28.656  29.786  1.00  0.00     0.037 A 
ATOM     54  C   UNL A   1      39.972  32.969  35.384  1.00  0.00     0.037 A 
ATOM     55  C   UNL A   1      41.778  28.410  30.915  1.00  0.00     0.049 A 
ATOM     56  C   UNL A   1      40.973  31.845  35.382  1.00  0.00     0.074 A 
ATOM     57  C   UNL A   1      42.774  27.464  31.058  1.00  0.00     0.029 A 
ATOM     58  N   UNL A   1      41.726  29.127  32.107  1.00  0.00    -0.354 N 
ATOM     59  N   UNL A   1      41.257  30.994  34.424  1.00  0.00    -0.248 NA
ATOM     60  C   UNL A   1      41.746  31.649  36.612  1.00  0.00     0.031 C 
ATOM     61  C   UNL A   1      43.288  27.574  32.355  1.00  0.00     0.029 A 
ATOM     62  C   UNL A   1      42.662  28.634  32.997  1.00  0.00     0.049 A 
ATOM     63  H   UNL A   1      41.112  29.875  32.289  1.00  0.00     0.167 HD
ATOM     64  C   UNL A   1      42.269  30.185  34.918  1.00  0.00     0.074 A 
ATOM     65  C   UNL A   1      42.551  30.655  36.261  1.00  0.00     0.031 C 
ATOM     66  C   UNL A   1      42.913  29.151  34.321  1.00  0.00     0.037 A 
BRANCH  53  67
ATOM     67  C   UNL A   1      41.017  27.776  28.575  1.00  0.00     0.064 A 
ATOM     68  C   UNL A   1      40.269  26.593  28.454  1.00  0.00     0.173 A 
ATOM     69  C   UNL A   1      41.874  28.115  27.518  1.00  0.00     0.173 A 
ATOM     70  F   UNL A   1      39.450  26.208  29.444  1.00  0.00    -0.203 F 
ATOM     71  C   UNL A   1      40.401  25.771  27.338  1.00  0.00     0.198 A 
ATOM     72  C   UNL A   1      41.977  27.309  26.387  1.00  0.00     0.198 A 
ATOM     73  F   UNL A   1      42.618  29.230  27.581  1.00  0.00    -0.203 F 
ATOM     74  F   UNL A   1      39.722  24.617  27.276  1.00  0.00    -0.200 F 
ATOM     75  C   UNL A   1      41.248  26.132  26.303  1.00  0.00     0.200 A 
ATOM     76  F   UNL A   1      42.789  27.666  25.383  1.00  0.00    -0.200 F 
ATOM     77  F   UNL A   1      41.369  25.343  25.226  1.00  0.00    -0.200 F 
ENDBRANCH  53  67
BRANCH  54  78
ATOM     78  C   UNL A   1      39.740  33.817  36.582  1.00  0.00     0.064 A 
ATOM     79  C   UNL A   1      38.870  33.398  37.596  1.00  0.00     0.173 A 
ATOM     80  C   UNL A   1      40.394  35.046  36.754  1.00  0.00     0.173 A 
ATOM     81  F   UNL A   1      38.213  32.235  37.474  1.00  0.00    -0.203 F 
ATOM     82  C   UNL A   1      38.644  34.183  38.725  1.00  0.00     0.198 A 
ATOM     83  C   UNL A   1      40.193  35.817  37.898  1.00  0.00     0.198 A 
ATOM     84  F   UNL A   1      41.248  35.492  35.821  1.00  0.00    -0.203 F 
ATOM     85  F   UNL A   1      37.773  33.776  39.658  1.00  0.00    -0.200 F 
ATOM     86  C   UNL A   1      39.311  35.389  38.878  1.00  0.00     0.200 A 
ATOM     87  F   UNL A   1      40.854  36.972  38.052  1.00  0.00    -0.200 F 
ATOM     88  F   UNL A   1      39.099  36.140  39.968  1.00  0.00    -0.200 F 
ENDBRANCH  54  78
BRANCH  66  89
ATOM     89  C   UNL A   1      44.023  28.508  35.099  1.00  0.00     0.064 A 
ATOM     90  C   UNL A   1      43.803  27.392  35.918  1.00  0.00     0.173 A 
ATOM     91  C   UNL A   1      45.335  28.990  34.975  1.00  0.00     0.173 A 
ATOM     92  F   UNL A   1      42.564  26.904  36.079  1.00  0.00    -0.203 F 
ATOM     93  C   UNL A   1      44.856  26.797  36.607  1.00  0.00     0.198 A 
ATOM     94  C   UNL A   1      46.389  28.371  35.635  1.00  0.00     0.198 A 
ATOM     95  F   UNL A   1      45.595  30.051  34.195  1.00  0.00    -0.203 F 
ATOM     96  F   UNL A   1      44.617  25.764  37.427  1.00  0.00    -0.200 F 
ATOM     97  C   UNL A   1      46.148  27.280  36.457  1.00  0.00     0.200 A 
ATOM     98  F   UNL A   1      47.639  28.826  35.473  1.00  0.00    -0.200 F 
ATOM     99  F   UNL A   1      47.161  26.697  37.111  1.00  0.00    -0.200 F 
ENDBRANCH  66  89
ENDBRANCH  40  41
ENDBRANCH  33  35
ENDBRANCH  32  33
ENDBRANCH  31  32
ENDBRANCH   1  31
TORSDOF 14
ENDMDL
