MODEL 1
REMARK VINA RESULT:     -13.5      0.000      0.000
REMARK SMILES CC(=O)[NH+]1CCC2(CC1)C[C@H](C(=O)OCCOC(=O)c1ccc(-c3c4nc(c(-c5c(F)c(F)c(F)c(F)c5F)c5ccc([nH]5)c(-c5c(F)c(F)c(F)c(F)c5F)c5nc(c(-c6c(F)c(F)c(F)c(F)c6F)c6ccc3[nH]6)C=C5)C=C4)cc1)[N@H+](Cc1ncc[nH]1)C2
REMARK SMILES IDX 15 1 14 2 12 3 13 4 11 5 4 6 5 7 9 8 6 10 8 11 7 12 10 13
REMARK SMILES IDX 90 14 83 15 2 17 1 18 3 19 84 20 85 21 86 22 89 23 87 24
REMARK SMILES IDX 88 25 16 27 17 28 18 29 19 30 20 31 21 32 82 33 22 34 81 35
REMARK SMILES IDX 23 36 24 37 25 38 75 39 26 40 80 41 74 42 76 43 27 44 79 45
REMARK SMILES IDX 73 46 72 47 28 49 60 50 40 51 59 52 41 53 44 54 58 55 77 56
REMARK SMILES IDX 42 57 43 58 57 60 78 61 45 62 29 63 30 64 38 65 31 66 32 67
REMARK SMILES IDX 36 68 39 69 33 70 34 71 37 72 35 73 61 74 62 75 70 76 63 77
REMARK SMILES IDX 64 78 68 79 71 80 65 81 66 82 69 83 67 84 46 85 47 86 55 87
REMARK SMILES IDX 48 88 49 89 53 90 56 91 50 92 51 93 54 94 52 95
REMARK H PARENT 4 9 83 16 89 26 76 48 44 59
REMARK Flexibility Score: inf
ROOT
ATOM      1  C   UNL A   1      31.271  27.093  26.861  1.00  0.00     0.274 C 
ENDROOT
BRANCH   1   2
ATOM      2  O   UNL A   1      31.132  26.085  25.836  1.00  0.00    -0.458 OA
BRANCH   2   3
ATOM      3  C   UNL A   1      31.636  24.843  26.128  1.00  0.00     0.365 C 
ATOM      4  O   UNL A   1      31.437  24.254  27.183  1.00  0.00    -0.245 OA
BRANCH   3   5
ATOM      5  C   UNL A   1      32.655  24.405  25.062  1.00  0.00     0.296 C 
ATOM      6  N   UNL A   1      37.153  21.469  24.811  1.00  0.00    -0.272 N 
ATOM      7  C   UNL A   1      35.942  21.128  25.522  1.00  0.00     0.270 C 
ATOM      8  C   UNL A   1      37.019  22.447  23.723  1.00  0.00     0.270 C 
ATOM      9  H   UNL A   1      37.467  20.766  24.198  1.00  0.00     0.356 HD
ATOM     10  C   UNL A   1      35.366  22.440  26.021  1.00  0.00     0.075 C 
ATOM     11  C   UNL A   1      36.185  23.691  24.109  1.00  0.00     0.075 C 
ATOM     12  C   UNL A   1      34.882  23.331  24.868  1.00  0.00     0.036 C 
ATOM     13  C   UNL A   1      34.136  24.550  25.458  1.00  0.00     0.091 C 
ATOM     14  C   UNL A   1      33.817  22.705  23.936  1.00  0.00     0.270 C 
ATOM     15  N   UNL A   1      32.497  23.070  24.450  1.00  0.00    -0.316 N 
ATOM     16  H   UNL A   1      31.809  23.154  23.702  1.00  0.00     0.349 HD
BRANCH   6  17
ATOM     17  C   UNL A   1      38.316  20.882  25.272  1.00  0.00     0.308 C 
ATOM     18  C   UNL A   1      39.191  21.738  26.139  1.00  0.00     0.164 C 
ATOM     19  O   UNL A   1      38.543  19.677  25.149  1.00  0.00    -0.231 OA
ENDBRANCH   6  17
BRANCH  15  20
ATOM     20  C   UNL A   1      31.742  22.023  25.141  1.00  0.00     0.339 C 
BRANCH  20  21
ATOM     21  C   UNL A   1      32.182  20.610  24.934  1.00  0.00     0.161 A 
ATOM     22  N   UNL A   1      32.156  19.919  23.809  1.00  0.00    -0.236 NA
ATOM     23  N   UNL A   1      32.682  19.832  25.956  1.00  0.00    -0.344 N 
ATOM     24  C   UNL A   1      32.534  18.638  24.140  1.00  0.00     0.131 A 
ATOM     25  C   UNL A   1      32.860  18.564  25.473  1.00  0.00     0.104 A 
ATOM     26  H   UNL A   1      32.877  20.135  26.872  1.00  0.00     0.167 HD
ENDBRANCH  20  21
ENDBRANCH  15  20
ENDBRANCH   3   5
ENDBRANCH   2   3
ENDBRANCH   1   2
BRANCH   1  27
ATOM     27  C   UNL A   1      31.637  28.435  26.223  1.00  0.00     0.275 C 
BRANCH  27  28
ATOM     28  O   UNL A   1      32.010  29.338  27.279  1.00  0.00    -0.458 OA
BRANCH  28  29
ATOM     29  C   UNL A   1      32.620  30.500  26.941  1.00  0.00     0.338 C 
ATOM     30  O   UNL A   1      32.087  31.497  26.489  1.00  0.00    -0.246 OA
BRANCH  29  31
ATOM     31  C   UNL A   1      34.064  30.424  27.306  1.00  0.00     0.060 A 
ATOM     32  C   UNL A   1      34.731  29.210  27.288  1.00  0.00     0.016 A 
ATOM     33  C   UNL A   1      34.743  31.540  27.804  1.00  0.00     0.016 A 
ATOM     34  C   UNL A   1      35.986  29.093  27.894  1.00  0.00     0.010 A 
ATOM     35  C   UNL A   1      36.043  31.410  28.351  1.00  0.00     0.010 A 
ATOM     36  C   UNL A   1      36.662  30.156  28.508  1.00  0.00    -0.014 A 
BRANCH  36  37
ATOM     37  C   UNL A   1      37.867  29.932  29.421  1.00  0.00     0.031 A 
ATOM     38  C   UNL A   1      39.147  29.320  28.865  1.00  0.00     0.074 A 
ATOM     39  C   UNL A   1      37.975  30.381  30.699  1.00  0.00     0.049 A 
ATOM     40  N   UNL A   1      40.133  28.731  29.504  1.00  0.00    -0.248 NA
ATOM     41  C   UNL A   1      39.352  29.368  27.408  1.00  0.00     0.031 C 
ATOM     42  C   UNL A   1      36.974  31.132  31.450  1.00  0.00     0.029 A 
ATOM     43  N   UNL A   1      39.048  30.340  31.577  1.00  0.00    -0.354 N 
ATOM     44  C   UNL A   1      40.960  28.187  28.528  1.00  0.00     0.074 A 
ATOM     45  C   UNL A   1      40.417  28.591  27.250  1.00  0.00     0.031 C 
ATOM     46  C   UNL A   1      37.531  31.643  32.559  1.00  0.00     0.029 A 
ATOM     47  C   UNL A   1      38.855  31.063  32.735  1.00  0.00     0.049 A 
ATOM     48  H   UNL A   1      39.873  29.839  31.391  1.00  0.00     0.167 HD
ATOM     49  C   UNL A   1      42.047  27.393  28.688  1.00  0.00     0.037 A 
ATOM     50  C   UNL A   1      39.599  31.191  33.856  1.00  0.00     0.037 A 
ATOM     51  C   UNL A   1      42.707  27.149  29.946  1.00  0.00     0.049 A 
ATOM     52  C   UNL A   1      40.816  30.325  34.039  1.00  0.00     0.074 A 
ATOM     53  C   UNL A   1      43.779  26.314  30.220  1.00  0.00     0.029 A 
ATOM     54  N   UNL A   1      42.408  27.805  31.127  1.00  0.00    -0.354 N 
ATOM     55  N   UNL A   1      41.413  29.540  33.180  1.00  0.00    -0.248 NA
ATOM     56  C   UNL A   1      41.411  30.297  35.387  1.00  0.00     0.031 C 
ATOM     57  C   UNL A   1      44.122  26.459  31.570  1.00  0.00     0.029 A 
ATOM     58  C   UNL A   1      43.283  27.409  32.126  1.00  0.00     0.049 A 
ATOM     59  H   UNL A   1      41.680  28.459  31.242  1.00  0.00     0.167 HD
ATOM     60  C   UNL A   1      42.424  28.902  33.888  1.00  0.00     0.074 A 
ATOM     61  C   UNL A   1      42.403  29.433  35.233  1.00  0.00     0.031 C 
ATOM     62  C   UNL A   1      43.268  27.931  33.465  1.00  0.00     0.037 A 
BRANCH  49  63
ATOM     63  C   UNL A   1      42.550  26.640  27.492  1.00  0.00     0.064 A 
ATOM     64  C   UNL A   1      43.559  27.120  26.651  1.00  0.00     0.173 A 
ATOM     65  C   UNL A   1      42.035  25.355  27.235  1.00  0.00     0.173 A 
ATOM     66  F   UNL A   1      44.072  28.344  26.843  1.00  0.00    -0.203 F 
ATOM     67  C   UNL A   1      44.026  26.350  25.585  1.00  0.00     0.198 A 
ATOM     68  C   UNL A   1      42.525  24.578  26.190  1.00  0.00     0.198 A 
ATOM     69  F   UNL A   1      41.072  24.844  28.016  1.00  0.00    -0.203 F 
ATOM     70  F   UNL A   1      44.968  26.843  24.769  1.00  0.00    -0.200 F 
ATOM     71  C   UNL A   1      43.516  25.079  25.362  1.00  0.00     0.200 A 
ATOM     72  F   UNL A   1      42.040  23.345  25.989  1.00  0.00    -0.200 F 
ATOM     73  F   UNL A   1      43.979  24.336  24.346  1.00  0.00    -0.200 F 
ENDBRANCH  49  63
BRANCH  50  74
ATOM     74  C   UNL A   1      39.154  32.078  34.972  1.00  0.00     0.064 A 
ATOM     75  C   UNL A   1      39.512  33.434  35.001  1.00  0.00     0.173 A 
ATOM     76  C   UNL A   1      38.404  31.587  36.053  1.00  0.00     0.173 A 
ATOM     77  F   UNL A   1      40.279  33.944  34.025  1.00  0.00    -0.203 F 
ATOM     78  C   UNL A   1      39.134  34.260  36.060  1.00  0.00     0.198 A 
ATOM     79  C   UNL A   1      37.985  32.423  37.084  1.00  0.00     0.198 A 
ATOM     80  F   UNL A   1      38.065  30.290  36.103  1.00  0.00    -0.203 F 
ATOM     81  F   UNL A   1      39.540  35.537  36.090  1.00  0.00    -0.200 F 
ATOM     82  C   UNL A   1      38.357  33.757  37.092  1.00  0.00     0.200 A 
ATOM     83  F   UNL A   1      37.225  31.931  38.072  1.00  0.00    -0.200 F 
ATOM     84  F   UNL A   1      37.980  34.554  38.101  1.00  0.00    -0.200 F 
ENDBRANCH  50  74
BRANCH  62  85
ATOM     85  C   UNL A   1      44.240  27.374  34.461  1.00  0.00     0.064 A 
ATOM     86  C   UNL A   1      43.932  26.232  35.216  1.00  0.00     0.173 A 
ATOM     87  C   UNL A   1      45.500  27.962  34.644  1.00  0.00     0.173 A 
ATOM     88  F   UNL A   1      42.734  25.641  35.089  1.00  0.00    -0.203 F 
ATOM     89  C   UNL A   1      44.841  25.713  36.135  1.00  0.00     0.198 A 
ATOM     90  C   UNL A   1      46.415  27.427  35.547  1.00  0.00     0.198 A 
ATOM     91  F   UNL A   1      45.845  29.053  33.943  1.00  0.00    -0.203 F 
ATOM     92  F   UNL A   1      44.510  24.645  36.873  1.00  0.00    -0.200 F 
ATOM     93  C   UNL A   1      46.084  26.307  36.296  1.00  0.00     0.200 A 
ATOM     94  F   UNL A   1      47.619  27.998  35.697  1.00  0.00    -0.200 F 
ATOM     95  F   UNL A   1      46.959  25.807  37.178  1.00  0.00    -0.200 F 
ENDBRANCH  62  85
ENDBRANCH  36  37
ENDBRANCH  29  31
ENDBRANCH  28  29
ENDBRANCH  27  28
ENDBRANCH   1  27
TORSDOF 14
ENDMDL
MODEL 2
REMARK VINA RESULT:     -13.4      1.437      3.312
REMARK SMILES CC(=O)[NH+]1CCC2(CC1)C[C@H](C(=O)OCCOC(=O)c1ccc(-c3c4nc(c(-c5c(F)c(F)c(F)c(F)c5F)c5ccc([nH]5)c(-c5c(F)c(F)c(F)c(F)c5F)c5nc(c(-c6c(F)c(F)c(F)c(F)c6F)c6ccc3[nH]6)C=C5)C=C4)cc1)[N@H+](Cc1ncc[nH]1)C2
REMARK SMILES IDX 15 1 14 2 12 3 13 4 11 5 4 6 5 7 9 8 6 10 8 11 7 12 10 13
REMARK SMILES IDX 90 14 83 15 2 17 1 18 3 19 84 20 85 21 86 22 89 23 87 24
REMARK SMILES IDX 88 25 16 27 17 28 18 29 19 30 20 31 21 32 82 33 22 34 81 35
REMARK SMILES IDX 23 36 24 37 25 38 75 39 26 40 80 41 74 42 76 43 27 44 79 45
REMARK SMILES IDX 73 46 72 47 28 49 60 50 40 51 59 52 41 53 44 54 58 55 77 56
REMARK SMILES IDX 42 57 43 58 57 60 78 61 45 62 29 63 30 64 38 65 31 66 32 67
REMARK SMILES IDX 36 68 39 69 33 70 34 71 37 72 35 73 61 74 62 75 70 76 63 77
REMARK SMILES IDX 64 78 68 79 71 80 65 81 66 82 69 83 67 84 46 85 47 86 55 87
REMARK SMILES IDX 48 88 49 89 53 90 56 91 50 92 51 93 54 94 52 95
REMARK H PARENT 4 9 83 16 89 26 76 48 44 59
REMARK Flexibility Score: inf
ROOT
ATOM      1  C   UNL A   1      31.826  28.032  27.229  1.00  0.00     0.274 C 
ENDROOT
BRANCH   1   2
ATOM      2  O   UNL A   1      32.564  27.009  26.526  1.00  0.00    -0.458 OA
BRANCH   2   3
ATOM      3  C   UNL A   1      31.964  25.780  26.429  1.00  0.00     0.365 C 
ATOM      4  O   UNL A   1      30.804  25.557  26.755  1.00  0.00    -0.245 OA
BRANCH   3   5
ATOM      5  C   UNL A   1      32.997  24.696  26.082  1.00  0.00     0.296 C 
ATOM      6  N   UNL A   1      33.016  19.646  24.234  1.00  0.00    -0.272 N 
ATOM      7  C   UNL A   1      32.215  20.741  23.736  1.00  0.00     0.270 C 
ATOM      8  C   UNL A   1      34.223  20.009  24.987  1.00  0.00     0.270 C 
ATOM      9  H   UNL A   1      33.535  19.183  23.538  1.00  0.00     0.356 HD
ATOM     10  C   UNL A   1      31.882  21.600  24.942  1.00  0.00     0.075 C 
ATOM     11  C   UNL A   1      33.983  21.103  26.053  1.00  0.00     0.075 C 
ATOM     12  C   UNL A   1      33.129  22.283  25.522  1.00  0.00     0.036 C 
ATOM     13  C   UNL A   1      32.686  23.284  26.614  1.00  0.00     0.091 C 
ATOM     14  C   UNL A   1      33.919  23.182  24.542  1.00  0.00     0.270 C 
ATOM     15  N   UNL A   1      33.409  24.547  24.671  1.00  0.00    -0.316 N 
ATOM     16  H   UNL A   1      34.133  25.242  24.487  1.00  0.00     0.349 HD
BRANCH   6  17
ATOM     17  C   UNL A   1      32.524  18.376  23.999  1.00  0.00     0.308 C 
ATOM     18  C   UNL A   1      32.831  17.786  22.655  1.00  0.00     0.164 C 
ATOM     19  O   UNL A   1      32.030  17.682  24.890  1.00  0.00    -0.231 OA
ENDBRANCH   6  17
BRANCH  15  20
ATOM     20  C   UNL A   1      32.547  25.037  23.593  1.00  0.00     0.339 C 
BRANCH  20  21
ATOM     21  C   UNL A   1      32.876  26.373  23.007  1.00  0.00     0.161 A 
ATOM     22  N   UNL A   1      33.812  26.650  22.118  1.00  0.00    -0.236 NA
ATOM     23  N   UNL A   1      32.205  27.523  23.363  1.00  0.00    -0.344 N 
ATOM     24  C   UNL A   1      33.821  28.020  21.989  1.00  0.00     0.131 A 
ATOM     25  C   UNL A   1      32.831  28.580  22.760  1.00  0.00     0.104 A 
ATOM     26  H   UNL A   1      31.414  27.575  23.946  1.00  0.00     0.167 HD
ENDBRANCH  20  21
ENDBRANCH  15  20
ENDBRANCH   3   5
ENDBRANCH   2   3
ENDBRANCH   1   2
BRANCH   1  27
ATOM     27  C   UNL A   1      31.604  29.236  26.310  1.00  0.00     0.275 C 
BRANCH  27  28
ATOM     28  O   UNL A   1      32.877  29.871  26.098  1.00  0.00    -0.458 OA
BRANCH  28  29
ATOM     29  C   UNL A   1      33.230  30.886  26.923  1.00  0.00     0.338 C 
ATOM     30  O   UNL A   1      32.503  31.765  27.348  1.00  0.00    -0.246 OA
BRANCH  29  31
ATOM     31  C   UNL A   1      34.652  30.714  27.337  1.00  0.00     0.060 A 
ATOM     32  C   UNL A   1      35.230  29.455  27.360  1.00  0.00     0.016 A 
ATOM     33  C   UNL A   1      35.394  31.786  27.840  1.00  0.00     0.016 A 
ATOM     34  C   UNL A   1      36.454  29.259  28.009  1.00  0.00     0.010 A 
ATOM     35  C   UNL A   1      36.663  31.573  28.431  1.00  0.00     0.010 A 
ATOM     36  C   UNL A   1      37.185  30.281  28.629  1.00  0.00    -0.014 A 
BRANCH  36  37
ATOM     37  C   UNL A   1      38.341  29.988  29.584  1.00  0.00     0.031 A 
ATOM     38  C   UNL A   1      39.605  29.306  29.072  1.00  0.00     0.074 A 
ATOM     39  C   UNL A   1      38.427  30.427  30.867  1.00  0.00     0.049 A 
ATOM     40  N   UNL A   1      40.532  28.662  29.745  1.00  0.00    -0.248 NA
ATOM     41  C   UNL A   1      39.865  29.346  27.624  1.00  0.00     0.031 C 
ATOM     42  C   UNL A   1      37.443  31.231  31.584  1.00  0.00     0.029 A 
ATOM     43  N   UNL A   1      39.462  30.324  31.784  1.00  0.00    -0.354 N 
ATOM     44  C   UNL A   1      41.363  28.075  28.796  1.00  0.00     0.074 A 
ATOM     45  C   UNL A   1      40.890  28.512  27.502  1.00  0.00     0.031 C 
ATOM     46  C   UNL A   1      37.986  31.707  32.715  1.00  0.00     0.029 A 
ATOM     47  C   UNL A   1      39.268  31.054  32.936  1.00  0.00     0.049 A 
ATOM     48  H   UNL A   1      40.265  29.778  31.626  1.00  0.00     0.167 HD
ATOM     49  C   UNL A   1      42.397  27.221  28.993  1.00  0.00     0.037 A 
ATOM     50  C   UNL A   1      39.976  31.137  34.085  1.00  0.00     0.037 A 
ATOM     51  C   UNL A   1      42.995  26.937  30.274  1.00  0.00     0.049 A 
ATOM     52  C   UNL A   1      41.135  30.204  34.309  1.00  0.00     0.074 A 
ATOM     53  C   UNL A   1      44.008  26.043  30.582  1.00  0.00     0.029 A 
ATOM     54  N   UNL A   1      42.690  27.606  31.446  1.00  0.00    -0.354 N 
ATOM     55  N   UNL A   1      41.719  29.388  33.469  1.00  0.00    -0.248 NA
ATOM     56  C   UNL A   1      41.677  30.140  35.677  1.00  0.00     0.031 C 
ATOM     57  C   UNL A   1      44.308  26.165  31.945  1.00  0.00     0.029 A 
ATOM     58  C   UNL A   1      43.505  27.159  32.474  1.00  0.00     0.049 A 
ATOM     59  H   UNL A   1      41.996  28.299  31.536  1.00  0.00     0.167 HD
ATOM     60  C   UNL A   1      42.665  28.693  34.210  1.00  0.00     0.074 A 
ATOM     61  C   UNL A   1      42.625  29.222  35.556  1.00  0.00     0.031 C 
ATOM     62  C   UNL A   1      43.469  27.678  33.814  1.00  0.00     0.037 A 
BRANCH  49  63
ATOM     63  C   UNL A   1      42.900  26.444  27.812  1.00  0.00     0.064 A 
ATOM     64  C   UNL A   1      42.369  25.210  27.422  1.00  0.00     0.173 A 
ATOM     65  C   UNL A   1      43.910  27.009  27.010  1.00  0.00     0.173 A 
ATOM     66  F   UNL A   1      41.417  24.621  28.161  1.00  0.00    -0.203 F 
ATOM     67  C   UNL A   1      42.840  24.560  26.281  1.00  0.00     0.198 A 
ATOM     68  C   UNL A   1      44.355  26.372  25.856  1.00  0.00     0.198 A 
ATOM     69  F   UNL A   1      44.446  28.195  27.335  1.00  0.00    -0.203 F 
ATOM     70  F   UNL A   1      42.344  23.361  25.945  1.00  0.00    -0.200 F 
ATOM     71  C   UNL A   1      43.823  25.145  25.496  1.00  0.00     0.200 A 
ATOM     72  F   UNL A   1      45.293  26.949  25.092  1.00  0.00    -0.200 F 
ATOM     73  F   UNL A   1      44.261  24.524  24.391  1.00  0.00    -0.200 F 
ENDBRANCH  49  63
BRANCH  50  74
ATOM     74  C   UNL A   1      39.541  32.045  35.188  1.00  0.00     0.064 A 
ATOM     75  C   UNL A   1      38.682  31.588  36.199  1.00  0.00     0.173 A 
ATOM     76  C   UNL A   1      39.933  33.392  35.235  1.00  0.00     0.173 A 
ATOM     77  F   UNL A   1      38.227  30.327  36.172  1.00  0.00    -0.203 F 
ATOM     78  C   UNL A   1      38.240  32.440  37.212  1.00  0.00     0.198 A 
ATOM     79  C   UNL A   1      39.531  34.228  36.273  1.00  0.00     0.198 A 
ATOM     80  F   UNL A   1      40.721  33.898  34.275  1.00  0.00    -0.203 F 
ATOM     81  F   UNL A   1      37.373  31.994  38.131  1.00  0.00    -0.200 F 
ATOM     82  C   UNL A   1      38.678  33.755  37.257  1.00  0.00     0.200 A 
ATOM     83  F   UNL A   1      39.968  35.494  36.315  1.00  0.00    -0.200 F 
ATOM     84  F   UNL A   1      38.266  34.569  38.238  1.00  0.00    -0.200 F 
ENDBRANCH  50  74
BRANCH  62  85
ATOM     85  C   UNL A   1      44.371  27.064  34.843  1.00  0.00     0.064 A 
ATOM     86  C   UNL A   1      45.653  27.580  35.085  1.00  0.00     0.173 A 
ATOM     87  C   UNL A   1      43.945  25.974  35.615  1.00  0.00     0.173 A 
ATOM     88  F   UNL A   1      46.113  28.612  34.362  1.00  0.00    -0.203 F 
ATOM     89  C   UNL A   1      46.484  27.012  36.047  1.00  0.00     0.198 A 
ATOM     90  C   UNL A   1      44.770  25.423  36.592  1.00  0.00     0.198 A 
ATOM     91  F   UNL A   1      42.725  25.447  35.426  1.00  0.00    -0.203 F 
ATOM     92  F   UNL A   1      47.720  27.497  36.234  1.00  0.00    -0.200 F 
ATOM     93  C   UNL A   1      46.040  25.938  36.804  1.00  0.00     0.200 A 
ATOM     94  F   UNL A   1      44.337  24.389  37.328  1.00  0.00    -0.200 F 
ATOM     95  F   UNL A   1      46.840  25.393  37.731  1.00  0.00    -0.200 F 
ENDBRANCH  62  85
ENDBRANCH  36  37
ENDBRANCH  29  31
ENDBRANCH  28  29
ENDBRANCH  27  28
ENDBRANCH   1  27
TORSDOF 14
ENDMDL
MODEL 3
REMARK VINA RESULT:     -13.3      1.342      2.626
REMARK SMILES CC(=O)[NH+]1CCC2(CC1)C[C@H](C(=O)OCCOC(=O)c1ccc(-c3c4nc(c(-c5c(F)c(F)c(F)c(F)c5F)c5ccc([nH]5)c(-c5c(F)c(F)c(F)c(F)c5F)c5nc(c(-c6c(F)c(F)c(F)c(F)c6F)c6ccc3[nH]6)C=C5)C=C4)cc1)[N@H+](Cc1ncc[nH]1)C2
REMARK SMILES IDX 15 1 14 2 12 3 13 4 11 5 4 6 5 7 9 8 6 10 8 11 7 12 10 13
REMARK SMILES IDX 90 14 83 15 2 17 1 18 3 19 84 20 85 21 86 22 89 23 87 24
REMARK SMILES IDX 88 25 16 27 17 28 18 29 19 30 20 31 21 32 82 33 22 34 81 35
REMARK SMILES IDX 23 36 24 37 25 38 75 39 26 40 80 41 74 42 76 43 27 44 79 45
REMARK SMILES IDX 73 46 72 47 28 49 60 50 40 51 59 52 41 53 44 54 58 55 77 56
REMARK SMILES IDX 42 57 43 58 57 60 78 61 45 62 29 63 30 64 38 65 31 66 32 67
REMARK SMILES IDX 36 68 39 69 33 70 34 71 37 72 35 73 61 74 62 75 70 76 63 77
REMARK SMILES IDX 64 78 68 79 71 80 65 81 66 82 69 83 67 84 46 85 47 86 55 87
REMARK SMILES IDX 48 88 49 89 53 90 56 91 50 92 51 93 54 94 52 95
REMARK H PARENT 4 9 83 16 89 26 76 48 44 59
REMARK Flexibility Score: inf
ROOT
ATOM      1  C   UNL A   1      31.774  27.880  27.252  1.00  0.00     0.274 C 
ENDROOT
BRANCH   1   2
ATOM      2  O   UNL A   1      32.556  26.904  26.530  1.00  0.00    -0.458 OA
BRANCH   2   3
ATOM      3  C   UNL A   1      31.974  25.677  26.338  1.00  0.00     0.365 C 
ATOM      4  O   UNL A   1      30.808  25.421  26.613  1.00  0.00    -0.245 OA
BRANCH   3   5
ATOM      5  C   UNL A   1      33.032  24.628  25.957  1.00  0.00     0.296 C 
ATOM      6  N   UNL A   1      33.164  19.509  24.315  1.00  0.00    -0.272 N 
ATOM      7  C   UNL A   1      32.276  20.543  23.835  1.00  0.00     0.270 C 
ATOM      8  C   UNL A   1      34.404  19.959  24.959  1.00  0.00     0.270 C 
ATOM      9  H   UNL A   1      33.653  19.041  23.600  1.00  0.00     0.356 HD
ATOM     10  C   UNL A   1      31.990  21.437  25.028  1.00  0.00     0.075 C 
ATOM     11  C   UNL A   1      34.189  21.086  25.996  1.00  0.00     0.075 C 
ATOM     12  C   UNL A   1      33.241  22.202  25.485  1.00  0.00     0.036 C 
ATOM     13  C   UNL A   1      32.831  23.228  26.567  1.00  0.00     0.091 C 
ATOM     14  C   UNL A   1      33.912  23.093  24.413  1.00  0.00     0.270 C 
ATOM     15  N   UNL A   1      33.346  24.437  24.526  1.00  0.00    -0.316 N 
ATOM     16  H   UNL A   1      34.019  25.156  24.260  1.00  0.00     0.349 HD
BRANCH   6  17
ATOM     17  C   UNL A   1      32.720  18.208  24.168  1.00  0.00     0.308 C 
ATOM     18  C   UNL A   1      33.332  17.423  23.046  1.00  0.00     0.164 C 
ATOM     19  O   UNL A   1      32.012  17.652  25.009  1.00  0.00    -0.231 OA
ENDBRANCH   6  17
BRANCH  15  20
ATOM     20  C   UNL A   1      32.383  24.840  23.497  1.00  0.00     0.339 C 
BRANCH  20  21
ATOM     21  C   UNL A   1      32.374  26.280  23.095  1.00  0.00     0.161 A 
ATOM     22  N   UNL A   1      33.418  27.058  22.876  1.00  0.00    -0.236 NA
ATOM     23  N   UNL A   1      31.207  26.990  22.912  1.00  0.00    -0.344 N 
ATOM     24  C   UNL A   1      32.913  28.320  22.663  1.00  0.00     0.131 A 
ATOM     25  C   UNL A   1      31.540  28.298  22.687  1.00  0.00     0.104 A 
ATOM     26  H   UNL A   1      30.295  26.621  22.937  1.00  0.00     0.167 HD
ENDBRANCH  20  21
ENDBRANCH  15  20
ENDBRANCH   3   5
ENDBRANCH   2   3
ENDBRANCH   1   2
BRANCH   1  27
ATOM     27  C   UNL A   1      31.427  29.052  26.332  1.00  0.00     0.275 C 
BRANCH  27  28
ATOM     28  O   UNL A   1      32.647  29.752  26.029  1.00  0.00    -0.458 OA
BRANCH  28  29
ATOM     29  C   UNL A   1      33.006  30.787  26.828  1.00  0.00     0.338 C 
ATOM     30  O   UNL A   1      32.277  31.666  27.251  1.00  0.00    -0.246 OA
BRANCH  29  31
ATOM     31  C   UNL A   1      34.437  30.637  27.217  1.00  0.00     0.060 A 
ATOM     32  C   UNL A   1      35.039  29.390  27.218  1.00  0.00     0.016 A 
ATOM     33  C   UNL A   1      35.167  31.719  27.717  1.00  0.00     0.016 A 
ATOM     34  C   UNL A   1      36.277  29.211  27.845  1.00  0.00     0.010 A 
ATOM     35  C   UNL A   1      36.450  31.525  28.285  1.00  0.00     0.010 A 
ATOM     36  C   UNL A   1      36.999  30.241  28.462  1.00  0.00    -0.014 A 
BRANCH  36  37
ATOM     37  C   UNL A   1      38.176  29.960  29.395  1.00  0.00     0.031 A 
ATOM     38  C   UNL A   1      39.442  29.302  28.857  1.00  0.00     0.074 A 
ATOM     39  C   UNL A   1      38.278  30.394  30.678  1.00  0.00     0.049 A 
ATOM     40  N   UNL A   1      40.391  28.669  29.509  1.00  0.00    -0.248 NA
ATOM     41  C   UNL A   1      39.676  29.355  27.404  1.00  0.00     0.031 C 
ATOM     42  C   UNL A   1      37.294  31.178  31.418  1.00  0.00     0.029 A 
ATOM     43  N   UNL A   1      39.331  30.302  31.577  1.00  0.00    -0.354 N 
ATOM     44  C   UNL A   1      41.214  28.101  28.543  1.00  0.00     0.074 A 
ATOM     45  C   UNL A   1      40.712  28.538  27.259  1.00  0.00     0.031 C 
ATOM     46  C   UNL A   1      37.849  31.656  32.542  1.00  0.00     0.029 A 
ATOM     47  C   UNL A   1      39.145  31.022  32.737  1.00  0.00     0.049 A 
ATOM     48  H   UNL A   1      40.139  29.769  31.401  1.00  0.00     0.167 HD
ATOM     49  C   UNL A   1      42.265  27.262  28.717  1.00  0.00     0.037 A 
ATOM     50  C   UNL A   1      39.872  31.110  33.873  1.00  0.00     0.037 A 
ATOM     51  C   UNL A   1      42.890  26.981  29.985  1.00  0.00     0.049 A 
ATOM     52  C   UNL A   1      41.050  30.194  34.072  1.00  0.00     0.074 A 
ATOM     53  C   UNL A   1      43.922  26.101  30.270  1.00  0.00     0.029 A 
ATOM     54  N   UNL A   1      42.595  27.638  31.166  1.00  0.00    -0.354 N 
ATOM     55  N   UNL A   1      41.631  29.393  33.216  1.00  0.00    -0.248 NA
ATOM     56  C   UNL A   1      41.616  30.130  35.430  1.00  0.00     0.031 C 
ATOM     57  C   UNL A   1      44.244  26.220  31.628  1.00  0.00     0.029 A 
ATOM     58  C   UNL A   1      43.434  27.198  32.177  1.00  0.00     0.049 A 
ATOM     59  H   UNL A   1      41.892  28.319  31.273  1.00  0.00     0.167 HD
ATOM     60  C   UNL A   1      42.601  28.708  33.937  1.00  0.00     0.074 A 
ATOM     61  C   UNL A   1      42.576  29.229  35.286  1.00  0.00     0.031 C 
ATOM     62  C   UNL A   1      43.414  27.708  33.521  1.00  0.00     0.037 A 
BRANCH  49  63
ATOM     63  C   UNL A   1      42.760  26.500  27.523  1.00  0.00     0.064 A 
ATOM     64  C   UNL A   1      43.811  26.941  26.712  1.00  0.00     0.173 A 
ATOM     65  C   UNL A   1      42.191  25.245  27.237  1.00  0.00     0.173 A 
ATOM     66  F   UNL A   1      44.377  28.137  26.932  1.00  0.00    -0.203 F 
ATOM     67  C   UNL A   1      44.266  26.162  25.648  1.00  0.00     0.198 A 
ATOM     68  C   UNL A   1      42.668  24.457  26.194  1.00  0.00     0.198 A 
ATOM     69  F   UNL A   1      41.187  24.770  27.989  1.00  0.00    -0.203 F 
ATOM     70  F   UNL A   1      45.250  26.620  24.860  1.00  0.00    -0.200 F 
ATOM     71  C   UNL A   1      43.702  24.920  25.397  1.00  0.00     0.200 A 
ATOM     72  F   UNL A   1      42.131  23.251  25.966  1.00  0.00    -0.200 F 
ATOM     73  F   UNL A   1      44.154  24.168  24.382  1.00  0.00    -0.200 F 
ENDBRANCH  49  63
BRANCH  50  74
ATOM     74  C   UNL A   1      39.441  32.004  34.990  1.00  0.00     0.064 A 
ATOM     75  C   UNL A   1      39.875  33.337  35.052  1.00  0.00     0.173 A 
ATOM     76  C   UNL A   1      38.630  31.541  36.037  1.00  0.00     0.173 A 
ATOM     77  F   UNL A   1      40.701  33.817  34.111  1.00  0.00    -0.203 F 
ATOM     78  C   UNL A   1      39.509  34.167  36.112  1.00  0.00     0.198 A 
ATOM     79  C   UNL A   1      38.225  32.384  37.068  1.00  0.00     0.198 A 
ATOM     80  F   UNL A   1      38.216  30.265  36.054  1.00  0.00    -0.203 F 
ATOM     81  F   UNL A   1      39.985  35.418  36.177  1.00  0.00    -0.200 F 
ATOM     82  C   UNL A   1      38.671  33.694  37.110  1.00  0.00     0.200 A 
ATOM     83  F   UNL A   1      37.406  31.922  38.023  1.00  0.00    -0.200 F 
ATOM     84  F   UNL A   1      38.307  34.496  38.120  1.00  0.00    -0.200 F 
ENDBRANCH  50  74
BRANCH  62  85
ATOM     85  C   UNL A   1      44.343  27.103  34.530  1.00  0.00     0.064 A 
ATOM     86  C   UNL A   1      43.983  25.957  35.253  1.00  0.00     0.173 A 
ATOM     87  C   UNL A   1      45.615  27.651  34.756  1.00  0.00     0.173 A 
ATOM     88  F   UNL A   1      42.773  25.404  35.084  1.00  0.00    -0.203 F 
ATOM     89  C   UNL A   1      44.853  25.394  36.184  1.00  0.00     0.198 A 
ATOM     90  C   UNL A   1      46.491  27.072  35.671  1.00  0.00     0.198 A 
ATOM     91  F   UNL A   1      46.009  28.744  34.086  1.00  0.00    -0.203 F 
ATOM     92  F   UNL A   1      44.472  24.322  36.892  1.00  0.00    -0.200 F 
ATOM     93  C   UNL A   1      46.108  25.948  36.388  1.00  0.00     0.200 A 
ATOM     94  F   UNL A   1      47.706  27.605  35.862  1.00  0.00    -0.200 F 
ATOM     95  F   UNL A   1      46.945  25.405  37.282  1.00  0.00    -0.200 F 
ENDBRANCH  62  85
ENDBRANCH  36  37
ENDBRANCH  29  31
ENDBRANCH  28  29
ENDBRANCH  27  28
ENDBRANCH   1  27
TORSDOF 14
ENDMDL
