MODEL 1
REMARK VINA RESULT:     -14.4      0.000      0.000
REMARK SMILES O=C(Cn1nc(C(=O)OCCOC(=O)c2ccc(-c3c4nc(c(-c5c(F)c(F)c(F)c(F)c5F)c5ccc([nH]5)c(-c5c(F)c(F)c(F)c(F)c5F)c5nc(c(-c6c(F)c(F)c(F)c(F)c6F)c6ccc3[nH]6)C=C5)C=C4)cc2)c2ccccc2c1=O)Nc1ccc2c(c1)C(=O)c1ccccc1C2=O
REMARK SMILES IDX 10 1 9 2 7 3 8 4 6 5 4 6 5 7 84 8 83 9 85 10 78 11 82 12
REMARK SMILES IDX 79 13 81 14 80 15 3 16 2 17 1 18 86 19 87 21 88 22 92 23
REMARK SMILES IDX 89 24 91 25 90 26 93 27 101 28 94 29 95 30 100 31 102 32
REMARK SMILES IDX 96 33 99 34 97 35 98 36 11 37 12 38 13 39 14 40 15 41 16 42
REMARK SMILES IDX 77 43 17 44 76 45 18 46 19 47 20 48 70 49 21 50 75 51 69 52
REMARK SMILES IDX 71 53 22 54 74 55 68 56 67 57 23 59 55 60 35 61 54 62 36 63
REMARK SMILES IDX 39 64 53 65 72 66 37 67 38 68 52 70 73 71 40 72 24 73 25 74
REMARK SMILES IDX 33 75 26 76 27 77 31 78 34 79 28 80 29 81 32 82 30 83 56 84
REMARK SMILES IDX 57 85 65 86 58 87 59 88 63 89 66 90 60 91 61 92 64 93 62 94
REMARK SMILES IDX 41 95 42 96 50 97 43 98 44 99 48 100 51 101 45 102 46 103
REMARK SMILES IDX 49 104 47 105
REMARK H PARENT 86 20 71 58 39 69
REMARK Flexibility Score: inf
ROOT
ATOM      1  C   UNL A   1      45.801  24.759  38.957  1.00  0.00     0.275 C 
ENDROOT
BRANCH   1   2
ATOM      2  O   UNL A   1      45.731  23.484  39.647  1.00  0.00    -0.457 OA
BRANCH   2   3
ATOM      3  C   UNL A   1      45.998  22.412  38.878  1.00  0.00     0.359 C 
ATOM      4  O   UNL A   1      45.629  22.225  37.729  1.00  0.00    -0.244 OA
BRANCH   3   5
ATOM      5  C   UNL A   1      46.816  21.326  39.589  1.00  0.00     0.176 A 
ATOM      6  N   UNL A   1      46.891  19.526  41.062  1.00  0.00    -0.219 N 
ATOM      7  N   UNL A   1      46.262  20.679  40.579  1.00  0.00    -0.161 NA
ATOM      8  C   UNL A   1      47.974  18.924  40.408  1.00  0.00     0.275 A 
ATOM      9  C   UNL A   1      48.612  19.692  39.327  1.00  0.00     0.051 A 
ATOM     10  O   UNL A   1      48.425  17.820  40.698  1.00  0.00    -0.267 OA
ATOM     11  C   UNL A   1      48.109  20.940  39.000  1.00  0.00     0.022 A 
ATOM     12  C   UNL A   1      49.737  19.190  38.656  1.00  0.00     0.014 A 
ATOM     13  C   UNL A   1      48.802  21.739  38.092  1.00  0.00     0.011 A 
ATOM     14  C   UNL A   1      50.380  19.962  37.688  1.00  0.00     0.001 A 
ATOM     15  C   UNL A   1      49.929  21.252  37.427  1.00  0.00     0.001 A 
BRANCH   6  16
ATOM     16  C   UNL A   1      46.214  18.737  42.124  1.00  0.00     0.248 C 
BRANCH  16  17
ATOM     17  C   UNL A   1      44.750  18.322  41.892  1.00  0.00     0.246 C 
ATOM     18  O   UNL A   1      43.816  19.115  41.947  1.00  0.00    -0.273 OA
ATOM     19  N   UNL A   1      44.638  16.978  41.682  1.00  0.00    -0.324 N 
ATOM     20  H   UNL A   1      45.484  16.493  41.543  1.00  0.00     0.169 HD
BRANCH  19  21
ATOM     21  C   UNL A   1      43.484  16.203  41.638  1.00  0.00     0.042 A 
ATOM     22  C   UNL A   1      42.879  15.729  40.471  1.00  0.00     0.027 A 
ATOM     23  C   UNL A   1      43.093  15.733  42.881  1.00  0.00     0.039 A 
ATOM     24  C   UNL A   1      41.999  14.631  40.554  1.00  0.00     0.015 A 
ATOM     25  C   UNL A   1      42.231  14.660  42.954  1.00  0.00     0.036 A 
ATOM     26  C   UNL A   1      41.751  14.047  41.801  1.00  0.00     0.034 A 
ATOM     27  C   UNL A   1      42.168  13.962  44.234  1.00  0.00     0.194 C 
ATOM     28  C   UNL A   1      41.282  12.639  41.928  1.00  0.00     0.194 C 
ATOM     29  O   UNL A   1      42.060  14.544  45.304  1.00  0.00    -0.289 OA
ATOM     30  C   UNL A   1      42.429  12.532  44.125  1.00  0.00     0.034 A 
ATOM     31  C   UNL A   1      41.940  11.851  43.012  1.00  0.00     0.034 A 
ATOM     32  O   UNL A   1      40.533  12.124  41.113  1.00  0.00    -0.289 OA
ATOM     33  C   UNL A   1      43.334  11.939  44.998  1.00  0.00     0.013 A 
ATOM     34  C   UNL A   1      42.275  10.510  42.836  1.00  0.00     0.013 A 
ATOM     35  C   UNL A   1      43.728  10.626  44.784  1.00  0.00     0.001 A 
ATOM     36  C   UNL A   1      43.177   9.905  43.723  1.00  0.00     0.001 A 
ENDBRANCH  19  21
ENDBRANCH  16  17
ENDBRANCH   6  16
ENDBRANCH   3   5
ENDBRANCH   2   3
ENDBRANCH   1   2
BRANCH   1  37
ATOM     37  C   UNL A   1      47.228  25.257  38.725  1.00  0.00     0.275 C 
BRANCH  37  38
ATOM     38  O   UNL A   1      47.294  25.988  37.493  1.00  0.00    -0.458 OA
BRANCH  38  39
ATOM     39  C   UNL A   1      47.088  25.293  36.352  1.00  0.00     0.338 C 
ATOM     40  O   UNL A   1      47.607  24.249  36.000  1.00  0.00    -0.246 OA
BRANCH  39  41
ATOM     41  C   UNL A   1      46.040  25.975  35.573  1.00  0.00     0.060 A 
ATOM     42  C   UNL A   1      44.716  25.545  35.640  1.00  0.00     0.016 A 
ATOM     43  C   UNL A   1      46.363  27.124  34.856  1.00  0.00     0.016 A 
ATOM     44  C   UNL A   1      43.730  26.245  34.932  1.00  0.00     0.010 A 
ATOM     45  C   UNL A   1      45.356  27.904  34.302  1.00  0.00     0.010 A 
ATOM     46  C   UNL A   1      44.033  27.448  34.267  1.00  0.00    -0.014 A 
BRANCH  46  47
ATOM     47  C   UNL A   1      43.014  28.192  33.464  1.00  0.00     0.031 A 
ATOM     48  C   UNL A   1      42.775  27.826  32.012  1.00  0.00     0.074 A 
ATOM     49  C   UNL A   1      42.322  29.217  34.002  1.00  0.00     0.049 A 
ATOM     50  N   UNL A   1      42.017  28.417  31.121  1.00  0.00    -0.248 NA
ATOM     51  C   UNL A   1      43.550  26.700  31.464  1.00  0.00     0.031 C 
ATOM     52  C   UNL A   1      42.512  29.765  35.346  1.00  0.00     0.029 A 
ATOM     53  N   UNL A   1      41.292  29.966  33.487  1.00  0.00    -0.354 N 
ATOM     54  C   UNL A   1      42.300  27.789  29.912  1.00  0.00     0.074 A 
ATOM     55  C   UNL A   1      43.358  26.842  30.163  1.00  0.00     0.031 C 
ATOM     56  C   UNL A   1      41.563  30.684  35.586  1.00  0.00     0.029 A 
ATOM     57  C   UNL A   1      40.724  30.822  34.399  1.00  0.00     0.049 A 
ATOM     58  H   UNL A   1      40.990  29.897  32.552  1.00  0.00     0.167 HD
ATOM     59  C   UNL A   1      41.688  27.928  28.711  1.00  0.00     0.037 A 
ATOM     60  C   UNL A   1      39.628  31.599  34.300  1.00  0.00     0.037 A 
ATOM     61  C   UNL A   1      40.520  28.737  28.503  1.00  0.00     0.049 A 
ATOM     62  C   UNL A   1      38.856  31.620  33.008  1.00  0.00     0.074 A 
ATOM     63  C   UNL A   1      39.745  28.857  27.363  1.00  0.00     0.029 A 
ATOM     64  N   UNL A   1      39.929  29.524  29.479  1.00  0.00    -0.354 N 
ATOM     65  N   UNL A   1      39.105  30.986  31.889  1.00  0.00    -0.248 NA
ATOM     66  C   UNL A   1      37.651  32.461  32.967  1.00  0.00     0.031 C 
ATOM     67  C   UNL A   1      38.681  29.718  27.651  1.00  0.00     0.029 A 
ATOM     68  C   UNL A   1      38.785  30.116  28.975  1.00  0.00     0.049 A 
ATOM     69  H   UNL A   1      40.272  29.643  30.394  1.00  0.00     0.167 HD
ATOM     70  C   UNL A   1      38.084  31.338  31.017  1.00  0.00     0.074 A 
ATOM     71  C   UNL A   1      37.198  32.222  31.744  1.00  0.00     0.031 C 
ATOM     72  C   UNL A   1      37.905  30.972  29.724  1.00  0.00     0.037 A 
BRANCH  59  73
ATOM     73  C   UNL A   1      42.221  27.131  27.554  1.00  0.00     0.064 A 
ATOM     74  C   UNL A   1      43.205  27.647  26.696  1.00  0.00     0.173 A 
ATOM     75  C   UNL A   1      41.762  25.828  27.312  1.00  0.00     0.173 A 
ATOM     76  F   UNL A   1      43.673  28.891  26.876  1.00  0.00    -0.203 F 
ATOM     77  C   UNL A   1      43.671  26.910  25.611  1.00  0.00     0.198 A 
ATOM     78  C   UNL A   1      42.262  25.077  26.250  1.00  0.00     0.198 A 
ATOM     79  F   UNL A   1      40.833  25.277  28.110  1.00  0.00    -0.203 F 
ATOM     80  F   UNL A   1      44.558  27.455  24.766  1.00  0.00    -0.200 F 
ATOM     81  C   UNL A   1      43.205  25.623  25.394  1.00  0.00     0.200 A 
ATOM     82  F   UNL A   1      41.824  23.825  26.051  1.00  0.00    -0.200 F 
ATOM     83  F   UNL A   1      43.661  24.912  24.353  1.00  0.00    -0.200 F 
ENDBRANCH  59  73
BRANCH  60  84
ATOM     84  C   UNL A   1      39.139  32.341  35.492  1.00  0.00     0.064 A 
ATOM     85  C   UNL A   1      38.325  31.701  36.438  1.00  0.00     0.173 A 
ATOM     86  C   UNL A   1      39.488  33.677  35.730  1.00  0.00     0.173 A 
ATOM     87  F   UNL A   1      37.954  30.425  36.247  1.00  0.00    -0.203 F 
ATOM     88  C   UNL A   1      37.865  32.373  37.569  1.00  0.00     0.198 A 
ATOM     89  C   UNL A   1      39.047  34.342  36.874  1.00  0.00     0.198 A 
ATOM     90  F   UNL A   1      40.274  34.330  34.862  1.00  0.00    -0.203 F 
ATOM     91  F   UNL A   1      37.062  31.745  38.438  1.00  0.00    -0.200 F 
ATOM     92  C   UNL A   1      38.233  33.691  37.788  1.00  0.00     0.200 A 
ATOM     93  F   UNL A   1      39.417  35.611  37.092  1.00  0.00    -0.200 F 
ATOM     94  F   UNL A   1      37.800  34.335  38.881  1.00  0.00    -0.200 F 
ENDBRANCH  60  84
BRANCH  72  95
ATOM     95  C   UNL A   1      36.701  31.505  29.009  1.00  0.00     0.064 A 
ATOM     96  C   UNL A   1      35.591  30.689  28.754  1.00  0.00     0.173 A 
ATOM     97  C   UNL A   1      36.620  32.863  28.669  1.00  0.00     0.173 A 
ATOM     98  F   UNL A   1      35.629  29.383  29.054  1.00  0.00    -0.203 F 
ATOM     99  C   UNL A   1      34.439  31.216  28.177  1.00  0.00     0.198 A 
ATOM    100  C   UNL A   1      35.457  33.390  28.114  1.00  0.00     0.198 A 
ATOM    101  F   UNL A   1      37.655  33.683  28.904  1.00  0.00    -0.203 F 
ATOM    102  F   UNL A   1      33.395  30.416  27.924  1.00  0.00    -0.200 F 
ATOM    103  C   UNL A   1      34.369  32.566  27.868  1.00  0.00     0.200 A 
ATOM    104  F   UNL A   1      35.386  34.698  27.829  1.00  0.00    -0.200 F 
ATOM    105  F   UNL A   1      33.250  33.075  27.333  1.00  0.00    -0.200 F 
ENDBRANCH  72  95
ENDBRANCH  46  47
ENDBRANCH  39  41
ENDBRANCH  38  39
ENDBRANCH  37  38
ENDBRANCH   1  37
TORSDOF 14
ENDMDL
MODEL 2
REMARK VINA RESULT:     -14.2      7.972     12.640
REMARK SMILES O=C(Cn1nc(C(=O)OCCOC(=O)c2ccc(-c3c4nc(c(-c5c(F)c(F)c(F)c(F)c5F)c5ccc([nH]5)c(-c5c(F)c(F)c(F)c(F)c5F)c5nc(c(-c6c(F)c(F)c(F)c(F)c6F)c6ccc3[nH]6)C=C5)C=C4)cc2)c2ccccc2c1=O)Nc1ccc2c(c1)C(=O)c1ccccc1C2=O
REMARK SMILES IDX 10 1 9 2 7 3 8 4 6 5 4 6 5 7 84 8 83 9 85 10 78 11 82 12
REMARK SMILES IDX 79 13 81 14 80 15 3 16 2 17 1 18 86 19 87 21 88 22 92 23
REMARK SMILES IDX 89 24 91 25 90 26 93 27 101 28 94 29 95 30 100 31 102 32
REMARK SMILES IDX 96 33 99 34 97 35 98 36 11 37 12 38 13 39 14 40 15 41 16 42
REMARK SMILES IDX 77 43 17 44 76 45 18 46 19 47 20 48 70 49 21 50 75 51 69 52
REMARK SMILES IDX 71 53 22 54 74 55 68 56 67 57 23 59 55 60 35 61 54 62 36 63
REMARK SMILES IDX 39 64 53 65 72 66 37 67 38 68 52 70 73 71 40 72 24 73 25 74
REMARK SMILES IDX 33 75 26 76 27 77 31 78 34 79 28 80 29 81 32 82 30 83 56 84
REMARK SMILES IDX 57 85 65 86 58 87 59 88 63 89 66 90 60 91 61 92 64 93 62 94
REMARK SMILES IDX 41 95 42 96 50 97 43 98 44 99 48 100 51 101 45 102 46 103
REMARK SMILES IDX 49 104 47 105
REMARK H PARENT 86 20 71 58 39 69
REMARK Flexibility Score: inf
ROOT
ATOM      1  C   UNL A   1      46.801  23.592  24.248  1.00  0.00     0.275 C 
ENDROOT
BRANCH   1   2
ATOM      2  O   UNL A   1      45.445  23.083  24.331  1.00  0.00    -0.457 OA
BRANCH   2   3
ATOM      3  C   UNL A   1      45.226  22.227  25.348  1.00  0.00     0.359 C 
ATOM      4  O   UNL A   1      45.849  21.205  25.591  1.00  0.00    -0.244 OA
BRANCH   3   5
ATOM      5  C   UNL A   1      44.030  22.605  26.231  1.00  0.00     0.176 A 
ATOM      6  N   UNL A   1      41.811  22.261  26.841  1.00  0.00    -0.219 N 
ATOM      7  N   UNL A   1      42.852  22.140  25.913  1.00  0.00    -0.161 NA
ATOM      8  C   UNL A   1      42.019  22.673  28.163  1.00  0.00     0.275 A 
ATOM      9  C   UNL A   1      43.339  23.237  28.487  1.00  0.00     0.051 A 
ATOM     10  O   UNL A   1      41.168  22.612  29.045  1.00  0.00    -0.267 OA
ATOM     11  C   UNL A   1      44.301  23.314  27.494  1.00  0.00     0.022 A 
ATOM     12  C   UNL A   1      43.616  23.727  29.772  1.00  0.00     0.014 A 
ATOM     13  C   UNL A   1      45.493  23.990  27.747  1.00  0.00     0.011 A 
ATOM     14  C   UNL A   1      44.844  24.332  30.043  1.00  0.00     0.001 A 
ATOM     15  C   UNL A   1      45.773  24.490  29.020  1.00  0.00     0.001 A 
BRANCH   6  16
ATOM     16  C   UNL A   1      40.495  21.649  26.519  1.00  0.00     0.248 C 
BRANCH  16  17
ATOM     17  C   UNL A   1      39.322  22.592  26.197  1.00  0.00     0.246 C 
ATOM     18  O   UNL A   1      39.190  23.694  26.719  1.00  0.00    -0.273 OA
ATOM     19  N   UNL A   1      38.444  22.019  25.322  1.00  0.00    -0.324 N 
ATOM     20  H   UNL A   1      38.746  21.184  24.896  1.00  0.00     0.169 HD
BRANCH  19  21
ATOM     21  C   UNL A   1      37.179  22.462  24.952  1.00  0.00     0.042 A 
ATOM     22  C   UNL A   1      36.876  23.121  23.758  1.00  0.00     0.027 A 
ATOM     23  C   UNL A   1      36.171  21.987  25.776  1.00  0.00     0.039 A 
ATOM     24  C   UNL A   1      35.542  23.135  23.303  1.00  0.00     0.015 A 
ATOM     25  C   UNL A   1      34.869  22.005  25.324  1.00  0.00     0.036 A 
ATOM     26  C   UNL A   1      34.556  22.491  24.059  1.00  0.00     0.034 A 
ATOM     27  C   UNL A   1      33.922  21.152  26.035  1.00  0.00     0.194 C 
ATOM     28  C   UNL A   1      33.284  22.017  23.447  1.00  0.00     0.194 C 
ATOM     29  O   UNL A   1      33.848  21.114  27.255  1.00  0.00    -0.289 OA
ATOM     30  C   UNL A   1      33.213  20.225  25.161  1.00  0.00     0.034 A 
ATOM     31  C   UNL A   1      32.835  20.665  23.894  1.00  0.00     0.034 A 
ATOM     32  O   UNL A   1      32.732  22.617  22.538  1.00  0.00    -0.289 OA
ATOM     33  C   UNL A   1      33.132  18.883  25.517  1.00  0.00     0.013 A 
ATOM     34  C   UNL A   1      32.257  19.760  23.006  1.00  0.00     0.013 A 
ATOM     35  C   UNL A   1      32.625  17.966  24.608  1.00  0.00     0.001 A 
ATOM     36  C   UNL A   1      32.162  18.408  23.367  1.00  0.00     0.001 A 
ENDBRANCH  19  21
ENDBRANCH  16  17
ENDBRANCH   6  16
ENDBRANCH   3   5
ENDBRANCH   2   3
ENDBRANCH   1   2
BRANCH   1  37
ATOM     37  C   UNL A   1      46.948  25.036  24.727  1.00  0.00     0.275 C 
BRANCH  37  38
ATOM     38  O   UNL A   1      45.680  25.702  24.664  1.00  0.00    -0.458 OA
BRANCH  38  39
ATOM     39  C   UNL A   1      45.687  27.053  24.734  1.00  0.00     0.338 C 
ATOM     40  O   UNL A   1      46.201  27.845  23.965  1.00  0.00    -0.246 OA
BRANCH  39  41
ATOM     41  C   UNL A   1      44.886  27.464  25.900  1.00  0.00     0.060 A 
ATOM     42  C   UNL A   1      43.899  26.624  26.412  1.00  0.00     0.016 A 
ATOM     43  C   UNL A   1      45.199  28.651  26.557  1.00  0.00     0.016 A 
ATOM     44  C   UNL A   1      43.188  27.015  27.553  1.00  0.00     0.010 A 
ATOM     45  C   UNL A   1      44.608  28.945  27.779  1.00  0.00     0.010 A 
ATOM     46  C   UNL A   1      43.546  28.175  28.267  1.00  0.00    -0.014 A 
BRANCH  46  47
ATOM     47  C   UNL A   1      42.778  28.644  29.461  1.00  0.00     0.031 A 
ATOM     48  C   UNL A   1      43.429  28.652  30.830  1.00  0.00     0.074 A 
ATOM     49  C   UNL A   1      41.491  29.030  29.347  1.00  0.00     0.049 A 
ATOM     50  N   UNL A   1      42.901  28.920  31.999  1.00  0.00    -0.248 NA
ATOM     51  C   UNL A   1      44.836  28.226  30.909  1.00  0.00     0.031 C 
ATOM     52  C   UNL A   1      40.686  28.977  28.126  1.00  0.00     0.029 A 
ATOM     53  N   UNL A   1      40.637  29.575  30.276  1.00  0.00    -0.354 N 
ATOM     54  C   UNL A   1      43.882  28.607  32.934  1.00  0.00     0.074 A 
ATOM     55  C   UNL A   1      44.995  28.045  32.210  1.00  0.00     0.031 C 
ATOM     56  C   UNL A   1      39.499  29.564  28.353  1.00  0.00     0.029 A 
ATOM     57  C   UNL A   1      39.442  29.997  29.745  1.00  0.00     0.049 A 
ATOM     58  H   UNL A   1      40.860  29.655  31.232  1.00  0.00     0.167 HD
ATOM     59  C   UNL A   1      43.893  28.831  34.271  1.00  0.00     0.037 A 
ATOM     60  C   UNL A   1      38.433  30.688  30.310  1.00  0.00     0.037 A 
ATOM     61  C   UNL A   1      42.863  29.550  34.965  1.00  0.00     0.049 A 
ATOM     62  C   UNL A   1      38.530  31.077  31.761  1.00  0.00     0.074 A 
ATOM     63  C   UNL A   1      42.828  29.943  36.291  1.00  0.00     0.029 A 
ATOM     64  N   UNL A   1      41.708  30.032  34.370  1.00  0.00    -0.354 N 
ATOM     65  N   UNL A   1      39.483  30.817  32.622  1.00  0.00    -0.248 NA
ATOM     66  C   UNL A   1      37.415  31.858  32.316  1.00  0.00     0.031 C 
ATOM     67  C   UNL A   1      41.649  30.665  36.499  1.00  0.00     0.029 A 
ATOM     68  C   UNL A   1      40.963  30.738  35.296  1.00  0.00     0.049 A 
ATOM     69  H   UNL A   1      41.456  29.892  33.429  1.00  0.00     0.167 HD
ATOM     70  C   UNL A   1      39.092  31.412  33.813  1.00  0.00     0.074 A 
ATOM     71  C   UNL A   1      37.827  32.068  33.559  1.00  0.00     0.031 C 
ATOM     72  C   UNL A   1      39.719  31.404  35.015  1.00  0.00     0.037 A 
BRANCH  59  73
ATOM     73  C   UNL A   1      45.089  28.363  35.051  1.00  0.00     0.064 A 
ATOM     74  C   UNL A   1      46.218  29.180  35.229  1.00  0.00     0.173 A 
ATOM     75  C   UNL A   1      45.101  27.095  35.650  1.00  0.00     0.173 A 
ATOM     76  F   UNL A   1      46.263  30.399  34.671  1.00  0.00    -0.203 F 
ATOM     77  C   UNL A   1      47.330  28.726  35.931  1.00  0.00     0.198 A 
ATOM     78  C   UNL A   1      46.201  26.660  36.387  1.00  0.00     0.198 A 
ATOM     79  F   UNL A   1      44.044  26.277  35.526  1.00  0.00    -0.203 F 
ATOM     80  F   UNL A   1      48.422  29.499  36.023  1.00  0.00    -0.200 F 
ATOM     81  C   UNL A   1      47.319  27.470  36.515  1.00  0.00     0.200 A 
ATOM     82  F   UNL A   1      46.182  25.451  36.968  1.00  0.00    -0.200 F 
ATOM     83  F   UNL A   1      48.388  27.038  37.198  1.00  0.00    -0.200 F 
ENDBRANCH  59  73
BRANCH  60  84
ATOM     84  C   UNL A   1      37.291  31.143  29.473  1.00  0.00     0.064 A 
ATOM     85  C   UNL A   1      36.274  30.244  29.117  1.00  0.00     0.173 A 
ATOM     86  C   UNL A   1      37.171  32.469  29.038  1.00  0.00     0.173 A 
ATOM     87  F   UNL A   1      36.353  28.960  29.499  1.00  0.00    -0.203 F 
ATOM     88  C   UNL A   1      35.189  30.652  28.344  1.00  0.00     0.198 A 
ATOM     89  C   UNL A   1      36.072  32.881  28.286  1.00  0.00     0.198 A 
ATOM     90  F   UNL A   1      38.109  33.370  29.363  1.00  0.00    -0.203 F 
ATOM     91  F   UNL A   1      34.250  29.763  27.991  1.00  0.00    -0.200 F 
ATOM     92  C   UNL A   1      35.086  31.971  27.935  1.00  0.00     0.200 A 
ATOM     93  F   UNL A   1      35.966  34.161  27.905  1.00  0.00    -0.200 F 
ATOM     94  F   UNL A   1      34.036  32.367  27.201  1.00  0.00    -0.200 F 
ENDBRANCH  60  84
BRANCH  72  95
ATOM     95  C   UNL A   1      39.067  32.136  36.147  1.00  0.00     0.064 A 
ATOM     96  C   UNL A   1      38.173  31.488  37.010  1.00  0.00     0.173 A 
ATOM     97  C   UNL A   1      39.417  33.465  36.430  1.00  0.00     0.173 A 
ATOM     98  F   UNL A   1      37.803  30.221  36.772  1.00  0.00    -0.203 F 
ATOM     99  C   UNL A   1      37.648  32.147  38.118  1.00  0.00     0.198 A 
ATOM    100  C   UNL A   1      38.907  34.112  37.551  1.00  0.00     0.198 A 
ATOM    101  F   UNL A   1      40.277  34.122  35.637  1.00  0.00    -0.203 F 
ATOM    102  F   UNL A   1      36.780  31.516  38.919  1.00  0.00    -0.200 F 
ATOM    103  C   UNL A   1      38.024  33.454  38.393  1.00  0.00     0.200 A 
ATOM    104  F   UNL A   1      39.283  35.370  37.825  1.00  0.00    -0.200 F 
ATOM    105  F   UNL A   1      37.533  34.079  39.472  1.00  0.00    -0.200 F 
ENDBRANCH  72  95
ENDBRANCH  46  47
ENDBRANCH  39  41
ENDBRANCH  38  39
ENDBRANCH  37  38
ENDBRANCH   1  37
TORSDOF 14
ENDMDL
MODEL 3
REMARK VINA RESULT:     -14.1     10.907     21.805
REMARK SMILES O=C(Cn1nc(C(=O)OCCOC(=O)c2ccc(-c3c4nc(c(-c5c(F)c(F)c(F)c(F)c5F)c5ccc([nH]5)c(-c5c(F)c(F)c(F)c(F)c5F)c5nc(c(-c6c(F)c(F)c(F)c(F)c6F)c6ccc3[nH]6)C=C5)C=C4)cc2)c2ccccc2c1=O)Nc1ccc2c(c1)C(=O)c1ccccc1C2=O
REMARK SMILES IDX 10 1 9 2 7 3 8 4 6 5 4 6 5 7 84 8 83 9 85 10 78 11 82 12
REMARK SMILES IDX 79 13 81 14 80 15 3 16 2 17 1 18 86 19 87 21 88 22 92 23
REMARK SMILES IDX 89 24 91 25 90 26 93 27 101 28 94 29 95 30 100 31 102 32
REMARK SMILES IDX 96 33 99 34 97 35 98 36 11 37 12 38 13 39 14 40 15 41 16 42
REMARK SMILES IDX 77 43 17 44 76 45 18 46 19 47 20 48 70 49 21 50 75 51 69 52
REMARK SMILES IDX 71 53 22 54 74 55 68 56 67 57 23 59 55 60 35 61 54 62 36 63
REMARK SMILES IDX 39 64 53 65 72 66 37 67 38 68 52 70 73 71 40 72 24 73 25 74
REMARK SMILES IDX 33 75 26 76 27 77 31 78 34 79 28 80 29 81 32 82 30 83 56 84
REMARK SMILES IDX 57 85 65 86 58 87 59 88 63 89 66 90 60 91 61 92 64 93 62 94
REMARK SMILES IDX 41 95 42 96 50 97 43 98 44 99 48 100 51 101 45 102 46 103
REMARK SMILES IDX 49 104 47 105
REMARK H PARENT 86 20 71 58 39 69
REMARK Flexibility Score: inf
ROOT
ATOM      1  C   UNL A   1      47.388  39.720  26.055  1.00  0.00     0.275 C 
ENDROOT
BRANCH   1   2
ATOM      2  O   UNL A   1      46.470  40.165  25.022  1.00  0.00    -0.457 OA
BRANCH   2   3
ATOM      3  C   UNL A   1      46.061  41.442  25.145  1.00  0.00     0.359 C 
ATOM      4  O   UNL A   1      46.764  42.441  25.121  1.00  0.00    -0.244 OA
BRANCH   3   5
ATOM      5  C   UNL A   1      44.553  41.591  25.383  1.00  0.00     0.176 A 
ATOM      6  N   UNL A   1      42.398  41.729  24.514  1.00  0.00    -0.219 N 
ATOM      7  N   UNL A   1      43.784  41.846  24.358  1.00  0.00    -0.161 NA
ATOM      8  C   UNL A   1      41.810  41.163  25.652  1.00  0.00     0.275 A 
ATOM      9  C   UNL A   1      42.686  40.929  26.811  1.00  0.00     0.051 A 
ATOM     10  O   UNL A   1      40.619  40.878  25.740  1.00  0.00    -0.267 OA
ATOM     11  C   UNL A   1      44.028  41.254  26.717  1.00  0.00     0.022 A 
ATOM     12  C   UNL A   1      42.169  40.417  28.010  1.00  0.00     0.014 A 
ATOM     13  C   UNL A   1      44.829  41.187  27.856  1.00  0.00     0.011 A 
ATOM     14  C   UNL A   1      42.994  40.275  29.126  1.00  0.00     0.001 A 
ATOM     15  C   UNL A   1      44.321  40.689  29.057  1.00  0.00     0.001 A 
BRANCH   6  16
ATOM     16  C   UNL A   1      41.529  41.927  23.325  1.00  0.00     0.248 C 
BRANCH  16  17
ATOM     17  C   UNL A   1      41.925  43.020  22.316  1.00  0.00     0.246 C 
ATOM     18  O   UNL A   1      42.100  44.190  22.637  1.00  0.00    -0.273 OA
ATOM     19  N   UNL A   1      41.990  42.528  21.044  1.00  0.00    -0.324 N 
ATOM     20  H   UNL A   1      41.945  41.548  20.960  1.00  0.00     0.169 HD
BRANCH  19  21
ATOM     21  C   UNL A   1      42.113  43.231  19.851  1.00  0.00     0.042 A 
ATOM     22  C   UNL A   1      41.045  43.664  19.060  1.00  0.00     0.027 A 
ATOM     23  C   UNL A   1      43.402  43.681  19.611  1.00  0.00     0.039 A 
ATOM     24  C   UNL A   1      41.257  44.706  18.135  1.00  0.00     0.015 A 
ATOM     25  C   UNL A   1      43.601  44.700  18.705  1.00  0.00     0.036 A 
ATOM     26  C   UNL A   1      42.530  45.279  18.031  1.00  0.00     0.034 A 
ATOM     27  C   UNL A   1      44.881  45.396  18.780  1.00  0.00     0.194 C 
ATOM     28  C   UNL A   1      42.729  46.656  17.500  1.00  0.00     0.194 C 
ATOM     29  O   UNL A   1      45.952  44.811  18.859  1.00  0.00    -0.289 OA
ATOM     30  C   UNL A   1      44.744  46.839  18.936  1.00  0.00     0.034 A 
ATOM     31  C   UNL A   1      43.715  47.485  18.255  1.00  0.00     0.034 A 
ATOM     32  O   UNL A   1      42.031  47.122  16.614  1.00  0.00    -0.289 OA
ATOM     33  C   UNL A   1      45.485  47.489  19.917  1.00  0.00     0.013 A 
ATOM     34  C   UNL A   1      43.501  48.844  18.480  1.00  0.00     0.013 A 
ATOM     35  C   UNL A   1      45.225  48.822  20.197  1.00  0.00     0.001 A 
ATOM     36  C   UNL A   1      44.256  49.506  19.460  1.00  0.00     0.001 A 
ENDBRANCH  19  21
ENDBRANCH  16  17
ENDBRANCH   6  16
ENDBRANCH   3   5
ENDBRANCH   2   3
ENDBRANCH   1   2
BRANCH   1  37
ATOM     37  C   UNL A   1      47.305  38.222  26.350  1.00  0.00     0.275 C 
BRANCH  37  38
ATOM     38  O   UNL A   1      46.108  37.937  27.088  1.00  0.00    -0.458 OA
BRANCH  38  39
ATOM     39  C   UNL A   1      46.257  37.483  28.353  1.00  0.00     0.338 C 
ATOM     40  O   UNL A   1      46.612  38.102  29.340  1.00  0.00    -0.246 OA
BRANCH  39  41
ATOM     41  C   UNL A   1      45.845  36.069  28.393  1.00  0.00     0.060 A 
ATOM     42  C   UNL A   1      46.072  35.297  29.531  1.00  0.00     0.016 A 
ATOM     43  C   UNL A   1      45.124  35.540  27.326  1.00  0.00     0.016 A 
ATOM     44  C   UNL A   1      45.622  33.972  29.562  1.00  0.00     0.010 A 
ATOM     45  C   UNL A   1      44.537  34.286  27.438  1.00  0.00     0.010 A 
ATOM     46  C   UNL A   1      44.829  33.451  28.522  1.00  0.00    -0.014 A 
BRANCH  46  47
ATOM     47  C   UNL A   1      44.374  32.027  28.504  1.00  0.00     0.031 A 
ATOM     48  C   UNL A   1      43.022  31.653  29.078  1.00  0.00     0.074 A 
ATOM     49  C   UNL A   1      45.168  31.053  28.015  1.00  0.00     0.049 A 
ATOM     50  N   UNL A   1      42.492  30.467  29.253  1.00  0.00    -0.248 NA
ATOM     51  C   UNL A   1      42.186  32.747  29.600  1.00  0.00     0.031 C 
ATOM     52  C   UNL A   1      46.538  31.228  27.529  1.00  0.00     0.029 A 
ATOM     53  N   UNL A   1      44.921  29.715  27.818  1.00  0.00    -0.354 N 
ATOM     54  C   UNL A   1      41.323  30.680  29.976  1.00  0.00     0.074 A 
ATOM     55  C   UNL A   1      41.267  32.087  30.287  1.00  0.00     0.031 C 
ATOM     56  C   UNL A   1      46.969  30.073  26.996  1.00  0.00     0.029 A 
ATOM     57  C   UNL A   1      45.924  29.065  27.139  1.00  0.00     0.049 A 
ATOM     58  H   UNL A   1      44.105  29.265  28.134  1.00  0.00     0.167 HD
ATOM     59  C   UNL A   1      40.342  29.802  30.293  1.00  0.00     0.037 A 
ATOM     60  C   UNL A   1      45.975  27.809  26.655  1.00  0.00     0.037 A 
ATOM     61  C   UNL A   1      40.310  28.443  29.833  1.00  0.00     0.049 A 
ATOM     62  C   UNL A   1      44.804  26.888  26.872  1.00  0.00     0.074 A 
ATOM     63  C   UNL A   1      39.309  27.501  29.988  1.00  0.00     0.029 A 
ATOM     64  N   UNL A   1      41.308  27.850  29.076  1.00  0.00    -0.354 N 
ATOM     65  N   UNL A   1      43.685  27.116  27.514  1.00  0.00    -0.248 NA
ATOM     66  C   UNL A   1      44.901  25.540  26.294  1.00  0.00     0.031 C 
ATOM     67  C   UNL A   1      39.701  26.336  29.323  1.00  0.00     0.029 A 
ATOM     68  C   UNL A   1      40.938  26.561  28.738  1.00  0.00     0.049 A 
ATOM     69  H   UNL A   1      42.155  28.281  28.818  1.00  0.00     0.167 HD
ATOM     70  C   UNL A   1      42.940  25.949  27.407  1.00  0.00     0.074 A 
ATOM     71  C   UNL A   1      43.723  25.023  26.616  1.00  0.00     0.031 C 
ATOM     72  C   UNL A   1      41.722  25.666  27.929  1.00  0.00     0.037 A 
BRANCH  59  73
ATOM     73  C   UNL A   1      39.186  30.306  31.112  1.00  0.00     0.064 A 
ATOM     74  C   UNL A   1      38.061  30.896  30.513  1.00  0.00     0.173 A 
ATOM     75  C   UNL A   1      39.189  30.177  32.509  1.00  0.00     0.173 A 
ATOM     76  F   UNL A   1      38.010  31.052  29.182  1.00  0.00    -0.203 F 
ATOM     77  C   UNL A   1      37.010  31.384  31.284  1.00  0.00     0.198 A 
ATOM     78  C   UNL A   1      38.116  30.629  33.274  1.00  0.00     0.198 A 
ATOM     79  F   UNL A   1      40.231  29.607  33.134  1.00  0.00    -0.203 F 
ATOM     80  F   UNL A   1      35.982  32.008  30.691  1.00  0.00    -0.200 F 
ATOM     81  C   UNL A   1      37.035  31.244  32.662  1.00  0.00     0.200 A 
ATOM     82  F   UNL A   1      38.132  30.477  34.606  1.00  0.00    -0.200 F 
ATOM     83  F   UNL A   1      36.017  31.707  33.401  1.00  0.00    -0.200 F 
ENDBRANCH  59  73
BRANCH  60  84
ATOM     84  C   UNL A   1      47.136  27.383  25.829  1.00  0.00     0.064 A 
ATOM     85  C   UNL A   1      47.147  27.626  24.447  1.00  0.00     0.173 A 
ATOM     86  C   UNL A   1      48.258  26.758  26.390  1.00  0.00     0.173 A 
ATOM     87  F   UNL A   1      46.089  28.209  23.862  1.00  0.00    -0.203 F 
ATOM     88  C   UNL A   1      48.229  27.246  23.656  1.00  0.00     0.198 A 
ATOM     89  C   UNL A   1      49.350  26.401  25.601  1.00  0.00     0.198 A 
ATOM     90  F   UNL A   1      48.301  26.515  27.708  1.00  0.00    -0.203 F 
ATOM     91  F   UNL A   1      48.198  27.462  22.334  1.00  0.00    -0.200 F 
ATOM     92  C   UNL A   1      49.332  26.640  24.235  1.00  0.00     0.200 A 
ATOM     93  F   UNL A   1      50.423  25.830  26.166  1.00  0.00    -0.200 F 
ATOM     94  F   UNL A   1      50.379  26.285  23.477  1.00  0.00    -0.200 F 
ENDBRANCH  60  84
BRANCH  72  95
ATOM     95  C   UNL A   1      41.143  24.313  27.654  1.00  0.00     0.064 A 
ATOM     96  C   UNL A   1      40.085  24.148  26.751  1.00  0.00     0.173 A 
ATOM     97  C   UNL A   1      41.717  23.165  28.221  1.00  0.00     0.173 A 
ATOM     98  F   UNL A   1      39.500  25.217  26.193  1.00  0.00    -0.203 F 
ATOM     99  C   UNL A   1      39.617  22.877  26.426  1.00  0.00     0.198 A 
ATOM    100  C   UNL A   1      41.261  21.896  27.876  1.00  0.00     0.198 A 
ATOM    101  F   UNL A   1      42.738  23.275  29.084  1.00  0.00    -0.203 F 
ATOM    102  F   UNL A   1      38.592  22.741  25.575  1.00  0.00    -0.200 F 
ATOM    103  C   UNL A   1      40.213  21.753  26.980  1.00  0.00     0.200 A 
ATOM    104  F   UNL A   1      41.847  20.810  28.401  1.00  0.00    -0.200 F 
ATOM    105  F   UNL A   1      39.775  20.530  26.650  1.00  0.00    -0.200 F 
ENDBRANCH  72  95
ENDBRANCH  46  47
ENDBRANCH  39  41
ENDBRANCH  38  39
ENDBRANCH  37  38
ENDBRANCH   1  37
TORSDOF 14
ENDMDL
