MODEL 1
REMARK VINA RESULT:     -10.7      0.000      0.000
REMARK SMILES C[C@H](Cc1cccs1)N(C)C(=O)N1CC[C@@H](CC(=O)OCCOC(=O)c2ccc(-c3c4nc(c(-c5c(F)c(F)c(F)c(F)c5F)c5ccc([nH]5)c(-c5c(F)c(F)c(F)c(F)c5F)c5nc(c(-c6c(F)c(F)c(F)c(F)c6F)c6ccc3[nH]6)C=C5)C=C4)cc2)C1
REMARK SMILES IDX 18 1 19 2 17 3 16 4 13 5 14 6 89 7 15 8 11 9 12 10 9 11
REMARK SMILES IDX 10 12 2 13 1 14 3 15 4 16 5 17 8 18 6 19 7 20 20 21 21 22
REMARK SMILES IDX 22 23 23 24 24 25 25 26 26 27 27 28 88 29 28 30 87 31 29 32
REMARK SMILES IDX 30 33 31 34 81 35 32 36 86 37 80 38 82 39 33 40 85 41 79 42
REMARK SMILES IDX 78 43 34 45 66 46 46 47 65 48 47 49 50 50 64 51 83 52 48 53
REMARK SMILES IDX 49 54 63 56 84 57 51 58 35 59 36 60 44 61 37 62 38 63 42 64
REMARK SMILES IDX 45 65 39 66 40 67 43 68 41 69 67 70 68 71 76 72 69 73 70 74
REMARK SMILES IDX 74 75 77 76 71 77 72 78 75 79 73 80 52 81 53 82 61 83 54 84
REMARK SMILES IDX 55 85 59 86 62 87 56 88 57 89 60 90 58 91
REMARK H PARENT 82 44 50 55
REMARK Flexibility Score: inf
ROOT
ATOM      1  C   UNL A   1      41.023  21.320  26.286  1.00  0.00     0.306 C 
ATOM      2  O   UNL A   1      41.974  22.079  26.135  1.00  0.00    -0.252 OA
ENDROOT
BRANCH   1   3
ATOM      3  C   UNL A   1      39.652  21.802  26.727  1.00  0.00     0.128 C 
BRANCH   3   4
ATOM      4  C   UNL A   1      38.798  22.705  25.828  1.00  0.00     0.021 C 
ATOM      5  N   UNL A   1      36.635  23.053  24.887  1.00  0.00    -0.324 N 
ATOM      6  C   UNL A   1      36.777  24.079  25.904  1.00  0.00     0.122 C 
ATOM      7  C   UNL A   1      37.648  22.028  25.088  1.00  0.00     0.125 C 
ATOM      8  C   UNL A   1      38.195  23.963  26.449  1.00  0.00     0.027 C 
BRANCH   5   9
ATOM      9  C   UNL A   1      35.534  22.737  24.114  1.00  0.00     0.320 C 
ATOM     10  O   UNL A   1      35.587  22.857  22.886  1.00  0.00    -0.248 OA
BRANCH   9  11
ATOM     11  N   UNL A   1      34.390  22.245  24.722  1.00  0.00    -0.325 N 
ATOM     12  C   UNL A   1      33.545  23.025  25.611  1.00  0.00     0.149 C 
BRANCH  11  13
ATOM     13  C   UNL A   1      33.783  20.980  24.239  1.00  0.00     0.088 C 
ATOM     14  C   UNL A   1      32.508  21.198  23.408  1.00  0.00     0.031 C 
BRANCH  13  15
ATOM     15  C   UNL A   1      33.572  19.958  25.384  1.00  0.00     0.071 C 
BRANCH  15  16
ATOM     16  C   UNL A   1      33.592  18.529  24.885  1.00  0.00     0.007 A 
ATOM     17  C   UNL A   1      34.403  17.981  23.909  1.00  0.00     0.015 A 
ATOM     18  S   UNL A   1      32.532  17.351  25.543  1.00  0.00    -0.149 S 
ATOM     19  C   UNL A   1      34.120  16.604  23.673  1.00  0.00     0.012 A 
ATOM     20  C   UNL A   1      33.108  16.141  24.483  1.00  0.00     0.065 A 
ENDBRANCH  15  16
ENDBRANCH  13  15
ENDBRANCH  11  13
ENDBRANCH   9  11
ENDBRANCH   5   9
ENDBRANCH   3   4
ENDBRANCH   1   3
BRANCH   1  21
ATOM     21  O   UNL A   1      41.107  19.968  26.217  1.00  0.00    -0.462 OA
BRANCH  21  22
ATOM     22  C   UNL A   1      42.277  19.344  26.785  1.00  0.00     0.274 C 
BRANCH  22  23
ATOM     23  C   UNL A   1      43.059  18.516  25.760  1.00  0.00     0.275 C 
BRANCH  23  24
ATOM     24  O   UNL A   1      43.344  19.272  24.567  1.00  0.00    -0.458 OA
BRANCH  24  25
ATOM     25  C   UNL A   1      44.653  19.531  24.377  1.00  0.00     0.338 C 
ATOM     26  O   UNL A   1      45.487  18.763  23.909  1.00  0.00    -0.246 OA
BRANCH  25  27
ATOM     27  C   UNL A   1      44.980  20.917  24.712  1.00  0.00     0.060 A 
ATOM     28  C   UNL A   1      45.482  21.187  25.988  1.00  0.00     0.016 A 
ATOM     29  C   UNL A   1      44.664  21.957  23.836  1.00  0.00     0.016 A 
ATOM     30  C   UNL A   1      45.639  22.498  26.412  1.00  0.00     0.010 A 
ATOM     31  C   UNL A   1      44.844  23.278  24.255  1.00  0.00     0.010 A 
ATOM     32  C   UNL A   1      45.320  23.553  25.548  1.00  0.00    -0.014 A 
BRANCH  32  33
ATOM     33  C   UNL A   1      45.513  24.940  26.017  1.00  0.00     0.031 A 
ATOM     34  C   UNL A   1      46.840  25.617  25.869  1.00  0.00     0.074 A 
ATOM     35  C   UNL A   1      44.458  25.596  26.534  1.00  0.00     0.049 A 
ATOM     36  N   UNL A   1      47.198  26.819  26.241  1.00  0.00    -0.248 NA
ATOM     37  C   UNL A   1      47.908  24.843  25.218  1.00  0.00     0.031 C 
ATOM     38  C   UNL A   1      43.114  25.036  26.680  1.00  0.00     0.029 A 
ATOM     39  N   UNL A   1      44.346  26.873  27.013  1.00  0.00    -0.354 N 
ATOM     40  C   UNL A   1      48.536  26.939  25.896  1.00  0.00     0.074 A 
ATOM     41  C   UNL A   1      48.931  25.684  25.288  1.00  0.00     0.031 C 
ATOM     42  C   UNL A   1      42.304  25.975  27.193  1.00  0.00     0.029 A 
ATOM     43  C   UNL A   1      43.083  27.183  27.448  1.00  0.00     0.049 A 
ATOM     44  H   UNL A   1      45.098  27.507  27.044  1.00  0.00     0.167 HD
ATOM     45  C   UNL A   1      49.354  28.003  26.073  1.00  0.00     0.037 A 
ATOM     46  C   UNL A   1      42.609  28.314  28.003  1.00  0.00     0.037 A 
ATOM     47  C   UNL A   1      48.938  29.258  26.649  1.00  0.00     0.049 A 
ATOM     48  C   UNL A   1      43.544  29.471  28.203  1.00  0.00     0.074 A 
ATOM     49  C   UNL A   1      49.683  30.407  26.850  1.00  0.00     0.029 A 
ATOM     50  N   UNL A   1      47.657  29.526  27.113  1.00  0.00    -0.354 N 
ATOM     51  N   UNL A   1      44.811  29.573  27.885  1.00  0.00    -0.248 NA
ATOM     52  C   UNL A   1      42.984  30.666  28.848  1.00  0.00     0.031 C 
ATOM     53  C   UNL A   1      48.863  31.359  27.467  1.00  0.00     0.029 A 
ATOM     54  C   UNL A   1      47.597  30.816  27.618  1.00  0.00     0.049 A 
ATOM     55  H   UNL A   1      46.903  28.893  27.088  1.00  0.00     0.167 HD
ATOM     56  C   UNL A   1      45.201  30.844  28.276  1.00  0.00     0.074 A 
ATOM     57  C   UNL A   1      44.029  31.484  28.842  1.00  0.00     0.031 C 
ATOM     58  C   UNL A   1      46.420  31.428  28.180  1.00  0.00     0.037 A 
BRANCH  45  59
ATOM     59  C   UNL A   1      50.790  27.848  25.674  1.00  0.00     0.064 A 
ATOM     60  C   UNL A   1      51.215  28.028  24.349  1.00  0.00     0.173 A 
ATOM     61  C   UNL A   1      51.763  27.552  26.642  1.00  0.00     0.173 A 
ATOM     62  F   UNL A   1      50.322  28.305  23.387  1.00  0.00    -0.203 F 
ATOM     63  C   UNL A   1      52.558  27.898  24.005  1.00  0.00     0.198 A 
ATOM     64  C   UNL A   1      53.107  27.444  26.298  1.00  0.00     0.198 A 
ATOM     65  F   UNL A   1      51.408  27.377  27.924  1.00  0.00    -0.203 F 
ATOM     66  F   UNL A   1      52.940  28.045  22.729  1.00  0.00    -0.200 F 
ATOM     67  C   UNL A   1      53.503  27.612  24.980  1.00  0.00     0.200 A 
ATOM     68  F   UNL A   1      54.020  27.180  27.243  1.00  0.00    -0.200 F 
ATOM     69  F   UNL A   1      54.797  27.496  24.649  1.00  0.00    -0.200 F 
ENDBRANCH  45  59
BRANCH  46  70
ATOM     70  C   UNL A   1      41.181  28.392  28.394  1.00  0.00     0.064 A 
ATOM     71  C   UNL A   1      40.759  27.969  29.660  1.00  0.00     0.173 A 
ATOM     72  C   UNL A   1      40.218  28.926  27.526  1.00  0.00     0.173 A 
ATOM     73  F   UNL A   1      41.642  27.433  30.516  1.00  0.00    -0.203 F 
ATOM     74  C   UNL A   1      39.424  28.077  30.045  1.00  0.00     0.198 A 
ATOM     75  C   UNL A   1      38.889  29.056  27.920  1.00  0.00     0.198 A 
ATOM     76  F   UNL A   1      40.575  29.346  26.303  1.00  0.00    -0.203 F 
ATOM     77  F   UNL A   1      39.041  27.643  31.254  1.00  0.00    -0.200 F 
ATOM     78  C   UNL A   1      38.492  28.629  29.178  1.00  0.00     0.200 A 
ATOM     79  F   UNL A   1      37.995  29.601  27.085  1.00  0.00    -0.200 F 
ATOM     80  F   UNL A   1      37.213  28.745  29.555  1.00  0.00    -0.200 F 
ENDBRANCH  46  70
BRANCH  58  81
ATOM     81  C   UNL A   1      46.538  32.833  28.688  1.00  0.00     0.064 A 
ATOM     82  C   UNL A   1      46.249  33.930  27.865  1.00  0.00     0.173 A 
ATOM     83  C   UNL A   1      46.921  33.081  30.013  1.00  0.00     0.173 A 
ATOM     84  F   UNL A   1      45.896  33.740  26.585  1.00  0.00    -0.203 F 
ATOM     85  C   UNL A   1      46.362  35.231  28.347  1.00  0.00     0.198 A 
ATOM     86  C   UNL A   1      47.013  34.383  30.497  1.00  0.00     0.198 A 
ATOM     87  F   UNL A   1      47.206  32.062  30.838  1.00  0.00    -0.203 F 
ATOM     88  F   UNL A   1      46.123  36.269  27.533  1.00  0.00    -0.200 F 
ATOM     89  C   UNL A   1      46.739  35.456  29.663  1.00  0.00     0.200 A 
ATOM     90  F   UNL A   1      47.372  34.599  31.770  1.00  0.00    -0.200 F 
ATOM     91  F   UNL A   1      46.848  36.710  30.124  1.00  0.00    -0.200 F 
ENDBRANCH  58  81
ENDBRANCH  32  33
ENDBRANCH  25  27
ENDBRANCH  24  25
ENDBRANCH  23  24
ENDBRANCH  22  23
ENDBRANCH  21  22
ENDBRANCH   1  21
TORSDOF 17
ENDMDL
MODEL 2
REMARK VINA RESULT:     -10.4      6.249     11.541
REMARK SMILES C[C@H](Cc1cccs1)N(C)C(=O)N1CC[C@@H](CC(=O)OCCOC(=O)c2ccc(-c3c4nc(c(-c5c(F)c(F)c(F)c(F)c5F)c5ccc([nH]5)c(-c5c(F)c(F)c(F)c(F)c5F)c5nc(c(-c6c(F)c(F)c(F)c(F)c6F)c6ccc3[nH]6)C=C5)C=C4)cc2)C1
REMARK SMILES IDX 18 1 19 2 17 3 16 4 13 5 14 6 89 7 15 8 11 9 12 10 9 11
REMARK SMILES IDX 10 12 2 13 1 14 3 15 4 16 5 17 8 18 6 19 7 20 20 21 21 22
REMARK SMILES IDX 22 23 23 24 24 25 25 26 26 27 27 28 88 29 28 30 87 31 29 32
REMARK SMILES IDX 30 33 31 34 81 35 32 36 86 37 80 38 82 39 33 40 85 41 79 42
REMARK SMILES IDX 78 43 34 45 66 46 46 47 65 48 47 49 50 50 64 51 83 52 48 53
REMARK SMILES IDX 49 54 63 56 84 57 51 58 35 59 36 60 44 61 37 62 38 63 42 64
REMARK SMILES IDX 45 65 39 66 40 67 43 68 41 69 67 70 68 71 76 72 69 73 70 74
REMARK SMILES IDX 74 75 77 76 71 77 72 78 75 79 73 80 52 81 53 82 61 83 54 84
REMARK SMILES IDX 55 85 59 86 62 87 56 88 57 89 60 90 58 91
REMARK H PARENT 82 44 50 55
REMARK Flexibility Score: inf
ROOT
ATOM      1  C   UNL A   1      33.557  29.385  26.626  1.00  0.00     0.306 C 
ATOM      2  O   UNL A   1      33.992  28.826  27.625  1.00  0.00    -0.252 OA
ENDROOT
BRANCH   1   3
ATOM      3  C   UNL A   1      33.454  28.694  25.278  1.00  0.00     0.128 C 
BRANCH   3   4
ATOM      4  C   UNL A   1      32.605  27.430  25.095  1.00  0.00     0.021 C 
ATOM      5  N   UNL A   1      31.905  25.378  26.088  1.00  0.00    -0.324 N 
ATOM      6  C   UNL A   1      30.738  26.241  26.135  1.00  0.00     0.122 C 
ATOM      7  C   UNL A   1      33.090  26.179  25.824  1.00  0.00     0.125 C 
ATOM      8  C   UNL A   1      31.112  27.524  25.402  1.00  0.00     0.027 C 
BRANCH   5   9
ATOM      9  C   UNL A   1      32.078  24.116  26.623  1.00  0.00     0.320 C 
ATOM     10  O   UNL A   1      31.406  23.760  27.596  1.00  0.00    -0.248 OA
BRANCH   9  11
ATOM     11  N   UNL A   1      32.977  23.240  26.034  1.00  0.00    -0.325 N 
ATOM     12  C   UNL A   1      34.176  22.746  26.690  1.00  0.00     0.149 C 
BRANCH  11  13
ATOM     13  C   UNL A   1      32.592  22.502  24.806  1.00  0.00     0.088 C 
ATOM     14  C   UNL A   1      32.543  20.978  25.004  1.00  0.00     0.031 C 
BRANCH  13  15
ATOM     15  C   UNL A   1      33.453  22.909  23.584  1.00  0.00     0.071 C 
BRANCH  15  16
ATOM     16  C   UNL A   1      32.922  24.149  22.897  1.00  0.00     0.007 A 
ATOM     17  C   UNL A   1      33.644  25.166  22.302  1.00  0.00     0.015 A 
ATOM     18  S   UNL A   1      31.235  24.432  22.771  1.00  0.00    -0.149 S 
ATOM     19  C   UNL A   1      32.809  26.198  21.783  1.00  0.00     0.012 A 
ATOM     20  C   UNL A   1      31.475  25.932  21.989  1.00  0.00     0.065 A 
ENDBRANCH  15  16
ENDBRANCH  13  15
ENDBRANCH  11  13
ENDBRANCH   9  11
ENDBRANCH   5   9
ENDBRANCH   3   4
ENDBRANCH   1   3
BRANCH   1  21
ATOM     21  O   UNL A   1      33.251  30.705  26.562  1.00  0.00    -0.462 OA
BRANCH  21  22
ATOM     22  C   UNL A   1      31.854  31.065  26.546  1.00  0.00     0.274 C 
BRANCH  22  23
ATOM     23  C   UNL A   1      31.612  32.511  26.992  1.00  0.00     0.275 C 
BRANCH  23  24
ATOM     24  O   UNL A   1      32.798  33.319  26.853  1.00  0.00    -0.458 OA
BRANCH  24  25
ATOM     25  C   UNL A   1      33.227  33.872  28.005  1.00  0.00     0.338 C 
ATOM     26  O   UNL A   1      32.675  34.770  28.632  1.00  0.00    -0.246 OA
BRANCH  25  27
ATOM     27  C   UNL A   1      34.426  33.200  28.508  1.00  0.00     0.060 A 
ATOM     28  C   UNL A   1      34.260  32.060  29.298  1.00  0.00     0.016 A 
ATOM     29  C   UNL A   1      35.690  33.763  28.326  1.00  0.00     0.016 A 
ATOM     30  C   UNL A   1      35.351  31.492  29.941  1.00  0.00     0.010 A 
ATOM     31  C   UNL A   1      36.792  33.179  28.955  1.00  0.00     0.010 A 
ATOM     32  C   UNL A   1      36.624  32.050  29.775  1.00  0.00    -0.014 A 
BRANCH  32  33
ATOM     33  C   UNL A   1      37.772  31.417  30.455  1.00  0.00     0.031 A 
ATOM     34  C   UNL A   1      38.088  31.745  31.881  1.00  0.00     0.074 A 
ATOM     35  C   UNL A   1      38.496  30.506  29.780  1.00  0.00     0.049 A 
ATOM     36  N   UNL A   1      39.066  31.304  32.631  1.00  0.00    -0.248 NA
ATOM     37  C   UNL A   1      37.189  32.693  32.557  1.00  0.00     0.031 C 
ATOM     38  C   UNL A   1      38.241  30.088  28.401  1.00  0.00     0.029 A 
ATOM     39  N   UNL A   1      39.576  29.759  30.165  1.00  0.00    -0.354 N 
ATOM     40  C   UNL A   1      38.918  31.938  33.856  1.00  0.00     0.074 A 
ATOM     41  C   UNL A   1      37.759  32.800  33.750  1.00  0.00     0.031 C 
ATOM     42  C   UNL A   1      39.126  29.139  28.062  1.00  0.00     0.029 A 
ATOM     43  C   UNL A   1      40.034  28.917  29.183  1.00  0.00     0.049 A 
ATOM     44  H   UNL A   1      39.986  29.819  31.058  1.00  0.00     0.167 HD
ATOM     45  C   UNL A   1      39.685  31.806  34.964  1.00  0.00     0.037 A 
ATOM     46  C   UNL A   1      41.078  28.068  29.185  1.00  0.00     0.037 A 
ATOM     47  C   UNL A   1      40.817  30.919  35.066  1.00  0.00     0.049 A 
ATOM     48  C   UNL A   1      41.921  27.956  30.422  1.00  0.00     0.074 A 
ATOM     49  C   UNL A   1      41.644  30.694  36.152  1.00  0.00     0.029 A 
ATOM     50  N   UNL A   1      41.276  30.105  34.039  1.00  0.00    -0.354 N 
ATOM     51  N   UNL A   1      41.782  28.568  31.573  1.00  0.00    -0.248 NA
ATOM     52  C   UNL A   1      43.070  27.044  30.357  1.00  0.00     0.031 C 
ATOM     53  C   UNL A   1      42.625  29.769  35.772  1.00  0.00     0.029 A 
ATOM     54  C   UNL A   1      42.386  29.392  34.460  1.00  0.00     0.049 A 
ATOM     55  H   UNL A   1      40.871  30.045  33.143  1.00  0.00     0.167 HD
ATOM     56  C   UNL A   1      42.815  28.109  32.375  1.00  0.00     0.074 A 
ATOM     57  C   UNL A   1      43.564  27.153  31.583  1.00  0.00     0.031 C 
ATOM     58  C   UNL A   1      43.118  28.451  33.651  1.00  0.00     0.037 A 
BRANCH  45  59
ATOM     59  C   UNL A   1      39.350  32.667  36.145  1.00  0.00     0.064 A 
ATOM     60  C   UNL A   1      38.431  32.259  37.123  1.00  0.00     0.173 A 
ATOM     61  C   UNL A   1      39.991  33.904  36.319  1.00  0.00     0.173 A 
ATOM     62  F   UNL A   1      37.788  31.089  36.996  1.00  0.00    -0.203 F 
ATOM     63  C   UNL A   1      38.151  33.067  38.222  1.00  0.00     0.198 A 
ATOM     64  C   UNL A   1      39.725  34.699  37.430  1.00  0.00     0.198 A 
ATOM     65  F   UNL A   1      40.883  34.336  35.415  1.00  0.00    -0.203 F 
ATOM     66  F   UNL A   1      37.248  32.674  39.130  1.00  0.00    -0.200 F 
ATOM     67  C   UNL A   1      38.802  34.283  38.377  1.00  0.00     0.200 A 
ATOM     68  F   UNL A   1      40.363  35.867  37.585  1.00  0.00    -0.200 F 
ATOM     69  F   UNL A   1      38.537  35.056  39.440  1.00  0.00    -0.200 F 
ENDBRANCH  45  59
BRANCH  46  70
ATOM     70  C   UNL A   1      41.365  27.262  27.975  1.00  0.00     0.064 A 
ATOM     71  C   UNL A   1      42.278  27.709  27.013  1.00  0.00     0.173 A 
ATOM     72  C   UNL A   1      40.761  26.011  27.774  1.00  0.00     0.173 A 
ATOM     73  F   UNL A   1      42.864  28.907  27.153  1.00  0.00    -0.203 F 
ATOM     74  C   UNL A   1      42.579  26.936  25.894  1.00  0.00     0.198 A 
ATOM     75  C   UNL A   1      41.080  25.229  26.668  1.00  0.00     0.198 A 
ATOM     76  F   UNL A   1      39.880  25.539  28.669  1.00  0.00    -0.203 F 
ATOM     77  F   UNL A   1      43.440  27.397  24.976  1.00  0.00    -0.200 F 
ATOM     78  C   UNL A   1      41.987  25.693  25.727  1.00  0.00     0.200 A 
ATOM     79  F   UNL A   1      40.516  24.023  26.517  1.00  0.00    -0.200 F 
ATOM     80  F   UNL A   1      42.288  24.944  24.658  1.00  0.00    -0.200 F 
ENDBRANCH  46  70
BRANCH  58  81
ATOM     81  C   UNL A   1      44.304  27.773  34.267  1.00  0.00     0.064 A 
ATOM     82  C   UNL A   1      44.179  26.540  34.923  1.00  0.00     0.173 A 
ATOM     83  C   UNL A   1      45.578  28.352  34.183  1.00  0.00     0.173 A 
ATOM     84  F   UNL A   1      42.976  25.959  35.043  1.00  0.00    -0.203 F 
ATOM     85  C   UNL A   1      45.287  25.920  35.492  1.00  0.00     0.198 A 
ATOM     86  C   UNL A   1      46.687  27.719  34.735  1.00  0.00     0.198 A 
ATOM     87  F   UNL A   1      45.747  29.530  33.564  1.00  0.00    -0.203 F 
ATOM     88  F   UNL A   1      45.140  24.762  36.152  1.00  0.00    -0.200 F 
ATOM     89  C   UNL A   1      46.540  26.507  35.394  1.00  0.00     0.200 A 
ATOM     90  F   UNL A   1      47.899  28.282  34.635  1.00  0.00    -0.200 F 
ATOM     91  F   UNL A   1      47.606  25.908  35.944  1.00  0.00    -0.200 F 
ENDBRANCH  58  81
ENDBRANCH  32  33
ENDBRANCH  25  27
ENDBRANCH  24  25
ENDBRANCH  23  24
ENDBRANCH  22  23
ENDBRANCH  21  22
ENDBRANCH   1  21
TORSDOF 17
ENDMDL
MODEL 3
REMARK VINA RESULT:     -10.4      6.235     10.634
REMARK SMILES C[C@H](Cc1cccs1)N(C)C(=O)N1CC[C@@H](CC(=O)OCCOC(=O)c2ccc(-c3c4nc(c(-c5c(F)c(F)c(F)c(F)c5F)c5ccc([nH]5)c(-c5c(F)c(F)c(F)c(F)c5F)c5nc(c(-c6c(F)c(F)c(F)c(F)c6F)c6ccc3[nH]6)C=C5)C=C4)cc2)C1
REMARK SMILES IDX 18 1 19 2 17 3 16 4 13 5 14 6 89 7 15 8 11 9 12 10 9 11
REMARK SMILES IDX 10 12 2 13 1 14 3 15 4 16 5 17 8 18 6 19 7 20 20 21 21 22
REMARK SMILES IDX 22 23 23 24 24 25 25 26 26 27 27 28 88 29 28 30 87 31 29 32
REMARK SMILES IDX 30 33 31 34 81 35 32 36 86 37 80 38 82 39 33 40 85 41 79 42
REMARK SMILES IDX 78 43 34 45 66 46 46 47 65 48 47 49 50 50 64 51 83 52 48 53
REMARK SMILES IDX 49 54 63 56 84 57 51 58 35 59 36 60 44 61 37 62 38 63 42 64
REMARK SMILES IDX 45 65 39 66 40 67 43 68 41 69 67 70 68 71 76 72 69 73 70 74
REMARK SMILES IDX 74 75 77 76 71 77 72 78 75 79 73 80 52 81 53 82 61 83 54 84
REMARK SMILES IDX 55 85 59 86 62 87 56 88 57 89 60 90 58 91
REMARK H PARENT 82 44 50 55
REMARK Flexibility Score: inf
ROOT
ATOM      1  C   UNL A   1      33.598  30.078  26.974  1.00  0.00     0.306 C 
ATOM      2  O   UNL A   1      34.654  30.623  27.276  1.00  0.00    -0.252 OA
ENDROOT
BRANCH   1   3
ATOM      3  C   UNL A   1      33.318  28.615  27.265  1.00  0.00     0.128 C 
BRANCH   3   4
ATOM      4  C   UNL A   1      32.751  27.683  26.186  1.00  0.00     0.021 C 
ATOM      5  N   UNL A   1      32.930  25.541  25.154  1.00  0.00    -0.324 N 
ATOM      6  C   UNL A   1      31.714  25.482  25.945  1.00  0.00     0.122 C 
ATOM      7  C   UNL A   1      33.728  26.681  25.577  1.00  0.00     0.125 C 
ATOM      8  C   UNL A   1      31.502  26.874  26.528  1.00  0.00     0.027 C 
BRANCH   5   9
ATOM      9  C   UNL A   1      33.556  24.537  24.440  1.00  0.00     0.320 C 
ATOM     10  O   UNL A   1      33.344  24.414  23.230  1.00  0.00    -0.248 OA
BRANCH   9  11
ATOM     11  N   UNL A   1      34.454  23.699  25.083  1.00  0.00    -0.325 N 
ATOM     12  C   UNL A   1      35.822  24.071  25.403  1.00  0.00     0.149 C 
BRANCH  11  13
ATOM     13  C   UNL A   1      33.965  22.480  25.771  1.00  0.00     0.088 C 
ATOM     14  C   UNL A   1      33.746  22.680  27.279  1.00  0.00     0.031 C 
BRANCH  13  15
ATOM     15  C   UNL A   1      34.843  21.241  25.464  1.00  0.00     0.071 C 
BRANCH  15  16
ATOM     16  C   UNL A   1      34.062  20.141  24.779  1.00  0.00     0.007 A 
ATOM     17  C   UNL A   1      34.420  18.815  24.622  1.00  0.00     0.015 A 
ATOM     18  S   UNL A   1      32.526  20.454  24.082  1.00  0.00    -0.149 S 
ATOM     19  C   UNL A   1      33.450  18.069  23.890  1.00  0.00     0.012 A 
ATOM     20  C   UNL A   1      32.377  18.847  23.519  1.00  0.00     0.065 A 
ENDBRANCH  15  16
ENDBRANCH  13  15
ENDBRANCH  11  13
ENDBRANCH   9  11
ENDBRANCH   5   9
ENDBRANCH   3   4
ENDBRANCH   1   3
BRANCH   1  21
ATOM     21  O   UNL A   1      32.624  30.662  26.232  1.00  0.00    -0.462 OA
BRANCH  21  22
ATOM     22  C   UNL A   1      31.771  31.622  26.891  1.00  0.00     0.274 C 
BRANCH  22  23
ATOM     23  C   UNL A   1      32.356  33.039  26.871  1.00  0.00     0.275 C 
BRANCH  23  24
ATOM     24  O   UNL A   1      32.154  33.719  28.125  1.00  0.00    -0.458 OA
BRANCH  24  25
ATOM     25  C   UNL A   1      33.154  34.555  28.468  1.00  0.00     0.338 C 
ATOM     26  O   UNL A   1      33.116  35.781  28.454  1.00  0.00    -0.246 OA
BRANCH  25  27
ATOM     27  C   UNL A   1      34.316  33.822  28.972  1.00  0.00     0.060 A 
ATOM     28  C   UNL A   1      34.096  32.767  29.860  1.00  0.00     0.016 A 
ATOM     29  C   UNL A   1      35.612  34.257  28.688  1.00  0.00     0.016 A 
ATOM     30  C   UNL A   1      35.167  32.159  30.499  1.00  0.00     0.010 A 
ATOM     31  C   UNL A   1      36.692  33.629  29.314  1.00  0.00     0.010 A 
ATOM     32  C   UNL A   1      36.472  32.588  30.231  1.00  0.00    -0.014 A 
BRANCH  32  33
ATOM     33  C   UNL A   1      37.597  31.913  30.911  1.00  0.00     0.031 A 
ATOM     34  C   UNL A   1      38.425  30.897  30.188  1.00  0.00     0.074 A 
ATOM     35  C   UNL A   1      37.889  32.267  32.176  1.00  0.00     0.049 A 
ATOM     36  N   UNL A   1      39.434  30.190  30.631  1.00  0.00    -0.248 NA
ATOM     37  C   UNL A   1      38.076  30.638  28.783  1.00  0.00     0.031 C 
ATOM     38  C   UNL A   1      37.167  33.278  32.950  1.00  0.00     0.029 A 
ATOM     39  N   UNL A   1      38.873  31.833  33.022  1.00  0.00    -0.354 N 
ATOM     40  C   UNL A   1      39.825  29.385  29.571  1.00  0.00     0.074 A 
ATOM     41  C   UNL A   1      38.941  29.684  28.463  1.00  0.00     0.031 C 
ATOM     42  C   UNL A   1      37.748  33.404  34.152  1.00  0.00     0.029 A 
ATOM     43  C   UNL A   1      38.853  32.454  34.245  1.00  0.00     0.049 A 
ATOM     44  H   UNL A   1      39.531  31.143  32.777  1.00  0.00     0.167 HD
ATOM     45  C   UNL A   1      40.831  28.480  29.535  1.00  0.00     0.037 A 
ATOM     46  C   UNL A   1      39.634  32.269  35.325  1.00  0.00     0.037 A 
ATOM     47  C   UNL A   1      41.724  28.216  30.635  1.00  0.00     0.049 A 
ATOM     48  C   UNL A   1      40.730  31.246  35.261  1.00  0.00     0.074 A 
ATOM     49  C   UNL A   1      42.791  27.337  30.693  1.00  0.00     0.029 A 
ATOM     50  N   UNL A   1      41.653  28.839  31.875  1.00  0.00    -0.354 N 
ATOM     51  N   UNL A   1      41.086  30.479  34.260  1.00  0.00    -0.248 NA
ATOM     52  C   UNL A   1      41.527  31.057  36.480  1.00  0.00     0.031 C 
ATOM     53  C   UNL A   1      43.345  27.402  31.977  1.00  0.00     0.029 A 
ATOM     54  C   UNL A   1      42.645  28.348  32.708  1.00  0.00     0.049 A 
ATOM     55  H   UNL A   1      40.995  29.527  32.124  1.00  0.00     0.167 HD
ATOM     56  C   UNL A   1      42.155  29.725  34.718  1.00  0.00     0.074 A 
ATOM     57  C   UNL A   1      42.400  30.139  36.086  1.00  0.00     0.031 C 
ATOM     58  C   UNL A   1      42.866  28.772  34.068  1.00  0.00     0.037 A 
BRANCH  45  59
ATOM     59  C   UNL A   1      40.999  27.680  28.278  1.00  0.00     0.064 A 
ATOM     60  C   UNL A   1      41.813  28.120  27.223  1.00  0.00     0.173 A 
ATOM     61  C   UNL A   1      40.366  26.435  28.145  1.00  0.00     0.173 A 
ATOM     62  F   UNL A   1      42.433  29.307  27.300  1.00  0.00    -0.203 F 
ATOM     63  C   UNL A   1      41.970  27.351  26.073  1.00  0.00     0.198 A 
ATOM     64  C   UNL A   1      40.543  25.658  27.004  1.00  0.00     0.198 A 
ATOM     65  F   UNL A   1      39.583  25.967  29.129  1.00  0.00    -0.203 F 
ATOM     66  F   UNL A   1      42.727  27.802  25.064  1.00  0.00    -0.200 F 
ATOM     67  C   UNL A   1      41.340  26.119  25.967  1.00  0.00     0.200 A 
ATOM     68  F   UNL A   1      39.943  24.464  26.908  1.00  0.00    -0.200 F 
ATOM     69  F   UNL A   1      41.499  25.375  24.863  1.00  0.00    -0.200 F 
ENDBRANCH  45  59
BRANCH  46  70
ATOM     70  C   UNL A   1      39.398  33.080  36.543  1.00  0.00     0.064 A 
ATOM     71  C   UNL A   1      40.076  34.288  36.745  1.00  0.00     0.173 A 
ATOM     72  C   UNL A   1      38.461  32.684  37.509  1.00  0.00     0.173 A 
ATOM     73  F   UNL A   1      40.995  34.696  35.858  1.00  0.00    -0.203 F 
ATOM     74  C   UNL A   1      39.827  35.072  37.870  1.00  0.00     0.198 A 
ATOM     75  C   UNL A   1      38.196  33.480  38.621  1.00  0.00     0.198 A 
ATOM     76  F   UNL A   1      37.785  31.535  37.359  1.00  0.00    -0.203 F 
ATOM     77  F   UNL A   1      40.507  36.212  38.052  1.00  0.00    -0.200 F 
ATOM     78  C   UNL A   1      38.881  34.671  38.802  1.00  0.00     0.200 A 
ATOM     79  F   UNL A   1      37.272  33.096  39.512  1.00  0.00    -0.200 F 
ATOM     80  F   UNL A   1      38.633  35.433  39.875  1.00  0.00    -0.200 F 
ENDBRANCH  46  70
BRANCH  58  81
ATOM     81  C   UNL A   1      43.983  28.126  34.830  1.00  0.00     0.064 A 
ATOM     82  C   UNL A   1      43.782  26.942  35.552  1.00  0.00     0.173 A 
ATOM     83  C   UNL A   1      45.268  28.686  34.819  1.00  0.00     0.173 A 
ATOM     84  F   UNL A   1      42.564  26.382  35.606  1.00  0.00    -0.203 F 
ATOM     85  C   UNL A   1      44.827  26.351  36.257  1.00  0.00     0.198 A 
ATOM     86  C   UNL A   1      46.315  28.081  35.508  1.00  0.00     0.198 A 
ATOM     87  F   UNL A   1      45.509  29.817  34.140  1.00  0.00    -0.203 F 
ATOM     88  F   UNL A   1      44.605  25.243  36.977  1.00  0.00    -0.200 F 
ATOM     89  C   UNL A   1      46.093  26.918  36.231  1.00  0.00     0.200 A 
ATOM     90  F   UNL A   1      47.539  28.625  35.477  1.00  0.00    -0.200 F 
ATOM     91  F   UNL A   1      47.098  26.348  36.911  1.00  0.00    -0.200 F 
ENDBRANCH  58  81
ENDBRANCH  32  33
ENDBRANCH  25  27
ENDBRANCH  24  25
ENDBRANCH  23  24
ENDBRANCH  22  23
ENDBRANCH  21  22
ENDBRANCH   1  21
TORSDOF 17
ENDMDL
