MODEL 1
REMARK VINA RESULT:     -13.4      0.000      0.000
REMARK SMILES CS(=O)(=O)c1ccc(/C=C(/C(=O)OCCOC(=O)c2ccc(-c3c4nc(c(-c5c(F)c(F)c(F)c(F)c5F)c5ccc([nH]5)c(-c5c(F)c(F)c(F)c(F)c5F)c5nc(c(-c6c(F)c(F)c(F)c(F)c6F)c6ccc3[nH]6)C=C5)C=C4)cc2)c2ccc(-c3ccc(S(C)(=O)=O)cc3)cc2)cc1
REMARK SMILES IDX 14 1 13 2 11 3 12 4 10 5 9 6 8 7 5 8 6 9 99 10 7 11 98 12
REMARK SMILES IDX 2 13 1 14 3 15 4 16 82 17 83 18 97 19 84 20 96 21 85 22
REMARK SMILES IDX 86 23 87 24 95 25 88 26 94 27 89 28 90 29 91 30 92 31 93 32
REMARK SMILES IDX 15 33 16 34 17 35 18 36 19 37 20 38 81 39 21 40 80 41 22 42
REMARK SMILES IDX 23 43 24 44 74 45 25 46 79 47 73 48 75 49 26 50 78 51 72 52
REMARK SMILES IDX 71 53 27 55 59 56 39 57 58 58 40 59 43 60 57 61 76 62 41 63
REMARK SMILES IDX 42 64 56 66 77 67 44 68 28 69 29 70 37 71 30 72 31 73 35 74
REMARK SMILES IDX 38 75 32 76 33 77 36 78 34 79 60 80 61 81 69 82 62 83 63 84
REMARK SMILES IDX 67 85 70 86 64 87 65 88 68 89 66 90 45 91 46 92 54 93 47 94
REMARK SMILES IDX 48 95 52 96 55 97 49 98 50 99 53 100 51 101
REMARK H PARENT 75 54 43 65
REMARK Flexibility Score: inf
ROOT
ATOM      1  C   UNL A   1      33.299  28.361  24.672  1.00  0.00     0.275 C 
ENDROOT
BRANCH   1   2
ATOM      2  O   UNL A   1      32.553  27.148  24.439  1.00  0.00    -0.458 OA
BRANCH   2   3
ATOM      3  C   UNL A   1      33.038  26.353  23.450  1.00  0.00     0.338 C 
ATOM      4  O   UNL A   1      33.418  26.733  22.352  1.00  0.00    -0.246 OA
BRANCH   3   5
ATOM      5  C   UNL A   1      33.107  24.919  23.868  1.00  0.00     0.067 C 
ATOM      6  C   UNL A   1      32.026  24.130  23.672  1.00  0.00     0.024 C 
BRANCH   6   7
ATOM      7  C   UNL A   1      31.988  22.653  23.742  1.00  0.00    -0.025 A 
ATOM      8  C   UNL A   1      32.269  19.863  23.734  1.00  0.00     0.067 A 
ATOM      9  C   UNL A   1      32.146  20.540  24.946  1.00  0.00     0.021 A 
ATOM     10  C   UNL A   1      32.153  20.549  22.523  1.00  0.00     0.021 A 
ATOM     11  C   UNL A   1      31.979  21.926  24.940  1.00  0.00     0.009 A 
ATOM     12  C   UNL A   1      32.015  21.941  22.534  1.00  0.00     0.009 A 
BRANCH   8  13
ATOM     13  S   UNL A   1      32.605  18.120  23.744  1.00  0.00     0.175 S 
ATOM     14  C   UNL A   1      34.305  18.019  24.251  1.00  0.00     0.163 C 
ATOM     15  O   UNL A   1      32.528  17.649  22.379  1.00  0.00    -0.224 OA
ATOM     16  O   UNL A   1      31.778  17.540  24.790  1.00  0.00    -0.224 OA
ENDBRANCH   8  13
ENDBRANCH   6   7
BRANCH   5  17
ATOM     17  C   UNL A   1      34.412  24.397  24.315  1.00  0.00    -0.011 A 
ATOM     18  C   UNL A   1      34.789  24.537  25.656  1.00  0.00     0.009 A 
ATOM     19  C   UNL A   1      35.263  23.719  23.443  1.00  0.00     0.009 A 
ATOM     20  C   UNL A   1      35.990  23.986  26.119  1.00  0.00     0.009 A 
ATOM     21  C   UNL A   1      36.465  23.174  23.912  1.00  0.00     0.009 A 
ATOM     22  C   UNL A   1      36.859  23.293  25.259  1.00  0.00    -0.018 A 
BRANCH  22  23
ATOM     23  C   UNL A   1      38.130  22.710  25.750  1.00  0.00    -0.018 A 
ATOM     24  C   UNL A   1      38.972  23.422  26.626  1.00  0.00     0.010 A 
ATOM     25  C   UNL A   1      38.531  21.410  25.382  1.00  0.00     0.010 A 
ATOM     26  C   UNL A   1      40.150  22.860  27.130  1.00  0.00     0.021 A 
ATOM     27  C   UNL A   1      39.702  20.833  25.887  1.00  0.00     0.021 A 
ATOM     28  C   UNL A   1      40.507  21.565  26.757  1.00  0.00     0.067 A 
BRANCH  28  29
ATOM     29  S   UNL A   1      41.949  20.819  27.479  1.00  0.00     0.175 S 
ATOM     30  C   UNL A   1      43.031  20.552  26.100  1.00  0.00     0.163 C 
ATOM     31  O   UNL A   1      42.547  21.816  28.348  1.00  0.00    -0.224 OA
ATOM     32  O   UNL A   1      41.560  19.523  28.001  1.00  0.00    -0.224 OA
ENDBRANCH  28  29
ENDBRANCH  22  23
ENDBRANCH   5  17
ENDBRANCH   3   5
ENDBRANCH   2   3
ENDBRANCH   1   2
BRANCH   1  33
ATOM     33  C   UNL A   1      32.409  29.433  25.298  1.00  0.00     0.275 C 
BRANCH  33  34
ATOM     34  O   UNL A   1      32.682  29.537  26.707  1.00  0.00    -0.458 OA
BRANCH  34  35
ATOM     35  C   UNL A   1      33.178  30.723  27.126  1.00  0.00     0.338 C 
ATOM     36  O   UNL A   1      32.583  31.786  27.216  1.00  0.00    -0.246 OA
BRANCH  35  37
ATOM     37  C   UNL A   1      34.594  30.586  27.513  1.00  0.00     0.060 A 
ATOM     38  C   UNL A   1      35.133  29.328  27.764  1.00  0.00     0.016 A 
ATOM     39  C   UNL A   1      35.340  31.728  27.803  1.00  0.00     0.016 A 
ATOM     40  C   UNL A   1      36.350  29.219  28.437  1.00  0.00     0.010 A 
ATOM     41  C   UNL A   1      36.613  31.606  28.376  1.00  0.00     0.010 A 
ATOM     42  C   UNL A   1      37.112  30.350  28.764  1.00  0.00    -0.014 A 
BRANCH  42  43
ATOM     43  C   UNL A   1      38.373  30.235  29.565  1.00  0.00     0.031 A 
ATOM     44  C   UNL A   1      39.593  29.559  28.981  1.00  0.00     0.074 A 
ATOM     45  C   UNL A   1      38.464  30.740  30.813  1.00  0.00     0.049 A 
ATOM     46  N   UNL A   1      40.672  29.120  29.583  1.00  0.00    -0.248 NA
ATOM     47  C   UNL A   1      39.594  29.332  27.527  1.00  0.00     0.031 C 
ATOM     48  C   UNL A   1      37.414  31.480  31.512  1.00  0.00     0.029 A 
ATOM     49  N   UNL A   1      39.500  30.706  31.719  1.00  0.00    -0.354 N 
ATOM     50  C   UNL A   1      41.423  28.478  28.604  1.00  0.00     0.074 A 
ATOM     51  C   UNL A   1      40.697  28.613  27.361  1.00  0.00     0.031 C 
ATOM     52  C   UNL A   1      37.872  31.877  32.707  1.00  0.00     0.029 A 
ATOM     53  C   UNL A   1      39.200  31.312  32.915  1.00  0.00     0.049 A 
ATOM     54  H   UNL A   1      40.371  30.288  31.529  1.00  0.00     0.167 HD
ATOM     55  C   UNL A   1      42.604  27.827  28.737  1.00  0.00     0.037 A 
ATOM     56  C   UNL A   1      39.874  31.355  34.081  1.00  0.00     0.037 A 
ATOM     57  C   UNL A   1      43.377  27.778  29.950  1.00  0.00     0.049 A 
ATOM     58  C   UNL A   1      41.177  30.623  34.210  1.00  0.00     0.074 A 
ATOM     59  C   UNL A   1      44.610  27.184  30.165  1.00  0.00     0.029 A 
ATOM     60  N   UNL A   1      43.003  28.362  31.150  1.00  0.00    -0.354 N 
ATOM     61  N   UNL A   1      41.835  29.942  33.305  1.00  0.00    -0.248 NA
ATOM     62  C   UNL A   1      41.815  30.638  35.534  1.00  0.00     0.031 C 
ATOM     63  C   UNL A   1      44.974  27.394  31.500  1.00  0.00     0.029 A 
ATOM     64  C   UNL A   1      43.985  28.151  32.105  1.00  0.00     0.049 A 
ATOM     65  H   UNL A   1      42.163  28.853  31.301  1.00  0.00     0.167 HD
ATOM     66  C   UNL A   1      42.955  29.437  33.951  1.00  0.00     0.074 A 
ATOM     67  C   UNL A   1      42.909  29.922  35.315  1.00  0.00     0.031 C 
ATOM     68  C   UNL A   1      43.928  28.635  33.458  1.00  0.00     0.037 A 
BRANCH  55  69
ATOM     69  C   UNL A   1      43.135  27.080  27.546  1.00  0.00     0.064 A 
ATOM     70  C   UNL A   1      43.991  27.677  26.612  1.00  0.00     0.173 A 
ATOM     71  C   UNL A   1      42.830  25.719  27.382  1.00  0.00     0.173 A 
ATOM     72  F   UNL A   1      44.306  28.976  26.720  1.00  0.00    -0.203 F 
ATOM     73  C   UNL A   1      44.509  26.943  25.546  1.00  0.00     0.198 A 
ATOM     74  C   UNL A   1      43.370  24.983  26.330  1.00  0.00     0.198 A 
ATOM     75  F   UNL A   1      42.023  25.097  28.255  1.00  0.00    -0.203 F 
ATOM     76  F   UNL A   1      45.300  27.543  24.644  1.00  0.00    -0.200 F 
ATOM     77  C   UNL A   1      44.205  25.596  25.411  1.00  0.00     0.200 A 
ATOM     78  F   UNL A   1      43.086  23.678  26.212  1.00  0.00    -0.200 F 
ATOM     79  F   UNL A   1      44.715  24.890  24.392  1.00  0.00    -0.200 F 
ENDBRANCH  55  69
BRANCH  56  80
ATOM     80  C   UNL A   1      39.280  32.063  35.244  1.00  0.00     0.064 A 
ATOM     81  C   UNL A   1      38.489  31.378  36.174  1.00  0.00     0.173 A 
ATOM     82  C   UNL A   1      39.511  33.430  35.460  1.00  0.00     0.173 A 
ATOM     83  F   UNL A   1      38.218  30.078  35.991  1.00  0.00    -0.203 F 
ATOM     84  C   UNL A   1      37.952  32.034  37.280  1.00  0.00     0.198 A 
ATOM     85  C   UNL A   1      39.002  34.076  36.583  1.00  0.00     0.198 A 
ATOM     86  F   UNL A   1      40.260  34.130  34.594  1.00  0.00    -0.203 F 
ATOM     87  F   UNL A   1      37.173  31.366  38.140  1.00  0.00    -0.200 F 
ATOM     88  C   UNL A   1      38.220  33.379  37.489  1.00  0.00     0.200 A 
ATOM     89  F   UNL A   1      39.278  35.371  36.789  1.00  0.00    -0.200 F 
ATOM     90  F   UNL A   1      37.720  34.004  38.564  1.00  0.00    -0.200 F 
ENDBRANCH  56  80
BRANCH  68  91
ATOM     91  C   UNL A   1      45.039  28.259  34.392  1.00  0.00     0.064 A 
ATOM     92  C   UNL A   1      46.183  29.058  34.531  1.00  0.00     0.173 A 
ATOM     93  C   UNL A   1      44.949  27.094  35.167  1.00  0.00     0.173 A 
ATOM     94  F   UNL A   1      46.320  30.171  33.795  1.00  0.00    -0.203 F 
ATOM     95  C   UNL A   1      47.207  28.693  35.399  1.00  0.00     0.198 A 
ATOM     96  C   UNL A   1      45.964  26.744  36.053  1.00  0.00     0.198 A 
ATOM     97  F   UNL A   1      43.872  26.300  35.067  1.00  0.00    -0.203 F 
ATOM     98  F   UNL A   1      48.311  29.447  35.487  1.00  0.00    -0.200 F 
ATOM     99  C   UNL A   1      47.095  27.540  36.163  1.00  0.00     0.200 A 
ATOM    100  F   UNL A   1      45.851  25.634  36.794  1.00  0.00    -0.200 F 
ATOM    101  F   UNL A   1      48.082  27.189  36.999  1.00  0.00    -0.200 F 
ENDBRANCH  68  91
ENDBRANCH  42  43
ENDBRANCH  35  37
ENDBRANCH  34  35
ENDBRANCH  33  34
ENDBRANCH   1  33
TORSDOF 16
ENDMDL
MODEL 2
REMARK VINA RESULT:     -12.0      4.624     10.656
REMARK SMILES CS(=O)(=O)c1ccc(/C=C(/C(=O)OCCOC(=O)c2ccc(-c3c4nc(c(-c5c(F)c(F)c(F)c(F)c5F)c5ccc([nH]5)c(-c5c(F)c(F)c(F)c(F)c5F)c5nc(c(-c6c(F)c(F)c(F)c(F)c6F)c6ccc3[nH]6)C=C5)C=C4)cc2)c2ccc(-c3ccc(S(C)(=O)=O)cc3)cc2)cc1
REMARK SMILES IDX 14 1 13 2 11 3 12 4 10 5 9 6 8 7 5 8 6 9 99 10 7 11 98 12
REMARK SMILES IDX 2 13 1 14 3 15 4 16 82 17 83 18 97 19 84 20 96 21 85 22
REMARK SMILES IDX 86 23 87 24 95 25 88 26 94 27 89 28 90 29 91 30 92 31 93 32
REMARK SMILES IDX 15 33 16 34 17 35 18 36 19 37 20 38 81 39 21 40 80 41 22 42
REMARK SMILES IDX 23 43 24 44 74 45 25 46 79 47 73 48 75 49 26 50 78 51 72 52
REMARK SMILES IDX 71 53 27 55 59 56 39 57 58 58 40 59 43 60 57 61 76 62 41 63
REMARK SMILES IDX 42 64 56 66 77 67 44 68 28 69 29 70 37 71 30 72 31 73 35 74
REMARK SMILES IDX 38 75 32 76 33 77 36 78 34 79 60 80 61 81 69 82 62 83 63 84
REMARK SMILES IDX 67 85 70 86 64 87 65 88 68 89 66 90 45 91 46 92 54 93 47 94
REMARK SMILES IDX 48 95 52 96 55 97 49 98 50 99 53 100 51 101
REMARK H PARENT 75 54 43 65
REMARK Flexibility Score: inf
ROOT
ATOM      1  C   UNL A   1      49.589  27.463  24.313  1.00  0.00     0.275 C 
ENDROOT
BRANCH   1   2
ATOM      2  O   UNL A   1      48.364  26.717  24.457  1.00  0.00    -0.458 OA
BRANCH   2   3
ATOM      3  C   UNL A   1      47.295  27.438  24.884  1.00  0.00     0.338 C 
ATOM      4  O   UNL A   1      47.260  28.654  25.012  1.00  0.00    -0.246 OA
BRANCH   3   5
ATOM      5  C   UNL A   1      46.105  26.573  25.148  1.00  0.00     0.067 C 
ATOM      6  C   UNL A   1      46.207  25.240  24.941  1.00  0.00     0.024 C 
BRANCH   6   7
ATOM      7  C   UNL A   1      45.266  24.200  25.408  1.00  0.00    -0.025 A 
ATOM      8  C   UNL A   1      43.335  22.497  26.519  1.00  0.00     0.067 A 
ATOM      9  C   UNL A   1      43.271  22.821  25.165  1.00  0.00     0.021 A 
ATOM     10  C   UNL A   1      44.406  22.930  27.302  1.00  0.00     0.021 A 
ATOM     11  C   UNL A   1      44.252  23.647  24.613  1.00  0.00     0.009 A 
ATOM     12  C   UNL A   1      45.365  23.781  26.743  1.00  0.00     0.009 A 
BRANCH   8  13
ATOM     13  S   UNL A   1      42.022  21.549  27.245  1.00  0.00     0.175 S 
ATOM     14  C   UNL A   1      40.648  21.820  26.151  1.00  0.00     0.163 C 
ATOM     15  O   UNL A   1      41.694  22.154  28.517  1.00  0.00    -0.224 OA
ATOM     16  O   UNL A   1      42.413  20.152  27.155  1.00  0.00    -0.224 OA
ENDBRANCH   8  13
ENDBRANCH   6   7
BRANCH   5  17
ATOM     17  C   UNL A   1      44.930  27.199  25.785  1.00  0.00    -0.011 A 
ATOM     18  C   UNL A   1      43.745  27.347  25.054  1.00  0.00     0.009 A 
ATOM     19  C   UNL A   1      44.954  27.603  27.119  1.00  0.00     0.009 A 
ATOM     20  C   UNL A   1      42.597  27.870  25.659  1.00  0.00     0.009 A 
ATOM     21  C   UNL A   1      43.802  28.130  27.717  1.00  0.00     0.009 A 
ATOM     22  C   UNL A   1      42.596  28.277  27.004  1.00  0.00    -0.018 A 
BRANCH  22  23
ATOM     23  C   UNL A   1      41.380  28.831  27.644  1.00  0.00    -0.018 A 
ATOM     24  C   UNL A   1      41.426  29.406  28.930  1.00  0.00     0.010 A 
ATOM     25  C   UNL A   1      40.136  28.828  26.982  1.00  0.00     0.010 A 
ATOM     26  C   UNL A   1      40.291  29.972  29.521  1.00  0.00     0.021 A 
ATOM     27  C   UNL A   1      38.996  29.399  27.560  1.00  0.00     0.021 A 
ATOM     28  C   UNL A   1      39.081  29.966  28.830  1.00  0.00     0.067 A 
BRANCH  28  29
ATOM     29  S   UNL A   1      37.669  30.775  29.542  1.00  0.00     0.175 S 
ATOM     30  C   UNL A   1      36.764  29.461  30.314  1.00  0.00     0.163 C 
ATOM     31  O   UNL A   1      38.170  31.661  30.577  1.00  0.00    -0.224 OA
ATOM     32  O   UNL A   1      36.863  31.294  28.453  1.00  0.00    -0.224 OA
ENDBRANCH  28  29
ENDBRANCH  22  23
ENDBRANCH   5  17
ENDBRANCH   3   5
ENDBRANCH   2   3
ENDBRANCH   1   2
BRANCH   1  33
ATOM     33  C   UNL A   1      50.777  26.523  24.117  1.00  0.00     0.275 C 
BRANCH  33  34
ATOM     34  O   UNL A   1      51.645  26.581  25.264  1.00  0.00    -0.458 OA
BRANCH  34  35
ATOM     35  C   UNL A   1      51.548  25.547  26.128  1.00  0.00     0.338 C 
ATOM     36  O   UNL A   1      52.115  24.467  26.060  1.00  0.00    -0.246 OA
BRANCH  35  37
ATOM     37  C   UNL A   1      50.652  25.889  27.249  1.00  0.00     0.060 A 
ATOM     38  C   UNL A   1      49.380  25.331  27.323  1.00  0.00     0.016 A 
ATOM     39  C   UNL A   1      51.013  26.908  28.130  1.00  0.00     0.016 A 
ATOM     40  C   UNL A   1      48.428  25.891  28.176  1.00  0.00     0.010 A 
ATOM     41  C   UNL A   1      50.084  27.387  29.063  1.00  0.00     0.010 A 
ATOM     42  C   UNL A   1      48.754  26.933  29.057  1.00  0.00    -0.014 A 
BRANCH  42  43
ATOM     43  C   UNL A   1      47.709  27.590  29.906  1.00  0.00     0.031 A 
ATOM     44  C   UNL A   1      47.233  26.933  31.181  1.00  0.00     0.074 A 
ATOM     45  C   UNL A   1      47.179  28.786  29.572  1.00  0.00     0.049 A 
ATOM     46  N   UNL A   1      46.169  27.190  31.905  1.00  0.00    -0.248 NA
ATOM     47  C   UNL A   1      48.052  25.829  31.706  1.00  0.00     0.031 C 
ATOM     48  C   UNL A   1      47.563  29.596  28.416  1.00  0.00     0.029 A 
ATOM     49  N   UNL A   1      46.195  29.531  30.182  1.00  0.00    -0.354 N 
ATOM     50  C   UNL A   1      46.139  26.218  32.900  1.00  0.00     0.074 A 
ATOM     51  C   UNL A   1      47.308  25.387  32.712  1.00  0.00     0.031 C 
ATOM     52  C   UNL A   1      46.871  30.742  28.429  1.00  0.00     0.029 A 
ATOM     53  C   UNL A   1      45.901  30.697  29.517  1.00  0.00     0.049 A 
ATOM     54  H   UNL A   1      45.746  29.255  31.014  1.00  0.00     0.167 HD
ATOM     55  C   UNL A   1      45.214  26.033  33.872  1.00  0.00     0.037 A 
ATOM     56  C   UNL A   1      44.920  31.600  29.704  1.00  0.00     0.037 A 
ATOM     57  C   UNL A   1      44.105  26.917  34.123  1.00  0.00     0.049 A 
ATOM     58  C   UNL A   1      43.902  31.375  30.782  1.00  0.00     0.074 A 
ATOM     59  C   UNL A   1      43.145  26.837  35.118  1.00  0.00     0.029 A 
ATOM     60  N   UNL A   1      43.820  28.056  33.386  1.00  0.00    -0.354 N 
ATOM     61  N   UNL A   1      43.829  30.406  31.660  1.00  0.00    -0.248 NA
ATOM     62  C   UNL A   1      42.809  32.353  30.873  1.00  0.00     0.031 C 
ATOM     63  C   UNL A   1      42.268  27.918  34.973  1.00  0.00     0.029 A 
ATOM     64  C   UNL A   1      42.705  28.691  33.911  1.00  0.00     0.049 A 
ATOM     65  H   UNL A   1      44.333  28.366  32.605  1.00  0.00     0.167 HD
ATOM     66  C   UNL A   1      42.679  30.648  32.397  1.00  0.00     0.074 A 
ATOM     67  C   UNL A   1      42.105  31.878  31.891  1.00  0.00     0.031 C 
ATOM     68  C   UNL A   1      42.142  29.911  33.398  1.00  0.00     0.037 A 
BRANCH  55  69
ATOM     69  C   UNL A   1      45.332  24.807  34.734  1.00  0.00     0.064 A 
ATOM     70  C   UNL A   1      45.902  24.846  36.012  1.00  0.00     0.173 A 
ATOM     71  C   UNL A   1      44.798  23.587  34.289  1.00  0.00     0.173 A 
ATOM     72  F   UNL A   1      46.432  25.986  36.480  1.00  0.00    -0.203 F 
ATOM     73  C   UNL A   1      45.950  23.703  36.809  1.00  0.00     0.198 A 
ATOM     74  C   UNL A   1      44.825  22.453  35.098  1.00  0.00     0.198 A 
ATOM     75  F   UNL A   1      44.232  23.499  33.076  1.00  0.00    -0.203 F 
ATOM     76  F   UNL A   1      46.530  23.755  38.017  1.00  0.00    -0.200 F 
ATOM     77  C   UNL A   1      45.404  22.511  36.355  1.00  0.00     0.200 A 
ATOM     78  F   UNL A   1      44.283  21.307  34.661  1.00  0.00    -0.200 F 
ATOM     79  F   UNL A   1      45.440  21.417  37.129  1.00  0.00    -0.200 F 
ENDBRANCH  55  69
BRANCH  56  80
ATOM     80  C   UNL A   1      44.817  32.767  28.791  1.00  0.00     0.064 A 
ATOM     81  C   UNL A   1      44.199  32.648  27.540  1.00  0.00     0.173 A 
ATOM     82  C   UNL A   1      45.312  34.028  29.160  1.00  0.00     0.173 A 
ATOM     83  F   UNL A   1      43.738  31.457  27.134  1.00  0.00    -0.203 F 
ATOM     84  C   UNL A   1      44.077  33.747  26.693  1.00  0.00     0.198 A 
ATOM     85  C   UNL A   1      45.160  35.132  28.327  1.00  0.00     0.198 A 
ATOM     86  F   UNL A   1      45.915  34.191  30.348  1.00  0.00    -0.203 F 
ATOM     87  F   UNL A   1      43.510  33.603  25.488  1.00  0.00    -0.200 F 
ATOM     88  C   UNL A   1      44.547  34.991  27.092  1.00  0.00     0.200 A 
ATOM     89  F   UNL A   1      45.599  36.333  28.726  1.00  0.00    -0.200 F 
ATOM     90  F   UNL A   1      44.411  36.052  26.285  1.00  0.00    -0.200 F 
ENDBRANCH  56  80
BRANCH  68  91
ATOM     91  C   UNL A   1      40.888  30.433  34.033  1.00  0.00     0.064 A 
ATOM     92  C   UNL A   1      40.930  31.312  35.124  1.00  0.00     0.173 A 
ATOM     93  C   UNL A   1      39.633  30.061  33.531  1.00  0.00     0.173 A 
ATOM     94  F   UNL A   1      42.108  31.679  35.649  1.00  0.00    -0.203 F 
ATOM     95  C   UNL A   1      39.756  31.785  35.705  1.00  0.00     0.198 A 
ATOM     96  C   UNL A   1      38.461  30.554  34.098  1.00  0.00     0.198 A 
ATOM     97  F   UNL A   1      39.546  29.223  32.487  1.00  0.00    -0.203 F 
ATOM     98  F   UNL A   1      39.816  32.590  36.773  1.00  0.00    -0.200 F 
ATOM     99  C   UNL A   1      38.524  31.410  35.188  1.00  0.00     0.200 A 
ATOM    100  F   UNL A   1      37.273  30.197  33.594  1.00  0.00    -0.200 F 
ATOM    101  F   UNL A   1      37.394  31.866  35.748  1.00  0.00    -0.200 F 
ENDBRANCH  68  91
ENDBRANCH  42  43
ENDBRANCH  35  37
ENDBRANCH  34  35
ENDBRANCH  33  34
ENDBRANCH   1  33
TORSDOF 16
ENDMDL
MODEL 3
REMARK VINA RESULT:     -11.9      2.687      8.139
REMARK SMILES CS(=O)(=O)c1ccc(/C=C(/C(=O)OCCOC(=O)c2ccc(-c3c4nc(c(-c5c(F)c(F)c(F)c(F)c5F)c5ccc([nH]5)c(-c5c(F)c(F)c(F)c(F)c5F)c5nc(c(-c6c(F)c(F)c(F)c(F)c6F)c6ccc3[nH]6)C=C5)C=C4)cc2)c2ccc(-c3ccc(S(C)(=O)=O)cc3)cc2)cc1
REMARK SMILES IDX 14 1 13 2 11 3 12 4 10 5 9 6 8 7 5 8 6 9 99 10 7 11 98 12
REMARK SMILES IDX 2 13 1 14 3 15 4 16 82 17 83 18 97 19 84 20 96 21 85 22
REMARK SMILES IDX 86 23 87 24 95 25 88 26 94 27 89 28 90 29 91 30 92 31 93 32
REMARK SMILES IDX 15 33 16 34 17 35 18 36 19 37 20 38 81 39 21 40 80 41 22 42
REMARK SMILES IDX 23 43 24 44 74 45 25 46 79 47 73 48 75 49 26 50 78 51 72 52
REMARK SMILES IDX 71 53 27 55 59 56 39 57 58 58 40 59 43 60 57 61 76 62 41 63
REMARK SMILES IDX 42 64 56 66 77 67 44 68 28 69 29 70 37 71 30 72 31 73 35 74
REMARK SMILES IDX 38 75 32 76 33 77 36 78 34 79 60 80 61 81 69 82 62 83 63 84
REMARK SMILES IDX 67 85 70 86 64 87 65 88 68 89 66 90 45 91 46 92 54 93 47 94
REMARK SMILES IDX 48 95 52 96 55 97 49 98 50 99 53 100 51 101
REMARK H PARENT 75 54 43 65
REMARK Flexibility Score: inf
ROOT
ATOM      1  C   UNL A   1      41.473  21.292  26.380  1.00  0.00     0.275 C 
ENDROOT
BRANCH   1   2
ATOM      2  O   UNL A   1      40.440  21.819  25.524  1.00  0.00    -0.458 OA
BRANCH   2   3
ATOM      3  C   UNL A   1      39.310  22.222  26.162  1.00  0.00     0.338 C 
ATOM      4  O   UNL A   1      39.268  22.932  27.157  1.00  0.00    -0.246 OA
BRANCH   3   5
ATOM      5  C   UNL A   1      38.076  21.732  25.477  1.00  0.00     0.067 C 
ATOM      6  C   UNL A   1      37.900  20.400  25.320  1.00  0.00     0.024 C 
BRANCH   6   7
ATOM      7  C   UNL A   1      36.646  19.714  24.943  1.00  0.00    -0.025 A 
ATOM      8  C   UNL A   1      34.299  18.228  24.561  1.00  0.00     0.067 A 
ATOM      9  C   UNL A   1      34.223  19.613  24.703  1.00  0.00     0.021 A 
ATOM     10  C   UNL A   1      35.538  17.588  24.506  1.00  0.00     0.021 A 
ATOM     11  C   UNL A   1      35.399  20.348  24.865  1.00  0.00     0.009 A 
ATOM     12  C   UNL A   1      36.705  18.334  24.699  1.00  0.00     0.009 A 
BRANCH   8  13
ATOM     13  S   UNL A   1      32.800  17.282  24.478  1.00  0.00     0.175 S 
ATOM     14  C   UNL A   1      33.244  15.721  25.201  1.00  0.00     0.163 C 
ATOM     15  O   UNL A   1      32.503  17.048  23.082  1.00  0.00    -0.224 OA
ATOM     16  O   UNL A   1      31.840  17.938  25.352  1.00  0.00    -0.224 OA
ENDBRANCH   8  13
ENDBRANCH   6   7
BRANCH   5  17
ATOM     17  C   UNL A   1      37.028  22.723  25.160  1.00  0.00    -0.011 A 
ATOM     18  C   UNL A   1      36.707  22.984  23.822  1.00  0.00     0.009 A 
ATOM     19  C   UNL A   1      36.311  23.372  26.165  1.00  0.00     0.009 A 
ATOM     20  C   UNL A   1      35.669  23.865  23.499  1.00  0.00     0.009 A 
ATOM     21  C   UNL A   1      35.276  24.255  25.834  1.00  0.00     0.009 A 
ATOM     22  C   UNL A   1      34.929  24.525  24.495  1.00  0.00    -0.018 A 
BRANCH  22  23
ATOM     23  C   UNL A   1      33.829  25.456  24.152  1.00  0.00    -0.018 A 
ATOM     24  C   UNL A   1      33.158  25.373  22.916  1.00  0.00     0.010 A 
ATOM     25  C   UNL A   1      33.395  26.445  25.058  1.00  0.00     0.010 A 
ATOM     26  C   UNL A   1      32.088  26.219  22.604  1.00  0.00     0.021 A 
ATOM     27  C   UNL A   1      32.320  27.291  24.760  1.00  0.00     0.021 A 
ATOM     28  C   UNL A   1      31.674  27.174  23.531  1.00  0.00     0.067 A 
BRANCH  28  29
ATOM     29  S   UNL A   1      30.252  28.176  23.171  1.00  0.00     0.175 S 
ATOM     30  C   UNL A   1      30.481  29.622  24.170  1.00  0.00     0.163 C 
ATOM     31  O   UNL A   1      30.352  28.560  21.775  1.00  0.00    -0.224 OA
ATOM     32  O   UNL A   1      29.082  27.473  23.661  1.00  0.00    -0.224 OA
ENDBRANCH  28  29
ENDBRANCH  22  23
ENDBRANCH   5  17
ENDBRANCH   3   5
ENDBRANCH   2   3
ENDBRANCH   1   2
BRANCH   1  33
ATOM     33  C   UNL A   1      42.854  21.740  25.905  1.00  0.00     0.275 C 
BRANCH  33  34
ATOM     34  O   UNL A   1      42.721  22.771  24.910  1.00  0.00    -0.458 OA
BRANCH  34  35
ATOM     35  C   UNL A   1      43.485  23.869  25.094  1.00  0.00     0.338 C 
ATOM     36  O   UNL A   1      44.594  24.088  24.630  1.00  0.00    -0.246 OA
BRANCH  35  37
ATOM     37  C   UNL A   1      42.787  24.852  25.943  1.00  0.00     0.060 A 
ATOM     38  C   UNL A   1      42.880  26.211  25.663  1.00  0.00     0.016 A 
ATOM     39  C   UNL A   1      42.186  24.430  27.129  1.00  0.00     0.016 A 
ATOM     40  C   UNL A   1      42.506  27.144  26.631  1.00  0.00     0.010 A 
ATOM     41  C   UNL A   1      41.709  25.376  28.047  1.00  0.00     0.010 A 
ATOM     42  C   UNL A   1      41.921  26.750  27.844  1.00  0.00    -0.014 A 
BRANCH  42  43
ATOM     43  C   UNL A   1      41.605  27.748  28.916  1.00  0.00     0.031 A 
ATOM     44  C   UNL A   1      42.499  27.879  30.128  1.00  0.00     0.074 A 
ATOM     45  C   UNL A   1      40.534  28.564  28.825  1.00  0.00     0.049 A 
ATOM     46  N   UNL A   1      42.266  28.471  31.275  1.00  0.00    -0.248 NA
ATOM     47  C   UNL A   1      43.825  27.247  30.048  1.00  0.00     0.031 C 
ATOM     48  C   UNL A   1      39.601  28.625  27.701  1.00  0.00     0.029 A 
ATOM     49  N   UNL A   1      40.051  29.507  29.704  1.00  0.00    -0.354 N 
ATOM     50  C   UNL A   1      43.366  28.193  32.080  1.00  0.00     0.074 A 
ATOM     51  C   UNL A   1      44.283  27.409  31.282  1.00  0.00     0.031 C 
ATOM     52  C   UNL A   1      38.696  29.586  27.928  1.00  0.00     0.029 A 
ATOM     53  C   UNL A   1      38.903  30.123  29.268  1.00  0.00     0.049 A 
ATOM     54  H   UNL A   1      40.485  29.719  30.562  1.00  0.00     0.167 HD
ATOM     55  C   UNL A   1      43.582  28.551  33.369  1.00  0.00     0.037 A 
ATOM     56  C   UNL A   1      38.060  30.970  29.889  1.00  0.00     0.037 A 
ATOM     57  C   UNL A   1      42.719  29.415  34.132  1.00  0.00     0.049 A 
ATOM     58  C   UNL A   1      38.313  31.350  31.318  1.00  0.00     0.074 A 
ATOM     59  C   UNL A   1      42.883  29.872  35.429  1.00  0.00     0.029 A 
ATOM     60  N   UNL A   1      41.539  29.969  33.661  1.00  0.00    -0.354 N 
ATOM     61  N   UNL A   1      39.307  31.009  32.100  1.00  0.00    -0.248 NA
ATOM     62  C   UNL A   1      37.307  32.207  31.962  1.00  0.00     0.031 C 
ATOM     63  C   UNL A   1      41.794  30.690  35.749  1.00  0.00     0.029 A 
ATOM     64  C   UNL A   1      40.971  30.771  34.638  1.00  0.00     0.049 A 
ATOM     65  H   UNL A   1      41.161  29.814  32.765  1.00  0.00     0.167 HD
ATOM     66  C   UNL A   1      39.040  31.596  33.329  1.00  0.00     0.074 A 
ATOM     67  C   UNL A   1      37.812  32.348  33.179  1.00  0.00     0.031 C 
ATOM     68  C   UNL A   1      39.748  31.512  34.480  1.00  0.00     0.037 A 
BRANCH  55  69
ATOM     69  C   UNL A   1      44.790  27.989  34.064  1.00  0.00     0.064 A 
ATOM     70  C   UNL A   1      45.966  28.731  34.234  1.00  0.00     0.173 A 
ATOM     71  C   UNL A   1      44.737  26.704  34.629  1.00  0.00     0.173 A 
ATOM     72  F   UNL A   1      46.069  29.960  33.707  1.00  0.00    -0.203 F 
ATOM     73  C   UNL A   1      47.052  28.201  34.929  1.00  0.00     0.198 A 
ATOM     74  C   UNL A   1      45.815  26.188  35.344  1.00  0.00     0.198 A 
ATOM     75  F   UNL A   1      43.630  25.956  34.503  1.00  0.00    -0.203 F 
ATOM     76  F   UNL A   1      48.179  28.916  35.051  1.00  0.00    -0.200 F 
ATOM     77  C   UNL A   1      46.972  26.934  35.490  1.00  0.00     0.200 A 
ATOM     78  F   UNL A   1      45.728  24.970  35.897  1.00  0.00    -0.200 F 
ATOM     79  F   UNL A   1      48.014  26.432  36.169  1.00  0.00    -0.200 F 
ENDBRANCH  55  69
BRANCH  56  80
ATOM     80  C   UNL A   1      36.851  31.455  29.175  1.00  0.00     0.064 A 
ATOM     81  C   UNL A   1      35.770  30.600  28.929  1.00  0.00     0.173 A 
ATOM     82  C   UNL A   1      36.744  32.787  28.746  1.00  0.00     0.173 A 
ATOM     83  F   UNL A   1      35.842  29.312  29.294  1.00  0.00    -0.203 F 
ATOM     84  C   UNL A   1      34.625  31.059  28.282  1.00  0.00     0.198 A 
ATOM     85  C   UNL A   1      35.586  33.253  28.130  1.00  0.00     0.198 A 
ATOM     86  F   UNL A   1      37.755  33.644  28.956  1.00  0.00    -0.203 F 
ATOM     87  F   UNL A   1      33.616  30.215  28.030  1.00  0.00    -0.200 F 
ATOM     88  C   UNL A   1      34.529  32.388  27.895  1.00  0.00     0.200 A 
ATOM     89  F   UNL A   1      35.492  34.541  27.774  1.00  0.00    -0.200 F 
ATOM     90  F   UNL A   1      33.419  32.834  27.292  1.00  0.00    -0.200 F 
ENDBRANCH  56  80
BRANCH  68  91
ATOM     91  C   UNL A   1      39.226  32.276  35.659  1.00  0.00     0.064 A 
ATOM     92  C   UNL A   1      38.395  31.673  36.614  1.00  0.00     0.173 A 
ATOM     93  C   UNL A   1      39.578  33.621  35.844  1.00  0.00     0.173 A 
ATOM     94  F   UNL A   1      38.017  30.394  36.468  1.00  0.00    -0.203 F 
ATOM     95  C   UNL A   1      37.916  32.397  37.702  1.00  0.00     0.198 A 
ATOM     96  C   UNL A   1      39.117  34.335  36.946  1.00  0.00     0.198 A 
ATOM     97  F   UNL A   1      40.373  34.237  34.956  1.00  0.00    -0.203 F 
ATOM     98  F   UNL A   1      37.088  31.816  38.580  1.00  0.00    -0.200 F 
ATOM     99  C   UNL A   1      38.282  33.725  37.870  1.00  0.00     0.200 A 
ATOM    100  F   UNL A   1      39.477  35.616  37.109  1.00  0.00    -0.200 F 
ATOM    101  F   UNL A   1      37.820  34.422  38.918  1.00  0.00    -0.200 F 
ENDBRANCH  68  91
ENDBRANCH  42  43
ENDBRANCH  35  37
ENDBRANCH  34  35
ENDBRANCH  33  34
ENDBRANCH   1  33
TORSDOF 16
ENDMDL
