MODEL 1
REMARK VINA RESULT:     -12.5      0.000      0.000
REMARK SMILES Nc1c(N2CCCC2)ncnc1N1CCC(C(=O)OCCOC(=O)c2ccc(-c3c4nc(c(-c5c(F)c(F)c(F)c(F)c5F)c5ccc([nH]5)c(-c5c(F)c(F)c(F)c(F)c5F)c5nc(c(-c6c(F)c(F)c(F)c(F)c6F)c6ccc3[nH]6)C=C5)C=C4)cc2)CC1
REMARK SMILES IDX 20 1 19 2 17 3 18 4 16 5 13 6 14 7 89 8 15 9 88 10 12 11
REMARK SMILES IDX 2 12 3 13 9 14 11 15 10 16 1 17 4 20 5 21 8 22 6 23 7 24
REMARK SMILES IDX 21 25 22 26 23 27 24 28 25 29 26 30 87 31 27 32 86 33 28 34
REMARK SMILES IDX 29 35 30 36 80 37 31 38 85 39 79 40 81 41 32 42 84 43 78 44
REMARK SMILES IDX 77 45 33 47 65 48 45 49 64 50 46 51 49 52 63 53 82 54 47 55
REMARK SMILES IDX 48 56 62 58 83 59 50 60 34 61 35 62 43 63 36 64 37 65 41 66
REMARK SMILES IDX 44 67 38 68 39 69 42 70 40 71 66 72 67 73 75 74 68 75 69 76
REMARK SMILES IDX 73 77 76 78 70 79 71 80 74 81 72 82 51 83 52 84 60 85 53 86
REMARK SMILES IDX 54 87 58 88 61 89 55 90 56 91 59 92 57 93
REMARK H PARENT 1 18 1 19 81 46 49 57
REMARK Flexibility Score: inf
ROOT
ATOM      1  C   UNL A   1      31.778  28.874  27.154  1.00  0.00     0.274 C 
ENDROOT
BRANCH   1   2
ATOM      2  O   UNL A   1      31.773  28.025  25.991  1.00  0.00    -0.462 OA
BRANCH   2   3
ATOM      3  C   UNL A   1      32.932  27.381  25.719  1.00  0.00     0.309 C 
ATOM      4  O   UNL A   1      33.933  27.908  25.242  1.00  0.00    -0.252 OA
BRANCH   3   5
ATOM      5  C   UNL A   1      32.912  25.919  26.097  1.00  0.00     0.103 C 
ATOM      6  N   UNL A   1      32.887  23.086  26.074  1.00  0.00    -0.355 N 
ATOM      7  C   UNL A   1      31.690  23.787  26.523  1.00  0.00     0.119 C 
ATOM      8  C   UNL A   1      34.171  23.781  26.031  1.00  0.00     0.119 C 
ATOM      9  C   UNL A   1      31.587  25.181  25.907  1.00  0.00     0.037 C 
ATOM     10  C   UNL A   1      34.027  25.156  25.389  1.00  0.00     0.037 C 
BRANCH   6  11
ATOM     11  C   UNL A   1      32.723  22.021  25.183  1.00  0.00     0.157 A 
ATOM     12  C   UNL A   1      33.164  20.737  25.561  1.00  0.00     0.118 A 
ATOM     13  C   UNL A   1      33.031  19.724  24.601  1.00  0.00     0.157 A 
ATOM     14  N   UNL A   1      32.570  19.986  23.366  1.00  0.00    -0.217 NA
ATOM     15  N   UNL A   1      32.190  22.272  23.978  1.00  0.00    -0.217 NA
ATOM     16  C   UNL A   1      32.152  21.236  23.130  1.00  0.00     0.226 A 
BRANCH  12  17
ATOM     17  N   UNL A   1      33.652  20.499  26.857  1.00  0.00    -0.393 N 
ATOM     18  H   UNL A   1      34.616  20.369  27.005  1.00  0.00     0.156 HD
ATOM     19  H   UNL A   1      33.028  20.460  27.619  1.00  0.00     0.156 HD
ENDBRANCH  12  17
BRANCH  13  20
ATOM     20  N   UNL A   1      33.413  18.428  24.851  1.00  0.00    -0.355 N 
ATOM     21  C   UNL A   1      34.559  17.770  24.254  1.00  0.00     0.118 C 
ATOM     22  C   UNL A   1      32.429  17.497  25.371  1.00  0.00     0.118 C 
ATOM     23  C   UNL A   1      34.027  16.366  23.975  1.00  0.00     0.023 C 
ATOM     24  C   UNL A   1      33.077  16.128  25.143  1.00  0.00     0.023 C 
ENDBRANCH  13  20
ENDBRANCH   6  11
ENDBRANCH   3   5
ENDBRANCH   2   3
ENDBRANCH   1   2
BRANCH   1  25
ATOM     25  C   UNL A   1      31.777  30.352  26.758  1.00  0.00     0.275 C 
BRANCH  25  26
ATOM     26  O   UNL A   1      33.102  30.824  26.441  1.00  0.00    -0.458 OA
BRANCH  26  27
ATOM     27  C   UNL A   1      33.575  31.798  27.251  1.00  0.00     0.338 C 
ATOM     28  O   UNL A   1      33.039  32.854  27.539  1.00  0.00    -0.246 OA
BRANCH  27  29
ATOM     29  C   UNL A   1      34.836  31.363  27.868  1.00  0.00     0.060 A 
ATOM     30  C   UNL A   1      34.902  30.062  28.368  1.00  0.00     0.016 A 
ATOM     31  C   UNL A   1      35.894  32.252  28.059  1.00  0.00     0.016 A 
ATOM     32  C   UNL A   1      36.019  29.640  29.078  1.00  0.00     0.010 A 
ATOM     33  C   UNL A   1      37.024  31.824  28.766  1.00  0.00     0.010 A 
ATOM     34  C   UNL A   1      37.086  30.523  29.292  1.00  0.00    -0.014 A 
BRANCH  34  35
ATOM     35  C   UNL A   1      38.231  30.081  30.120  1.00  0.00     0.031 A 
ATOM     36  C   UNL A   1      39.268  29.168  29.534  1.00  0.00     0.074 A 
ATOM     37  C   UNL A   1      38.377  30.558  31.368  1.00  0.00     0.049 A 
ATOM     38  N   UNL A   1      40.330  28.651  30.097  1.00  0.00    -0.248 NA
ATOM     39  C   UNL A   1      39.092  28.797  28.122  1.00  0.00     0.031 C 
ATOM     40  C   UNL A   1      37.477  31.512  32.013  1.00  0.00     0.029 A 
ATOM     41  N   UNL A   1      39.349  30.322  32.307  1.00  0.00    -0.354 N 
ATOM     42  C   UNL A   1      40.947  27.892  29.114  1.00  0.00     0.074 A 
ATOM     43  C   UNL A   1      40.128  27.994  27.924  1.00  0.00     0.031 C 
ATOM     44  C   UNL A   1      37.954  31.803  33.234  1.00  0.00     0.029 A 
ATOM     45  C   UNL A   1      39.163  31.020  33.474  1.00  0.00     0.049 A 
ATOM     46  H   UNL A   1      40.106  29.710  32.158  1.00  0.00     0.167 HD
ATOM     47  C   UNL A   1      42.097  27.182  29.195  1.00  0.00     0.037 A 
ATOM     48  C   UNL A   1      39.881  31.014  34.612  1.00  0.00     0.037 A 
ATOM     49  C   UNL A   1      42.907  27.081  30.380  1.00  0.00     0.049 A 
ATOM     50  C   UNL A   1      41.090  30.128  34.716  1.00  0.00     0.074 A 
ATOM     51  C   UNL A   1      44.076  26.365  30.571  1.00  0.00     0.029 A 
ATOM     52  N   UNL A   1      42.630  27.720  31.580  1.00  0.00    -0.354 N 
ATOM     53  N   UNL A   1      41.641  29.373  33.798  1.00  0.00    -0.248 NA
ATOM     54  C   UNL A   1      41.765  30.078  36.021  1.00  0.00     0.031 C 
ATOM     55  C   UNL A   1      44.486  26.542  31.897  1.00  0.00     0.029 A 
ATOM     56  C   UNL A   1      43.594  27.399  32.522  1.00  0.00     0.049 A 
ATOM     57  H   UNL A   1      41.860  28.314  31.738  1.00  0.00     0.167 HD
ATOM     58  C   UNL A   1      42.729  28.765  34.406  1.00  0.00     0.074 A 
ATOM     59  C   UNL A   1      42.771  29.249  35.771  1.00  0.00     0.031 C 
ATOM     60  C   UNL A   1      43.614  27.883  33.879  1.00  0.00     0.037 A 
BRANCH  47  61
ATOM     61  C   UNL A   1      42.533  26.441  27.968  1.00  0.00     0.064 A 
ATOM     62  C   UNL A   1      43.419  27.012  27.042  1.00  0.00     0.173 A 
ATOM     63  C   UNL A   1      42.074  25.139  27.722  1.00  0.00     0.173 A 
ATOM     64  F   UNL A   1      43.874  28.260  27.226  1.00  0.00    -0.203 F 
ATOM     65  C   UNL A   1      43.811  26.314  25.902  1.00  0.00     0.198 A 
ATOM     66  C   UNL A   1      42.485  24.435  26.592  1.00  0.00     0.198 A 
ATOM     67  F   UNL A   1      41.226  24.548  28.578  1.00  0.00    -0.203 F 
ATOM     68  F   UNL A   1      44.625  26.894  25.010  1.00  0.00    -0.200 F 
ATOM     69  C   UNL A   1      43.347  25.025  25.681  1.00  0.00     0.200 A 
ATOM     70  F   UNL A   1      42.042  23.188  26.384  1.00  0.00    -0.200 F 
ATOM     71  F   UNL A   1      43.725  24.355  24.584  1.00  0.00    -0.200 F 
ENDBRANCH  47  61
BRANCH  48  72
ATOM     72  C   UNL A   1      39.465  31.883  35.741  1.00  0.00     0.064 A 
ATOM     73  C   UNL A   1      40.030  33.154  35.910  1.00  0.00     0.173 A 
ATOM     74  C   UNL A   1      38.472  31.481  36.645  1.00  0.00     0.173 A 
ATOM     75  F   UNL A   1      41.001  33.570  35.082  1.00  0.00    -0.203 F 
ATOM     76  C   UNL A   1      39.610  33.995  36.937  1.00  0.00     0.198 A 
ATOM     77  C   UNL A   1      38.038  32.331  37.660  1.00  0.00     0.198 A 
ATOM     78  F   UNL A   1      37.905  30.272  36.526  1.00  0.00    -0.203 F 
ATOM     79  F   UNL A   1      40.177  35.200  37.088  1.00  0.00    -0.200 F 
ATOM     80  C   UNL A   1      38.608  33.587  37.805  1.00  0.00     0.200 A 
ATOM     81  F   UNL A   1      37.063  31.937  38.490  1.00  0.00    -0.200 F 
ATOM     82  F   UNL A   1      38.193  34.403  38.783  1.00  0.00    -0.200 F 
ENDBRANCH  48  72
BRANCH  60  83
ATOM     83  C   UNL A   1      44.704  27.381  34.777  1.00  0.00     0.064 A 
ATOM     84  C   UNL A   1      44.556  26.195  35.510  1.00  0.00     0.173 A 
ATOM     85  C   UNL A   1      45.932  28.057  34.853  1.00  0.00     0.173 A 
ATOM     86  F   UNL A   1      43.395  25.525  35.479  1.00  0.00    -0.203 F 
ATOM     87  C   UNL A   1      45.597  25.708  36.296  1.00  0.00     0.198 A 
ATOM     88  C   UNL A   1      46.977  27.555  35.622  1.00  0.00     0.198 A 
ATOM     89  F   UNL A   1      46.122  29.193  34.166  1.00  0.00    -0.203 F 
ATOM     90  F   UNL A   1      45.426  24.587  37.010  1.00  0.00    -0.200 F 
ATOM     91  C   UNL A   1      46.808  26.382  36.345  1.00  0.00     0.200 A 
ATOM     92  F   UNL A   1      48.149  28.201  35.661  1.00  0.00    -0.200 F 
ATOM     93  F   UNL A   1      47.813  25.904  37.091  1.00  0.00    -0.200 F 
ENDBRANCH  60  83
ENDBRANCH  34  35
ENDBRANCH  27  29
ENDBRANCH  26  27
ENDBRANCH  25  26
ENDBRANCH   1  25
TORSDOF 14
ENDMDL
MODEL 2
REMARK VINA RESULT:     -12.3      0.579      1.688
REMARK SMILES Nc1c(N2CCCC2)ncnc1N1CCC(C(=O)OCCOC(=O)c2ccc(-c3c4nc(c(-c5c(F)c(F)c(F)c(F)c5F)c5ccc([nH]5)c(-c5c(F)c(F)c(F)c(F)c5F)c5nc(c(-c6c(F)c(F)c(F)c(F)c6F)c6ccc3[nH]6)C=C5)C=C4)cc2)CC1
REMARK SMILES IDX 20 1 19 2 17 3 18 4 16 5 13 6 14 7 89 8 15 9 88 10 12 11
REMARK SMILES IDX 2 12 3 13 9 14 11 15 10 16 1 17 4 20 5 21 8 22 6 23 7 24
REMARK SMILES IDX 21 25 22 26 23 27 24 28 25 29 26 30 87 31 27 32 86 33 28 34
REMARK SMILES IDX 29 35 30 36 80 37 31 38 85 39 79 40 81 41 32 42 84 43 78 44
REMARK SMILES IDX 77 45 33 47 65 48 45 49 64 50 46 51 49 52 63 53 82 54 47 55
REMARK SMILES IDX 48 56 62 58 83 59 50 60 34 61 35 62 43 63 36 64 37 65 41 66
REMARK SMILES IDX 44 67 38 68 39 69 42 70 40 71 66 72 67 73 75 74 68 75 69 76
REMARK SMILES IDX 73 77 76 78 70 79 71 80 74 81 72 82 51 83 52 84 60 85 53 86
REMARK SMILES IDX 54 87 58 88 61 89 55 90 56 91 59 92 57 93
REMARK H PARENT 1 18 1 19 81 46 49 57
REMARK Flexibility Score: inf
ROOT
ATOM      1  C   UNL A   1      31.395  29.242  24.689  1.00  0.00     0.274 C 
ENDROOT
BRANCH   1   2
ATOM      2  O   UNL A   1      31.776  27.927  25.136  1.00  0.00    -0.462 OA
BRANCH   2   3
ATOM      3  C   UNL A   1      32.903  27.414  24.588  1.00  0.00     0.309 C 
ATOM      4  O   UNL A   1      33.636  28.010  23.805  1.00  0.00    -0.252 OA
BRANCH   3   5
ATOM      5  C   UNL A   1      33.221  26.016  25.062  1.00  0.00     0.103 C 
ATOM      6  N   UNL A   1      33.526  23.209  25.299  1.00  0.00    -0.355 N 
ATOM      7  C   UNL A   1      32.563  23.878  26.166  1.00  0.00     0.119 C 
ATOM      8  C   UNL A   1      34.574  23.980  24.636  1.00  0.00     0.119 C 
ATOM      9  C   UNL A   1      32.041  25.170  25.540  1.00  0.00     0.037 C 
ATOM     10  C   UNL A   1      34.006  25.246  24.006  1.00  0.00     0.037 C 
BRANCH   6  11
ATOM     11  C   UNL A   1      33.123  22.028  24.668  1.00  0.00     0.157 A 
ATOM     12  C   UNL A   1      33.594  20.794  25.159  1.00  0.00     0.118 A 
ATOM     13  C   UNL A   1      33.208  19.651  24.446  1.00  0.00     0.157 A 
ATOM     14  N   UNL A   1      32.485  19.741  23.315  1.00  0.00    -0.217 NA
ATOM     15  N   UNL A   1      32.336  22.119  23.586  1.00  0.00    -0.217 NA
ATOM     16  C   UNL A   1      32.069  20.964  22.962  1.00  0.00     0.226 A 
BRANCH  12  17
ATOM     17  N   UNL A   1      34.358  20.735  26.337  1.00  0.00    -0.393 N 
ATOM     18  H   UNL A   1      35.141  20.140  26.387  1.00  0.00     0.156 HD
ATOM     19  H   UNL A   1      34.109  21.287  27.113  1.00  0.00     0.156 HD
ENDBRANCH  12  17
BRANCH  13  20
ATOM     20  N   UNL A   1      33.592  18.388  24.829  1.00  0.00    -0.355 N 
ATOM     21  C   UNL A   1      34.684  17.638  24.241  1.00  0.00     0.118 C 
ATOM     22  C   UNL A   1      32.635  17.549  25.527  1.00  0.00     0.118 C 
ATOM     23  C   UNL A   1      34.117  16.222  24.177  1.00  0.00     0.023 C 
ATOM     24  C   UNL A   1      33.249  16.150  25.428  1.00  0.00     0.023 C 
ENDBRANCH  13  20
ENDBRANCH   6  11
ENDBRANCH   3   5
ENDBRANCH   2   3
ENDBRANCH   1   2
BRANCH   1  25
ATOM     25  C   UNL A   1      31.650  30.289  25.775  1.00  0.00     0.275 C 
BRANCH  25  26
ATOM     26  O   UNL A   1      33.055  30.436  26.060  1.00  0.00    -0.458 OA
BRANCH  26  27
ATOM     27  C   UNL A   1      33.361  31.388  26.971  1.00  0.00     0.338 C 
ATOM     28  O   UNL A   1      32.678  32.337  27.317  1.00  0.00    -0.246 OA
BRANCH  27  29
ATOM     29  C   UNL A   1      34.642  31.066  27.615  1.00  0.00     0.060 A 
ATOM     30  C   UNL A   1      34.870  29.740  27.986  1.00  0.00     0.016 A 
ATOM     31  C   UNL A   1      35.554  32.065  27.955  1.00  0.00     0.016 A 
ATOM     32  C   UNL A   1      36.003  29.402  28.715  1.00  0.00     0.010 A 
ATOM     33  C   UNL A   1      36.701  31.723  28.681  1.00  0.00     0.010 A 
ATOM     34  C   UNL A   1      36.923  30.394  29.078  1.00  0.00    -0.014 A 
BRANCH  34  35
ATOM     35  C   UNL A   1      38.082  30.027  29.924  1.00  0.00     0.031 A 
ATOM     36  C   UNL A   1      39.166  29.152  29.367  1.00  0.00     0.074 A 
ATOM     37  C   UNL A   1      38.195  30.539  31.161  1.00  0.00     0.049 A 
ATOM     38  N   UNL A   1      40.247  28.699  29.949  1.00  0.00    -0.248 NA
ATOM     39  C   UNL A   1      39.019  28.740  27.962  1.00  0.00     0.031 C 
ATOM     40  C   UNL A   1      37.245  31.463  31.778  1.00  0.00     0.029 A 
ATOM     41  N   UNL A   1      39.170  30.372  32.112  1.00  0.00    -0.354 N 
ATOM     42  C   UNL A   1      40.907  27.949  28.988  1.00  0.00     0.074 A 
ATOM     43  C   UNL A   1      40.094  27.983  27.790  1.00  0.00     0.031 C 
ATOM     44  C   UNL A   1      37.697  31.805  32.995  1.00  0.00     0.029 A 
ATOM     45  C   UNL A   1      38.941  31.087  33.261  1.00  0.00     0.049 A 
ATOM     46  H   UNL A   1      39.956  29.794  31.983  1.00  0.00     0.167 HD
ATOM     47  C   UNL A   1      42.090  27.297  29.094  1.00  0.00     0.037 A 
ATOM     48  C   UNL A   1      39.649  31.142  34.404  1.00  0.00     0.037 A 
ATOM     49  C   UNL A   1      42.894  27.263  30.286  1.00  0.00     0.049 A 
ATOM     50  C   UNL A   1      40.899  30.318  34.537  1.00  0.00     0.074 A 
ATOM     51  C   UNL A   1      44.094  26.608  30.502  1.00  0.00     0.029 A 
ATOM     52  N   UNL A   1      42.577  27.914  31.469  1.00  0.00    -0.354 N 
ATOM     53  N   UNL A   1      41.492  29.570  33.641  1.00  0.00    -0.248 NA
ATOM     54  C   UNL A   1      41.565  30.331  35.847  1.00  0.00     0.031 C 
ATOM     55  C   UNL A   1      44.484  26.835  31.826  1.00  0.00     0.029 A 
ATOM     56  C   UNL A   1      43.548  27.662  32.425  1.00  0.00     0.049 A 
ATOM     57  H   UNL A   1      41.779  28.475  31.608  1.00  0.00     0.167 HD
ATOM     58  C   UNL A   1      42.604  29.028  34.270  1.00  0.00     0.074 A 
ATOM     59  C   UNL A   1      42.611  29.546  35.624  1.00  0.00     0.031 C 
ATOM     60  C   UNL A   1      43.534  28.178  33.771  1.00  0.00     0.037 A 
BRANCH  47  61
ATOM     61  C   UNL A   1      42.571  26.549  27.888  1.00  0.00     0.064 A 
ATOM     62  C   UNL A   1      42.216  25.210  27.666  1.00  0.00     0.173 A 
ATOM     63  C   UNL A   1      43.382  27.181  26.934  1.00  0.00     0.173 A 
ATOM     64  F   UNL A   1      41.455  24.557  28.557  1.00  0.00    -0.203 F 
ATOM     65  C   UNL A   1      42.676  24.525  26.544  1.00  0.00     0.198 A 
ATOM     66  C   UNL A   1      43.822  26.500  25.802  1.00  0.00     0.198 A 
ATOM     67  F   UNL A   1      43.747  28.462  27.100  1.00  0.00    -0.203 F 
ATOM     68  F   UNL A   1      42.360  23.234  26.373  1.00  0.00    -0.200 F 
ATOM     69  C   UNL A   1      43.474  25.172  25.611  1.00  0.00     0.200 A 
ATOM     70  F   UNL A   1      44.586  27.128  24.899  1.00  0.00    -0.200 F 
ATOM     71  F   UNL A   1      43.915  24.511  24.532  1.00  0.00    -0.200 F 
ENDBRANCH  47  61
BRANCH  48  72
ATOM     72  C   UNL A   1      39.184  32.016  35.509  1.00  0.00     0.064 A 
ATOM     73  C   UNL A   1      38.379  31.503  36.536  1.00  0.00     0.173 A 
ATOM     74  C   UNL A   1      39.564  33.363  35.584  1.00  0.00     0.173 A 
ATOM     75  F   UNL A   1      37.973  30.226  36.492  1.00  0.00    -0.203 F 
ATOM     76  C   UNL A   1      37.980  32.305  37.602  1.00  0.00     0.198 A 
ATOM     77  C   UNL A   1      39.180  34.159  36.662  1.00  0.00     0.198 A 
ATOM     78  F   UNL A   1      40.329  33.900  34.623  1.00  0.00    -0.203 F 
ATOM     79  F   UNL A   1      37.198  31.795  38.563  1.00  0.00    -0.200 F 
ATOM     80  C   UNL A   1      38.388  33.628  37.670  1.00  0.00     0.200 A 
ATOM     81  F   UNL A   1      39.585  35.434  36.728  1.00  0.00    -0.200 F 
ATOM     82  F   UNL A   1      38.017  34.394  38.705  1.00  0.00    -0.200 F 
ENDBRANCH  48  72
BRANCH  60  83
ATOM     83  C   UNL A   1      44.640  27.750  34.687  1.00  0.00     0.064 A 
ATOM     84  C   UNL A   1      44.541  26.579  35.452  1.00  0.00     0.173 A 
ATOM     85  C   UNL A   1      45.835  28.483  34.751  1.00  0.00     0.173 A 
ATOM     86  F   UNL A   1      43.411  25.856  35.433  1.00  0.00    -0.203 F 
ATOM     87  C   UNL A   1      45.597  26.160  36.256  1.00  0.00     0.198 A 
ATOM     88  C   UNL A   1      46.897  28.049  35.540  1.00  0.00     0.198 A 
ATOM     89  F   UNL A   1      45.978  29.607  34.035  1.00  0.00    -0.203 F 
ATOM     90  F   UNL A   1      45.472  25.053  36.999  1.00  0.00    -0.200 F 
ATOM     91  C   UNL A   1      46.776  26.890  36.293  1.00  0.00     0.200 A 
ATOM     92  F   UNL A   1      48.039  28.749  35.567  1.00  0.00    -0.200 F 
ATOM     93  F   UNL A   1      47.797  26.478  37.057  1.00  0.00    -0.200 F 
ENDBRANCH  60  83
ENDBRANCH  34  35
ENDBRANCH  27  29
ENDBRANCH  26  27
ENDBRANCH  25  26
ENDBRANCH   1  25
TORSDOF 14
ENDMDL
MODEL 3
REMARK VINA RESULT:     -12.3      4.866     10.290
REMARK SMILES Nc1c(N2CCCC2)ncnc1N1CCC(C(=O)OCCOC(=O)c2ccc(-c3c4nc(c(-c5c(F)c(F)c(F)c(F)c5F)c5ccc([nH]5)c(-c5c(F)c(F)c(F)c(F)c5F)c5nc(c(-c6c(F)c(F)c(F)c(F)c6F)c6ccc3[nH]6)C=C5)C=C4)cc2)CC1
REMARK SMILES IDX 20 1 19 2 17 3 18 4 16 5 13 6 14 7 89 8 15 9 88 10 12 11
REMARK SMILES IDX 2 12 3 13 9 14 11 15 10 16 1 17 4 20 5 21 8 22 6 23 7 24
REMARK SMILES IDX 21 25 22 26 23 27 24 28 25 29 26 30 87 31 27 32 86 33 28 34
REMARK SMILES IDX 29 35 30 36 80 37 31 38 85 39 79 40 81 41 32 42 84 43 78 44
REMARK SMILES IDX 77 45 33 47 65 48 45 49 64 50 46 51 49 52 63 53 82 54 47 55
REMARK SMILES IDX 48 56 62 58 83 59 50 60 34 61 35 62 43 63 36 64 37 65 41 66
REMARK SMILES IDX 44 67 38 68 39 69 42 70 40 71 66 72 67 73 75 74 68 75 69 76
REMARK SMILES IDX 73 77 76 78 70 79 71 80 74 81 72 82 51 83 52 84 60 85 53 86
REMARK SMILES IDX 54 87 58 88 61 89 55 90 56 91 59 92 57 93
REMARK H PARENT 1 18 1 19 81 46 49 57
REMARK Flexibility Score: inf
ROOT
ATOM      1  C   UNL A   1      36.442  22.661  23.602  1.00  0.00     0.274 C 
ENDROOT
BRANCH   1   2
ATOM      2  O   UNL A   1      35.087  22.972  23.977  1.00  0.00    -0.462 OA
BRANCH   2   3
ATOM      3  C   UNL A   1      34.903  24.146  24.626  1.00  0.00     0.309 C 
ATOM      4  O   UNL A   1      35.331  24.404  25.746  1.00  0.00    -0.252 OA
BRANCH   3   5
ATOM      5  C   UNL A   1      34.135  25.166  23.818  1.00  0.00     0.103 C 
ATOM      6  N   UNL A   1      32.173  26.942  22.805  1.00  0.00    -0.355 N 
ATOM      7  C   UNL A   1      32.511  25.760  22.021  1.00  0.00     0.119 C 
ATOM      8  C   UNL A   1      33.081  27.413  23.848  1.00  0.00     0.119 C 
ATOM      9  C   UNL A   1      33.036  24.628  22.902  1.00  0.00     0.037 C 
ATOM     10  C   UNL A   1      33.562  26.256  24.717  1.00  0.00     0.037 C 
BRANCH   6  11
ATOM     11  C   UNL A   1      30.819  27.251  22.968  1.00  0.00     0.157 A 
ATOM     12  C   UNL A   1      30.368  28.543  22.632  1.00  0.00     0.118 A 
ATOM     13  C   UNL A   1      29.014  28.813  22.877  1.00  0.00     0.157 A 
ATOM     14  N   UNL A   1      28.213  27.907  23.465  1.00  0.00    -0.217 NA
ATOM     15  N   UNL A   1      30.008  26.316  23.483  1.00  0.00    -0.217 NA
ATOM     16  C   UNL A   1      28.746  26.703  23.712  1.00  0.00     0.226 A 
BRANCH  12  17
ATOM     17  N   UNL A   1      31.232  29.472  22.028  1.00  0.00    -0.393 N 
ATOM     18  H   UNL A   1      32.123  29.187  21.719  1.00  0.00     0.156 HD
ATOM     19  H   UNL A   1      30.948  30.408  21.915  1.00  0.00     0.156 HD
ENDBRANCH  12  17
BRANCH  13  20
ATOM     20  N   UNL A   1      28.448  30.031  22.582  1.00  0.00    -0.355 N 
ATOM     21  C   UNL A   1      28.030  30.455  21.261  1.00  0.00     0.118 C 
ATOM     22  C   UNL A   1      28.662  31.139  23.495  1.00  0.00     0.118 C 
ATOM     23  C   UNL A   1      28.463  31.918  21.229  1.00  0.00     0.023 C 
ATOM     24  C   UNL A   1      28.252  32.363  22.672  1.00  0.00     0.023 C 
ENDBRANCH  13  20
ENDBRANCH   6  11
ENDBRANCH   3   5
ENDBRANCH   2   3
ENDBRANCH   1   2
BRANCH   1  25
ATOM     25  C   UNL A   1      36.978  21.474  24.405  1.00  0.00     0.275 C 
BRANCH  25  26
ATOM     26  O   UNL A   1      37.394  21.865  25.728  1.00  0.00    -0.458 OA
BRANCH  26  27
ATOM     27  C   UNL A   1      38.684  21.592  26.030  1.00  0.00     0.338 C 
ATOM     28  O   UNL A   1      39.290  20.551  25.843  1.00  0.00    -0.246 OA
BRANCH  27  29
ATOM     29  C   UNL A   1      39.343  22.803  26.540  1.00  0.00     0.060 A 
ATOM     30  C   UNL A   1      38.902  24.036  26.059  1.00  0.00     0.016 A 
ATOM     31  C   UNL A   1      40.449  22.725  27.385  1.00  0.00     0.016 A 
ATOM     32  C   UNL A   1      39.573  25.203  26.404  1.00  0.00     0.010 A 
ATOM     33  C   UNL A   1      41.120  23.901  27.742  1.00  0.00     0.010 A 
ATOM     34  C   UNL A   1      40.695  25.143  27.240  1.00  0.00    -0.014 A 
BRANCH  34  35
ATOM     35  C   UNL A   1      41.444  26.387  27.531  1.00  0.00     0.031 A 
ATOM     36  C   UNL A   1      40.815  27.460  28.370  1.00  0.00     0.074 A 
ATOM     37  C   UNL A   1      42.712  26.519  27.103  1.00  0.00     0.049 A 
ATOM     38  N   UNL A   1      41.293  28.627  28.718  1.00  0.00    -0.248 NA
ATOM     39  C   UNL A   1      39.472  27.176  28.898  1.00  0.00     0.031 C 
ATOM     40  C   UNL A   1      43.453  25.510  26.350  1.00  0.00     0.029 A 
ATOM     41  N   UNL A   1      43.606  27.547  27.262  1.00  0.00    -0.354 N 
ATOM     42  C   UNL A   1      40.312  29.218  29.501  1.00  0.00     0.074 A 
ATOM     43  C   UNL A   1      39.199  28.293  29.556  1.00  0.00     0.031 C 
ATOM     44  C   UNL A   1      44.701  25.956  26.134  1.00  0.00     0.029 A 
ATOM     45  C   UNL A   1      44.830  27.300  26.692  1.00  0.00     0.049 A 
ATOM     46  H   UNL A   1      43.390  28.381  27.738  1.00  0.00     0.167 HD
ATOM     47  C   UNL A   1      40.342  30.421  30.123  1.00  0.00     0.037 A 
ATOM     48  C   UNL A   1      45.925  28.079  26.616  1.00  0.00     0.037 A 
ATOM     49  C   UNL A   1      41.449  31.338  30.063  1.00  0.00     0.049 A 
ATOM     50  C   UNL A   1      45.892  29.456  27.217  1.00  0.00     0.074 A 
ATOM     51  C   UNL A   1      41.565  32.592  30.637  1.00  0.00     0.029 A 
ATOM     52  N   UNL A   1      42.635  31.098  29.386  1.00  0.00    -0.354 N 
ATOM     53  N   UNL A   1      44.943  30.030  27.914  1.00  0.00    -0.248 NA
ATOM     54  C   UNL A   1      47.076  30.301  27.002  1.00  0.00     0.031 C 
ATOM     55  C   UNL A   1      42.808  33.125  30.277  1.00  0.00     0.029 A 
ATOM     56  C   UNL A   1      43.482  32.188  29.510  1.00  0.00     0.049 A 
ATOM     57  H   UNL A   1      42.845  30.273  28.889  1.00  0.00     0.167 HD
ATOM     58  C   UNL A   1      45.412  31.297  28.229  1.00  0.00     0.074 A 
ATOM     59  C   UNL A   1      46.740  31.405  27.659  1.00  0.00     0.031 C 
ATOM     60  C   UNL A   1      44.797  32.282  28.928  1.00  0.00     0.037 A 
BRANCH  47  61
ATOM     61  C   UNL A   1      39.128  30.818  30.906  1.00  0.00     0.064 A 
ATOM     62  C   UNL A   1      39.014  30.537  32.276  1.00  0.00     0.173 A 
ATOM     63  C   UNL A   1      38.072  31.501  30.284  1.00  0.00     0.173 A 
ATOM     64  F   UNL A   1      39.990  29.873  32.911  1.00  0.00    -0.203 F 
ATOM     65  C   UNL A   1      37.877  30.907  32.989  1.00  0.00     0.198 A 
ATOM     66  C   UNL A   1      36.946  31.889  31.006  1.00  0.00     0.198 A 
ATOM     67  F   UNL A   1      38.134  31.794  28.976  1.00  0.00    -0.203 F 
ATOM     68  F   UNL A   1      37.771  30.592  34.287  1.00  0.00    -0.200 F 
ATOM     69  C   UNL A   1      36.846  31.586  32.355  1.00  0.00     0.200 A 
ATOM     70  F   UNL A   1      35.955  32.550  30.393  1.00  0.00    -0.200 F 
ATOM     71  F   UNL A   1      35.753  31.940  33.043  1.00  0.00    -0.200 F 
ENDBRANCH  47  61
BRANCH  48  72
ATOM     72  C   UNL A   1      47.142  27.562  25.944  1.00  0.00     0.064 A 
ATOM     73  C   UNL A   1      47.322  27.730  24.564  1.00  0.00     0.173 A 
ATOM     74  C   UNL A   1      48.164  26.932  26.667  1.00  0.00     0.173 A 
ATOM     75  F   UNL A   1      46.360  28.307  23.829  1.00  0.00    -0.203 F 
ATOM     76  C   UNL A   1      48.485  27.292  23.934  1.00  0.00     0.198 A 
ATOM     77  C   UNL A   1      49.335  26.512  26.039  1.00  0.00     0.198 A 
ATOM     78  F   UNL A   1      48.036  26.745  27.988  1.00  0.00    -0.203 F 
ATOM     79  F   UNL A   1      48.626  27.449  22.611  1.00  0.00    -0.200 F 
ATOM     80  C   UNL A   1      49.494  26.693  24.673  1.00  0.00     0.200 A 
ATOM     81  F   UNL A   1      50.311  25.943  26.758  1.00  0.00    -0.200 F 
ATOM     82  F   UNL A   1      50.619  26.286  24.069  1.00  0.00    -0.200 F 
ENDBRANCH  48  72
BRANCH  60  83
ATOM     83  C   UNL A   1      45.548  33.565  29.118  1.00  0.00     0.064 A 
ATOM     84  C   UNL A   1      45.415  34.627  28.214  1.00  0.00     0.173 A 
ATOM     85  C   UNL A   1      46.356  33.755  30.249  1.00  0.00     0.173 A 
ATOM     86  F   UNL A   1      44.666  34.484  27.111  1.00  0.00    -0.203 F 
ATOM     87  C   UNL A   1      46.073  35.835  28.431  1.00  0.00     0.198 A 
ATOM     88  C   UNL A   1      46.994  34.972  30.474  1.00  0.00     0.198 A 
ATOM     89  F   UNL A   1      46.510  32.769  31.145  1.00  0.00    -0.203 F 
ATOM     90  F   UNL A   1      45.954  36.829  27.541  1.00  0.00    -0.200 F 
ATOM     91  C   UNL A   1      46.854  36.010  29.564  1.00  0.00     0.200 A 
ATOM     92  F   UNL A   1      47.740  35.143  31.573  1.00  0.00    -0.200 F 
ATOM     93  F   UNL A   1      47.475  37.178  29.778  1.00  0.00    -0.200 F 
ENDBRANCH  60  83
ENDBRANCH  34  35
ENDBRANCH  27  29
ENDBRANCH  26  27
ENDBRANCH  25  26
ENDBRANCH   1  25
TORSDOF 14
ENDMDL
