MODEL 1
REMARK VINA RESULT:     -16.0      0.000      0.000
REMARK SMILES O=C(OCCOC(=O)c1ccc(-c2c3nc(c(-c4c(F)c(F)c(F)c(F)c4F)c4ccc([nH]4)c(-c4c(F)c(F)c(F)c(F)c4F)c4nc(c(-c5c(F)c(F)c(F)c(F)c5F)c5ccc2[nH]5)C=C4)C=C3)cc1)C1=Cc2cc(Cl)cc(-c3ccc(Cl)cc3)c2O[C@@H]1C(F)(F)F
REMARK SMILES IDX 5 1 4 2 3 3 2 4 1 5 72 6 73 7 89 8 74 9 88 10 75 11 87 12
REMARK SMILES IDX 76 13 79 14 77 15 78 16 90 17 91 18 92 19 93 20 80 21 81 22
REMARK SMILES IDX 86 23 82 24 85 25 83 26 84 27 6 28 7 29 8 30 9 31 10 32
REMARK SMILES IDX 71 33 11 34 70 35 12 36 13 37 14 38 64 39 15 40 69 41 63 42
REMARK SMILES IDX 65 43 16 44 68 45 62 46 61 47 17 49 49 50 29 51 48 52 30 53
REMARK SMILES IDX 33 54 47 55 66 56 31 57 32 58 46 60 67 61 34 62 18 63 19 64
REMARK SMILES IDX 27 65 20 66 21 67 25 68 28 69 22 70 23 71 26 72 24 73 50 74
REMARK SMILES IDX 51 75 59 76 52 77 53 78 57 79 60 80 54 81 55 82 58 83 56 84
REMARK SMILES IDX 35 85 36 86 44 87 37 88 38 89 42 90 45 91 39 92 40 93 43 94
REMARK SMILES IDX 41 95
REMARK H PARENT 65 48 33 59
REMARK Flexibility Score: inf
ROOT
ATOM      1  C   UNL A   1      31.692  29.621  26.611  1.00  0.00     0.275 C 
ENDROOT
BRANCH   1   2
ATOM      2  C   UNL A   1      31.449  27.469  26.754  1.00  0.00     0.275 C 
BRANCH   2   3
ATOM      3  O   UNL A   1      32.582  26.402  26.753  1.00  0.00    -0.459 OA
BRANCH   3   4
ATOM      4  C   UNL A   1      32.138  25.166  26.494  1.00  0.00     0.338 C 
ATOM      5  O   UNL A   1      31.605  24.363  27.217  1.00  0.00    -0.246 OA
BRANCH   4   6
ATOM      6  C   UNL A   1      32.894  25.022  25.273  1.00  0.00     0.087 C 
ATOM      7  C   UNL A   1      34.293  24.769  25.489  1.00  0.00     0.027 C 
ATOM      8  C   UNL A   1      31.649  23.852  24.405  1.00  0.00     0.316 C 
ATOM      9  C   UNL A   1      35.054  23.201  25.160  1.00  0.00     0.019 A 
ATOM     10  O   UNL A   1      32.421  22.078  24.154  1.00  0.00    -0.475 OA
ATOM     11  C   UNL A   1      36.371  23.115  25.515  1.00  0.00     0.032 A 
ATOM     12  C   UNL A   1      34.165  21.788  24.670  1.00  0.00     0.135 A 
ATOM     13  C   UNL A   1      36.901  21.833  25.462  1.00  0.00     0.042 A 
ATOM     14  C   UNL A   1      34.753  20.544  24.748  1.00  0.00     0.026 A 
ATOM     15  Cl  UNL A   1      38.561  21.651  25.918  1.00  0.00    -0.084 Cl
ATOM     16  C   UNL A   1      36.148  20.647  25.120  1.00  0.00     0.033 A 
BRANCH   8  17
ATOM     17  C   UNL A   1      31.317  25.154  23.488  1.00  0.00     0.430 C 
ATOM     18  F   UNL A   1      32.348  25.831  23.057  1.00  0.00    -0.167 F 
ATOM     19  F   UNL A   1      30.746  24.729  22.319  1.00  0.00    -0.167 F 
ATOM     20  F   UNL A   1      30.421  26.042  23.988  1.00  0.00    -0.167 F 
ENDBRANCH   8  17
BRANCH  14  21
ATOM     21  C   UNL A   1      34.198  19.197  24.720  1.00  0.00    -0.015 A 
ATOM     22  C   UNL A   1      32.965  18.969  25.381  1.00  0.00     0.010 A 
ATOM     23  C   UNL A   1      34.937  18.090  24.302  1.00  0.00     0.010 A 
ATOM     24  C   UNL A   1      32.501  17.679  25.640  1.00  0.00     0.021 A 
ATOM     25  C   UNL A   1      34.470  16.793  24.558  1.00  0.00     0.021 A 
ATOM     26  C   UNL A   1      33.263  16.593  25.230  1.00  0.00     0.041 A 
ATOM     27  Cl  UNL A   1      32.725  14.998  25.586  1.00  0.00    -0.084 Cl
ENDBRANCH  14  21
ENDBRANCH   4   6
ENDBRANCH   3   4
ENDBRANCH   2   3
ENDBRANCH   1   2
BRANCH   1  28
ATOM     28  O   UNL A   1      32.820  30.547  27.609  1.00  0.00    -0.458 OA
BRANCH  28  29
ATOM     29  C   UNL A   1      33.502  31.761  27.620  1.00  0.00     0.338 C 
ATOM     30  O   UNL A   1      33.070  32.877  27.842  1.00  0.00    -0.246 OA
BRANCH  29  31
ATOM     31  C   UNL A   1      34.986  31.468  27.641  1.00  0.00     0.060 A 
ATOM     32  C   UNL A   1      35.909  32.531  27.809  1.00  0.00     0.016 A 
ATOM     33  C   UNL A   1      35.386  30.170  27.938  1.00  0.00     0.016 A 
ATOM     34  C   UNL A   1      37.083  32.316  28.585  1.00  0.00     0.010 A 
ATOM     35  C   UNL A   1      36.559  29.961  28.673  1.00  0.00     0.010 A 
ATOM     36  C   UNL A   1      37.351  31.039  29.116  1.00  0.00    -0.014 A 
BRANCH  36  37
ATOM     37  C   UNL A   1      38.528  30.729  29.989  1.00  0.00     0.031 A 
ATOM     38  C   UNL A   1      39.483  29.716  29.440  1.00  0.00     0.074 A 
ATOM     39  C   UNL A   1      38.696  31.172  31.261  1.00  0.00     0.049 A 
ATOM     40  N   UNL A   1      40.454  29.071  30.029  1.00  0.00    -0.248 NA
ATOM     41  C   UNL A   1      39.269  29.348  28.032  1.00  0.00     0.031 C 
ATOM     42  C   UNL A   1      37.863  32.156  31.950  1.00  0.00     0.029 A 
ATOM     43  N   UNL A   1      39.627  30.819  32.224  1.00  0.00    -0.354 N 
ATOM     44  C   UNL A   1      40.943  28.201  29.068  1.00  0.00     0.074 A 
ATOM     45  C   UNL A   1      40.141  28.370  27.878  1.00  0.00     0.031 C 
ATOM     46  C   UNL A   1      38.302  32.312  33.218  1.00  0.00     0.029 A 
ATOM     47  C   UNL A   1      39.432  31.415  33.457  1.00  0.00     0.049 A 
ATOM     48  H   UNL A   1      40.365  30.192  32.047  1.00  0.00     0.167 HD
ATOM     49  C   UNL A   1      41.978  27.340  29.160  1.00  0.00     0.037 A 
ATOM     50  C   UNL A   1      40.075  31.242  34.637  1.00  0.00     0.037 A 
ATOM     51  C   UNL A   1      42.786  27.164  30.328  1.00  0.00     0.049 A 
ATOM     52  C   UNL A   1      41.207  30.231  34.721  1.00  0.00     0.074 A 
ATOM     53  C   UNL A   1      43.889  26.348  30.491  1.00  0.00     0.029 A 
ATOM     54  N   UNL A   1      42.572  27.808  31.536  1.00  0.00    -0.354 N 
ATOM     55  N   UNL A   1      41.720  29.478  33.778  1.00  0.00    -0.248 NA
ATOM     56  C   UNL A   1      41.845  30.037  36.038  1.00  0.00     0.031 C 
ATOM     57  C   UNL A   1      44.311  26.454  31.817  1.00  0.00     0.029 A 
ATOM     58  C   UNL A   1      43.506  27.379  32.463  1.00  0.00     0.049 A 
ATOM     59  H   UNL A   1      41.864  28.469  31.709  1.00  0.00     0.167 HD
ATOM     60  C   UNL A   1      42.751  28.759  34.374  1.00  0.00     0.074 A 
ATOM     61  C   UNL A   1      42.811  29.175  35.757  1.00  0.00     0.031 C 
ATOM     62  C   UNL A   1      43.572  27.829  33.828  1.00  0.00     0.037 A 
BRANCH  49  63
ATOM     63  C   UNL A   1      42.267  26.510  27.951  1.00  0.00     0.064 A 
ATOM     64  C   UNL A   1      41.616  25.288  27.728  1.00  0.00     0.173 A 
ATOM     65  C   UNL A   1      43.222  26.934  27.017  1.00  0.00     0.173 A 
ATOM     66  F   UNL A   1      40.722  24.827  28.617  1.00  0.00    -0.203 F 
ATOM     67  C   UNL A   1      41.932  24.504  26.624  1.00  0.00     0.198 A 
ATOM     68  C   UNL A   1      43.511  26.164  25.896  1.00  0.00     0.198 A 
ATOM     69  F   UNL A   1      43.880  28.089  27.197  1.00  0.00    -0.203 F 
ATOM     70  F   UNL A   1      41.347  23.309  26.465  1.00  0.00    -0.200 F 
ATOM     71  C   UNL A   1      42.873  24.947  25.706  1.00  0.00     0.200 A 
ATOM     72  F   UNL A   1      44.416  26.593  25.006  1.00  0.00    -0.200 F 
ATOM     73  F   UNL A   1      43.173  24.193  24.640  1.00  0.00    -0.200 F 
ENDBRANCH  49  63
BRANCH  50  74
ATOM     74  C   UNL A   1      39.686  31.987  35.880  1.00  0.00     0.064 A 
ATOM     75  C   UNL A   1      38.612  31.554  36.681  1.00  0.00     0.173 A 
ATOM     76  C   UNL A   1      40.272  33.217  36.217  1.00  0.00     0.173 A 
ATOM     77  F   UNL A   1      37.977  30.411  36.384  1.00  0.00    -0.203 F 
ATOM     78  C   UNL A   1      38.115  32.338  37.726  1.00  0.00     0.198 A 
ATOM     79  C   UNL A   1      39.796  33.984  37.285  1.00  0.00     0.198 A 
ATOM     80  F   UNL A   1      41.284  33.701  35.484  1.00  0.00    -0.203 F 
ATOM     81  F   UNL A   1      37.028  31.940  38.403  1.00  0.00    -0.200 F 
ATOM     82  C   UNL A   1      38.708  33.553  38.027  1.00  0.00     0.200 A 
ATOM     83  F   UNL A   1      40.372  35.160  37.572  1.00  0.00    -0.200 F 
ATOM     84  F   UNL A   1      38.215  34.318  39.011  1.00  0.00    -0.200 F 
ENDBRANCH  50  74
BRANCH  62  85
ATOM     85  C   UNL A   1      44.633  27.217  34.697  1.00  0.00     0.064 A 
ATOM     86  C   UNL A   1      45.876  27.837  34.889  1.00  0.00     0.173 A 
ATOM     87  C   UNL A   1      44.359  26.053  35.434  1.00  0.00     0.173 A 
ATOM     88  F   UNL A   1      46.191  28.946  34.203  1.00  0.00    -0.203 F 
ATOM     89  C   UNL A   1      46.807  27.310  35.782  1.00  0.00     0.198 A 
ATOM     90  C   UNL A   1      45.278  25.549  36.349  1.00  0.00     0.198 A 
ATOM     91  F   UNL A   1      43.179  25.428  35.296  1.00  0.00    -0.203 F 
ATOM     92  F   UNL A   1      47.999  27.905  35.930  1.00  0.00    -0.200 F 
ATOM     93  C   UNL A   1      46.501  26.176  36.521  1.00  0.00     0.200 A 
ATOM     94  F   UNL A   1      44.971  24.467  37.078  1.00  0.00    -0.200 F 
ATOM     95  F   UNL A   1      47.388  25.689  37.400  1.00  0.00    -0.200 F 
ENDBRANCH  62  85
ENDBRANCH  36  37
ENDBRANCH  29  31
ENDBRANCH  28  29
ENDBRANCH   1  28
TORSDOF 13
ENDMDL
MODEL 2
REMARK VINA RESULT:     -15.7      0.779      7.250
REMARK SMILES O=C(OCCOC(=O)c1ccc(-c2c3nc(c(-c4c(F)c(F)c(F)c(F)c4F)c4ccc([nH]4)c(-c4c(F)c(F)c(F)c(F)c4F)c4nc(c(-c5c(F)c(F)c(F)c(F)c5F)c5ccc2[nH]5)C=C4)C=C3)cc1)C1=Cc2cc(Cl)cc(-c3ccc(Cl)cc3)c2O[C@@H]1C(F)(F)F
REMARK SMILES IDX 5 1 4 2 3 3 2 4 1 5 72 6 73 7 89 8 74 9 88 10 75 11 87 12
REMARK SMILES IDX 76 13 79 14 77 15 78 16 90 17 91 18 92 19 93 20 80 21 81 22
REMARK SMILES IDX 86 23 82 24 85 25 83 26 84 27 6 28 7 29 8 30 9 31 10 32
REMARK SMILES IDX 71 33 11 34 70 35 12 36 13 37 14 38 64 39 15 40 69 41 63 42
REMARK SMILES IDX 65 43 16 44 68 45 62 46 61 47 17 49 49 50 29 51 48 52 30 53
REMARK SMILES IDX 33 54 47 55 66 56 31 57 32 58 46 60 67 61 34 62 18 63 19 64
REMARK SMILES IDX 27 65 20 66 21 67 25 68 28 69 22 70 23 71 26 72 24 73 50 74
REMARK SMILES IDX 51 75 59 76 52 77 53 78 57 79 60 80 54 81 55 82 58 83 56 84
REMARK SMILES IDX 35 85 36 86 44 87 37 88 38 89 42 90 45 91 39 92 40 93 43 94
REMARK SMILES IDX 41 95
REMARK H PARENT 65 48 33 59
REMARK Flexibility Score: inf
ROOT
ATOM      1  C   UNL A   1      31.817  29.871  26.408  1.00  0.00     0.275 C 
ENDROOT
BRANCH   1   2
ATOM      2  C   UNL A   1      31.627  27.710  26.360  1.00  0.00     0.275 C 
BRANCH   2   3
ATOM      3  O   UNL A   1      32.784  26.671  26.451  1.00  0.00    -0.459 OA
BRANCH   3   4
ATOM      4  C   UNL A   1      32.371  25.411  26.267  1.00  0.00     0.338 C 
ATOM      5  O   UNL A   1      31.853  24.642  27.035  1.00  0.00    -0.246 OA
BRANCH   4   6
ATOM      6  C   UNL A   1      33.140  25.210  25.062  1.00  0.00     0.087 C 
ATOM      7  C   UNL A   1      34.525  24.915  25.305  1.00  0.00     0.027 C 
ATOM      8  C   UNL A   1      31.867  24.061  24.205  1.00  0.00     0.316 C 
ATOM      9  C   UNL A   1      35.237  23.313  25.029  1.00  0.00     0.019 A 
ATOM     10  O   UNL A   1      32.582  22.255  24.011  1.00  0.00    -0.475 OA
ATOM     11  C   UNL A   1      36.545  23.192  25.405  1.00  0.00     0.032 A 
ATOM     12  C   UNL A   1      34.307  21.919  24.561  1.00  0.00     0.135 A 
ATOM     13  C   UNL A   1      37.031  21.892  25.394  1.00  0.00     0.042 A 
ATOM     14  C   UNL A   1      34.851  20.659  24.680  1.00  0.00     0.026 A 
ATOM     15  Cl  UNL A   1      38.677  21.666  25.879  1.00  0.00    -0.084 Cl
ATOM     16  C   UNL A   1      36.242  20.723  25.070  1.00  0.00     0.033 A 
BRANCH   8  17
ATOM     17  C   UNL A   1      31.593  25.348  23.250  1.00  0.00     0.430 C 
ATOM     18  F   UNL A   1      32.627  26.110  23.002  1.00  0.00    -0.167 F 
ATOM     19  F   UNL A   1      31.263  24.901  21.999  1.00  0.00    -0.167 F 
ATOM     20  F   UNL A   1      30.559  26.157  23.595  1.00  0.00    -0.167 F 
ENDBRANCH   8  17
BRANCH  14  21
ATOM     21  C   UNL A   1      34.250  19.331  24.679  1.00  0.00    -0.015 A 
ATOM     22  C   UNL A   1      33.028  19.150  25.373  1.00  0.00     0.010 A 
ATOM     23  C   UNL A   1      34.940  18.197  24.251  1.00  0.00     0.010 A 
ATOM     24  C   UNL A   1      32.528  17.879  25.655  1.00  0.00     0.021 A 
ATOM     25  C   UNL A   1      34.437  16.918  24.530  1.00  0.00     0.021 A 
ATOM     26  C   UNL A   1      33.241  16.764  25.235  1.00  0.00     0.041 A 
ATOM     27  Cl  UNL A   1      32.659  15.191  25.618  1.00  0.00    -0.084 Cl
ENDBRANCH  14  21
ENDBRANCH   4   6
ENDBRANCH   3   4
ENDBRANCH   2   3
ENDBRANCH   1   2
BRANCH   1  28
ATOM     28  O   UNL A   1      32.806  30.742  27.588  1.00  0.00    -0.458 OA
BRANCH  28  29
ATOM     29  C   UNL A   1      33.672  31.828  27.675  1.00  0.00     0.338 C 
ATOM     30  O   UNL A   1      33.427  32.976  28.000  1.00  0.00    -0.246 OA
BRANCH  29  31
ATOM     31  C   UNL A   1      35.091  31.306  27.626  1.00  0.00     0.060 A 
ATOM     32  C   UNL A   1      36.163  32.146  28.020  1.00  0.00     0.016 A 
ATOM     33  C   UNL A   1      35.274  29.927  27.628  1.00  0.00     0.016 A 
ATOM     34  C   UNL A   1      37.264  31.584  28.726  1.00  0.00     0.010 A 
ATOM     35  C   UNL A   1      36.376  29.380  28.296  1.00  0.00     0.010 A 
ATOM     36  C   UNL A   1      37.313  30.196  28.962  1.00  0.00    -0.014 A 
BRANCH  36  37
ATOM     37  C   UNL A   1      38.399  29.520  29.741  1.00  0.00     0.031 A 
ATOM     38  C   UNL A   1      38.627  30.059  31.119  1.00  0.00     0.074 A 
ATOM     39  C   UNL A   1      39.258  28.596  29.244  1.00  0.00     0.049 A 
ATOM     40  N   UNL A   1      39.617  29.858  31.947  1.00  0.00    -0.248 NA
ATOM     41  C   UNL A   1      37.607  31.002  31.603  1.00  0.00     0.031 C 
ATOM     42  C   UNL A   1      39.183  27.965  27.928  1.00  0.00     0.029 A 
ATOM     43  N   UNL A   1      40.402  28.039  29.793  1.00  0.00    -0.354 N 
ATOM     44  C   UNL A   1      39.349  30.672  33.035  1.00  0.00     0.074 A 
ATOM     45  C   UNL A   1      38.133  31.399  32.746  1.00  0.00     0.031 C 
ATOM     46  C   UNL A   1      40.233  27.133  27.763  1.00  0.00     0.029 A 
ATOM     47  C   UNL A   1      41.089  27.186  28.948  1.00  0.00     0.049 A 
ATOM     48  H   UNL A   1      40.703  28.236  30.710  1.00  0.00     0.167 HD
ATOM     49  C   UNL A   1      40.046  30.802  34.182  1.00  0.00     0.037 A 
ATOM     50  C   UNL A   1      42.272  26.546  29.106  1.00  0.00     0.037 A 
ATOM     51  C   UNL A   1      41.248  30.087  34.487  1.00  0.00     0.049 A 
ATOM     52  C   UNL A   1      43.058  26.748  30.391  1.00  0.00     0.074 A 
ATOM     53  C   UNL A   1      41.993  30.120  35.650  1.00  0.00     0.029 A 
ATOM     54  N   UNL A   1      41.886  29.217  33.618  1.00  0.00    -0.354 N 
ATOM     55  N   UNL A   1      42.747  27.453  31.452  1.00  0.00    -0.248 NA
ATOM     56  C   UNL A   1      44.365  26.071  30.499  1.00  0.00     0.031 C 
ATOM     57  C   UNL A   1      43.116  29.312  35.466  1.00  0.00     0.029 A 
ATOM     58  C   UNL A   1      43.039  28.732  34.210  1.00  0.00     0.049 A 
ATOM     59  H   UNL A   1      41.569  28.980  32.717  1.00  0.00     0.167 HD
ATOM     60  C   UNL A   1      43.791  27.276  32.355  1.00  0.00     0.074 A 
ATOM     61  C   UNL A   1      44.740  26.381  31.732  1.00  0.00     0.031 C 
ATOM     62  C   UNL A   1      43.956  27.814  33.588  1.00  0.00     0.037 A 
BRANCH  49  63
ATOM     63  C   UNL A   1      39.517  31.781  35.180  1.00  0.00     0.064 A 
ATOM     64  C   UNL A   1      39.907  33.128  35.163  1.00  0.00     0.173 A 
ATOM     65  C   UNL A   1      38.625  31.360  36.176  1.00  0.00     0.173 A 
ATOM     66  F   UNL A   1      40.788  33.565  34.249  1.00  0.00    -0.203 F 
ATOM     67  C   UNL A   1      39.444  34.016  36.128  1.00  0.00     0.198 A 
ATOM     68  C   UNL A   1      38.138  32.259  37.119  1.00  0.00     0.198 A 
ATOM     69  F   UNL A   1      38.236  30.078  36.239  1.00  0.00    -0.203 F 
ATOM     70  F   UNL A   1      39.881  35.282  36.134  1.00  0.00    -0.200 F 
ATOM     71  C   UNL A   1      38.554  33.582  37.099  1.00  0.00     0.200 A 
ATOM     72  F   UNL A   1      37.274  31.841  38.055  1.00  0.00    -0.200 F 
ATOM     73  F   UNL A   1      38.105  34.439  38.026  1.00  0.00    -0.200 F 
ENDBRANCH  49  63
BRANCH  50  74
ATOM     74  C   UNL A   1      42.858  25.668  28.038  1.00  0.00     0.064 A 
ATOM     75  C   UNL A   1      43.731  26.190  27.066  1.00  0.00     0.173 A 
ATOM     76  C   UNL A   1      42.451  24.335  27.874  1.00  0.00     0.173 A 
ATOM     77  F   UNL A   1      44.120  27.472  27.137  1.00  0.00    -0.203 F 
ATOM     78  C   UNL A   1      44.128  25.437  25.958  1.00  0.00     0.198 A 
ATOM     79  C   UNL A   1      42.878  23.571  26.784  1.00  0.00     0.198 A 
ATOM     80  F   UNL A   1      41.603  23.778  28.751  1.00  0.00    -0.203 F 
ATOM     81  F   UNL A   1      44.880  26.000  25.000  1.00  0.00    -0.200 F 
ATOM     82  C   UNL A   1      43.701  24.127  25.818  1.00  0.00     0.200 A 
ATOM     83  F   UNL A   1      42.461  22.303  26.652  1.00  0.00    -0.200 F 
ATOM     84  F   UNL A   1      44.060  23.412  24.742  1.00  0.00    -0.200 F 
ENDBRANCH  50  74
BRANCH  62  85
ATOM     85  C   UNL A   1      45.178  27.432  34.373  1.00  0.00     0.064 A 
ATOM     86  C   UNL A   1      46.346  28.207  34.343  1.00  0.00     0.173 A 
ATOM     87  C   UNL A   1      45.139  26.337  35.252  1.00  0.00     0.173 A 
ATOM     88  F   UNL A   1      46.438  29.258  33.514  1.00  0.00    -0.203 F 
ATOM     89  C   UNL A   1      47.431  27.897  35.159  1.00  0.00     0.198 A 
ATOM     90  C   UNL A   1      46.212  26.050  36.089  1.00  0.00     0.198 A 
ATOM     91  F   UNL A   1      44.040  25.571  35.328  1.00  0.00    -0.203 F 
ATOM     92  F   UNL A   1      48.548  28.635  35.094  1.00  0.00    -0.200 F 
ATOM     93  C   UNL A   1      47.358  26.828  36.041  1.00  0.00     0.200 A 
ATOM     94  F   UNL A   1      46.130  25.031  36.957  1.00  0.00    -0.200 F 
ATOM     95  F   UNL A   1      48.393  26.549  36.845  1.00  0.00    -0.200 F 
ENDBRANCH  62  85
ENDBRANCH  36  37
ENDBRANCH  29  31
ENDBRANCH  28  29
ENDBRANCH   1  28
TORSDOF 13
ENDMDL
MODEL 3
REMARK VINA RESULT:     -15.4      1.475      2.469
REMARK SMILES O=C(OCCOC(=O)c1ccc(-c2c3nc(c(-c4c(F)c(F)c(F)c(F)c4F)c4ccc([nH]4)c(-c4c(F)c(F)c(F)c(F)c4F)c4nc(c(-c5c(F)c(F)c(F)c(F)c5F)c5ccc2[nH]5)C=C4)C=C3)cc1)C1=Cc2cc(Cl)cc(-c3ccc(Cl)cc3)c2O[C@@H]1C(F)(F)F
REMARK SMILES IDX 5 1 4 2 3 3 2 4 1 5 72 6 73 7 89 8 74 9 88 10 75 11 87 12
REMARK SMILES IDX 76 13 79 14 77 15 78 16 90 17 91 18 92 19 93 20 80 21 81 22
REMARK SMILES IDX 86 23 82 24 85 25 83 26 84 27 6 28 7 29 8 30 9 31 10 32
REMARK SMILES IDX 71 33 11 34 70 35 12 36 13 37 14 38 64 39 15 40 69 41 63 42
REMARK SMILES IDX 65 43 16 44 68 45 62 46 61 47 17 49 49 50 29 51 48 52 30 53
REMARK SMILES IDX 33 54 47 55 66 56 31 57 32 58 46 60 67 61 34 62 18 63 19 64
REMARK SMILES IDX 27 65 20 66 21 67 25 68 28 69 22 70 23 71 26 72 24 73 50 74
REMARK SMILES IDX 51 75 59 76 52 77 53 78 57 79 60 80 54 81 55 82 58 83 56 84
REMARK SMILES IDX 35 85 36 86 44 87 37 88 38 89 42 90 45 91 39 92 40 93 43 94
REMARK SMILES IDX 41 95
REMARK H PARENT 65 48 33 59
REMARK Flexibility Score: inf
ROOT
ATOM      1  C   UNL A   1      32.403  30.244  26.313  1.00  0.00     0.275 C 
ENDROOT
BRANCH   1   2
ATOM      2  C   UNL A   1      32.361  28.186  27.000  1.00  0.00     0.275 C 
BRANCH   2   3
ATOM      3  O   UNL A   1      33.280  27.025  26.520  1.00  0.00    -0.459 OA
BRANCH   3   4
ATOM      4  C   UNL A   1      32.599  25.923  26.183  1.00  0.00     0.338 C 
ATOM      5  O   UNL A   1      31.866  25.230  26.841  1.00  0.00    -0.246 OA
BRANCH   4   6
ATOM      6  C   UNL A   1      33.378  25.659  24.997  1.00  0.00     0.087 C 
ATOM      7  C   UNL A   1      34.746  25.311  25.272  1.00  0.00     0.027 C 
ATOM      8  C   UNL A   1      32.072  24.547  24.144  1.00  0.00     0.316 C 
ATOM      9  C   UNL A   1      35.391  23.674  25.045  1.00  0.00     0.019 A 
ATOM     10  O   UNL A   1      32.710  22.707  24.005  1.00  0.00    -0.475 OA
ATOM     11  C   UNL A   1      36.686  23.505  25.447  1.00  0.00     0.032 A 
ATOM     12  C   UNL A   1      34.409  22.311  24.592  1.00  0.00     0.135 A 
ATOM     13  C   UNL A   1      37.116  22.186  25.474  1.00  0.00     0.042 A 
ATOM     14  C   UNL A   1      34.896  21.031  24.750  1.00  0.00     0.026 A 
ATOM     15  Cl  UNL A   1      38.742  21.900  25.994  1.00  0.00    -0.084 Cl
ATOM     16  C   UNL A   1      36.282  21.045  25.164  1.00  0.00     0.033 A 
BRANCH   8  17
ATOM     17  C   UNL A   1      31.870  25.822  23.155  1.00  0.00     0.430 C 
ATOM     18  F   UNL A   1      32.964  26.371  22.696  1.00  0.00    -0.167 F 
ATOM     19  F   UNL A   1      31.264  25.391  22.006  1.00  0.00    -0.167 F 
ATOM     20  F   UNL A   1      31.064  26.819  23.599  1.00  0.00    -0.167 F 
ENDBRANCH   8  17
BRANCH  14  21
ATOM     21  C   UNL A   1      34.238  19.731  24.768  1.00  0.00    -0.015 A 
ATOM     22  C   UNL A   1      33.050  19.594  25.529  1.00  0.00     0.010 A 
ATOM     23  C   UNL A   1      34.852  18.574  24.290  1.00  0.00     0.010 A 
ATOM     24  C   UNL A   1      32.511  18.342  25.826  1.00  0.00     0.021 A 
ATOM     25  C   UNL A   1      34.309  17.315  24.583  1.00  0.00     0.021 A 
ATOM     26  C   UNL A   1      33.149  17.203  25.354  1.00  0.00     0.041 A 
ATOM     27  Cl  UNL A   1      32.521  15.652  25.752  1.00  0.00    -0.084 Cl
ENDBRANCH  14  21
ENDBRANCH   4   6
ENDBRANCH   3   4
ENDBRANCH   2   3
ENDBRANCH   1   2
BRANCH   1  28
ATOM     28  O   UNL A   1      32.992  31.592  27.294  1.00  0.00    -0.458 OA
BRANCH  28  29
ATOM     29  C   UNL A   1      32.805  32.961  27.465  1.00  0.00     0.338 C 
ATOM     30  O   UNL A   1      31.832  33.639  27.191  1.00  0.00    -0.246 OA
BRANCH  29  31
ATOM     31  C   UNL A   1      33.895  33.474  28.380  1.00  0.00     0.060 A 
ATOM     32  C   UNL A   1      33.745  33.358  29.785  1.00  0.00     0.016 A 
ATOM     33  C   UNL A   1      35.169  33.633  27.846  1.00  0.00     0.016 A 
ATOM     34  C   UNL A   1      34.886  33.061  30.584  1.00  0.00     0.010 A 
ATOM     35  C   UNL A   1      36.289  33.372  28.644  1.00  0.00     0.010 A 
ATOM     36  C   UNL A   1      36.156  32.958  29.984  1.00  0.00    -0.014 A 
BRANCH  36  37
ATOM     37  C   UNL A   1      37.403  32.595  30.730  1.00  0.00     0.031 A 
ATOM     38  C   UNL A   1      38.185  31.456  30.154  1.00  0.00     0.074 A 
ATOM     39  C   UNL A   1      37.772  33.107  31.932  1.00  0.00     0.049 A 
ATOM     40  N   UNL A   1      39.162  30.760  30.671  1.00  0.00    -0.248 NA
ATOM     41  C   UNL A   1      37.759  31.013  28.817  1.00  0.00     0.031 C 
ATOM     42  C   UNL A   1      37.127  34.214  32.635  1.00  0.00     0.029 A 
ATOM     43  N   UNL A   1      38.784  32.731  32.800  1.00  0.00    -0.354 N 
ATOM     44  C   UNL A   1      39.444  29.782  29.732  1.00  0.00     0.074 A 
ATOM     45  C   UNL A   1      38.513  29.945  28.639  1.00  0.00     0.031 C 
ATOM     46  C   UNL A   1      37.738  34.414  33.822  1.00  0.00     0.029 A 
ATOM     47  C   UNL A   1      38.805  33.428  33.994  1.00  0.00     0.049 A 
ATOM     48  H   UNL A   1      39.435  32.023  32.586  1.00  0.00     0.167 HD
ATOM     49  C   UNL A   1      40.400  28.831  29.767  1.00  0.00     0.037 A 
ATOM     50  C   UNL A   1      39.576  33.275  35.098  1.00  0.00     0.037 A 
ATOM     51  C   UNL A   1      41.334  28.658  30.839  1.00  0.00     0.049 A 
ATOM     52  C   UNL A   1      40.614  32.165  35.126  1.00  0.00     0.074 A 
ATOM     53  C   UNL A   1      42.372  27.751  30.932  1.00  0.00     0.029 A 
ATOM     54  N   UNL A   1      41.336  29.403  32.007  1.00  0.00    -0.354 N 
ATOM     55  N   UNL A   1      40.933  31.302  34.192  1.00  0.00    -0.248 NA
ATOM     56  C   UNL A   1      41.397  32.002  36.366  1.00  0.00     0.031 C 
ATOM     57  C   UNL A   1      42.969  27.907  32.184  1.00  0.00     0.029 A 
ATOM     58  C   UNL A   1      42.339  28.949  32.845  1.00  0.00     0.049 A 
ATOM     59  H   UNL A   1      40.717  30.141  32.210  1.00  0.00     0.167 HD
ATOM     60  C   UNL A   1      41.964  30.527  34.714  1.00  0.00     0.074 A 
ATOM     61  C   UNL A   1      42.238  31.031  36.041  1.00  0.00     0.031 C 
ATOM     62  C   UNL A   1      42.621  29.484  34.150  1.00  0.00     0.037 A 
BRANCH  49  63
ATOM     63  C   UNL A   1      40.457  27.894  28.604  1.00  0.00     0.064 A 
ATOM     64  C   UNL A   1      39.774  26.668  28.617  1.00  0.00     0.173 A 
ATOM     65  C   UNL A   1      41.218  28.219  27.473  1.00  0.00     0.173 A 
ATOM     66  F   UNL A   1      39.064  26.302  29.695  1.00  0.00    -0.203 F 
ATOM     67  C   UNL A   1      39.876  25.786  27.547  1.00  0.00     0.198 A 
ATOM     68  C   UNL A   1      41.289  27.349  26.390  1.00  0.00     0.198 A 
ATOM     69  F   UNL A   1      41.898  29.374  27.423  1.00  0.00    -0.203 F 
ATOM     70  F   UNL A   1      39.271  24.592  27.607  1.00  0.00    -0.200 F 
ATOM     71  C   UNL A   1      40.627  26.131  26.432  1.00  0.00     0.200 A 
ATOM     72  F   UNL A   1      42.011  27.683  25.312  1.00  0.00    -0.200 F 
ATOM     73  F   UNL A   1      40.720  25.282  25.400  1.00  0.00    -0.200 F 
ENDBRANCH  49  63
BRANCH  50  74
ATOM     74  C   UNL A   1      39.418  34.140  36.314  1.00  0.00     0.064 A 
ATOM     75  C   UNL A   1      40.108  35.362  36.430  1.00  0.00     0.173 A 
ATOM     76  C   UNL A   1      38.701  33.708  37.440  1.00  0.00     0.173 A 
ATOM     77  F   UNL A   1      40.852  35.809  35.407  1.00  0.00    -0.203 F 
ATOM     78  C   UNL A   1      40.126  36.082  37.628  1.00  0.00     0.198 A 
ATOM     79  C   UNL A   1      38.691  34.447  38.626  1.00  0.00     0.198 A 
ATOM     80  F   UNL A   1      38.038  32.543  37.407  1.00  0.00    -0.203 F 
ATOM     81  F   UNL A   1      40.875  37.189  37.732  1.00  0.00    -0.200 F 
ATOM     82  C   UNL A   1      39.417  35.623  38.726  1.00  0.00     0.200 A 
ATOM     83  F   UNL A   1      38.004  33.999  39.687  1.00  0.00    -0.200 F 
ATOM     84  F   UNL A   1      39.456  36.298  39.883  1.00  0.00    -0.200 F 
ENDBRANCH  50  74
BRANCH  62  85
ATOM     85  C   UNL A   1      43.726  28.833  34.931  1.00  0.00     0.064 A 
ATOM     86  C   UNL A   1      43.480  27.766  35.806  1.00  0.00     0.173 A 
ATOM     87  C   UNL A   1      45.062  29.212  34.715  1.00  0.00     0.173 A 
ATOM     88  F   UNL A   1      42.222  27.372  36.054  1.00  0.00    -0.203 F 
ATOM     89  C   UNL A   1      44.530  27.106  36.441  1.00  0.00     0.198 A 
ATOM     90  C   UNL A   1      46.109  28.529  35.325  1.00  0.00     0.198 A 
ATOM     91  F   UNL A   1      45.352  30.219  33.878  1.00  0.00    -0.203 F 
ATOM     92  F   UNL A   1      44.270  26.106  37.294  1.00  0.00    -0.200 F 
ATOM     93  C   UNL A   1      45.843  27.478  36.189  1.00  0.00     0.200 A 
ATOM     94  F   UNL A   1      47.377  28.875  35.062  1.00  0.00    -0.200 F 
ATOM     95  F   UNL A   1      46.851  26.822  36.779  1.00  0.00    -0.200 F 
ENDBRANCH  62  85
ENDBRANCH  36  37
ENDBRANCH  29  31
ENDBRANCH  28  29
ENDBRANCH   1  28
TORSDOF 13
ENDMDL
