MODEL 1
REMARK VINA RESULT:     -13.4      0.000      0.000
REMARK SMILES N#Cc1cccnc1N1CC[NH+]([C@@H](C(=O)OCCOC(=O)c2ccc(-c3c4nc(c(-c5c(F)c(F)c(F)c(F)c5F)c5ccc([nH]5)c(-c5c(F)c(F)c(F)c(F)c5F)c5nc(c(-c6c(F)c(F)c(F)c(F)c6F)c6ccc3[nH]6)C=C5)C=C4)cc2)c2c[nH]c3cc(CO)ccc23)CC1
REMARK SMILES IDX 17 1 16 2 14 3 15 4 13 5 12 6 9 7 10 8 97 9 11 10 96 11 8 13
REMARK SMILES IDX 3 14 4 15 5 16 7 17 6 18 2 19 1 20 85 21 86 22 95 23 87 24
REMARK SMILES IDX 88 25 94 26 89 28 93 29 90 30 91 31 92 32 18 34 19 35 20 36
REMARK SMILES IDX 21 37 22 38 23 39 84 40 24 41 83 42 25 43 26 44 27 45 77 46
REMARK SMILES IDX 28 47 82 48 76 49 78 50 29 51 81 52 75 53 74 54 30 56 62 57
REMARK SMILES IDX 42 58 61 59 43 60 46 61 60 62 79 63 44 64 45 65 59 67 80 68
REMARK SMILES IDX 47 69 31 70 32 71 40 72 33 73 34 74 38 75 41 76 35 77 36 78
REMARK SMILES IDX 39 79 37 80 63 81 64 82 72 83 65 84 66 85 70 86 73 87 67 88
REMARK SMILES IDX 68 89 71 90 69 91 48 92 49 93 57 94 50 95 51 96 55 97 58 98
REMARK SMILES IDX 52 99 53 100 56 101 54 102
REMARK H PARENT 12 12 87 27 92 33 78 55 46 66
REMARK Flexibility Score: inf
ROOT
ATOM      1  C   UNL A   1      32.492  29.485  25.339  1.00  0.00     0.274 C 
ENDROOT
BRANCH   1   2
ATOM      2  O   UNL A   1      32.290  28.175  25.922  1.00  0.00    -0.457 OA
BRANCH   2   3
ATOM      3  C   UNL A   1      32.407  27.075  25.140  1.00  0.00     0.370 C 
ATOM      4  O   UNL A   1      33.488  26.703  24.684  1.00  0.00    -0.245 OA
BRANCH   3   5
ATOM      5  C   UNL A   1      31.063  26.412  24.763  1.00  0.00     0.328 C 
BRANCH   5   6
ATOM      6  N   UNL A   1      30.775  25.035  25.327  1.00  0.00    -0.316 N 
ATOM      7  N   UNL A   1      33.241  23.445  25.364  1.00  0.00    -0.344 N 
ATOM      8  C   UNL A   1      32.535  23.769  24.137  1.00  0.00     0.179 C 
ATOM      9  C   UNL A   1      32.786  23.964  26.661  1.00  0.00     0.179 C 
ATOM     10  C   UNL A   1      31.060  23.880  24.478  1.00  0.00     0.285 C 
ATOM     11  C   UNL A   1      31.403  24.729  26.636  1.00  0.00     0.285 C 
ATOM     12  H   UNL A   1      29.764  25.145  25.416  1.00  0.00     0.349 HD
BRANCH   7  13
ATOM     13  C   UNL A   1      34.489  22.901  25.157  1.00  0.00     0.146 A 
ATOM     14  C   UNL A   1      34.667  21.520  25.058  1.00  0.00     0.095 A 
ATOM     15  C   UNL A   1      35.901  21.023  24.626  1.00  0.00     0.025 A 
ATOM     16  C   UNL A   1      36.922  21.906  24.294  1.00  0.00     0.022 A 
ATOM     17  N   UNL A   1      35.494  23.758  24.844  1.00  0.00    -0.238 NA
ATOM     18  C   UNL A   1      36.673  23.258  24.420  1.00  0.00     0.113 A 
BRANCH  14  19
ATOM     19  C   UNL A   1      33.576  20.625  25.268  1.00  0.00     0.103 C 
ATOM     20  N   UNL A   1      32.686  19.889  25.435  1.00  0.00    -0.192 NA
ENDBRANCH  14  19
ENDBRANCH   7  13
ENDBRANCH   5   6
BRANCH   5  21
ATOM     21  C   UNL A   1      30.344  26.794  23.404  1.00  0.00     0.046 A 
ATOM     22  C   UNL A   1      31.049  26.719  22.193  1.00  0.00     0.094 A 
ATOM     23  C   UNL A   1      29.446  27.877  23.042  1.00  0.00     0.009 A 
ATOM     24  N   UNL A   1      31.368  28.072  22.021  1.00  0.00    -0.361 N 
ATOM     25  C   UNL A   1      30.251  28.803  22.376  1.00  0.00     0.046 A 
ATOM     26  C   UNL A   1      28.093  28.231  23.126  1.00  0.00     0.011 A 
ATOM     27  H   UNL A   1      32.227  28.435  21.705  1.00  0.00     0.166 HD
ATOM     28  C   UNL A   1      29.903  30.161  22.268  1.00  0.00     0.032 A 
ATOM     29  C   UNL A   1      27.646  29.516  22.823  1.00  0.00     0.007 A 
ATOM     30  C   UNL A   1      28.572  30.516  22.554  1.00  0.00    -0.021 A 
BRANCH  30  31
ATOM     31  C   UNL A   1      28.113  31.947  22.643  1.00  0.00     0.191 C 
BRANCH  31  32
ATOM     32  O   UNL A   1      29.221  32.806  22.918  1.00  0.00    -0.392 OA
ATOM     33  H   UNL A   1      28.906  33.610  23.361  1.00  0.00     0.211 HD
ENDBRANCH  31  32
ENDBRANCH  30  31
ENDBRANCH   5  21
ENDBRANCH   3   5
ENDBRANCH   2   3
ENDBRANCH   1   2
BRANCH   1  34
ATOM     34  C   UNL A   1      31.848  30.519  26.254  1.00  0.00     0.275 C 
BRANCH  34  35
ATOM     35  O   UNL A   1      32.560  30.504  27.510  1.00  0.00    -0.458 OA
BRANCH  35  36
ATOM     36  C   UNL A   1      33.399  31.551  27.624  1.00  0.00     0.338 C 
ATOM     37  O   UNL A   1      33.076  32.718  27.785  1.00  0.00    -0.246 OA
BRANCH  36  38
ATOM     38  C   UNL A   1      34.823  31.183  27.618  1.00  0.00     0.060 A 
ATOM     39  C   UNL A   1      35.167  29.882  28.000  1.00  0.00     0.016 A 
ATOM     40  C   UNL A   1      35.733  32.227  27.792  1.00  0.00     0.016 A 
ATOM     41  C   UNL A   1      36.340  29.648  28.712  1.00  0.00     0.010 A 
ATOM     42  C   UNL A   1      36.952  31.976  28.427  1.00  0.00     0.010 A 
ATOM     43  C   UNL A   1      37.243  30.695  28.932  1.00  0.00    -0.014 A 
BRANCH  43  44
ATOM     44  C   UNL A   1      38.590  30.418  29.468  1.00  0.00     0.031 A 
ATOM     45  C   UNL A   1      39.531  29.434  28.844  1.00  0.00     0.074 A 
ATOM     46  C   UNL A   1      38.863  30.999  30.649  1.00  0.00     0.049 A 
ATOM     47  N   UNL A   1      40.479  28.732  29.411  1.00  0.00    -0.248 NA
ATOM     48  C   UNL A   1      39.408  29.211  27.398  1.00  0.00     0.031 C 
ATOM     49  C   UNL A   1      38.042  32.035  31.284  1.00  0.00     0.029 A 
ATOM     50  N   UNL A   1      39.856  30.751  31.555  1.00  0.00    -0.354 N 
ATOM     51  C   UNL A   1      41.019  27.932  28.408  1.00  0.00     0.074 A 
ATOM     52  C   UNL A   1      40.313  28.258  27.187  1.00  0.00     0.031 C 
ATOM     53  C   UNL A   1      38.525  32.292  32.502  1.00  0.00     0.029 A 
ATOM     54  C   UNL A   1      39.611  31.363  32.760  1.00  0.00     0.049 A 
ATOM     55  H   UNL A   1      40.650  30.201  31.367  1.00  0.00     0.167 HD
ATOM     56  C   UNL A   1      42.017  27.020  28.531  1.00  0.00     0.037 A 
ATOM     57  C   UNL A   1      40.128  31.121  33.974  1.00  0.00     0.037 A 
ATOM     58  C   UNL A   1      42.760  26.826  29.756  1.00  0.00     0.049 A 
ATOM     59  C   UNL A   1      41.183  30.069  34.096  1.00  0.00     0.074 A 
ATOM     60  C   UNL A   1      43.843  25.994  29.988  1.00  0.00     0.029 A 
ATOM     61  N   UNL A   1      42.508  27.492  30.948  1.00  0.00    -0.354 N 
ATOM     62  N   UNL A   1      41.654  29.262  33.176  1.00  0.00    -0.248 NA
ATOM     63  C   UNL A   1      41.789  29.902  35.419  1.00  0.00     0.031 C 
ATOM     64  C   UNL A   1      44.206  26.114  31.332  1.00  0.00     0.029 A 
ATOM     65  C   UNL A   1      43.403  27.078  31.919  1.00  0.00     0.049 A 
ATOM     66  H   UNL A   1      41.797  28.160  31.081  1.00  0.00     0.167 HD
ATOM     67  C   UNL A   1      42.652  28.530  33.794  1.00  0.00     0.074 A 
ATOM     68  C   UNL A   1      42.713  28.987  35.169  1.00  0.00     0.031 C 
ATOM     69  C   UNL A   1      43.456  27.574  33.271  1.00  0.00     0.037 A 
BRANCH  56  70
ATOM     70  C   UNL A   1      42.382  26.139  27.363  1.00  0.00     0.064 A 
ATOM     71  C   UNL A   1      43.450  26.425  26.503  1.00  0.00     0.173 A 
ATOM     72  C   UNL A   1      41.741  24.894  27.206  1.00  0.00     0.173 A 
ATOM     73  F   UNL A   1      44.109  27.589  26.608  1.00  0.00    -0.203 F 
ATOM     74  C   UNL A   1      43.859  25.509  25.532  1.00  0.00     0.198 A 
ATOM     75  C   UNL A   1      42.174  23.968  26.258  1.00  0.00     0.198 A 
ATOM     76  F   UNL A   1      40.725  24.550  28.012  1.00  0.00    -0.203 F 
ATOM     77  F   UNL A   1      44.875  25.812  24.712  1.00  0.00    -0.200 F 
ATOM     78  C   UNL A   1      43.231  24.277  25.420  1.00  0.00     0.200 A 
ATOM     79  F   UNL A   1      41.582  22.767  26.177  1.00  0.00    -0.200 F 
ATOM     80  F   UNL A   1      43.651  23.384  24.511  1.00  0.00    -0.200 F 
ENDBRANCH  56  70
BRANCH  57  81
ATOM     81  C   UNL A   1      39.610  31.866  35.144  1.00  0.00     0.064 A 
ATOM     82  C   UNL A   1      38.643  31.295  35.976  1.00  0.00     0.173 A 
ATOM     83  C   UNL A   1      40.100  33.139  35.480  1.00  0.00     0.173 A 
ATOM     84  F   UNL A   1      38.152  30.078  35.695  1.00  0.00    -0.203 F 
ATOM     85  C   UNL A   1      38.153  31.983  37.081  1.00  0.00     0.198 A 
ATOM     86  C   UNL A   1      39.641  33.808  36.610  1.00  0.00     0.198 A 
ATOM     87  F   UNL A   1      41.053  33.715  34.731  1.00  0.00    -0.203 F 
ATOM     88  F   UNL A   1      37.187  31.437  37.830  1.00  0.00    -0.200 F 
ATOM     89  C   UNL A   1      38.656  33.236  37.400  1.00  0.00     0.200 A 
ATOM     90  F   UNL A   1      40.156  35.001  36.936  1.00  0.00    -0.200 F 
ATOM     91  F   UNL A   1      38.189  33.894  38.470  1.00  0.00    -0.200 F 
ENDBRANCH  57  81
BRANCH  69  92
ATOM     92  C   UNL A   1      44.530  27.030  34.164  1.00  0.00     0.064 A 
ATOM     93  C   UNL A   1      45.777  27.655  34.289  1.00  0.00     0.173 A 
ATOM     94  C   UNL A   1      44.282  25.885  34.936  1.00  0.00     0.173 A 
ATOM     95  F   UNL A   1      46.067  28.739  33.552  1.00  0.00    -0.203 F 
ATOM     96  C   UNL A   1      46.750  27.138  35.138  1.00  0.00     0.198 A 
ATOM     97  C   UNL A   1      45.242  25.394  35.813  1.00  0.00     0.198 A 
ATOM     98  F   UNL A   1      43.101  25.254  34.852  1.00  0.00    -0.203 F 
ATOM     99  F   UNL A   1      47.957  27.716  35.201  1.00  0.00    -0.200 F 
ATOM    100  C   UNL A   1      46.477  26.016  35.908  1.00  0.00     0.200 A 
ATOM    101  F   UNL A   1      44.970  24.321  36.568  1.00  0.00    -0.200 F 
ATOM    102  F   UNL A   1      47.410  25.529  36.737  1.00  0.00    -0.200 F 
ENDBRANCH  69  92
ENDBRANCH  43  44
ENDBRANCH  36  38
ENDBRANCH  35  36
ENDBRANCH  34  35
ENDBRANCH   1  34
TORSDOF 17
ENDMDL
MODEL 2
REMARK VINA RESULT:     -13.3      0.196      1.538
REMARK SMILES N#Cc1cccnc1N1CC[NH+]([C@@H](C(=O)OCCOC(=O)c2ccc(-c3c4nc(c(-c5c(F)c(F)c(F)c(F)c5F)c5ccc([nH]5)c(-c5c(F)c(F)c(F)c(F)c5F)c5nc(c(-c6c(F)c(F)c(F)c(F)c6F)c6ccc3[nH]6)C=C5)C=C4)cc2)c2c[nH]c3cc(CO)ccc23)CC1
REMARK SMILES IDX 17 1 16 2 14 3 15 4 13 5 12 6 9 7 10 8 97 9 11 10 96 11 8 13
REMARK SMILES IDX 3 14 4 15 5 16 7 17 6 18 2 19 1 20 85 21 86 22 95 23 87 24
REMARK SMILES IDX 88 25 94 26 89 28 93 29 90 30 91 31 92 32 18 34 19 35 20 36
REMARK SMILES IDX 21 37 22 38 23 39 84 40 24 41 83 42 25 43 26 44 27 45 77 46
REMARK SMILES IDX 28 47 82 48 76 49 78 50 29 51 81 52 75 53 74 54 30 56 62 57
REMARK SMILES IDX 42 58 61 59 43 60 46 61 60 62 79 63 44 64 45 65 59 67 80 68
REMARK SMILES IDX 47 69 31 70 32 71 40 72 33 73 34 74 38 75 41 76 35 77 36 78
REMARK SMILES IDX 39 79 37 80 63 81 64 82 72 83 65 84 66 85 70 86 73 87 67 88
REMARK SMILES IDX 68 89 71 90 69 91 48 92 49 93 57 94 50 95 51 96 55 97 58 98
REMARK SMILES IDX 52 99 53 100 56 101 54 102
REMARK H PARENT 12 12 87 27 92 33 78 55 46 66
REMARK Flexibility Score: inf
ROOT
ATOM      1  C   UNL A   1      32.335  29.455  25.472  1.00  0.00     0.274 C 
ENDROOT
BRANCH   1   2
ATOM      2  O   UNL A   1      32.084  28.149  26.045  1.00  0.00    -0.457 OA
BRANCH   2   3
ATOM      3  C   UNL A   1      32.304  27.041  25.297  1.00  0.00     0.370 C 
ATOM      4  O   UNL A   1      33.431  26.705  24.934  1.00  0.00    -0.245 OA
BRANCH   3   5
ATOM      5  C   UNL A   1      31.021  26.319  24.830  1.00  0.00     0.328 C 
BRANCH   5   6
ATOM      6  N   UNL A   1      30.787  24.908  25.328  1.00  0.00    -0.316 N 
ATOM      7  N   UNL A   1      33.325  23.438  25.370  1.00  0.00    -0.344 N 
ATOM      8  C   UNL A   1      32.637  23.778  24.137  1.00  0.00     0.179 C 
ATOM      9  C   UNL A   1      32.812  23.879  26.674  1.00  0.00     0.179 C 
ATOM     10  C   UNL A   1      31.150  23.804  24.441  1.00  0.00     0.285 C 
ATOM     11  C   UNL A   1      31.394  24.577  26.641  1.00  0.00     0.285 C 
ATOM     12  H   UNL A   1      29.770  24.964  25.393  1.00  0.00     0.349 HD
BRANCH   7  13
ATOM     13  C   UNL A   1      34.604  22.963  25.176  1.00  0.00     0.146 A 
ATOM     14  C   UNL A   1      34.860  21.594  25.085  1.00  0.00     0.095 A 
ATOM     15  C   UNL A   1      36.124  21.165  24.666  1.00  0.00     0.025 A 
ATOM     16  C   UNL A   1      37.097  22.102  24.339  1.00  0.00     0.022 A 
ATOM     17  N   UNL A   1      35.563  23.874  24.869  1.00  0.00    -0.238 NA
ATOM     18  C   UNL A   1      36.771  23.439  24.457  1.00  0.00     0.113 A 
BRANCH  14  19
ATOM     19  C   UNL A   1      33.819  20.640  25.288  1.00  0.00     0.103 C 
ATOM     20  N   UNL A   1      32.967  19.860  25.460  1.00  0.00    -0.192 NA
ENDBRANCH  14  19
ENDBRANCH   7  13
ENDBRANCH   5   6
BRANCH   5  21
ATOM     21  C   UNL A   1      30.347  26.713  23.450  1.00  0.00     0.046 A 
ATOM     22  C   UNL A   1      31.095  26.658  22.265  1.00  0.00     0.094 A 
ATOM     23  C   UNL A   1      29.453  27.793  23.070  1.00  0.00     0.009 A 
ATOM     24  N   UNL A   1      31.409  28.015  22.120  1.00  0.00    -0.361 N 
ATOM     25  C   UNL A   1      30.275  28.733  22.444  1.00  0.00     0.046 A 
ATOM     26  C   UNL A   1      28.096  28.136  23.110  1.00  0.00     0.011 A 
ATOM     27  H   UNL A   1      32.276  28.389  21.840  1.00  0.00     0.166 HD
ATOM     28  C   UNL A   1      29.920  30.090  22.341  1.00  0.00     0.032 A 
ATOM     29  C   UNL A   1      27.650  29.420  22.807  1.00  0.00     0.007 A 
ATOM     30  C   UNL A   1      28.576  30.431  22.584  1.00  0.00    -0.021 A 
BRANCH  30  31
ATOM     31  C   UNL A   1      28.103  31.857  22.674  1.00  0.00     0.191 C 
BRANCH  31  32
ATOM     32  O   UNL A   1      29.194  32.755  22.467  1.00  0.00    -0.392 OA
ATOM     33  H   UNL A   1      29.572  32.608  21.586  1.00  0.00     0.211 HD
ENDBRANCH  31  32
ENDBRANCH  30  31
ENDBRANCH   5  21
ENDBRANCH   3   5
ENDBRANCH   2   3
ENDBRANCH   1   2
BRANCH   1  34
ATOM     34  C   UNL A   1      31.839  30.509  26.453  1.00  0.00     0.275 C 
BRANCH  34  35
ATOM     35  O   UNL A   1      32.700  30.476  27.612  1.00  0.00    -0.458 OA
BRANCH  35  36
ATOM     36  C   UNL A   1      33.524  31.539  27.656  1.00  0.00     0.338 C 
ATOM     37  O   UNL A   1      33.186  32.708  27.766  1.00  0.00    -0.246 OA
BRANCH  36  38
ATOM     38  C   UNL A   1      34.953  31.191  27.640  1.00  0.00     0.060 A 
ATOM     39  C   UNL A   1      35.316  29.886  27.983  1.00  0.00     0.016 A 
ATOM     40  C   UNL A   1      35.848  32.244  27.844  1.00  0.00     0.016 A 
ATOM     41  C   UNL A   1      36.493  29.647  28.687  1.00  0.00     0.010 A 
ATOM     42  C   UNL A   1      37.071  31.992  28.470  1.00  0.00     0.010 A 
ATOM     43  C   UNL A   1      37.381  30.700  28.938  1.00  0.00    -0.014 A 
BRANCH  43  44
ATOM     44  C   UNL A   1      38.733  30.427  29.465  1.00  0.00     0.031 A 
ATOM     45  C   UNL A   1      39.666  29.435  28.842  1.00  0.00     0.074 A 
ATOM     46  C   UNL A   1      39.016  31.020  30.637  1.00  0.00     0.049 A 
ATOM     47  N   UNL A   1      40.618  28.737  29.408  1.00  0.00    -0.248 NA
ATOM     48  C   UNL A   1      39.531  29.197  27.400  1.00  0.00     0.031 C 
ATOM     49  C   UNL A   1      38.203  32.064  31.267  1.00  0.00     0.029 A 
ATOM     50  N   UNL A   1      40.018  30.780  31.536  1.00  0.00    -0.354 N 
ATOM     51  C   UNL A   1      41.149  27.926  28.410  1.00  0.00     0.074 A 
ATOM     52  C   UNL A   1      40.432  28.240  27.192  1.00  0.00     0.031 C 
ATOM     53  C   UNL A   1      38.697  32.333  32.479  1.00  0.00     0.029 A 
ATOM     54  C   UNL A   1      39.784  31.405  32.736  1.00  0.00     0.049 A 
ATOM     55  H   UNL A   1      40.809  30.227  31.347  1.00  0.00     0.167 HD
ATOM     56  C   UNL A   1      42.146  27.014  28.533  1.00  0.00     0.037 A 
ATOM     57  C   UNL A   1      40.311  31.176  33.948  1.00  0.00     0.037 A 
ATOM     58  C   UNL A   1      42.900  26.831  29.754  1.00  0.00     0.049 A 
ATOM     59  C   UNL A   1      41.366  30.124  34.073  1.00  0.00     0.074 A 
ATOM     60  C   UNL A   1      43.984  26.001  29.985  1.00  0.00     0.029 A 
ATOM     61  N   UNL A   1      42.659  27.511  30.940  1.00  0.00    -0.354 N 
ATOM     62  N   UNL A   1      41.827  29.306  33.157  1.00  0.00    -0.248 NA
ATOM     63  C   UNL A   1      41.983  29.969  35.391  1.00  0.00     0.031 C 
ATOM     64  C   UNL A   1      44.358  26.135  31.324  1.00  0.00     0.029 A 
ATOM     65  C   UNL A   1      43.562  27.106  31.908  1.00  0.00     0.049 A 
ATOM     66  H   UNL A   1      41.950  28.181  31.073  1.00  0.00     0.167 HD
ATOM     67  C   UNL A   1      42.830  28.579  33.774  1.00  0.00     0.074 A 
ATOM     68  C   UNL A   1      42.904  29.050  35.143  1.00  0.00     0.031 C 
ATOM     69  C   UNL A   1      43.628  27.617  33.254  1.00  0.00     0.037 A 
BRANCH  56  70
ATOM     70  C   UNL A   1      42.499  26.120  27.372  1.00  0.00     0.064 A 
ATOM     71  C   UNL A   1      43.565  26.390  26.504  1.00  0.00     0.173 A 
ATOM     72  C   UNL A   1      41.849  24.878  27.229  1.00  0.00     0.173 A 
ATOM     73  F   UNL A   1      44.233  27.550  26.595  1.00  0.00    -0.203 F 
ATOM     74  C   UNL A   1      43.963  25.463  25.539  1.00  0.00     0.198 A 
ATOM     75  C   UNL A   1      42.271  23.940  26.287  1.00  0.00     0.198 A 
ATOM     76  F   UNL A   1      40.835  24.549  28.043  1.00  0.00    -0.203 F 
ATOM     77  F   UNL A   1      44.978  25.752  24.712  1.00  0.00    -0.200 F 
ATOM     78  C   UNL A   1      43.327  24.234  25.441  1.00  0.00     0.200 A 
ATOM     79  F   UNL A   1      41.671  22.743  26.220  1.00  0.00    -0.200 F 
ATOM     80  F   UNL A   1      43.736  23.331  24.539  1.00  0.00    -0.200 F 
ENDBRANCH  56  70
BRANCH  57  81
ATOM     81  C   UNL A   1      39.805  31.934  35.115  1.00  0.00     0.064 A 
ATOM     82  C   UNL A   1      40.285  33.218  35.389  1.00  0.00     0.173 A 
ATOM     83  C   UNL A   1      38.802  31.414  35.950  1.00  0.00     0.173 A 
ATOM     84  F   UNL A   1      41.238  33.756  34.612  1.00  0.00    -0.203 F 
ATOM     85  C   UNL A   1      39.812  33.942  36.479  1.00  0.00     0.198 A 
ATOM     86  C   UNL A   1      38.299  32.156  37.014  1.00  0.00     0.198 A 
ATOM     87  F   UNL A   1      38.285  30.199  35.708  1.00  0.00    -0.203 F 
ATOM     88  F   UNL A   1      40.329  35.146  36.752  1.00  0.00    -0.200 F 
ATOM     89  C   UNL A   1      38.816  33.412  37.286  1.00  0.00     0.200 A 
ATOM     90  F   UNL A   1      37.311  31.656  37.768  1.00  0.00    -0.200 F 
ATOM     91  F   UNL A   1      38.356  34.114  38.331  1.00  0.00    -0.200 F 
ENDBRANCH  57  81
BRANCH  69  92
ATOM     92  C   UNL A   1      44.709  27.080  34.143  1.00  0.00     0.064 A 
ATOM     93  C   UNL A   1      44.521  25.936  34.930  1.00  0.00     0.173 A 
ATOM     94  C   UNL A   1      45.965  27.705  34.171  1.00  0.00     0.173 A 
ATOM     95  F   UNL A   1      43.329  25.319  34.954  1.00  0.00    -0.203 F 
ATOM     96  C   UNL A   1      45.547  25.451  35.734  1.00  0.00     0.198 A 
ATOM     97  C   UNL A   1      47.000  27.194  34.945  1.00  0.00     0.198 A 
ATOM     98  F   UNL A   1      46.192  28.802  33.432  1.00  0.00    -0.203 F 
ATOM     99  F   UNL A   1      45.331  24.389  36.523  1.00  0.00    -0.200 F 
ATOM    100  C   UNL A   1      46.788  26.072  35.732  1.00  0.00     0.200 A 
ATOM    101  F   UNL A   1      48.202  27.786  34.928  1.00  0.00    -0.200 F 
ATOM    102  F   UNL A   1      47.779  25.593  36.494  1.00  0.00    -0.200 F 
ENDBRANCH  69  92
ENDBRANCH  43  44
ENDBRANCH  36  38
ENDBRANCH  35  36
ENDBRANCH  34  35
ENDBRANCH   1  34
TORSDOF 17
ENDMDL
MODEL 3
REMARK VINA RESULT:     -13.0      4.045      9.712
REMARK SMILES N#Cc1cccnc1N1CC[NH+]([C@@H](C(=O)OCCOC(=O)c2ccc(-c3c4nc(c(-c5c(F)c(F)c(F)c(F)c5F)c5ccc([nH]5)c(-c5c(F)c(F)c(F)c(F)c5F)c5nc(c(-c6c(F)c(F)c(F)c(F)c6F)c6ccc3[nH]6)C=C5)C=C4)cc2)c2c[nH]c3cc(CO)ccc23)CC1
REMARK SMILES IDX 17 1 16 2 14 3 15 4 13 5 12 6 9 7 10 8 97 9 11 10 96 11 8 13
REMARK SMILES IDX 3 14 4 15 5 16 7 17 6 18 2 19 1 20 85 21 86 22 95 23 87 24
REMARK SMILES IDX 88 25 94 26 89 28 93 29 90 30 91 31 92 32 18 34 19 35 20 36
REMARK SMILES IDX 21 37 22 38 23 39 84 40 24 41 83 42 25 43 26 44 27 45 77 46
REMARK SMILES IDX 28 47 82 48 76 49 78 50 29 51 81 52 75 53 74 54 30 56 62 57
REMARK SMILES IDX 42 58 61 59 43 60 46 61 60 62 79 63 44 64 45 65 59 67 80 68
REMARK SMILES IDX 47 69 31 70 32 71 40 72 33 73 34 74 38 75 41 76 35 77 36 78
REMARK SMILES IDX 39 79 37 80 63 81 64 82 72 83 65 84 66 85 70 86 73 87 67 88
REMARK SMILES IDX 68 89 71 90 69 91 48 92 49 93 57 94 50 95 51 96 55 97 58 98
REMARK SMILES IDX 52 99 53 100 56 101 54 102
REMARK H PARENT 12 12 87 27 92 33 78 55 46 66
REMARK Flexibility Score: inf
ROOT
ATOM      1  C   UNL A   1      36.687  22.888  23.485  1.00  0.00     0.274 C 
ENDROOT
BRANCH   1   2
ATOM      2  O   UNL A   1      35.416  23.086  22.818  1.00  0.00    -0.457 OA
BRANCH   2   3
ATOM      3  C   UNL A   1      34.396  23.668  23.492  1.00  0.00     0.370 C 
ATOM      4  O   UNL A   1      34.579  24.364  24.491  1.00  0.00    -0.245 OA
BRANCH   3   5
ATOM      5  C   UNL A   1      32.989  23.278  22.985  1.00  0.00     0.328 C 
BRANCH   5   6
ATOM      6  N   UNL A   1      32.160  24.354  22.314  1.00  0.00    -0.316 N 
ATOM      7  N   UNL A   1      32.346  26.849  23.847  1.00  0.00    -0.344 N 
ATOM      8  C   UNL A   1      31.597  25.695  24.315  1.00  0.00     0.179 C 
ATOM      9  C   UNL A   1      33.116  26.799  22.597  1.00  0.00     0.179 C 
ATOM     10  C   UNL A   1      31.081  24.963  23.090  1.00  0.00     0.285 C 
ATOM     11  C   UNL A   1      32.920  25.489  21.734  1.00  0.00     0.285 C 
ATOM     12  H   UNL A   1      31.757  23.765  21.585  1.00  0.00     0.349 HD
BRANCH   7  13
ATOM     13  C   UNL A   1      32.510  27.826  24.804  1.00  0.00     0.146 A 
ATOM     14  C   UNL A   1      31.663  28.934  24.857  1.00  0.00     0.095 A 
ATOM     15  C   UNL A   1      31.719  29.780  25.969  1.00  0.00     0.025 A 
ATOM     16  C   UNL A   1      32.605  29.503  27.003  1.00  0.00     0.022 A 
ATOM     17  N   UNL A   1      33.384  27.567  25.810  1.00  0.00    -0.238 NA
ATOM     18  C   UNL A   1      33.414  28.391  26.878  1.00  0.00     0.113 A 
BRANCH  14  19
ATOM     19  C   UNL A   1      30.662  29.138  23.861  1.00  0.00     0.103 C 
ATOM     20  N   UNL A   1      29.838  29.305  23.050  1.00  0.00    -0.192 NA
ENDBRANCH  14  19
ENDBRANCH   7  13
ENDBRANCH   5   6
BRANCH   5  21
ATOM     21  C   UNL A   1      32.199  22.091  23.676  1.00  0.00     0.046 A 
ATOM     22  C   UNL A   1      31.822  22.191  25.024  1.00  0.00     0.094 A 
ATOM     23  C   UNL A   1      32.356  20.648  23.622  1.00  0.00     0.009 A 
ATOM     24  N   UNL A   1      32.833  21.419  25.610  1.00  0.00    -0.361 N 
ATOM     25  C   UNL A   1      33.025  20.316  24.802  1.00  0.00     0.046 A 
ATOM     26  C   UNL A   1      32.027  19.556  22.808  1.00  0.00     0.011 A 
ATOM     27  H   UNL A   1      33.317  21.623  26.443  1.00  0.00     0.166 HD
ATOM     28  C   UNL A   1      33.767  19.129  24.936  1.00  0.00     0.032 A 
ATOM     29  C   UNL A   1      32.567  18.289  23.020  1.00  0.00     0.007 A 
ATOM     30  C   UNL A   1      33.556  18.119  23.979  1.00  0.00    -0.021 A 
BRANCH  30  31
ATOM     31  C   UNL A   1      34.404  16.877  23.908  1.00  0.00     0.191 C 
BRANCH  31  32
ATOM     32  O   UNL A   1      34.237  16.234  22.644  1.00  0.00    -0.392 OA
ATOM     33  H   UNL A   1      35.107  16.038  22.262  1.00  0.00     0.211 HD
ENDBRANCH  31  32
ENDBRANCH  30  31
ENDBRANCH   5  21
ENDBRANCH   3   5
ENDBRANCH   2   3
ENDBRANCH   1   2
BRANCH   1  34
ATOM     34  C   UNL A   1      36.510  21.797  24.533  1.00  0.00     0.275 C 
BRANCH  34  35
ATOM     35  O   UNL A   1      37.145  22.245  25.750  1.00  0.00    -0.458 OA
BRANCH  35  36
ATOM     36  C   UNL A   1      38.388  21.746  25.881  1.00  0.00     0.338 C 
ATOM     37  O   UNL A   1      38.717  20.581  25.716  1.00  0.00    -0.246 OA
BRANCH  36  38
ATOM     38  C   UNL A   1      39.413  22.757  26.182  1.00  0.00     0.060 A 
ATOM     39  C   UNL A   1      40.282  22.515  27.250  1.00  0.00     0.016 A 
ATOM     40  C   UNL A   1      39.118  24.068  25.802  1.00  0.00     0.016 A 
ATOM     41  C   UNL A   1      40.720  23.567  28.050  1.00  0.00     0.010 A 
ATOM     42  C   UNL A   1      39.631  25.131  26.551  1.00  0.00     0.010 A 
ATOM     43  C   UNL A   1      40.397  24.885  27.706  1.00  0.00    -0.014 A 
BRANCH  43  44
ATOM     44  C   UNL A   1      41.046  26.016  28.397  1.00  0.00     0.031 A 
ATOM     45  C   UNL A   1      40.279  27.091  29.104  1.00  0.00     0.074 A 
ATOM     46  C   UNL A   1      42.376  26.102  28.220  1.00  0.00     0.049 A 
ATOM     47  N   UNL A   1      40.617  28.338  29.314  1.00  0.00    -0.248 NA
ATOM     48  C   UNL A   1      38.970  26.727  29.660  1.00  0.00     0.031 C 
ATOM     49  C   UNL A   1      43.212  25.058  27.621  1.00  0.00     0.029 A 
ATOM     50  N   UNL A   1      43.241  27.135  28.456  1.00  0.00    -0.354 N 
ATOM     51  C   UNL A   1      39.537  28.928  29.963  1.00  0.00     0.074 A 
ATOM     52  C   UNL A   1      38.540  27.892  30.140  1.00  0.00     0.031 C 
ATOM     53  C   UNL A   1      44.456  25.521  27.476  1.00  0.00     0.029 A 
ATOM     54  C   UNL A   1      44.464  26.918  27.871  1.00  0.00     0.049 A 
ATOM     55  H   UNL A   1      43.014  27.936  28.981  1.00  0.00     0.167 HD
ATOM     56  C   UNL A   1      39.421  30.219  30.363  1.00  0.00     0.037 A 
ATOM     57  C   UNL A   1      45.448  27.782  27.579  1.00  0.00     0.037 A 
ATOM     58  C   UNL A   1      40.501  31.175  30.259  1.00  0.00     0.049 A 
ATOM     59  C   UNL A   1      45.273  29.213  27.974  1.00  0.00     0.074 A 
ATOM     60  C   UNL A   1      40.540  32.488  30.700  1.00  0.00     0.029 A 
ATOM     61  N   UNL A   1      41.741  30.908  29.694  1.00  0.00    -0.354 N 
ATOM     62  N   UNL A   1      44.235  29.796  28.523  1.00  0.00    -0.248 NA
ATOM     63  C   UNL A   1      46.408  30.103  27.723  1.00  0.00     0.031 C 
ATOM     64  C   UNL A   1      41.778  33.030  30.348  1.00  0.00     0.029 A 
ATOM     65  C   UNL A   1      42.543  32.035  29.761  1.00  0.00     0.049 A 
ATOM     66  H   UNL A   1      42.010  30.045  29.305  1.00  0.00     0.167 HD
ATOM     67  C   UNL A   1      44.612  31.111  28.737  1.00  0.00     0.074 A 
ATOM     68  C   UNL A   1      45.973  31.236  28.252  1.00  0.00     0.031 C 
ATOM     69  C   UNL A   1      43.904  32.120  29.295  1.00  0.00     0.037 A 
BRANCH  56  70
ATOM     70  C   UNL A   1      38.117  30.721  30.928  1.00  0.00     0.064 A 
ATOM     71  C   UNL A   1      37.921  30.949  32.296  1.00  0.00     0.173 A 
ATOM     72  C   UNL A   1      37.093  31.134  30.051  1.00  0.00     0.173 A 
ATOM     73  F   UNL A   1      38.862  30.589  33.182  1.00  0.00    -0.203 F 
ATOM     74  C   UNL A   1      36.759  31.563  32.766  1.00  0.00     0.198 A 
ATOM     75  C   UNL A   1      35.949  31.778  30.521  1.00  0.00     0.198 A 
ATOM     76  F   UNL A   1      37.228  30.964  28.727  1.00  0.00    -0.203 F 
ATOM     77  F   UNL A   1      36.590  31.758  34.082  1.00  0.00    -0.200 F 
ATOM     78  C   UNL A   1      35.782  31.990  31.879  1.00  0.00     0.200 A 
ATOM     79  F   UNL A   1      35.025  32.215  29.654  1.00  0.00    -0.200 F 
ATOM     80  F   UNL A   1      34.683  32.613  32.331  1.00  0.00    -0.200 F 
ENDBRANCH  56  70
BRANCH  57  81
ATOM     81  C   UNL A   1      46.640  27.301  26.844  1.00  0.00     0.064 A 
ATOM     82  C   UNL A   1      46.708  27.414  25.452  1.00  0.00     0.173 A 
ATOM     83  C   UNL A   1      47.750  26.763  27.516  1.00  0.00     0.173 A 
ATOM     84  F   UNL A   1      45.672  27.929  24.771  1.00  0.00    -0.203 F 
ATOM     85  C   UNL A   1      47.825  26.971  24.751  1.00  0.00     0.198 A 
ATOM     86  C   UNL A   1      48.884  26.359  26.818  1.00  0.00     0.198 A 
ATOM     87  F   UNL A   1      47.746  26.663  28.854  1.00  0.00    -0.203 F 
ATOM     88  F   UNL A   1      47.841  27.039  23.415  1.00  0.00    -0.200 F 
ATOM     89  C   UNL A   1      48.913  26.449  25.435  1.00  0.00     0.200 A 
ATOM     90  F   UNL A   1      49.947  25.891  27.485  1.00  0.00    -0.200 F 
ATOM     91  F   UNL A   1      49.992  26.030  24.760  1.00  0.00    -0.200 F 
ENDBRANCH  57  81
BRANCH  69  92
ATOM     92  C   UNL A   1      44.622  33.420  29.496  1.00  0.00     0.064 A 
ATOM     93  C   UNL A   1      44.602  34.434  28.529  1.00  0.00     0.173 A 
ATOM     94  C   UNL A   1      45.305  33.663  30.697  1.00  0.00     0.173 A 
ATOM     95  F   UNL A   1      43.981  34.238  27.355  1.00  0.00    -0.203 F 
ATOM     96  C   UNL A   1      45.264  35.638  28.748  1.00  0.00     0.198 A 
ATOM     97  C   UNL A   1      45.932  34.882  30.928  1.00  0.00     0.198 A 
ATOM     98  F   UNL A   1      45.349  32.723  31.653  1.00  0.00    -0.203 F 
ATOM     99  F   UNL A   1      45.282  36.573  27.789  1.00  0.00    -0.200 F 
ATOM    100  C   UNL A   1      45.917  35.865  29.951  1.00  0.00     0.200 A 
ATOM    101  F   UNL A   1      46.547  35.105  32.097  1.00  0.00    -0.200 F 
ATOM    102  F   UNL A   1      46.540  37.031  30.166  1.00  0.00    -0.200 F 
ENDBRANCH  69  92
ENDBRANCH  43  44
ENDBRANCH  36  38
ENDBRANCH  35  36
ENDBRANCH  34  35
ENDBRANCH   1  34
TORSDOF 17
ENDMDL
