MODEL 1
REMARK VINA RESULT:     -13.1      0.000      0.000
REMARK SMILES COc1cc(C(=O)NC2(C(=O)OCCOC(=O)c3ccc(-c4c5nc(c(-c6c(F)c(F)c(F)c(F)c6F)c6ccc([nH]6)c(-c6c(F)c(F)c(F)c(F)c6F)c6nc(c(-c7c(F)c(F)c(F)c(F)c7F)c7ccc4[nH]7)C=C6)C=C5)cc3)CCCCC2)cc2c1OCCO2
REMARK SMILES IDX 13 1 12 2 10 3 11 4 9 5 81 6 85 7 82 8 84 9 83 10 8 11 6 12
REMARK SMILES IDX 7 13 5 15 3 16 4 17 88 18 87 19 89 20 86 21 92 22 90 23
REMARK SMILES IDX 91 24 2 25 1 26 14 27 15 28 16 29 17 30 18 31 19 32 80 33
REMARK SMILES IDX 20 34 79 35 21 36 22 37 23 38 73 39 24 40 78 41 72 42 74 43
REMARK SMILES IDX 25 44 77 45 71 46 70 47 26 49 58 50 38 51 57 52 39 53 42 54
REMARK SMILES IDX 56 55 75 56 40 57 41 58 55 60 76 61 43 62 27 63 28 64 36 65
REMARK SMILES IDX 29 66 30 67 34 68 37 69 31 70 32 71 35 72 33 73 59 74 60 75
REMARK SMILES IDX 68 76 61 77 62 78 66 79 69 80 63 81 64 82 67 83 65 84 44 85
REMARK SMILES IDX 45 86 53 87 46 88 47 89 51 90 54 91 48 92 49 93 52 94 50 95
REMARK H PARENT 8 14 74 48 42 59
REMARK Flexibility Score: inf
ROOT
ATOM      1  C   UNL A   1      31.377  29.742  25.052  1.00  0.00     0.274 C 
ENDROOT
BRANCH   1   2
ATOM      2  O   UNL A   1      31.384  28.347  25.414  1.00  0.00    -0.460 OA
BRANCH   2   3
ATOM      3  C   UNL A   1      30.879  27.480  24.497  1.00  0.00     0.331 C 
ATOM      4  O   UNL A   1      29.817  27.655  23.904  1.00  0.00    -0.249 OA
BRANCH   3   5
ATOM      5  C   UNL A   1      31.713  26.161  24.371  1.00  0.00     0.138 C 
ATOM      6  C   UNL A   1      33.154  26.686  24.198  1.00  0.00     0.040 C 
ATOM      7  C   UNL A   1      31.154  25.262  23.244  1.00  0.00     0.040 C 
ATOM      8  C   UNL A   1      33.554  26.942  22.744  1.00  0.00     0.003 C 
ATOM      9  C   UNL A   1      31.659  25.569  21.839  1.00  0.00     0.003 C 
ATOM     10  C   UNL A   1      33.158  25.815  21.803  1.00  0.00     0.000 C 
BRANCH   5  11
ATOM     11  N   UNL A   1      31.473  25.435  25.666  1.00  0.00    -0.336 N 
ATOM     12  C   UNL A   1      31.591  24.186  26.209  1.00  0.00     0.252 C 
ATOM     13  O   UNL A   1      31.021  23.998  27.286  1.00  0.00    -0.269 OA
ATOM     14  H   UNL A   1      31.114  26.059  26.337  1.00  0.00     0.165 HD
BRANCH  12  15
ATOM     15  C   UNL A   1      32.446  23.108  25.667  1.00  0.00     0.047 A 
ATOM     16  C   UNL A   1      34.614  22.136  25.218  1.00  0.00     0.165 A 
ATOM     17  C   UNL A   1      33.803  23.252  25.425  1.00  0.00     0.064 A 
ATOM     18  C   UNL A   1      34.044  20.868  25.090  1.00  0.00     0.203 A 
ATOM     19  C   UNL A   1      32.653  20.738  25.199  1.00  0.00     0.166 A 
ATOM     20  O   UNL A   1      34.865  19.785  24.917  1.00  0.00    -0.483 OA
ATOM     21  C   UNL A   1      31.859  21.848  25.489  1.00  0.00     0.064 A 
ATOM     22  O   UNL A   1      31.991  19.541  25.086  1.00  0.00    -0.486 OA
ATOM     23  C   UNL A   1      34.148  18.656  24.409  1.00  0.00     0.271 C 
ATOM     24  C   UNL A   1      32.878  18.426  25.208  1.00  0.00     0.271 C 
BRANCH  16  25
ATOM     25  O   UNL A   1      35.955  22.383  25.357  1.00  0.00    -0.493 OA
ATOM     26  C   UNL A   1      36.279  23.759  25.495  1.00  0.00     0.278 C 
ENDBRANCH  16  25
ENDBRANCH  12  15
ENDBRANCH   5  11
ENDBRANCH   3   5
ENDBRANCH   2   3
ENDBRANCH   1   2
BRANCH   1  27
ATOM     27  C   UNL A   1      31.702  30.642  26.242  1.00  0.00     0.275 C 
BRANCH  27  28
ATOM     28  O   UNL A   1      33.120  30.668  26.482  1.00  0.00    -0.458 OA
BRANCH  28  29
ATOM     29  C   UNL A   1      33.564  31.667  27.268  1.00  0.00     0.338 C 
ATOM     30  O   UNL A   1      32.964  32.691  27.592  1.00  0.00    -0.246 OA
BRANCH  29  31
ATOM     31  C   UNL A   1      34.888  31.330  27.798  1.00  0.00     0.060 A 
ATOM     32  C   UNL A   1      35.110  30.021  28.209  1.00  0.00     0.016 A 
ATOM     33  C   UNL A   1      35.848  32.308  28.031  1.00  0.00     0.016 A 
ATOM     34  C   UNL A   1      36.246  29.680  28.928  1.00  0.00     0.010 A 
ATOM     35  C   UNL A   1      37.037  31.952  28.681  1.00  0.00     0.010 A 
ATOM     36  C   UNL A   1      37.232  30.642  29.166  1.00  0.00    -0.014 A 
BRANCH  36  37
ATOM     37  C   UNL A   1      38.427  30.299  29.978  1.00  0.00     0.031 A 
ATOM     38  C   UNL A   1      39.502  29.435  29.383  1.00  0.00     0.074 A 
ATOM     39  C   UNL A   1      38.573  30.777  31.229  1.00  0.00     0.049 A 
ATOM     40  N   UNL A   1      40.497  28.822  29.972  1.00  0.00    -0.248 NA
ATOM     41  C   UNL A   1      39.440  29.220  27.929  1.00  0.00     0.031 C 
ATOM     42  C   UNL A   1      37.654  31.697  31.900  1.00  0.00     0.029 A 
ATOM     43  N   UNL A   1      39.561  30.559  32.156  1.00  0.00    -0.354 N 
ATOM     44  C   UNL A   1      41.131  28.092  28.977  1.00  0.00     0.074 A 
ATOM     45  C   UNL A   1      40.423  28.352  27.741  1.00  0.00     0.031 C 
ATOM     46  C   UNL A   1      38.138  31.991  33.117  1.00  0.00     0.029 A 
ATOM     47  C   UNL A   1      39.350  31.213  33.346  1.00  0.00     0.049 A 
ATOM     48  H   UNL A   1      40.345  29.988  31.987  1.00  0.00     0.167 HD
ATOM     49  C   UNL A   1      42.201  27.271  29.093  1.00  0.00     0.037 A 
ATOM     50  C   UNL A   1      40.032  31.155  34.505  1.00  0.00     0.037 A 
ATOM     51  C   UNL A   1      42.942  27.076  30.311  1.00  0.00     0.049 A 
ATOM     52  C   UNL A   1      41.212  30.232  34.615  1.00  0.00     0.074 A 
ATOM     53  C   UNL A   1      44.032  26.256  30.541  1.00  0.00     0.029 A 
ATOM     54  N   UNL A   1      42.682  27.742  31.501  1.00  0.00    -0.354 N 
ATOM     55  N   UNL A   1      41.738  29.450  33.703  1.00  0.00    -0.248 NA
ATOM     56  C   UNL A   1      41.876  30.160  35.924  1.00  0.00     0.031 C 
ATOM     57  C   UNL A   1      44.421  26.412  31.877  1.00  0.00     0.029 A 
ATOM     58  C   UNL A   1      43.591  27.351  32.469  1.00  0.00     0.049 A 
ATOM     59  H   UNL A   1      41.958  28.395  31.636  1.00  0.00     0.167 HD
ATOM     60  C   UNL A   1      42.789  28.794  34.323  1.00  0.00     0.074 A 
ATOM     61  C   UNL A   1      42.845  29.286  35.686  1.00  0.00     0.031 C 
ATOM     62  C   UNL A   1      43.626  27.858  33.816  1.00  0.00     0.037 A 
BRANCH  49  63
ATOM     63  C   UNL A   1      42.600  26.483  27.883  1.00  0.00     0.064 A 
ATOM     64  C   UNL A   1      43.550  26.953  26.967  1.00  0.00     0.173 A 
ATOM     65  C   UNL A   1      42.029  25.221  27.651  1.00  0.00     0.173 A 
ATOM     66  F   UNL A   1      44.110  28.160  27.135  1.00  0.00    -0.203 F 
ATOM     67  C   UNL A   1      43.900  26.198  25.850  1.00  0.00     0.198 A 
ATOM     68  C   UNL A   1      42.397  24.459  26.546  1.00  0.00     0.198 A 
ATOM     69  F   UNL A   1      41.115  24.726  28.500  1.00  0.00    -0.203 F 
ATOM     70  F   UNL A   1      44.780  26.683  24.963  1.00  0.00    -0.200 F 
ATOM     71  C   UNL A   1      43.328  24.950  25.643  1.00  0.00     0.200 A 
ATOM     72  F   UNL A   1      41.849  23.251  26.353  1.00  0.00    -0.200 F 
ATOM     73  F   UNL A   1      43.668  24.225  24.569  1.00  0.00    -0.200 F 
ENDBRANCH  49  63
BRANCH  50  74
ATOM     74  C   UNL A   1      39.579  31.962  35.668  1.00  0.00     0.064 A 
ATOM     75  C   UNL A   1      40.124  33.226  35.922  1.00  0.00     0.173 A 
ATOM     76  C   UNL A   1      38.582  31.492  36.535  1.00  0.00     0.173 A 
ATOM     77  F   UNL A   1      41.101  33.704  35.139  1.00  0.00    -0.203 F 
ATOM     78  C   UNL A   1      39.691  33.991  37.003  1.00  0.00     0.198 A 
ATOM     79  C   UNL A   1      38.130  32.269  37.599  1.00  0.00     0.198 A 
ATOM     80  F   UNL A   1      38.032  30.285  36.336  1.00  0.00    -0.203 F 
ATOM     81  F   UNL A   1      40.252  35.184  37.246  1.00  0.00    -0.200 F 
ATOM     82  C   UNL A   1      38.688  33.516  37.836  1.00  0.00     0.200 A 
ATOM     83  F   UNL A   1      37.154  31.809  38.395  1.00  0.00    -0.200 F 
ATOM     84  F   UNL A   1      38.264  34.256  38.869  1.00  0.00    -0.200 F 
ENDBRANCH  50  74
BRANCH  62  85
ATOM     85  C   UNL A   1      44.678  27.318  34.735  1.00  0.00     0.064 A 
ATOM     86  C   UNL A   1      45.923  27.948  34.865  1.00  0.00     0.173 A 
ATOM     87  C   UNL A   1      44.425  26.181  35.516  1.00  0.00     0.173 A 
ATOM     88  F   UNL A   1      46.213  29.029  34.125  1.00  0.00    -0.203 F 
ATOM     89  C   UNL A   1      46.887  27.448  35.735  1.00  0.00     0.198 A 
ATOM     90  C   UNL A   1      45.384  25.695  36.398  1.00  0.00     0.198 A 
ATOM     91  F   UNL A   1      43.246  25.548  35.426  1.00  0.00    -0.203 F 
ATOM     92  F   UNL A   1      48.086  28.044  35.819  1.00  0.00    -0.200 F 
ATOM     93  C   UNL A   1      46.616  26.325  36.503  1.00  0.00     0.200 A 
ATOM     94  F   UNL A   1      45.120  24.614  37.145  1.00  0.00    -0.200 F 
ATOM     95  F   UNL A   1      47.546  25.846  37.342  1.00  0.00    -0.200 F 
ENDBRANCH  62  85
ENDBRANCH  36  37
ENDBRANCH  29  31
ENDBRANCH  28  29
ENDBRANCH  27  28
ENDBRANCH   1  27
TORSDOF 14
ENDMDL
MODEL 2
REMARK VINA RESULT:     -13.1      0.127      1.115
REMARK SMILES COc1cc(C(=O)NC2(C(=O)OCCOC(=O)c3ccc(-c4c5nc(c(-c6c(F)c(F)c(F)c(F)c6F)c6ccc([nH]6)c(-c6c(F)c(F)c(F)c(F)c6F)c6nc(c(-c7c(F)c(F)c(F)c(F)c7F)c7ccc4[nH]7)C=C6)C=C5)cc3)CCCCC2)cc2c1OCCO2
REMARK SMILES IDX 13 1 12 2 10 3 11 4 9 5 81 6 85 7 82 8 84 9 83 10 8 11 6 12
REMARK SMILES IDX 7 13 5 15 3 16 4 17 88 18 87 19 89 20 86 21 92 22 90 23
REMARK SMILES IDX 91 24 2 25 1 26 14 27 15 28 16 29 17 30 18 31 19 32 80 33
REMARK SMILES IDX 20 34 79 35 21 36 22 37 23 38 73 39 24 40 78 41 72 42 74 43
REMARK SMILES IDX 25 44 77 45 71 46 70 47 26 49 58 50 38 51 57 52 39 53 42 54
REMARK SMILES IDX 56 55 75 56 40 57 41 58 55 60 76 61 43 62 27 63 28 64 36 65
REMARK SMILES IDX 29 66 30 67 34 68 37 69 31 70 32 71 35 72 33 73 59 74 60 75
REMARK SMILES IDX 68 76 61 77 62 78 66 79 69 80 63 81 64 82 67 83 65 84 44 85
REMARK SMILES IDX 45 86 53 87 46 88 47 89 51 90 54 91 48 92 49 93 52 94 50 95
REMARK H PARENT 8 14 74 48 42 59
REMARK Flexibility Score: inf
ROOT
ATOM      1  C   UNL A   1      31.418  29.601  24.998  1.00  0.00     0.274 C 
ENDROOT
BRANCH   1   2
ATOM      2  O   UNL A   1      31.389  28.232  25.448  1.00  0.00    -0.460 OA
BRANCH   2   3
ATOM      3  C   UNL A   1      30.860  27.323  24.587  1.00  0.00     0.331 C 
ATOM      4  O   UNL A   1      29.764  27.450  24.046  1.00  0.00    -0.249 OA
BRANCH   3   5
ATOM      5  C   UNL A   1      31.723  26.022  24.458  1.00  0.00     0.138 C 
ATOM      6  C   UNL A   1      33.160  26.577  24.360  1.00  0.00     0.040 C 
ATOM      7  C   UNL A   1      31.228  25.147  23.284  1.00  0.00     0.040 C 
ATOM      8  C   UNL A   1      33.615  26.882  22.933  1.00  0.00     0.003 C 
ATOM      9  C   UNL A   1      31.784  25.504  21.911  1.00  0.00     0.003 C 
ATOM     10  C   UNL A   1      33.279  25.776  21.944  1.00  0.00     0.000 C 
BRANCH   5  11
ATOM     11  N   UNL A   1      31.442  25.255  25.721  1.00  0.00    -0.336 N 
ATOM     12  C   UNL A   1      31.541  23.988  26.225  1.00  0.00     0.252 C 
ATOM     13  O   UNL A   1      30.939  23.767  27.278  1.00  0.00    -0.269 OA
ATOM     14  H   UNL A   1      31.068  25.858  26.402  1.00  0.00     0.165 HD
BRANCH  12  15
ATOM     15  C   UNL A   1      32.406  22.924  25.672  1.00  0.00     0.047 A 
ATOM     16  C   UNL A   1      34.584  21.988  25.195  1.00  0.00     0.165 A 
ATOM     17  C   UNL A   1      33.757  23.090  25.414  1.00  0.00     0.064 A 
ATOM     18  C   UNL A   1      34.033  20.710  25.074  1.00  0.00     0.203 A 
ATOM     19  C   UNL A   1      32.645  20.558  25.200  1.00  0.00     0.166 A 
ATOM     20  O   UNL A   1      34.869  19.641  24.890  1.00  0.00    -0.483 OA
ATOM     21  C   UNL A   1      31.837  21.655  25.500  1.00  0.00     0.064 A 
ATOM     22  O   UNL A   1      32.002  19.350  25.094  1.00  0.00    -0.486 OA
ATOM     23  C   UNL A   1      34.165  18.501  24.390  1.00  0.00     0.271 C 
ATOM     24  C   UNL A   1      32.908  18.250  25.204  1.00  0.00     0.271 C 
BRANCH  16  25
ATOM     25  O   UNL A   1      35.923  22.256  25.318  1.00  0.00    -0.493 OA
ATOM     26  C   UNL A   1      36.223  23.635  25.482  1.00  0.00     0.278 C 
ENDBRANCH  16  25
ENDBRANCH  12  15
ENDBRANCH   5  11
ENDBRANCH   3   5
ENDBRANCH   2   3
ENDBRANCH   1   2
BRANCH   1  27
ATOM     27  C   UNL A   1      31.725  30.569  26.138  1.00  0.00     0.275 C 
BRANCH  27  28
ATOM     28  O   UNL A   1      33.140  30.612  26.396  1.00  0.00    -0.458 OA
BRANCH  28  29
ATOM     29  C   UNL A   1      33.558  31.592  27.220  1.00  0.00     0.338 C 
ATOM     30  O   UNL A   1      32.933  32.591  27.576  1.00  0.00    -0.246 OA
BRANCH  29  31
ATOM     31  C   UNL A   1      34.886  31.266  27.746  1.00  0.00     0.060 A 
ATOM     32  C   UNL A   1      35.117  29.960  28.162  1.00  0.00     0.016 A 
ATOM     33  C   UNL A   1      35.841  32.250  27.971  1.00  0.00     0.016 A 
ATOM     34  C   UNL A   1      36.258  29.629  28.879  1.00  0.00     0.010 A 
ATOM     35  C   UNL A   1      37.035  31.904  28.617  1.00  0.00     0.010 A 
ATOM     36  C   UNL A   1      37.239  30.598  29.107  1.00  0.00    -0.014 A 
BRANCH  36  37
ATOM     37  C   UNL A   1      38.439  30.266  29.917  1.00  0.00     0.031 A 
ATOM     38  C   UNL A   1      39.520  29.409  29.320  1.00  0.00     0.074 A 
ATOM     39  C   UNL A   1      38.585  30.747  31.166  1.00  0.00     0.049 A 
ATOM     40  N   UNL A   1      40.521  28.805  29.907  1.00  0.00    -0.248 NA
ATOM     41  C   UNL A   1      39.454  29.191  27.866  1.00  0.00     0.031 C 
ATOM     42  C   UNL A   1      37.662  31.661  31.839  1.00  0.00     0.029 A 
ATOM     43  N   UNL A   1      39.578  30.538  32.091  1.00  0.00    -0.354 N 
ATOM     44  C   UNL A   1      41.157  28.079  28.911  1.00  0.00     0.074 A 
ATOM     45  C   UNL A   1      40.444  28.330  27.676  1.00  0.00     0.031 C 
ATOM     46  C   UNL A   1      38.147  31.961  33.053  1.00  0.00     0.029 A 
ATOM     47  C   UNL A   1      39.366  31.193  33.280  1.00  0.00     0.049 A 
ATOM     48  H   UNL A   1      40.366  29.973  31.920  1.00  0.00     0.167 HD
ATOM     49  C   UNL A   1      42.234  27.265  29.025  1.00  0.00     0.037 A 
ATOM     50  C   UNL A   1      40.052  31.142  34.437  1.00  0.00     0.037 A 
ATOM     51  C   UNL A   1      42.980  27.079  30.241  1.00  0.00     0.049 A 
ATOM     52  C   UNL A   1      41.240  30.230  34.545  1.00  0.00     0.074 A 
ATOM     53  C   UNL A   1      44.078  26.268  30.469  1.00  0.00     0.029 A 
ATOM     54  N   UNL A   1      42.719  27.745  31.430  1.00  0.00    -0.354 N 
ATOM     55  N   UNL A   1      41.768  29.450  33.633  1.00  0.00    -0.248 NA
ATOM     56  C   UNL A   1      41.908  30.165  35.852  1.00  0.00     0.031 C 
ATOM     57  C   UNL A   1      44.470  26.430  31.804  1.00  0.00     0.029 A 
ATOM     58  C   UNL A   1      43.635  27.363  32.397  1.00  0.00     0.049 A 
ATOM     59  H   UNL A   1      41.990  28.393  31.567  1.00  0.00     0.167 HD
ATOM     60  C   UNL A   1      42.827  28.803  34.250  1.00  0.00     0.074 A 
ATOM     61  C   UNL A   1      42.883  29.298  35.612  1.00  0.00     0.031 C 
ATOM     62  C   UNL A   1      43.670  27.872  33.742  1.00  0.00     0.037 A 
BRANCH  49  63
ATOM     63  C   UNL A   1      42.636  26.479  27.815  1.00  0.00     0.064 A 
ATOM     64  C   UNL A   1      43.587  26.949  26.902  1.00  0.00     0.173 A 
ATOM     65  C   UNL A   1      42.065  25.217  27.581  1.00  0.00     0.173 A 
ATOM     66  F   UNL A   1      44.147  28.156  27.072  1.00  0.00    -0.203 F 
ATOM     67  C   UNL A   1      43.940  26.195  25.785  1.00  0.00     0.198 A 
ATOM     68  C   UNL A   1      42.436  24.456  26.476  1.00  0.00     0.198 A 
ATOM     69  F   UNL A   1      41.149  24.722  28.427  1.00  0.00    -0.203 F 
ATOM     70  F   UNL A   1      44.822  26.681  24.900  1.00  0.00    -0.200 F 
ATOM     71  C   UNL A   1      43.368  24.948  25.575  1.00  0.00     0.200 A 
ATOM     72  F   UNL A   1      41.888  23.249  26.280  1.00  0.00    -0.200 F 
ATOM     73  F   UNL A   1      43.711  24.224  24.502  1.00  0.00    -0.200 F 
ENDBRANCH  49  63
BRANCH  50  74
ATOM     74  C   UNL A   1      39.596  31.948  35.599  1.00  0.00     0.064 A 
ATOM     75  C   UNL A   1      40.151  33.206  35.865  1.00  0.00     0.173 A 
ATOM     76  C   UNL A   1      38.587  31.484  36.456  1.00  0.00     0.173 A 
ATOM     77  F   UNL A   1      41.140  33.678  35.093  1.00  0.00    -0.203 F 
ATOM     78  C   UNL A   1      39.715  33.969  36.946  1.00  0.00     0.198 A 
ATOM     79  C   UNL A   1      38.133  32.259  37.520  1.00  0.00     0.198 A 
ATOM     80  F   UNL A   1      38.027  30.282  36.246  1.00  0.00    -0.203 F 
ATOM     81  F   UNL A   1      40.285  35.155  37.200  1.00  0.00    -0.200 F 
ATOM     82  C   UNL A   1      38.700  33.499  37.767  1.00  0.00     0.200 A 
ATOM     83  F   UNL A   1      37.146  31.805  38.304  1.00  0.00    -0.200 F 
ATOM     84  F   UNL A   1      38.274  34.238  38.800  1.00  0.00    -0.200 F 
ENDBRANCH  50  74
BRANCH  62  85
ATOM     85  C   UNL A   1      44.729  27.343  34.659  1.00  0.00     0.064 A 
ATOM     86  C   UNL A   1      44.514  26.194  35.431  1.00  0.00     0.173 A 
ATOM     87  C   UNL A   1      45.978  27.974  34.741  1.00  0.00     0.173 A 
ATOM     88  F   UNL A   1      43.327  25.569  35.396  1.00  0.00    -0.203 F 
ATOM     89  C   UNL A   1      45.511  25.702  36.269  1.00  0.00     0.198 A 
ATOM     90  C   UNL A   1      46.979  27.468  35.564  1.00  0.00     0.198 A 
ATOM     91  F   UNL A   1      46.229  29.075  34.018  1.00  0.00    -0.203 F 
ATOM     92  F   UNL A   1      45.275  24.621  37.026  1.00  0.00    -0.200 F 
ATOM     93  C   UNL A   1      46.744  26.336  36.331  1.00  0.00     0.200 A 
ATOM     94  F   UNL A   1      48.171  28.077  35.621  1.00  0.00    -0.200 F 
ATOM     95  F   UNL A   1      47.703  25.860  37.137  1.00  0.00    -0.200 F 
ENDBRANCH  62  85
ENDBRANCH  36  37
ENDBRANCH  29  31
ENDBRANCH  28  29
ENDBRANCH  27  28
ENDBRANCH   1  27
TORSDOF 14
ENDMDL
MODEL 3
REMARK VINA RESULT:     -13.0      1.114      1.913
REMARK SMILES COc1cc(C(=O)NC2(C(=O)OCCOC(=O)c3ccc(-c4c5nc(c(-c6c(F)c(F)c(F)c(F)c6F)c6ccc([nH]6)c(-c6c(F)c(F)c(F)c(F)c6F)c6nc(c(-c7c(F)c(F)c(F)c(F)c7F)c7ccc4[nH]7)C=C6)C=C5)cc3)CCCCC2)cc2c1OCCO2
REMARK SMILES IDX 13 1 12 2 10 3 11 4 9 5 81 6 85 7 82 8 84 9 83 10 8 11 6 12
REMARK SMILES IDX 7 13 5 15 3 16 4 17 88 18 87 19 89 20 86 21 92 22 90 23
REMARK SMILES IDX 91 24 2 25 1 26 14 27 15 28 16 29 17 30 18 31 19 32 80 33
REMARK SMILES IDX 20 34 79 35 21 36 22 37 23 38 73 39 24 40 78 41 72 42 74 43
REMARK SMILES IDX 25 44 77 45 71 46 70 47 26 49 58 50 38 51 57 52 39 53 42 54
REMARK SMILES IDX 56 55 75 56 40 57 41 58 55 60 76 61 43 62 27 63 28 64 36 65
REMARK SMILES IDX 29 66 30 67 34 68 37 69 31 70 32 71 35 72 33 73 59 74 60 75
REMARK SMILES IDX 68 76 61 77 62 78 66 79 69 80 63 81 64 82 67 83 65 84 44 85
REMARK SMILES IDX 45 86 53 87 46 88 47 89 51 90 54 91 48 92 49 93 52 94 50 95
REMARK H PARENT 8 14 74 48 42 59
REMARK Flexibility Score: inf
ROOT
ATOM      1  C   UNL A   1      31.113  29.714  24.402  1.00  0.00     0.274 C 
ENDROOT
BRANCH   1   2
ATOM      2  O   UNL A   1      31.904  28.697  23.757  1.00  0.00    -0.460 OA
BRANCH   2   3
ATOM      3  C   UNL A   1      31.227  27.630  23.257  1.00  0.00     0.331 C 
ATOM      4  O   UNL A   1      30.140  27.713  22.690  1.00  0.00    -0.249 OA
BRANCH   3   5
ATOM      5  C   UNL A   1      31.901  26.258  23.599  1.00  0.00     0.138 C 
ATOM      6  C   UNL A   1      30.766  25.492  24.313  1.00  0.00     0.040 C 
ATOM      7  C   UNL A   1      33.210  26.470  24.393  1.00  0.00     0.040 C 
ATOM      8  C   UNL A   1      30.718  25.715  25.825  1.00  0.00     0.003 C 
ATOM      9  C   UNL A   1      33.053  26.629  25.901  1.00  0.00     0.003 C 
ATOM     10  C   UNL A   1      32.082  25.621  26.491  1.00  0.00     0.000 C 
BRANCH   5  11
ATOM     11  N   UNL A   1      32.289  25.683  22.265  1.00  0.00    -0.336 N 
ATOM     12  C   UNL A   1      33.079  24.704  21.733  1.00  0.00     0.252 C 
ATOM     13  O   UNL A   1      33.278  24.758  20.517  1.00  0.00    -0.269 OA
ATOM     14  H   UNL A   1      31.826  26.168  21.545  1.00  0.00     0.165 HD
BRANCH  12  15
ATOM     15  C   UNL A   1      33.596  23.536  22.479  1.00  0.00     0.047 A 
ATOM     16  C   UNL A   1      35.134  22.527  24.049  1.00  0.00     0.165 A 
ATOM     17  C   UNL A   1      34.830  23.513  23.109  1.00  0.00     0.064 A 
ATOM     18  C   UNL A   1      34.262  21.456  24.249  1.00  0.00     0.203 A 
ATOM     19  C   UNL A   1      33.071  21.406  23.510  1.00  0.00     0.166 A 
ATOM     20  O   UNL A   1      34.569  20.517  25.198  1.00  0.00    -0.483 OA
ATOM     21  C   UNL A   1      32.738  22.439  22.634  1.00  0.00     0.064 A 
ATOM     22  O   UNL A   1      32.147  20.397  23.627  1.00  0.00    -0.486 OA
ATOM     23  C   UNL A   1      33.822  19.312  25.009  1.00  0.00     0.271 C 
ATOM     24  C   UNL A   1      32.350  19.621  24.810  1.00  0.00     0.271 C 
BRANCH  16  25
ATOM     25  O   UNL A   1      36.209  22.824  24.846  1.00  0.00    -0.493 OA
ATOM     26  C   UNL A   1      36.101  24.067  25.524  1.00  0.00     0.278 C 
ENDBRANCH  16  25
ENDBRANCH  12  15
ENDBRANCH   5  11
ENDBRANCH   3   5
ENDBRANCH   2   3
ENDBRANCH   1   2
BRANCH   1  27
ATOM     27  C   UNL A   1      31.479  29.871  25.877  1.00  0.00     0.275 C 
BRANCH  27  28
ATOM     28  O   UNL A   1      32.882  30.150  26.021  1.00  0.00    -0.458 OA
BRANCH  28  29
ATOM     29  C   UNL A   1      33.200  31.136  26.882  1.00  0.00     0.338 C 
ATOM     30  O   UNL A   1      32.488  32.070  27.251  1.00  0.00    -0.246 OA
BRANCH  29  31
ATOM     31  C   UNL A   1      34.537  30.901  27.433  1.00  0.00     0.060 A 
ATOM     32  C   UNL A   1      34.883  29.597  27.770  1.00  0.00     0.016 A 
ATOM     33  C   UNL A   1      35.386  31.954  27.757  1.00  0.00     0.016 A 
ATOM     34  C   UNL A   1      36.029  29.328  28.502  1.00  0.00     0.010 A 
ATOM     35  C   UNL A   1      36.588  31.679  28.421  1.00  0.00     0.010 A 
ATOM     36  C   UNL A   1      36.904  30.367  28.830  1.00  0.00    -0.014 A 
BRANCH  36  37
ATOM     37  C   UNL A   1      38.107  30.095  29.658  1.00  0.00     0.031 A 
ATOM     38  C   UNL A   1      39.221  29.262  29.092  1.00  0.00     0.074 A 
ATOM     39  C   UNL A   1      38.224  30.611  30.897  1.00  0.00     0.049 A 
ATOM     40  N   UNL A   1      40.236  28.706  29.702  1.00  0.00    -0.248 NA
ATOM     41  C   UNL A   1      39.178  29.008  27.644  1.00  0.00     0.031 C 
ATOM     42  C   UNL A   1      37.264  31.509  31.539  1.00  0.00     0.029 A 
ATOM     43  N   UNL A   1      39.215  30.458  31.835  1.00  0.00    -0.354 N 
ATOM     44  C   UNL A   1      40.907  27.979  28.730  1.00  0.00     0.074 A 
ATOM     45  C   UNL A   1      40.198  28.177  27.483  1.00  0.00     0.031 C 
ATOM     46  C   UNL A   1      37.727  31.854  32.750  1.00  0.00     0.029 A 
ATOM     47  C   UNL A   1      38.969  31.133  33.006  1.00  0.00     0.049 A 
ATOM     48  H   UNL A   1      40.023  29.916  31.685  1.00  0.00     0.167 HD
ATOM     49  C   UNL A   1      42.009  27.206  28.873  1.00  0.00     0.037 A 
ATOM     50  C   UNL A   1      39.645  31.134  34.170  1.00  0.00     0.037 A 
ATOM     51  C   UNL A   1      42.749  27.074  30.100  1.00  0.00     0.049 A 
ATOM     52  C   UNL A   1      40.861  30.264  34.311  1.00  0.00     0.074 A 
ATOM     53  C   UNL A   1      43.871  26.306  30.358  1.00  0.00     0.029 A 
ATOM     54  N   UNL A   1      42.454  27.759  31.271  1.00  0.00    -0.354 N 
ATOM     55  N   UNL A   1      41.425  29.482  33.423  1.00  0.00    -0.248 NA
ATOM     56  C   UNL A   1      41.519  30.253  35.625  1.00  0.00     0.031 C 
ATOM     57  C   UNL A   1      44.244  26.513  31.691  1.00  0.00     0.029 A 
ATOM     58  C   UNL A   1      43.373  27.431  32.254  1.00  0.00     0.049 A 
ATOM     59  H   UNL A   1      41.702  28.384  31.385  1.00  0.00     0.167 HD
ATOM     60  C   UNL A   1      42.499  28.886  34.065  1.00  0.00     0.074 A 
ATOM     61  C   UNL A   1      42.525  29.415  35.415  1.00  0.00     0.031 C 
ATOM     62  C   UNL A   1      43.377  27.973  33.587  1.00  0.00     0.037 A 
BRANCH  49  63
ATOM     63  C   UNL A   1      42.449  26.405  27.686  1.00  0.00     0.064 A 
ATOM     64  C   UNL A   1      43.440  26.858  26.807  1.00  0.00     0.173 A 
ATOM     65  C   UNL A   1      41.875  25.147  27.441  1.00  0.00     0.173 A 
ATOM     66  F   UNL A   1      44.006  28.060  26.989  1.00  0.00    -0.203 F 
ATOM     67  C   UNL A   1      43.828  26.091  25.710  1.00  0.00     0.198 A 
ATOM     68  C   UNL A   1      42.279  24.373  26.356  1.00  0.00     0.198 A 
ATOM     69  F   UNL A   1      40.921  24.668  28.254  1.00  0.00    -0.203 F 
ATOM     70  F   UNL A   1      44.749  26.560  24.857  1.00  0.00    -0.200 F 
ATOM     71  C   UNL A   1      43.251  24.848  25.489  1.00  0.00     0.200 A 
ATOM     72  F   UNL A   1      41.727  23.170  26.150  1.00  0.00    -0.200 F 
ATOM     73  F   UNL A   1      43.628  24.110  24.435  1.00  0.00    -0.200 F 
ENDBRANCH  49  63
BRANCH  50  74
ATOM     74  C   UNL A   1      39.150  31.951  35.309  1.00  0.00     0.064 A 
ATOM     75  C   UNL A   1      38.380  31.375  36.327  1.00  0.00     0.173 A 
ATOM     76  C   UNL A   1      39.452  33.317  35.409  1.00  0.00     0.173 A 
ATOM     77  F   UNL A   1      38.040  30.080  36.259  1.00  0.00    -0.203 F 
ATOM     78  C   UNL A   1      37.927  32.136  37.402  1.00  0.00     0.198 A 
ATOM     79  C   UNL A   1      39.022  34.070  36.499  1.00  0.00     0.198 A 
ATOM     80  F   UNL A   1      40.182  33.916  34.456  1.00  0.00    -0.203 F 
ATOM     81  F   UNL A   1      37.163  31.570  38.347  1.00  0.00    -0.200 F 
ATOM     82  C   UNL A   1      38.256  33.481  37.492  1.00  0.00     0.200 A 
ATOM     83  F   UNL A   1      39.350  35.367  36.586  1.00  0.00    -0.200 F 
ATOM     84  F   UNL A   1      37.829  34.209  38.532  1.00  0.00    -0.200 F 
ENDBRANCH  50  74
BRANCH  62  85
ATOM     85  C   UNL A   1      44.444  27.502  34.526  1.00  0.00     0.064 A 
ATOM     86  C   UNL A   1      45.659  28.190  34.651  1.00  0.00     0.173 A 
ATOM     87  C   UNL A   1      44.236  26.372  35.330  1.00  0.00     0.173 A 
ATOM     88  F   UNL A   1      45.906  29.266  33.889  1.00  0.00    -0.203 F 
ATOM     89  C   UNL A   1      46.637  27.752  35.539  1.00  0.00     0.198 A 
ATOM     90  C   UNL A   1      45.209  25.949  36.230  1.00  0.00     0.198 A 
ATOM     91  F   UNL A   1      43.087  25.685  35.246  1.00  0.00    -0.203 F 
ATOM     92  F   UNL A   1      47.807  28.403  35.619  1.00  0.00    -0.200 F 
ATOM     93  C   UNL A   1      46.410  26.636  36.331  1.00  0.00     0.200 A 
ATOM     94  F   UNL A   1      44.987  24.874  36.999  1.00  0.00    -0.200 F 
ATOM     95  F   UNL A   1      47.353  26.217  37.186  1.00  0.00    -0.200 F 
ENDBRANCH  62  85
ENDBRANCH  36  37
ENDBRANCH  29  31
ENDBRANCH  28  29
ENDBRANCH  27  28
ENDBRANCH   1  27
TORSDOF 14
ENDMDL
