MODEL 1
REMARK VINA RESULT:     -12.0      0.000      0.000
REMARK SMILES CC(C)(C)OC(=O)N1CC[N@H+](Cc2ccc(Cl)nc2)[C@H](C(=O)OCCOC(=O)c2ccc(-c3c4nc(c(-c5c(F)c(F)c(F)c(F)c5F)c5ccc([nH]5)c(-c5c(F)c(F)c(F)c(F)c5F)c5nc(c(-c6c(F)c(F)c(F)c(F)c6F)c6ccc3[nH]6)C=C5)C=C4)cc2)C1
REMARK SMILES IDX 24 1 23 2 21 3 22 4 20 5 8 6 9 7 92 8 10 9 11 10 6 12 7 13
REMARK SMILES IDX 5 14 2 15 1 16 3 17 4 18 12 19 13 20 14 21 19 22 15 23 18 24
REMARK SMILES IDX 16 25 17 26 25 27 26 28 27 29 28 30 29 31 30 32 91 33 31 34
REMARK SMILES IDX 90 35 32 36 33 37 34 38 84 39 35 40 89 41 83 42 85 43 36 44
REMARK SMILES IDX 88 45 82 46 81 47 37 49 69 50 49 51 68 52 50 53 53 54 67 55
REMARK SMILES IDX 86 56 51 57 52 58 66 60 87 61 54 62 38 63 39 64 47 65 40 66
REMARK SMILES IDX 41 67 45 68 48 69 42 70 43 71 46 72 44 73 70 74 71 75 79 76
REMARK SMILES IDX 72 77 73 78 77 79 80 80 74 81 75 82 78 83 76 84 55 85 56 86
REMARK SMILES IDX 64 87 57 88 58 89 62 90 65 91 59 92 60 93 63 94 61 95
REMARK H PARENT 11 11 85 48 53 59
REMARK Flexibility Score: inf
ROOT
ATOM      1  C   UNL A   1      33.504  28.815  25.115  1.00  0.00     0.274 C 
ENDROOT
BRANCH   1   2
ATOM      2  O   UNL A   1      33.401  28.486  23.714  1.00  0.00    -0.458 OA
BRANCH   2   3
ATOM      3  C   UNL A   1      33.125  27.198  23.404  1.00  0.00     0.366 C 
ATOM      4  O   UNL A   1      33.546  26.643  22.390  1.00  0.00    -0.245 OA
BRANCH   3   5
ATOM      5  C   UNL A   1      32.289  26.439  24.437  1.00  0.00     0.315 C 
ATOM      6  N   UNL A   1      32.071  24.256  25.604  1.00  0.00    -0.296 N 
ATOM      7  C   UNL A   1      30.668  24.528  25.882  1.00  0.00     0.184 C 
ATOM      8  C   UNL A   1      32.672  24.952  24.460  1.00  0.00     0.200 C 
ATOM      9  C   UNL A   1      30.292  26.020  25.743  1.00  0.00     0.285 C 
ATOM     10  N   UNL A   1      30.834  26.735  24.568  1.00  0.00    -0.316 N 
ATOM     11  H   UNL A   1      30.821  27.746  24.704  1.00  0.00     0.349 HD
BRANCH   6  12
ATOM     12  C   UNL A   1      32.670  23.172  26.215  1.00  0.00     0.410 C 
ATOM     13  O   UNL A   1      33.543  23.288  27.063  1.00  0.00    -0.224 OA
BRANCH  12  14
ATOM     14  O   UNL A   1      32.217  21.998  25.714  1.00  0.00    -0.444 OA
BRANCH  14  15
ATOM     15  C   UNL A   1      32.996  21.174  24.806  1.00  0.00     0.106 C 
ATOM     16  C   UNL A   1      32.292  21.312  23.449  1.00  0.00     0.056 C 
ATOM     17  C   UNL A   1      32.903  19.725  25.289  1.00  0.00     0.056 C 
ATOM     18  C   UNL A   1      34.458  21.605  24.626  1.00  0.00     0.056 C 
ENDBRANCH  14  15
ENDBRANCH  12  14
ENDBRANCH   6  12
BRANCH  10  19
ATOM     19  C   UNL A   1      29.954  26.728  23.398  1.00  0.00     0.301 C 
BRANCH  19  20
ATOM     20  C   UNL A   1      29.445  28.054  22.912  1.00  0.00     0.025 A 
ATOM     21  C   UNL A   1      28.124  28.458  23.126  1.00  0.00     0.014 A 
ATOM     22  C   UNL A   1      30.269  28.921  22.200  1.00  0.00     0.122 A 
ATOM     23  C   UNL A   1      27.655  29.630  22.540  1.00  0.00     0.041 A 
ATOM     24  N   UNL A   1      29.848  30.070  21.629  1.00  0.00    -0.244 NA
ATOM     25  C   UNL A   1      28.547  30.380  21.796  1.00  0.00     0.129 A 
ATOM     26  Cl  UNL A   1      28.039  31.799  20.984  1.00  0.00    -0.062 Cl
ENDBRANCH  19  20
ENDBRANCH  10  19
ENDBRANCH   3   5
ENDBRANCH   2   3
ENDBRANCH   1   2
BRANCH   1  27
ATOM     27  C   UNL A   1      32.635  30.027  25.457  1.00  0.00     0.275 C 
BRANCH  27  28
ATOM     28  O   UNL A   1      32.632  30.295  26.872  1.00  0.00    -0.458 OA
BRANCH  28  29
ATOM     29  C   UNL A   1      33.261  31.437  27.239  1.00  0.00     0.338 C 
ATOM     30  O   UNL A   1      32.824  32.574  27.183  1.00  0.00    -0.246 OA
BRANCH  29  31
ATOM     31  C   UNL A   1      34.556  31.113  27.857  1.00  0.00     0.060 A 
ATOM     32  C   UNL A   1      34.733  29.823  28.361  1.00  0.00     0.016 A 
ATOM     33  C   UNL A   1      35.553  32.077  28.019  1.00  0.00     0.016 A 
ATOM     34  C   UNL A   1      35.906  29.478  29.021  1.00  0.00     0.010 A 
ATOM     35  C   UNL A   1      36.728  31.736  28.695  1.00  0.00     0.010 A 
ATOM     36  C   UNL A   1      36.907  30.437  29.205  1.00  0.00    -0.014 A 
BRANCH  36  37
ATOM     37  C   UNL A   1      38.103  30.084  30.002  1.00  0.00     0.031 A 
ATOM     38  C   UNL A   1      39.136  29.167  29.418  1.00  0.00     0.074 A 
ATOM     39  C   UNL A   1      38.282  30.627  31.219  1.00  0.00     0.049 A 
ATOM     40  N   UNL A   1      40.215  28.675  29.970  1.00  0.00    -0.248 NA
ATOM     41  C   UNL A   1      38.929  28.752  28.022  1.00  0.00     0.031 C 
ATOM     42  C   UNL A   1      37.378  31.585  31.855  1.00  0.00     0.029 A 
ATOM     43  N   UNL A   1      39.286  30.451  32.135  1.00  0.00    -0.354 N 
ATOM     44  C   UNL A   1      40.806  27.879  28.998  1.00  0.00     0.074 A 
ATOM     45  C   UNL A   1      39.960  27.942  27.825  1.00  0.00     0.031 C 
ATOM     46  C   UNL A   1      37.870  31.913  33.060  1.00  0.00     0.029 A 
ATOM     47  C   UNL A   1      39.094  31.154  33.298  1.00  0.00     0.049 A 
ATOM     48  H   UNL A   1      40.069  29.876  31.974  1.00  0.00     0.167 HD
ATOM     49  C   UNL A   1      41.951  27.162  29.083  1.00  0.00     0.037 A 
ATOM     50  C   UNL A   1      39.812  31.157  34.436  1.00  0.00     0.037 A 
ATOM     51  C   UNL A   1      42.793  27.115  30.249  1.00  0.00     0.049 A 
ATOM     52  C   UNL A   1      41.043  30.296  34.529  1.00  0.00     0.074 A 
ATOM     53  C   UNL A   1      43.969  26.412  30.440  1.00  0.00     0.029 A 
ATOM     54  N   UNL A   1      42.544  27.806  31.427  1.00  0.00    -0.354 N 
ATOM     55  N   UNL A   1      41.581  29.522  33.617  1.00  0.00    -0.248 NA
ATOM     56  C   UNL A   1      41.761  30.303  35.810  1.00  0.00     0.031 C 
ATOM     57  C   UNL A   1      44.414  26.650  31.746  1.00  0.00     0.029 A 
ATOM     58  C   UNL A   1      43.537  27.534  32.354  1.00  0.00     0.049 A 
ATOM     59  H   UNL A   1      41.777  28.404  31.580  1.00  0.00     0.167 HD
ATOM     60  C   UNL A   1      42.707  28.965  34.205  1.00  0.00     0.074 A 
ATOM     61  C   UNL A   1      42.785  29.503  35.549  1.00  0.00     0.031 C 
ATOM     62  C   UNL A   1      43.597  28.086  33.683  1.00  0.00     0.037 A 
BRANCH  49  63
ATOM     63  C   UNL A   1      42.343  26.344  27.888  1.00  0.00     0.064 A 
ATOM     64  C   UNL A   1      43.284  26.802  26.957  1.00  0.00     0.173 A 
ATOM     65  C   UNL A   1      41.784  25.072  27.690  1.00  0.00     0.173 A 
ATOM     66  F   UNL A   1      43.833  28.019  27.094  1.00  0.00    -0.203 F 
ATOM     67  C   UNL A   1      43.637  26.025  25.856  1.00  0.00     0.198 A 
ATOM     68  C   UNL A   1      42.158  24.288  26.603  1.00  0.00     0.198 A 
ATOM     69  F   UNL A   1      40.880  24.587  28.554  1.00  0.00    -0.203 F 
ATOM     70  F   UNL A   1      44.508  26.499  24.955  1.00  0.00    -0.200 F 
ATOM     71  C   UNL A   1      43.079  24.767  25.683  1.00  0.00     0.200 A 
ATOM     72  F   UNL A   1      41.623  23.070  26.441  1.00  0.00    -0.200 F 
ATOM     73  F   UNL A   1      43.422  24.019  24.626  1.00  0.00    -0.200 F 
ENDBRANCH  49  63
BRANCH  50  74
ATOM     74  C   UNL A   1      39.369  31.982  35.589  1.00  0.00     0.064 A 
ATOM     75  C   UNL A   1      39.817  33.300  35.748  1.00  0.00     0.173 A 
ATOM     76  C   UNL A   1      38.496  31.467  36.558  1.00  0.00     0.173 A 
ATOM     77  F   UNL A   1      40.675  33.827  34.863  1.00  0.00    -0.203 F 
ATOM     78  C   UNL A   1      39.417  34.068  36.840  1.00  0.00     0.198 A 
ATOM     79  C   UNL A   1      38.075  32.244  37.634  1.00  0.00     0.198 A 
ATOM     80  F   UNL A   1      38.042  30.209  36.452  1.00  0.00    -0.203 F 
ATOM     81  F   UNL A   1      39.892  35.311  36.993  1.00  0.00    -0.200 F 
ATOM     82  C   UNL A   1      38.541  33.541  37.780  1.00  0.00     0.200 A 
ATOM     83  F   UNL A   1      37.221  31.734  38.532  1.00  0.00    -0.200 F 
ATOM     84  F   UNL A   1      38.154  34.281  38.827  1.00  0.00    -0.200 F 
ENDBRANCH  50  74
BRANCH  62  85
ATOM     85  C   UNL A   1      44.746  27.676  34.556  1.00  0.00     0.064 A 
ATOM     86  C   UNL A   1      44.672  26.543  35.378  1.00  0.00     0.173 A 
ATOM     87  C   UNL A   1      45.944  28.406  34.541  1.00  0.00     0.173 A 
ATOM     88  F   UNL A   1      43.542  25.823  35.437  1.00  0.00    -0.203 F 
ATOM     89  C   UNL A   1      45.753  26.167  36.172  1.00  0.00     0.198 A 
ATOM     90  C   UNL A   1      47.030  28.012  35.318  1.00  0.00     0.198 A 
ATOM     91  F   UNL A   1      46.063  29.495  33.768  1.00  0.00    -0.203 F 
ATOM     92  F   UNL A   1      45.648  25.104  36.982  1.00  0.00    -0.200 F 
ATOM     93  C   UNL A   1      46.931  26.897  36.136  1.00  0.00     0.200 A 
ATOM     94  F   UNL A   1      48.171  28.713  35.275  1.00  0.00    -0.200 F 
ATOM     95  F   UNL A   1      47.972  26.530  36.897  1.00  0.00    -0.200 F 
ENDBRANCH  62  85
ENDBRANCH  36  37
ENDBRANCH  29  31
ENDBRANCH  28  29
ENDBRANCH  27  28
ENDBRANCH   1  27
TORSDOF 16
ENDMDL
MODEL 2
REMARK VINA RESULT:     -11.9      4.497      9.795
REMARK SMILES CC(C)(C)OC(=O)N1CC[N@H+](Cc2ccc(Cl)nc2)[C@H](C(=O)OCCOC(=O)c2ccc(-c3c4nc(c(-c5c(F)c(F)c(F)c(F)c5F)c5ccc([nH]5)c(-c5c(F)c(F)c(F)c(F)c5F)c5nc(c(-c6c(F)c(F)c(F)c(F)c6F)c6ccc3[nH]6)C=C5)C=C4)cc2)C1
REMARK SMILES IDX 24 1 23 2 21 3 22 4 20 5 8 6 9 7 92 8 10 9 11 10 6 12 7 13
REMARK SMILES IDX 5 14 2 15 1 16 3 17 4 18 12 19 13 20 14 21 19 22 15 23 18 24
REMARK SMILES IDX 16 25 17 26 25 27 26 28 27 29 28 30 29 31 30 32 91 33 31 34
REMARK SMILES IDX 90 35 32 36 33 37 34 38 84 39 35 40 89 41 83 42 85 43 36 44
REMARK SMILES IDX 88 45 82 46 81 47 37 49 69 50 49 51 68 52 50 53 53 54 67 55
REMARK SMILES IDX 86 56 51 57 52 58 66 60 87 61 54 62 38 63 39 64 47 65 40 66
REMARK SMILES IDX 41 67 45 68 48 69 42 70 43 71 46 72 44 73 70 74 71 75 79 76
REMARK SMILES IDX 72 77 73 78 77 79 80 80 74 81 75 82 78 83 76 84 55 85 56 86
REMARK SMILES IDX 64 87 57 88 58 89 62 90 65 91 59 92 60 93 63 94 61 95
REMARK H PARENT 11 11 85 48 53 59
REMARK Flexibility Score: inf
ROOT
ATOM      1  C   UNL A   1      36.648  22.573  23.578  1.00  0.00     0.274 C 
ENDROOT
BRANCH   1   2
ATOM      2  O   UNL A   1      35.262  22.940  23.427  1.00  0.00    -0.458 OA
BRANCH   2   3
ATOM      3  C   UNL A   1      34.799  23.932  24.223  1.00  0.00     0.366 C 
ATOM      4  O   UNL A   1      35.495  24.508  25.058  1.00  0.00    -0.245 OA
BRANCH   3   5
ATOM      5  C   UNL A   1      33.345  24.343  23.980  1.00  0.00     0.315 C 
ATOM      6  N   UNL A   1      31.669  26.112  24.468  1.00  0.00    -0.296 N 
ATOM      7  C   UNL A   1      30.585  25.174  24.216  1.00  0.00     0.184 C 
ATOM      8  C   UNL A   1      32.965  25.544  24.858  1.00  0.00     0.200 C 
ATOM      9  C   UNL A   1      31.025  23.924  23.423  1.00  0.00     0.285 C 
ATOM     10  N   UNL A   1      32.298  23.293  23.830  1.00  0.00    -0.316 N 
ATOM     11  H   UNL A   1      32.677  22.700  23.092  1.00  0.00     0.349 HD
BRANCH   6  12
ATOM     12  C   UNL A   1      31.367  27.452  24.620  1.00  0.00     0.410 C 
ATOM     13  O   UNL A   1      30.298  27.933  24.272  1.00  0.00    -0.224 OA
BRANCH  12  14
ATOM     14  O   UNL A   1      32.409  28.147  25.132  1.00  0.00    -0.444 OA
BRANCH  14  15
ATOM     15  C   UNL A   1      32.363  28.794  26.433  1.00  0.00     0.106 C 
ATOM     16  C   UNL A   1      31.865  30.218  26.145  1.00  0.00     0.056 C 
ATOM     17  C   UNL A   1      33.789  28.850  26.982  1.00  0.00     0.056 C 
ATOM     18  C   UNL A   1      31.404  28.154  27.446  1.00  0.00     0.056 C 
ENDBRANCH  14  15
ENDBRANCH  12  14
ENDBRANCH   6  12
BRANCH  10  19
ATOM     19  C   UNL A   1      32.152  22.226  24.823  1.00  0.00     0.301 C 
BRANCH  19  20
ATOM     20  C   UNL A   1      32.567  20.843  24.412  1.00  0.00     0.025 A 
ATOM     21  C   UNL A   1      32.177  20.292  23.188  1.00  0.00     0.014 A 
ATOM     22  C   UNL A   1      33.334  20.044  25.254  1.00  0.00     0.122 A 
ATOM     23  C   UNL A   1      32.465  18.960  22.906  1.00  0.00     0.041 A 
ATOM     24  N   UNL A   1      33.640  18.753  25.006  1.00  0.00    -0.244 NA
ATOM     25  C   UNL A   1      33.177  18.241  23.848  1.00  0.00     0.129 A 
ATOM     26  Cl  UNL A   1      33.515  16.579  23.614  1.00  0.00    -0.062 Cl
ENDBRANCH  19  20
ENDBRANCH  10  19
ENDBRANCH   3   5
ENDBRANCH   2   3
ENDBRANCH   1   2
BRANCH   1  27
ATOM     27  C   UNL A   1      36.799  21.397  24.545  1.00  0.00     0.275 C 
BRANCH  27  28
ATOM     28  O   UNL A   1      37.311  21.823  25.823  1.00  0.00    -0.458 OA
BRANCH  28  29
ATOM     29  C   UNL A   1      38.617  21.541  26.039  1.00  0.00     0.338 C 
ATOM     30  O   UNL A   1      39.206  20.508  25.770  1.00  0.00    -0.246 OA
BRANCH  29  31
ATOM     31  C   UNL A   1      39.304  22.735  26.555  1.00  0.00     0.060 A 
ATOM     32  C   UNL A   1      38.880  23.982  26.090  1.00  0.00     0.016 A 
ATOM     33  C   UNL A   1      40.400  22.638  27.413  1.00  0.00     0.016 A 
ATOM     34  C   UNL A   1      39.535  25.142  26.484  1.00  0.00     0.010 A 
ATOM     35  C   UNL A   1      41.071  23.803  27.799  1.00  0.00     0.010 A 
ATOM     36  C   UNL A   1      40.646  25.059  27.331  1.00  0.00    -0.014 A 
BRANCH  36  37
ATOM     37  C   UNL A   1      41.397  26.292  27.655  1.00  0.00     0.031 A 
ATOM     38  C   UNL A   1      40.730  27.378  28.445  1.00  0.00     0.074 A 
ATOM     39  C   UNL A   1      42.684  26.409  27.285  1.00  0.00     0.049 A 
ATOM     40  N   UNL A   1      41.180  28.562  28.771  1.00  0.00    -0.248 NA
ATOM     41  C   UNL A   1      39.374  27.091  28.938  1.00  0.00     0.031 C 
ATOM     42  C   UNL A   1      43.453  25.386  26.576  1.00  0.00     0.029 A 
ATOM     43  N   UNL A   1      43.572  27.439  27.458  1.00  0.00    -0.354 N 
ATOM     44  C   UNL A   1      40.160  29.168  29.492  1.00  0.00     0.074 A 
ATOM     45  C   UNL A   1      39.061  28.227  29.544  1.00  0.00     0.031 C 
ATOM     46  C   UNL A   1      44.700  25.842  26.375  1.00  0.00     0.029 A 
ATOM     47  C   UNL A   1      44.801  27.202  26.896  1.00  0.00     0.049 A 
ATOM     48  H   UNL A   1      43.349  28.269  27.939  1.00  0.00     0.167 HD
ATOM     49  C   UNL A   1      40.148  30.398  30.056  1.00  0.00     0.037 A 
ATOM     50  C   UNL A   1      45.875  28.006  26.791  1.00  0.00     0.037 A 
ATOM     51  C   UNL A   1      41.250  31.322  30.010  1.00  0.00     0.049 A 
ATOM     52  C   UNL A   1      45.809  29.395  27.365  1.00  0.00     0.074 A 
ATOM     53  C   UNL A   1      41.334  32.596  30.541  1.00  0.00     0.029 A 
ATOM     54  N   UNL A   1      42.466  31.064  29.393  1.00  0.00    -0.354 N 
ATOM     55  N   UNL A   1      44.831  29.974  28.019  1.00  0.00    -0.248 NA
ATOM     56  C   UNL A   1      46.992  30.245  27.180  1.00  0.00     0.031 C 
ATOM     57  C   UNL A   1      42.589  33.124  30.217  1.00  0.00     0.029 A 
ATOM     58  C   UNL A   1      43.302  32.163  29.518  1.00  0.00     0.049 A 
ATOM     59  H   UNL A   1      42.701  30.225  28.936  1.00  0.00     0.167 HD
ATOM     60  C   UNL A   1      45.285  31.246  28.339  1.00  0.00     0.074 A 
ATOM     61  C   UNL A   1      46.634  31.349  27.821  1.00  0.00     0.031 C 
ATOM     62  C   UNL A   1      44.643  32.240  29.000  1.00  0.00     0.037 A 
BRANCH  49  63
ATOM     63  C   UNL A   1      38.886  30.828  30.745  1.00  0.00     0.064 A 
ATOM     64  C   UNL A   1      37.830  31.427  30.045  1.00  0.00     0.173 A 
ATOM     65  C   UNL A   1      38.725  30.611  32.122  1.00  0.00     0.173 A 
ATOM     66  F   UNL A   1      37.944  31.671  28.731  1.00  0.00    -0.203 F 
ATOM     67  C   UNL A   1      36.665  31.815  30.703  1.00  0.00     0.198 A 
ATOM     68  C   UNL A   1      37.550  30.977  32.771  1.00  0.00     0.198 A 
ATOM     69  F   UNL A   1      39.705  30.039  32.837  1.00  0.00    -0.203 F 
ATOM     70  F   UNL A   1      35.685  32.424  30.022  1.00  0.00    -0.200 F 
ATOM     71  C   UNL A   1      36.523  31.584  32.062  1.00  0.00     0.200 A 
ATOM     72  F   UNL A   1      37.411  30.747  34.084  1.00  0.00    -0.200 F 
ATOM     73  F   UNL A   1      35.401  31.954  32.693  1.00  0.00    -0.200 F 
ENDBRANCH  49  63
BRANCH  50  74
ATOM     74  C   UNL A   1      47.093  27.527  26.088  1.00  0.00     0.064 A 
ATOM     75  C   UNL A   1      48.143  26.925  26.793  1.00  0.00     0.173 A 
ATOM     76  C   UNL A   1      47.234  27.669  24.700  1.00  0.00     0.173 A 
ATOM     77  F   UNL A   1      48.066  26.793  28.126  1.00  0.00    -0.203 F 
ATOM     78  C   UNL A   1      49.295  26.493  26.138  1.00  0.00     0.198 A 
ATOM     79  C   UNL A   1      48.373  27.213  24.042  1.00  0.00     0.198 A 
ATOM     80  F   UNL A   1      46.258  28.243  23.981  1.00  0.00    -0.203 F 
ATOM     81  F   UNL A   1      50.303  25.959  26.840  1.00  0.00    -0.200 F 
ATOM     82  C   UNL A   1      49.406  26.632  24.761  1.00  0.00     0.200 A 
ATOM     83  F   UNL A   1      48.471  27.339  22.711  1.00  0.00    -0.200 F 
ATOM     84  F   UNL A   1      50.511  26.213  24.131  1.00  0.00    -0.200 F 
ENDBRANCH  50  74
BRANCH  62  85
ATOM     85  C   UNL A   1      45.405  33.513  29.225  1.00  0.00     0.064 A 
ATOM     86  C   UNL A   1      46.221  33.687  30.351  1.00  0.00     0.173 A 
ATOM     87  C   UNL A   1      45.344  34.551  28.285  1.00  0.00     0.173 A 
ATOM     88  F   UNL A   1      46.298  32.727  31.285  1.00  0.00    -0.203 F 
ATOM     89  C   UNL A   1      46.934  34.869  30.539  1.00  0.00     0.198 A 
ATOM     90  C   UNL A   1      46.077  35.721  28.464  1.00  0.00     0.198 A 
ATOM     91  F   UNL A   1      44.580  34.429  27.190  1.00  0.00    -0.203 F 
ATOM     92  F   UNL A   1      47.675  35.033  31.642  1.00  0.00    -0.200 F 
ATOM     93  C   UNL A   1      46.866  35.880  29.593  1.00  0.00     0.200 A 
ATOM     94  F   UNL A   1      46.018  36.694  27.544  1.00  0.00    -0.200 F 
ATOM     95  F   UNL A   1      47.557  37.015  29.773  1.00  0.00    -0.200 F 
ENDBRANCH  62  85
ENDBRANCH  36  37
ENDBRANCH  29  31
ENDBRANCH  28  29
ENDBRANCH  27  28
ENDBRANCH   1  27
TORSDOF 16
ENDMDL
MODEL 3
REMARK VINA RESULT:     -11.9      1.037      2.055
REMARK SMILES CC(C)(C)OC(=O)N1CC[N@H+](Cc2ccc(Cl)nc2)[C@H](C(=O)OCCOC(=O)c2ccc(-c3c4nc(c(-c5c(F)c(F)c(F)c(F)c5F)c5ccc([nH]5)c(-c5c(F)c(F)c(F)c(F)c5F)c5nc(c(-c6c(F)c(F)c(F)c(F)c6F)c6ccc3[nH]6)C=C5)C=C4)cc2)C1
REMARK SMILES IDX 24 1 23 2 21 3 22 4 20 5 8 6 9 7 92 8 10 9 11 10 6 12 7 13
REMARK SMILES IDX 5 14 2 15 1 16 3 17 4 18 12 19 13 20 14 21 19 22 15 23 18 24
REMARK SMILES IDX 16 25 17 26 25 27 26 28 27 29 28 30 29 31 30 32 91 33 31 34
REMARK SMILES IDX 90 35 32 36 33 37 34 38 84 39 35 40 89 41 83 42 85 43 36 44
REMARK SMILES IDX 88 45 82 46 81 47 37 49 69 50 49 51 68 52 50 53 53 54 67 55
REMARK SMILES IDX 86 56 51 57 52 58 66 60 87 61 54 62 38 63 39 64 47 65 40 66
REMARK SMILES IDX 41 67 45 68 48 69 42 70 43 71 46 72 44 73 70 74 71 75 79 76
REMARK SMILES IDX 72 77 73 78 77 79 80 80 74 81 75 82 78 83 76 84 55 85 56 86
REMARK SMILES IDX 64 87 57 88 58 89 62 90 65 91 59 92 60 93 63 94 61 95
REMARK H PARENT 11 11 85 48 53 59
REMARK Flexibility Score: inf
ROOT
ATOM      1  C   UNL A   1      31.776  28.644  26.059  1.00  0.00     0.274 C 
ENDROOT
BRANCH   1   2
ATOM      2  O   UNL A   1      33.085  28.103  25.789  1.00  0.00    -0.458 OA
BRANCH   2   3
ATOM      3  C   UNL A   1      33.359  27.769  24.506  1.00  0.00     0.366 C 
ATOM      4  O   UNL A   1      33.991  28.494  23.740  1.00  0.00    -0.245 OA
BRANCH   3   5
ATOM      5  C   UNL A   1      32.878  26.382  24.073  1.00  0.00     0.315 C 
ATOM      6  N   UNL A   1      33.660  24.171  23.253  1.00  0.00    -0.296 N 
ATOM      7  C   UNL A   1      32.347  23.901  22.685  1.00  0.00     0.184 C 
ATOM      8  C   UNL A   1      34.026  25.578  23.447  1.00  0.00     0.200 C 
ATOM      9  C   UNL A   1      31.231  24.802  23.259  1.00  0.00     0.285 C 
ATOM     10  N   UNL A   1      31.550  26.238  23.411  1.00  0.00    -0.316 N 
ATOM     11  H   UNL A   1      30.919  26.695  24.069  1.00  0.00     0.349 HD
BRANCH   6  12
ATOM     12  C   UNL A   1      34.585  23.146  23.302  1.00  0.00     0.410 C 
ATOM     13  O   UNL A   1      35.675  23.211  22.752  1.00  0.00    -0.224 OA
BRANCH  12  14
ATOM     14  O   UNL A   1      34.108  22.070  23.970  1.00  0.00    -0.444 OA
BRANCH  14  15
ATOM     15  C   UNL A   1      34.709  21.571  25.195  1.00  0.00     0.106 C 
ATOM     16  C   UNL A   1      33.621  20.698  25.837  1.00  0.00     0.056 C 
ATOM     17  C   UNL A   1      35.004  22.770  26.097  1.00  0.00     0.056 C 
ATOM     18  C   UNL A   1      35.959  20.702  25.002  1.00  0.00     0.056 C 
ENDBRANCH  14  15
ENDBRANCH  12  14
ENDBRANCH   6  12
BRANCH  10  19
ATOM     19  C   UNL A   1      31.189  27.062  22.255  1.00  0.00     0.301 C 
BRANCH  19  20
ATOM     20  C   UNL A   1      30.184  28.155  22.477  1.00  0.00     0.025 A 
ATOM     21  C   UNL A   1      30.426  29.471  22.072  1.00  0.00     0.014 A 
ATOM     22  C   UNL A   1      28.979  27.900  23.126  1.00  0.00     0.122 A 
ATOM     23  C   UNL A   1      29.532  30.478  22.421  1.00  0.00     0.041 A 
ATOM     24  N   UNL A   1      28.085  28.852  23.469  1.00  0.00    -0.244 NA
ATOM     25  C   UNL A   1      28.398  30.117  23.126  1.00  0.00     0.129 A 
ATOM     26  Cl  UNL A   1      27.279  31.301  23.654  1.00  0.00    -0.062 Cl
ENDBRANCH  19  20
ENDBRANCH  10  19
ENDBRANCH   3   5
ENDBRANCH   2   3
ENDBRANCH   1   2
BRANCH   1  27
ATOM     27  C   UNL A   1      31.847  30.155  26.291  1.00  0.00     0.275 C 
BRANCH  27  28
ATOM     28  O   UNL A   1      33.204  30.638  26.229  1.00  0.00    -0.458 OA
BRANCH  28  29
ATOM     29  C   UNL A   1      33.519  31.576  27.153  1.00  0.00     0.338 C 
ATOM     30  O   UNL A   1      32.841  32.526  27.507  1.00  0.00    -0.246 OA
BRANCH  29  31
ATOM     31  C   UNL A   1      34.795  31.227  27.799  1.00  0.00     0.060 A 
ATOM     32  C   UNL A   1      34.944  29.927  28.287  1.00  0.00     0.016 A 
ATOM     33  C   UNL A   1      35.798  32.176  28.003  1.00  0.00     0.016 A 
ATOM     34  C   UNL A   1      36.095  29.557  28.970  1.00  0.00     0.010 A 
ATOM     35  C   UNL A   1      36.952  31.810  28.703  1.00  0.00     0.010 A 
ATOM     36  C   UNL A   1      37.102  30.501  29.196  1.00  0.00    -0.014 A 
BRANCH  36  37
ATOM     37  C   UNL A   1      38.273  30.121  30.017  1.00  0.00     0.031 A 
ATOM     38  C   UNL A   1      39.305  29.194  29.448  1.00  0.00     0.074 A 
ATOM     39  C   UNL A   1      38.431  30.649  31.243  1.00  0.00     0.049 A 
ATOM     40  N   UNL A   1      40.362  28.679  30.021  1.00  0.00    -0.248 NA
ATOM     41  C   UNL A   1      39.125  28.796  28.044  1.00  0.00     0.031 C 
ATOM     42  C   UNL A   1      37.527  31.615  31.868  1.00  0.00     0.029 A 
ATOM     43  N   UNL A   1      39.410  30.448  32.182  1.00  0.00    -0.354 N 
ATOM     44  C   UNL A   1      40.963  27.883  29.055  1.00  0.00     0.074 A 
ATOM     45  C   UNL A   1      40.147  27.972  27.864  1.00  0.00     0.031 C 
ATOM     46  C   UNL A   1      37.995  31.924  33.088  1.00  0.00     0.029 A 
ATOM     47  C   UNL A   1      39.201  31.142  33.347  1.00  0.00     0.049 A 
ATOM     48  H   UNL A   1      40.187  29.863  32.033  1.00  0.00     0.167 HD
ATOM     49  C   UNL A   1      42.095  27.148  29.161  1.00  0.00     0.037 A 
ATOM     50  C   UNL A   1      39.892  31.123  34.502  1.00  0.00     0.037 A 
ATOM     51  C   UNL A   1      42.908  27.075  30.346  1.00  0.00     0.049 A 
ATOM     52  C   UNL A   1      41.106  30.241  34.615  1.00  0.00     0.074 A 
ATOM     53  C   UNL A   1      44.068  26.352  30.557  1.00  0.00     0.029 A 
ATOM     54  N   UNL A   1      42.642  27.759  31.524  1.00  0.00    -0.354 N 
ATOM     55  N   UNL A   1      41.653  29.467  33.709  1.00  0.00    -0.248 NA
ATOM     56  C   UNL A   1      41.793  30.224  35.913  1.00  0.00     0.031 C 
ATOM     57  C   UNL A   1      44.485  26.569  31.876  1.00  0.00     0.029 A 
ATOM     58  C   UNL A   1      43.608  27.461  32.472  1.00  0.00     0.049 A 
ATOM     59  H   UNL A   1      41.880  28.367  31.665  1.00  0.00     0.167 HD
ATOM     60  C   UNL A   1      42.756  28.887  34.317  1.00  0.00     0.074 A 
ATOM     61  C   UNL A   1      42.811  29.410  35.668  1.00  0.00     0.031 C 
ATOM     62  C   UNL A   1      43.645  27.999  33.808  1.00  0.00     0.037 A 
BRANCH  49  63
ATOM     63  C   UNL A   1      42.502  26.335  27.967  1.00  0.00     0.064 A 
ATOM     64  C   UNL A   1      41.992  25.048  27.742  1.00  0.00     0.173 A 
ATOM     65  C   UNL A   1      43.395  26.864  27.023  1.00  0.00     0.173 A 
ATOM     66  F   UNL A   1      41.150  24.492  28.625  1.00  0.00    -0.203 F 
ATOM     67  C   UNL A   1      42.380  24.312  26.625  1.00  0.00     0.198 A 
ATOM     68  C   UNL A   1      43.760  26.134  25.896  1.00  0.00     0.198 A 
ATOM     69  F   UNL A   1      43.909  28.091  27.191  1.00  0.00    -0.203 F 
ATOM     70  F   UNL A   1      41.913  23.067  26.452  1.00  0.00    -0.200 F 
ATOM     71  C   UNL A   1      43.257  24.856  25.701  1.00  0.00     0.200 A 
ATOM     72  F   UNL A   1      44.603  26.666  24.999  1.00  0.00    -0.200 F 
ATOM     73  F   UNL A   1      43.626  24.148  24.625  1.00  0.00    -0.200 F 
ENDBRANCH  49  63
BRANCH  50  74
ATOM     74  C   UNL A   1      39.434  31.943  35.652  1.00  0.00     0.064 A 
ATOM     75  C   UNL A   1      38.500  31.444  36.569  1.00  0.00     0.173 A 
ATOM     76  C   UNL A   1      39.915  33.246  35.852  1.00  0.00     0.173 A 
ATOM     77  F   UNL A   1      37.990  30.215  36.404  1.00  0.00    -0.203 F 
ATOM     78  C   UNL A   1      38.055  32.221  37.637  1.00  0.00     0.198 A 
ATOM     79  C   UNL A   1      39.490  34.012  36.935  1.00  0.00     0.198 A 
ATOM     80  F   UNL A   1      40.807  33.770  34.999  1.00  0.00    -0.203 F 
ATOM     81  F   UNL A   1      37.131  31.736  38.477  1.00  0.00    -0.200 F 
ATOM     82  C   UNL A   1      38.556  33.502  37.823  1.00  0.00     0.200 A 
ATOM     83  F   UNL A   1      39.985  35.244  37.116  1.00  0.00    -0.200 F 
ATOM     84  F   UNL A   1      38.131  34.247  38.852  1.00  0.00    -0.200 F 
ENDBRANCH  50  74
BRANCH  62  85
ATOM     85  C   UNL A   1      44.765  27.562  34.704  1.00  0.00     0.064 A 
ATOM     86  C   UNL A   1      44.658  26.416  35.504  1.00  0.00     0.173 A 
ATOM     87  C   UNL A   1      45.971  28.279  34.732  1.00  0.00     0.173 A 
ATOM     88  F   UNL A   1      43.518  25.709  35.522  1.00  0.00    -0.203 F 
ATOM     89  C   UNL A   1      45.713  26.015  36.320  1.00  0.00     0.198 A 
ATOM     90  C   UNL A   1      47.032  27.860  35.530  1.00  0.00     0.198 A 
ATOM     91  F   UNL A   1      46.122  29.378  33.980  1.00  0.00    -0.203 F 
ATOM     92  F   UNL A   1      45.575  24.941  37.109  1.00  0.00    -0.200 F 
ATOM     93  C   UNL A   1      46.900  26.733  36.327  1.00  0.00     0.200 A 
ATOM     94  F   UNL A   1      48.181  28.549  35.529  1.00  0.00    -0.200 F 
ATOM     95  F   UNL A   1      47.916  26.342  37.109  1.00  0.00    -0.200 F 
ENDBRANCH  62  85
ENDBRANCH  36  37
ENDBRANCH  29  31
ENDBRANCH  28  29
ENDBRANCH  27  28
ENDBRANCH   1  27
TORSDOF 16
ENDMDL
