MODEL 1
REMARK VINA RESULT:     -10.2      0.000      0.000
REMARK SMILES CC(C)[C@H](C(=O)OCCOC(=O)c1ccc(-c2c3nc(c(-c4c(F)c(F)c(F)c(F)c4F)c4ccc([nH]4)c(-c4c(F)c(F)c(F)c(F)c4F)c4nc(c(-c5c(F)c(F)c(F)c(F)c5F)c5ccc2[nH]5)C=C4)C=C3)cc1)[C@H](C)[C@@H](C)O
REMARK SMILES IDX 8 1 7 2 5 3 6 4 4 5 2 6 1 7 3 8 76 9 77 10 78 11 79 12 80 13
REMARK SMILES IDX 9 15 10 16 11 17 12 18 13 19 14 20 75 21 15 22 74 23 16 24
REMARK SMILES IDX 17 25 18 26 68 27 19 28 73 29 67 30 69 31 20 32 72 33 66 34
REMARK SMILES IDX 65 35 21 37 53 38 33 39 52 40 34 41 37 42 51 43 70 44 35 45
REMARK SMILES IDX 36 46 50 48 71 49 38 50 22 51 23 52 31 53 24 54 25 55 29 56
REMARK SMILES IDX 32 57 26 58 27 59 30 60 28 61 54 62 55 63 63 64 56 65 57 66
REMARK SMILES IDX 61 67 64 68 58 69 59 70 62 71 60 72 39 73 40 74 48 75 41 76
REMARK SMILES IDX 42 77 46 78 49 79 43 80 44 81 47 82 45 83
REMARK H PARENT 80 14 69 36 37 47
REMARK Flexibility Score: inf
ROOT
ATOM      1  C   UNL A   1      31.402  30.261  25.564  1.00  0.00     0.274 C 
ENDROOT
BRANCH   1   2
ATOM      2  O   UNL A   1      31.555  29.010  26.268  1.00  0.00    -0.462 OA
BRANCH   2   3
ATOM      3  C   UNL A   1      32.519  28.158  25.817  1.00  0.00     0.309 C 
ATOM      4  O   UNL A   1      33.681  28.191  26.209  1.00  0.00    -0.252 OA
BRANCH   3   5
ATOM      5  C   UNL A   1      31.943  27.043  24.914  1.00  0.00     0.107 C 
BRANCH   5   6
ATOM      6  C   UNL A   1      30.401  26.817  25.123  1.00  0.00    -0.003 C 
ATOM      7  C   UNL A   1      29.517  26.783  23.876  1.00  0.00     0.008 C 
ATOM      8  C   UNL A   1      30.195  25.487  25.879  1.00  0.00     0.008 C 
ENDBRANCH   5   6
BRANCH   5   9
ATOM      9  C   UNL A   1      32.453  27.099  23.423  1.00  0.00     0.029 C 
ATOM     10  C   UNL A   1      33.535  26.034  23.176  1.00  0.00     0.011 C 
BRANCH   9  11
ATOM     11  C   UNL A   1      32.929  28.483  22.918  1.00  0.00     0.115 C 
ATOM     12  C   UNL A   1      34.153  28.405  22.002  1.00  0.00     0.038 C 
BRANCH  11  13
ATOM     13  O   UNL A   1      31.862  29.124  22.228  1.00  0.00    -0.393 OA
ATOM     14  H   UNL A   1      31.767  30.033  22.551  1.00  0.00     0.210 HD
ENDBRANCH  11  13
ENDBRANCH   9  11
ENDBRANCH   5   9
ENDBRANCH   3   5
ENDBRANCH   2   3
ENDBRANCH   1   2
BRANCH   1  15
ATOM     15  C   UNL A   1      31.652  31.475  26.464  1.00  0.00     0.275 C 
BRANCH  15  16
ATOM     16  O   UNL A   1      32.774  31.259  27.340  1.00  0.00    -0.458 OA
BRANCH  16  17
ATOM     17  C   UNL A   1      33.508  32.364  27.607  1.00  0.00     0.338 C 
ATOM     18  O   UNL A   1      33.125  33.520  27.626  1.00  0.00    -0.246 OA
BRANCH  17  19
ATOM     19  C   UNL A   1      34.840  31.972  28.094  1.00  0.00     0.060 A 
ATOM     20  C   UNL A   1      34.964  30.658  28.542  1.00  0.00     0.016 A 
ATOM     21  C   UNL A   1      35.917  32.853  28.199  1.00  0.00     0.016 A 
ATOM     22  C   UNL A   1      36.156  30.204  29.085  1.00  0.00     0.010 A 
ATOM     23  C   UNL A   1      37.122  32.399  28.761  1.00  0.00     0.010 A 
ATOM     24  C   UNL A   1      37.244  31.072  29.211  1.00  0.00    -0.014 A 
BRANCH  24  25
ATOM     25  C   UNL A   1      38.441  30.561  29.921  1.00  0.00     0.031 A 
ATOM     26  C   UNL A   1      38.651  30.921  31.363  1.00  0.00     0.074 A 
ATOM     27  C   UNL A   1      39.236  29.649  29.331  1.00  0.00     0.049 A 
ATOM     28  N   UNL A   1      39.581  30.517  32.192  1.00  0.00    -0.248 NA
ATOM     29  C   UNL A   1      37.674  31.845  31.956  1.00  0.00     0.031 C 
ATOM     30  C   UNL A   1      39.075  29.149  27.966  1.00  0.00     0.029 A 
ATOM     31  N   UNL A   1      40.315  28.955  29.819  1.00  0.00    -0.354 N 
ATOM     32  C   UNL A   1      39.307  31.145  33.399  1.00  0.00     0.074 A 
ATOM     33  C   UNL A   1      38.133  31.967  33.193  1.00  0.00     0.031 C 
ATOM     34  C   UNL A   1      40.007  28.210  27.733  1.00  0.00     0.029 A 
ATOM     35  C   UNL A   1      40.852  28.069  28.919  1.00  0.00     0.049 A 
ATOM     36  H   UNL A   1      40.671  29.082  30.728  1.00  0.00     0.167 HD
ATOM     37  C   UNL A   1      39.974  31.042  34.574  1.00  0.00     0.037 A 
ATOM     38  C   UNL A   1      41.909  27.243  29.035  1.00  0.00     0.037 A 
ATOM     39  C   UNL A   1      41.135  30.219  34.783  1.00  0.00     0.049 A 
ATOM     40  C   UNL A   1      42.671  27.198  30.334  1.00  0.00     0.074 A 
ATOM     41  C   UNL A   1      41.902  30.081  35.928  1.00  0.00     0.029 A 
ATOM     42  N   UNL A   1      41.696  29.388  33.824  1.00  0.00    -0.354 N 
ATOM     43  N   UNL A   1      42.429  27.826  31.458  1.00  0.00    -0.248 NA
ATOM     44  C   UNL A   1      43.855  26.327  30.375  1.00  0.00     0.031 C 
ATOM     45  C   UNL A   1      42.946  29.190  35.651  1.00  0.00     0.029 A 
ATOM     46  C   UNL A   1      42.805  28.743  34.348  1.00  0.00     0.049 A 
ATOM     47  H   UNL A   1      41.356  29.274  32.907  1.00  0.00     0.167 HD
ATOM     48  C   UNL A   1      43.416  27.416  32.345  1.00  0.00     0.074 A 
ATOM     49  C   UNL A   1      44.247  26.467  31.634  1.00  0.00     0.031 C 
ATOM     50  C   UNL A   1      43.618  27.796  33.630  1.00  0.00     0.037 A 
BRANCH  37  51
ATOM     51  C   UNL A   1      39.480  31.881  35.714  1.00  0.00     0.064 A 
ATOM     52  C   UNL A   1      38.509  31.411  36.609  1.00  0.00     0.173 A 
ATOM     53  C   UNL A   1      39.998  33.168  35.918  1.00  0.00     0.173 A 
ATOM     54  F   UNL A   1      37.969  30.194  36.443  1.00  0.00    -0.203 F 
ATOM     55  C   UNL A   1      38.057  32.211  37.656  1.00  0.00     0.198 A 
ATOM     56  C   UNL A   1      39.562  33.955  36.980  1.00  0.00     0.198 A 
ATOM     57  F   UNL A   1      40.929  33.661  35.088  1.00  0.00    -0.203 F 
ATOM     58  F   UNL A   1      37.097  31.760  38.476  1.00  0.00    -0.200 F 
ATOM     59  C   UNL A   1      38.588  33.478  37.844  1.00  0.00     0.200 A 
ATOM     60  F   UNL A   1      40.081  35.176  37.163  1.00  0.00    -0.200 F 
ATOM     61  F   UNL A   1      38.153  34.246  38.853  1.00  0.00    -0.200 F 
ENDBRANCH  37  51
BRANCH  38  62
ATOM     62  C   UNL A   1      42.325  26.397  27.886  1.00  0.00     0.064 A 
ATOM     63  C   UNL A   1      43.305  26.829  26.982  1.00  0.00     0.173 A 
ATOM     64  C   UNL A   1      41.728  25.149  27.655  1.00  0.00     0.173 A 
ATOM     65  F   UNL A   1      43.884  28.029  27.144  1.00  0.00    -0.203 F 
ATOM     66  C   UNL A   1      43.661  26.052  25.882  1.00  0.00     0.198 A 
ATOM     67  C   UNL A   1      42.104  24.361  26.571  1.00  0.00     0.198 A 
ATOM     68  F   UNL A   1      40.779  24.694  28.486  1.00  0.00    -0.203 F 
ATOM     69  F   UNL A   1      44.567  26.509  25.006  1.00  0.00    -0.200 F 
ATOM     70  C   UNL A   1      43.064  24.816  25.680  1.00  0.00     0.200 A 
ATOM     71  F   UNL A   1      41.531  23.164  26.383  1.00  0.00    -0.200 F 
ATOM     72  F   UNL A   1      43.406  24.070  24.621  1.00  0.00    -0.200 F 
ENDBRANCH  38  62
BRANCH  50  73
ATOM     73  C   UNL A   1      44.767  27.160  34.357  1.00  0.00     0.064 A 
ATOM     74  C   UNL A   1      46.040  27.749  34.377  1.00  0.00     0.173 A 
ATOM     75  C   UNL A   1      44.586  25.959  35.060  1.00  0.00     0.173 A 
ATOM     76  F   UNL A   1      46.267  28.890  33.709  1.00  0.00    -0.203 F 
ATOM     77  C   UNL A   1      47.098  27.142  35.049  1.00  0.00     0.198 A 
ATOM     78  C   UNL A   1      45.641  25.369  35.752  1.00  0.00     0.198 A 
ATOM     79  F   UNL A   1      43.387  25.360  35.077  1.00  0.00    -0.203 F 
ATOM     80  F   UNL A   1      48.319  27.696  35.012  1.00  0.00    -0.200 F 
ATOM     81  C   UNL A   1      46.897  25.956  35.739  1.00  0.00     0.200 A 
ATOM     82  F   UNL A   1      45.442  24.228  36.426  1.00  0.00    -0.200 F 
ATOM     83  F   UNL A   1      47.918  25.372  36.383  1.00  0.00    -0.200 F 
ENDBRANCH  50  73
ENDBRANCH  24  25
ENDBRANCH  17  19
ENDBRANCH  16  17
ENDBRANCH  15  16
ENDBRANCH   1  15
TORSDOF 15
ENDMDL
MODEL 2
REMARK VINA RESULT:     -10.1      0.652      2.040
REMARK SMILES CC(C)[C@H](C(=O)OCCOC(=O)c1ccc(-c2c3nc(c(-c4c(F)c(F)c(F)c(F)c4F)c4ccc([nH]4)c(-c4c(F)c(F)c(F)c(F)c4F)c4nc(c(-c5c(F)c(F)c(F)c(F)c5F)c5ccc2[nH]5)C=C4)C=C3)cc1)[C@H](C)[C@@H](C)O
REMARK SMILES IDX 8 1 7 2 5 3 6 4 4 5 2 6 1 7 3 8 76 9 77 10 78 11 79 12 80 13
REMARK SMILES IDX 9 15 10 16 11 17 12 18 13 19 14 20 75 21 15 22 74 23 16 24
REMARK SMILES IDX 17 25 18 26 68 27 19 28 73 29 67 30 69 31 20 32 72 33 66 34
REMARK SMILES IDX 65 35 21 37 53 38 33 39 52 40 34 41 37 42 51 43 70 44 35 45
REMARK SMILES IDX 36 46 50 48 71 49 38 50 22 51 23 52 31 53 24 54 25 55 29 56
REMARK SMILES IDX 32 57 26 58 27 59 30 60 28 61 54 62 55 63 63 64 56 65 57 66
REMARK SMILES IDX 61 67 64 68 58 69 59 70 62 71 60 72 39 73 40 74 48 75 41 76
REMARK SMILES IDX 42 77 46 78 49 79 43 80 44 81 47 82 45 83
REMARK H PARENT 80 14 69 36 37 47
REMARK Flexibility Score: inf
ROOT
ATOM      1  C   UNL A   1      31.256  30.295  25.830  1.00  0.00     0.274 C 
ENDROOT
BRANCH   1   2
ATOM      2  O   UNL A   1      31.476  29.238  26.788  1.00  0.00    -0.462 OA
BRANCH   2   3
ATOM      3  C   UNL A   1      31.465  27.959  26.314  1.00  0.00     0.309 C 
ATOM      4  O   UNL A   1      31.175  26.990  27.005  1.00  0.00    -0.252 OA
BRANCH   3   5
ATOM      5  C   UNL A   1      31.671  27.898  24.782  1.00  0.00     0.107 C 
BRANCH   5   6
ATOM      6  C   UNL A   1      33.156  27.582  24.374  1.00  0.00    -0.003 C 
ATOM      7  C   UNL A   1      33.861  28.576  23.450  1.00  0.00     0.008 C 
ATOM      8  C   UNL A   1      34.005  27.454  25.656  1.00  0.00     0.008 C 
ENDBRANCH   5   6
BRANCH   5   9
ATOM      9  C   UNL A   1      30.543  27.108  24.016  1.00  0.00     0.029 C 
ATOM     10  C   UNL A   1      30.989  25.665  23.725  1.00  0.00     0.011 C 
BRANCH   9  11
ATOM     11  C   UNL A   1      29.996  27.775  22.731  1.00  0.00     0.115 C 
ATOM     12  C   UNL A   1      29.834  29.292  22.859  1.00  0.00     0.038 C 
BRANCH  11  13
ATOM     13  O   UNL A   1      30.866  27.484  21.642  1.00  0.00    -0.393 OA
ATOM     14  H   UNL A   1      31.371  26.679  21.838  1.00  0.00     0.210 HD
ENDBRANCH  11  13
ENDBRANCH   9  11
ENDBRANCH   5   9
ENDBRANCH   3   5
ENDBRANCH   2   3
ENDBRANCH   1   2
BRANCH   1  15
ATOM     15  C   UNL A   1      31.776  31.650  26.321  1.00  0.00     0.275 C 
BRANCH  15  16
ATOM     16  O   UNL A   1      32.764  31.491  27.357  1.00  0.00    -0.458 OA
BRANCH  16  17
ATOM     17  C   UNL A   1      33.517  32.588  27.598  1.00  0.00     0.338 C 
ATOM     18  O   UNL A   1      33.151  33.750  27.607  1.00  0.00    -0.246 OA
BRANCH  17  19
ATOM     19  C   UNL A   1      34.850  32.183  28.071  1.00  0.00     0.060 A 
ATOM     20  C   UNL A   1      34.967  30.867  28.515  1.00  0.00     0.016 A 
ATOM     21  C   UNL A   1      35.936  33.054  28.166  1.00  0.00     0.016 A 
ATOM     22  C   UNL A   1      36.161  30.401  29.044  1.00  0.00     0.010 A 
ATOM     23  C   UNL A   1      37.143  32.588  28.715  1.00  0.00     0.010 A 
ATOM     24  C   UNL A   1      37.258  31.259  29.161  1.00  0.00    -0.014 A 
BRANCH  24  25
ATOM     25  C   UNL A   1      38.457  30.736  29.858  1.00  0.00     0.031 A 
ATOM     26  C   UNL A   1      38.683  31.087  31.300  1.00  0.00     0.074 A 
ATOM     27  C   UNL A   1      39.241  29.822  29.256  1.00  0.00     0.049 A 
ATOM     28  N   UNL A   1      39.617  30.673  32.118  1.00  0.00    -0.248 NA
ATOM     29  C   UNL A   1      37.717  32.015  31.907  1.00  0.00     0.031 C 
ATOM     30  C   UNL A   1      39.064  29.330  27.890  1.00  0.00     0.029 A 
ATOM     31  N   UNL A   1      40.319  29.118  29.731  1.00  0.00    -0.354 N 
ATOM     32  C   UNL A   1      39.358  31.296  33.331  1.00  0.00     0.074 A 
ATOM     33  C   UNL A   1      38.187  32.126  33.140  1.00  0.00     0.031 C 
ATOM     34  C   UNL A   1      39.988  28.386  27.644  1.00  0.00     0.029 A 
ATOM     35  C   UNL A   1      40.842  28.233  28.821  1.00  0.00     0.049 A 
ATOM     36  H   UNL A   1      40.684  29.238  30.638  1.00  0.00     0.167 HD
ATOM     37  C   UNL A   1      40.034  31.182  34.499  1.00  0.00     0.037 A 
ATOM     38  C   UNL A   1      41.894  27.399  28.924  1.00  0.00     0.037 A 
ATOM     39  C   UNL A   1      41.192  30.350  34.694  1.00  0.00     0.049 A 
ATOM     40  C   UNL A   1      42.667  27.342  30.216  1.00  0.00     0.074 A 
ATOM     41  C   UNL A   1      41.967  30.200  35.832  1.00  0.00     0.029 A 
ATOM     42  N   UNL A   1      41.738  29.520  33.726  1.00  0.00    -0.354 N 
ATOM     43  N   UNL A   1      42.439  27.965  31.345  1.00  0.00    -0.248 NA
ATOM     44  C   UNL A   1      43.845  26.463  30.242  1.00  0.00     0.031 C 
ATOM     45  C   UNL A   1      43.002  29.304  35.541  1.00  0.00     0.029 A 
ATOM     46  C   UNL A   1      42.847  28.864  34.237  1.00  0.00     0.049 A 
ATOM     47  H   UNL A   1      41.389  29.413  32.812  1.00  0.00     0.167 HD
ATOM     48  C   UNL A   1      43.431  27.544  32.221  1.00  0.00     0.074 A 
ATOM     49  C   UNL A   1      44.250  26.593  31.498  1.00  0.00     0.031 C 
ATOM     50  C   UNL A   1      43.647  27.915  33.507  1.00  0.00     0.037 A 
BRANCH  37  51
ATOM     51  C   UNL A   1      39.556  32.018  35.649  1.00  0.00     0.064 A 
ATOM     52  C   UNL A   1      38.580  31.554  36.542  1.00  0.00     0.173 A 
ATOM     53  C   UNL A   1      40.094  33.295  35.863  1.00  0.00     0.173 A 
ATOM     54  F   UNL A   1      38.021  30.347  36.367  1.00  0.00    -0.203 F 
ATOM     55  C   UNL A   1      38.143  32.352  37.598  1.00  0.00     0.198 A 
ATOM     56  C   UNL A   1      39.673  34.079  36.932  1.00  0.00     0.198 A 
ATOM     57  F   UNL A   1      41.030  33.781  35.035  1.00  0.00    -0.203 F 
ATOM     58  F   UNL A   1      37.179  31.909  38.416  1.00  0.00    -0.200 F 
ATOM     59  C   UNL A   1      38.694  33.609  37.795  1.00  0.00     0.200 A 
ATOM     60  F   UNL A   1      40.211  35.291  37.125  1.00  0.00    -0.200 F 
ATOM     61  F   UNL A   1      38.273  34.375  38.812  1.00  0.00    -0.200 F 
ENDBRANCH  37  51
BRANCH  38  62
ATOM     62  C   UNL A   1      42.294  26.557  27.767  1.00  0.00     0.064 A 
ATOM     63  C   UNL A   1      41.736  25.287  27.564  1.00  0.00     0.173 A 
ATOM     64  C   UNL A   1      43.264  26.997  26.854  1.00  0.00     0.173 A 
ATOM     65  F   UNL A   1      40.825  24.810  28.426  1.00  0.00    -0.203 F 
ATOM     66  C   UNL A   1      42.146  24.483  26.502  1.00  0.00     0.198 A 
ATOM     67  C   UNL A   1      43.653  26.205  25.778  1.00  0.00     0.198 A 
ATOM     68  F   UNL A   1      43.834  28.201  27.009  1.00  0.00    -0.203 F 
ATOM     69  F   UNL A   1      41.631  23.254  26.358  1.00  0.00    -0.200 F 
ATOM     70  C   UNL A   1      43.099  24.945  25.606  1.00  0.00     0.200 A 
ATOM     71  F   UNL A   1      44.569  26.657  24.911  1.00  0.00    -0.200 F 
ATOM     72  F   UNL A   1      43.493  24.170  24.587  1.00  0.00    -0.200 F 
ENDBRANCH  38  62
BRANCH  50  73
ATOM     73  C   UNL A   1      44.798  27.268  34.220  1.00  0.00     0.064 A 
ATOM     74  C   UNL A   1      44.647  26.057  34.911  1.00  0.00     0.173 A 
ATOM     75  C   UNL A   1      46.072  27.856  34.194  1.00  0.00     0.173 A 
ATOM     76  F   UNL A   1      43.446  25.462  34.977  1.00  0.00    -0.203 F 
ATOM     77  C   UNL A   1      45.722  25.473  35.576  1.00  0.00     0.198 A 
ATOM     78  C   UNL A   1      47.151  27.256  34.839  1.00  0.00     0.198 A 
ATOM     79  F   UNL A   1      46.271  29.011  33.542  1.00  0.00    -0.203 F 
ATOM     80  F   UNL A   1      45.543  24.342  36.273  1.00  0.00    -0.200 F 
ATOM     81  C   UNL A   1      46.973  26.071  35.536  1.00  0.00     0.200 A 
ATOM     82  F   UNL A   1      48.361  27.830  34.791  1.00  0.00    -0.200 F 
ATOM     83  F   UNL A   1      48.006  25.509  36.179  1.00  0.00    -0.200 F 
ENDBRANCH  50  73
ENDBRANCH  24  25
ENDBRANCH  17  19
ENDBRANCH  16  17
ENDBRANCH  15  16
ENDBRANCH   1  15
TORSDOF 15
ENDMDL
MODEL 3
REMARK VINA RESULT:     -10.0      3.003      5.563
REMARK SMILES CC(C)[C@H](C(=O)OCCOC(=O)c1ccc(-c2c3nc(c(-c4c(F)c(F)c(F)c(F)c4F)c4ccc([nH]4)c(-c4c(F)c(F)c(F)c(F)c4F)c4nc(c(-c5c(F)c(F)c(F)c(F)c5F)c5ccc2[nH]5)C=C4)C=C3)cc1)[C@H](C)[C@@H](C)O
REMARK SMILES IDX 8 1 7 2 5 3 6 4 4 5 2 6 1 7 3 8 76 9 77 10 78 11 79 12 80 13
REMARK SMILES IDX 9 15 10 16 11 17 12 18 13 19 14 20 75 21 15 22 74 23 16 24
REMARK SMILES IDX 17 25 18 26 68 27 19 28 73 29 67 30 69 31 20 32 72 33 66 34
REMARK SMILES IDX 65 35 21 37 53 38 33 39 52 40 34 41 37 42 51 43 70 44 35 45
REMARK SMILES IDX 36 46 50 48 71 49 38 50 22 51 23 52 31 53 24 54 25 55 29 56
REMARK SMILES IDX 32 57 26 58 27 59 30 60 28 61 54 62 55 63 63 64 56 65 57 66
REMARK SMILES IDX 61 67 64 68 58 69 59 70 62 71 60 72 39 73 40 74 48 75 41 76
REMARK SMILES IDX 42 77 46 78 49 79 43 80 44 81 47 82 45 83
REMARK H PARENT 80 14 69 36 37 47
REMARK Flexibility Score: inf
ROOT
ATOM      1  C   UNL A   1      33.680  34.206  29.009  1.00  0.00     0.274 C 
ENDROOT
BRANCH   1   2
ATOM      2  O   UNL A   1      35.005  34.193  29.583  1.00  0.00    -0.462 OA
BRANCH   2   3
ATOM      3  C   UNL A   1      35.185  33.446  30.710  1.00  0.00     0.309 C 
ATOM      4  O   UNL A   1      34.261  32.926  31.326  1.00  0.00    -0.252 OA
BRANCH   3   5
ATOM      5  C   UNL A   1      36.679  33.177  31.004  1.00  0.00     0.107 C 
BRANCH   5   6
ATOM      6  C   UNL A   1      37.646  34.025  30.098  1.00  0.00    -0.003 C 
ATOM      7  C   UNL A   1      38.916  34.578  30.746  1.00  0.00     0.008 C 
ATOM      8  C   UNL A   1      38.075  33.163  28.892  1.00  0.00     0.008 C 
ENDBRANCH   5   6
BRANCH   5   9
ATOM      9  C   UNL A   1      37.027  33.110  32.540  1.00  0.00     0.029 C 
ATOM     10  C   UNL A   1      36.600  31.758  33.138  1.00  0.00     0.011 C 
BRANCH   9  11
ATOM     11  C   UNL A   1      36.502  34.278  33.409  1.00  0.00     0.115 C 
ATOM     12  C   UNL A   1      35.529  33.828  34.502  1.00  0.00     0.038 C 
BRANCH  11  13
ATOM     13  O   UNL A   1      37.604  34.953  34.005  1.00  0.00    -0.393 OA
ATOM     14  H   UNL A   1      37.809  34.545  34.861  1.00  0.00     0.210 HD
ENDBRANCH  11  13
ENDBRANCH   9  11
ENDBRANCH   5   9
ENDBRANCH   3   5
ENDBRANCH   2   3
ENDBRANCH   1   2
BRANCH   1  15
ATOM     15  C   UNL A   1      33.466  33.074  28.000  1.00  0.00     0.275 C 
BRANCH  15  16
ATOM     16  O   UNL A   1      34.672  32.312  27.800  1.00  0.00    -0.458 OA
BRANCH  16  17
ATOM     17  C   UNL A   1      34.519  30.971  27.883  1.00  0.00     0.338 C 
ATOM     18  O   UNL A   1      33.520  30.323  27.626  1.00  0.00    -0.246 OA
BRANCH  17  19
ATOM     19  C   UNL A   1      35.821  30.335  28.139  1.00  0.00     0.060 A 
ATOM     20  C   UNL A   1      36.033  29.879  29.439  1.00  0.00     0.016 A 
ATOM     21  C   UNL A   1      36.842  30.251  27.191  1.00  0.00     0.016 A 
ATOM     22  C   UNL A   1      37.250  29.326  29.806  1.00  0.00     0.010 A 
ATOM     23  C   UNL A   1      38.081  29.704  27.564  1.00  0.00     0.010 A 
ATOM     24  C   UNL A   1      38.291  29.243  28.877  1.00  0.00    -0.014 A 
BRANCH  24  25
ATOM     25  C   UNL A   1      39.605  28.767  29.371  1.00  0.00     0.031 A 
ATOM     26  C   UNL A   1      40.235  29.440  30.555  1.00  0.00     0.074 A 
ATOM     27  C   UNL A   1      40.144  27.638  28.872  1.00  0.00     0.049 A 
ATOM     28  N   UNL A   1      41.334  29.133  31.197  1.00  0.00    -0.248 NA
ATOM     29  C   UNL A   1      39.523  30.606  31.100  1.00  0.00     0.031 C 
ATOM     30  C   UNL A   1      39.573  26.843  27.785  1.00  0.00     0.029 A 
ATOM     31  N   UNL A   1      41.271  26.948  29.240  1.00  0.00    -0.354 N 
ATOM     32  C   UNL A   1      41.450  30.071  32.214  1.00  0.00     0.074 A 
ATOM     33  C   UNL A   1      40.319  30.967  32.097  1.00  0.00     0.031 C 
ATOM     34  C   UNL A   1      40.342  25.759  27.590  1.00  0.00     0.029 A 
ATOM     35  C   UNL A   1      41.476  25.802  28.512  1.00  0.00     0.049 A 
ATOM     36  H   UNL A   1      41.876  27.246  29.957  1.00  0.00     0.167 HD
ATOM     37  C   UNL A   1      42.413  30.173  33.161  1.00  0.00     0.037 A 
ATOM     38  C   UNL A   1      42.470  24.896  28.578  1.00  0.00     0.037 A 
ATOM     39  C   UNL A   1      43.533  29.278  33.286  1.00  0.00     0.049 A 
ATOM     40  C   UNL A   1      43.562  25.071  29.600  1.00  0.00     0.074 A 
ATOM     41  C   UNL A   1      44.580  29.324  34.190  1.00  0.00     0.029 A 
ATOM     42  N   UNL A   1      43.748  28.167  32.483  1.00  0.00    -0.354 N 
ATOM     43  N   UNL A   1      43.686  25.984  30.531  1.00  0.00    -0.248 NA
ATOM     44  C   UNL A   1      44.653  24.086  29.576  1.00  0.00     0.031 C 
ATOM     45  C   UNL A   1      45.447  28.261  33.912  1.00  0.00     0.029 A 
ATOM     46  C   UNL A   1      44.917  27.528  32.863  1.00  0.00     0.049 A 
ATOM     47  H   UNL A   1      43.157  27.877  31.750  1.00  0.00     0.167 HD
ATOM     48  C   UNL A   1      44.856  25.677  31.214  1.00  0.00     0.074 A 
ATOM     49  C   UNL A   1      45.392  24.478  30.604  1.00  0.00     0.031 C 
ATOM     50  C   UNL A   1      45.435  26.332  32.250  1.00  0.00     0.037 A 
BRANCH  37  51
ATOM     51  C   UNL A   1      42.314  31.326  34.114  1.00  0.00     0.064 A 
ATOM     52  C   UNL A   1      42.922  32.560  33.844  1.00  0.00     0.173 A 
ATOM     53  C   UNL A   1      41.588  31.194  35.307  1.00  0.00     0.173 A 
ATOM     54  F   UNL A   1      43.644  32.728  32.726  1.00  0.00    -0.203 F 
ATOM     55  C   UNL A   1      42.826  33.615  34.749  1.00  0.00     0.198 A 
ATOM     56  C   UNL A   1      41.473  32.258  36.196  1.00  0.00     0.198 A 
ATOM     57  F   UNL A   1      40.988  30.033  35.607  1.00  0.00    -0.203 F 
ATOM     58  F   UNL A   1      43.451  34.773  34.494  1.00  0.00    -0.200 F 
ATOM     59  C   UNL A   1      42.097  33.465  35.919  1.00  0.00     0.200 A 
ATOM     60  F   UNL A   1      40.763  32.113  37.323  1.00  0.00    -0.200 F 
ATOM     61  F   UNL A   1      42.004  34.482  36.788  1.00  0.00    -0.200 F 
ENDBRANCH  37  51
BRANCH  38  62
ATOM     62  C   UNL A   1      42.491  23.744  27.639  1.00  0.00     0.064 A 
ATOM     63  C   UNL A   1      42.013  22.483  28.023  1.00  0.00     0.173 A 
ATOM     64  C   UNL A   1      43.017  23.877  26.345  1.00  0.00     0.173 A 
ATOM     65  F   UNL A   1      41.527  22.299  29.259  1.00  0.00    -0.203 F 
ATOM     66  C   UNL A   1      42.076  21.396  27.153  1.00  0.00     0.198 A 
ATOM     67  C   UNL A   1      43.054  22.796  25.468  1.00  0.00     0.198 A 
ATOM     68  F   UNL A   1      43.495  25.060  25.932  1.00  0.00    -0.203 F 
ATOM     69  F   UNL A   1      41.656  20.191  27.561  1.00  0.00    -0.200 F 
ATOM     70  C   UNL A   1      42.590  21.554  25.875  1.00  0.00     0.200 A 
ATOM     71  F   UNL A   1      43.545  22.955  24.231  1.00  0.00    -0.200 F 
ATOM     72  F   UNL A   1      42.651  20.508  25.041  1.00  0.00    -0.200 F 
ENDBRANCH  38  62
BRANCH  50  73
ATOM     73  C   UNL A   1      46.700  25.747  32.806  1.00  0.00     0.064 A 
ATOM     74  C   UNL A   1      46.681  24.825  33.863  1.00  0.00     0.173 A 
ATOM     75  C   UNL A   1      47.944  26.097  32.260  1.00  0.00     0.173 A 
ATOM     76  F   UNL A   1      45.517  24.469  34.428  1.00  0.00    -0.203 F 
ATOM     77  C   UNL A   1      47.864  24.298  34.374  1.00  0.00     0.198 A 
ATOM     78  C   UNL A   1      49.124  25.547  32.757  1.00  0.00     0.198 A 
ATOM     79  F   UNL A   1      48.017  26.968  31.244  1.00  0.00    -0.203 F 
ATOM     80  F   UNL A   1      47.826  23.458  35.418  1.00  0.00    -0.200 F 
ATOM     81  C   UNL A   1      49.083  24.656  33.819  1.00  0.00     0.200 A 
ATOM     82  F   UNL A   1      50.300  25.887  32.213  1.00  0.00    -0.200 F 
ATOM     83  F   UNL A   1      50.222  24.150  34.313  1.00  0.00    -0.200 F 
ENDBRANCH  50  73
ENDBRANCH  24  25
ENDBRANCH  17  19
ENDBRANCH  16  17
ENDBRANCH  15  16
ENDBRANCH   1  15
TORSDOF 15
ENDMDL
