MODEL 1
REMARK VINA RESULT:     -13.0      0.000      0.000
REMARK SMILES CCc1ccc(/C=C2\C(=O)N(c3ccc(Cl)c(C(=O)OCCOC(=O)c4ccc(-c5c6nc(c(-c7c(F)c(F)c(F)c(F)c7F)c7ccc([nH]7)c(-c7c(F)c(F)c(F)c(F)c7F)c7nc(c(-c8c(F)c(F)c(F)c(F)c8F)c8ccc5[nH]8)C=C7)C=C6)cc4)c3)N=C2C)cc1
REMARK SMILES IDX 21 1 20 2 18 3 19 4 17 5 12 6 13 7 89 8 14 9 15 10 16 11
REMARK SMILES IDX 11 12 7 13 8 14 9 15 91 16 10 17 90 18 92 19 6 20 3 21 4 22
REMARK SMILES IDX 94 23 5 24 93 25 2 26 1 27 22 28 23 29 24 30 25 31 26 32
REMARK SMILES IDX 27 33 88 34 28 35 87 36 29 37 30 38 31 39 81 40 32 41 86 42
REMARK SMILES IDX 80 43 82 44 33 45 85 46 79 47 78 48 34 50 66 51 46 52 65 53
REMARK SMILES IDX 47 54 50 55 64 56 83 57 48 58 49 59 63 61 84 62 51 63 35 64
REMARK SMILES IDX 36 65 44 66 37 67 38 68 42 69 45 70 39 71 40 72 43 73 41 74
REMARK SMILES IDX 67 75 68 76 76 77 69 78 70 79 74 80 77 81 71 82 72 83 75 84
REMARK SMILES IDX 73 85 52 86 53 87 61 88 54 89 55 90 59 91 62 92 56 93 57 94
REMARK SMILES IDX 60 95 58 96
REMARK H PARENT 82 49 50 60
REMARK Flexibility Score: inf
ROOT
ATOM      1  C   UNL A   1      33.919  35.333  28.778  1.00  0.00     0.275 C 
ENDROOT
BRANCH   1   2
ATOM      2  O   UNL A   1      33.749  33.912  28.943  1.00  0.00    -0.458 OA
BRANCH   2   3
ATOM      3  C   UNL A   1      33.141  33.224  27.938  1.00  0.00     0.339 C 
ATOM      4  O   UNL A   1      32.175  33.602  27.302  1.00  0.00    -0.246 OA
BRANCH   3   5
ATOM      5  C   UNL A   1      33.919  31.978  27.684  1.00  0.00     0.080 A 
ATOM      6  C   UNL A   1      33.874  29.583  27.193  1.00  0.00     0.070 A 
ATOM      7  C   UNL A   1      35.214  29.481  27.559  1.00  0.00     0.030 A 
ATOM      8  C   UNL A   1      33.227  30.821  27.300  1.00  0.00     0.045 A 
ATOM      9  C   UNL A   1      35.938  30.643  27.841  1.00  0.00     0.023 A 
ATOM     10  C   UNL A   1      35.306  31.898  27.853  1.00  0.00     0.055 A 
ATOM     11  Cl  UNL A   1      36.324  33.273  28.099  1.00  0.00    -0.083 Cl
BRANCH   6  12
ATOM     12  N   UNL A   1      33.215  28.505  26.580  1.00  0.00    -0.196 N 
ATOM     13  C   UNL A   1      31.150  27.054  24.110  1.00  0.00     0.024 C 
ATOM     14  C   UNL A   1      31.909  27.348  25.174  1.00  0.00     0.065 C 
ATOM     15  C   UNL A   1      32.008  28.641  25.882  1.00  0.00     0.280 C 
ATOM     16  C   UNL A   1      33.013  26.543  25.726  1.00  0.00     0.071 C 
ATOM     17  O   UNL A   1      31.249  29.591  25.804  1.00  0.00    -0.267 OA
ATOM     18  N   UNL A   1      33.816  27.258  26.476  1.00  0.00    -0.169 NA
ATOM     19  C   UNL A   1      33.214  25.097  25.421  1.00  0.00     0.069 C 
BRANCH  13  20
ATOM     20  C   UNL A   1      30.400  28.100  23.404  1.00  0.00    -0.025 A 
ATOM     21  C   UNL A   1      28.839  29.906  21.893  1.00  0.00    -0.048 A 
ATOM     22  C   UNL A   1      30.237  29.860  21.755  1.00  0.00     0.004 A 
ATOM     23  C   UNL A   1      28.237  29.049  22.820  1.00  0.00     0.004 A 
ATOM     24  C   UNL A   1      31.015  28.967  22.503  1.00  0.00     0.008 A 
ATOM     25  C   UNL A   1      29.010  28.162  23.573  1.00  0.00     0.008 A 
BRANCH  21  26
ATOM     26  C   UNL A   1      28.053  30.829  20.989  1.00  0.00     0.032 C 
ATOM     27  C   UNL A   1      27.995  32.300  21.391  1.00  0.00     0.009 C 
ENDBRANCH  21  26
ENDBRANCH  13  20
ENDBRANCH   6  12
ENDBRANCH   3   5
ENDBRANCH   2   3
ENDBRANCH   1   2
BRANCH   1  28
ATOM     28  C   UNL A   1      32.865  36.093  29.588  1.00  0.00     0.275 C 
BRANCH  28  29
ATOM     29  O   UNL A   1      32.385  35.290  30.685  1.00  0.00    -0.458 OA
BRANCH  29  30
ATOM     30  C   UNL A   1      32.742  35.731  31.914  1.00  0.00     0.338 C 
ATOM     31  O   UNL A   1      32.148  36.528  32.620  1.00  0.00    -0.246 OA
BRANCH  30  32
ATOM     32  C   UNL A   1      33.894  34.953  32.398  1.00  0.00     0.060 A 
ATOM     33  C   UNL A   1      35.145  35.554  32.279  1.00  0.00     0.016 A 
ATOM     34  C   UNL A   1      33.784  33.654  32.895  1.00  0.00     0.016 A 
ATOM     35  C   UNL A   1      36.295  34.888  32.687  1.00  0.00     0.010 A 
ATOM     36  C   UNL A   1      34.945  32.968  33.282  1.00  0.00     0.010 A 
ATOM     37  C   UNL A   1      36.209  33.582  33.179  1.00  0.00    -0.014 A 
BRANCH  37  38
ATOM     38  C   UNL A   1      37.464  32.848  33.472  1.00  0.00     0.031 A 
ATOM     39  C   UNL A   1      38.173  33.088  34.773  1.00  0.00     0.074 A 
ATOM     40  C   UNL A   1      37.923  31.910  32.621  1.00  0.00     0.049 A 
ATOM     41  N   UNL A   1      39.283  32.564  35.226  1.00  0.00    -0.248 NA
ATOM     42  C   UNL A   1      37.536  34.042  35.694  1.00  0.00     0.031 C 
ATOM     43  C   UNL A   1      37.279  31.521  31.368  1.00  0.00     0.029 A 
ATOM     44  N   UNL A   1      39.031  31.103  32.695  1.00  0.00    -0.354 N 
ATOM     45  C   UNL A   1      39.491  33.140  36.472  1.00  0.00     0.074 A 
ATOM     46  C   UNL A   1      38.400  34.063  36.699  1.00  0.00     0.031 C 
ATOM     47  C   UNL A   1      37.999  30.541  30.794  1.00  0.00     0.029 A 
ATOM     48  C   UNL A   1      39.176  30.267  31.616  1.00  0.00     0.049 A 
ATOM     49  H   UNL A   1      39.662  31.122  33.451  1.00  0.00     0.167 HD
ATOM     50  C   UNL A   1      40.500  32.917  37.348  1.00  0.00     0.037 A 
ATOM     51  C   UNL A   1      40.158  29.394  31.317  1.00  0.00     0.037 A 
ATOM     52  C   UNL A   1      41.574  31.982  37.130  1.00  0.00     0.049 A 
ATOM     53  C   UNL A   1      41.317  29.233  32.267  1.00  0.00     0.074 A 
ATOM     54  C   UNL A   1      42.632  31.673  37.967  1.00  0.00     0.029 A 
ATOM     55  N   UNL A   1      41.730  31.210  35.988  1.00  0.00    -0.354 N 
ATOM     56  N   UNL A   1      41.510  29.782  33.441  1.00  0.00    -0.248 NA
ATOM     57  C   UNL A   1      42.400  28.334  31.841  1.00  0.00     0.031 C 
ATOM     58  C   UNL A   1      43.459  30.756  37.307  1.00  0.00     0.029 A 
ATOM     59  C   UNL A   1      42.886  30.450  36.084  1.00  0.00     0.049 A 
ATOM     60  H   UNL A   1      41.112  31.203  35.222  1.00  0.00     0.167 HD
ATOM     61  C   UNL A   1      42.717  29.273  33.908  1.00  0.00     0.074 A 
ATOM     62  C   UNL A   1      43.205  28.363  32.894  1.00  0.00     0.031 C 
ATOM     63  C   UNL A   1      43.359  29.538  35.072  1.00  0.00     0.037 A 
BRANCH  50  64
ATOM     64  C   UNL A   1      40.516  33.738  38.605  1.00  0.00     0.064 A 
ATOM     65  C   UNL A   1      39.762  33.387  39.734  1.00  0.00     0.173 A 
ATOM     66  C   UNL A   1      41.312  34.891  38.679  1.00  0.00     0.173 A 
ATOM     67  F   UNL A   1      38.974  32.302  39.710  1.00  0.00    -0.203 F 
ATOM     68  C   UNL A   1      39.778  34.180  40.879  1.00  0.00     0.198 A 
ATOM     69  C   UNL A   1      41.349  35.665  39.836  1.00  0.00     0.198 A 
ATOM     70  F   UNL A   1      42.057  35.268  37.628  1.00  0.00    -0.203 F 
ATOM     71  F   UNL A   1      39.007  33.857  41.927  1.00  0.00    -0.200 F 
ATOM     72  C   UNL A   1      40.574  35.315  40.931  1.00  0.00     0.200 A 
ATOM     73  F   UNL A   1      42.129  36.753  39.887  1.00  0.00    -0.200 F 
ATOM     74  F   UNL A   1      40.590  36.076  42.034  1.00  0.00    -0.200 F 
ENDBRANCH  50  64
BRANCH  51  75
ATOM     75  C   UNL A   1      40.103  28.613  30.053  1.00  0.00     0.064 A 
ATOM     76  C   UNL A   1      39.472  27.363  30.001  1.00  0.00     0.173 A 
ATOM     77  C   UNL A   1      40.708  29.086  28.878  1.00  0.00     0.173 A 
ATOM     78  F   UNL A   1      38.910  26.852  31.107  1.00  0.00    -0.203 F 
ATOM     79  C   UNL A   1      39.459  26.609  28.829  1.00  0.00     0.198 A 
ATOM     80  C   UNL A   1      40.668  28.345  27.698  1.00  0.00     0.198 A 
ATOM     81  F   UNL A   1      41.337  30.271  28.876  1.00  0.00    -0.203 F 
ATOM     82  F   UNL A   1      38.892  25.394  28.822  1.00  0.00    -0.200 F 
ATOM     83  C   UNL A   1      40.051  27.104  27.677  1.00  0.00     0.200 A 
ATOM     84  F   UNL A   1      41.236  28.830  26.586  1.00  0.00    -0.200 F 
ATOM     85  F   UNL A   1      40.039  26.379  26.551  1.00  0.00    -0.200 F 
ENDBRANCH  51  75
BRANCH  63  86
ATOM     86  C   UNL A   1      44.642  28.802  35.337  1.00  0.00     0.064 A 
ATOM     87  C   UNL A   1      45.887  29.335  34.975  1.00  0.00     0.173 A 
ATOM     88  C   UNL A   1      44.625  27.566  36.001  1.00  0.00     0.173 A 
ATOM     89  F   UNL A   1      45.957  30.508  34.325  1.00  0.00    -0.203 F 
ATOM     90  C   UNL A   1      47.067  28.645  35.244  1.00  0.00     0.198 A 
ATOM     91  C   UNL A   1      45.808  26.894  36.296  1.00  0.00     0.198 A 
ATOM     92  F   UNL A   1      43.461  27.014  36.376  1.00  0.00    -0.203 F 
ATOM     93  F   UNL A   1      48.242  29.151  34.845  1.00  0.00    -0.200 F 
ATOM     94  C   UNL A   1      47.027  27.430  35.911  1.00  0.00     0.200 A 
ATOM     95  F   UNL A   1      45.769  25.726  36.953  1.00  0.00    -0.200 F 
ATOM     96  F   UNL A   1      48.165  26.772  36.176  1.00  0.00    -0.200 F 
ENDBRANCH  63  86
ENDBRANCH  37  38
ENDBRANCH  30  32
ENDBRANCH  29  30
ENDBRANCH  28  29
ENDBRANCH   1  28
TORSDOF 14
ENDMDL
MODEL 2
REMARK VINA RESULT:     -12.8      7.537     12.906
REMARK SMILES CCc1ccc(/C=C2\C(=O)N(c3ccc(Cl)c(C(=O)OCCOC(=O)c4ccc(-c5c6nc(c(-c7c(F)c(F)c(F)c(F)c7F)c7ccc([nH]7)c(-c7c(F)c(F)c(F)c(F)c7F)c7nc(c(-c8c(F)c(F)c(F)c(F)c8F)c8ccc5[nH]8)C=C7)C=C6)cc4)c3)N=C2C)cc1
REMARK SMILES IDX 21 1 20 2 18 3 19 4 17 5 12 6 13 7 89 8 14 9 15 10 16 11
REMARK SMILES IDX 11 12 7 13 8 14 9 15 91 16 10 17 90 18 92 19 6 20 3 21 4 22
REMARK SMILES IDX 94 23 5 24 93 25 2 26 1 27 22 28 23 29 24 30 25 31 26 32
REMARK SMILES IDX 27 33 88 34 28 35 87 36 29 37 30 38 31 39 81 40 32 41 86 42
REMARK SMILES IDX 80 43 82 44 33 45 85 46 79 47 78 48 34 50 66 51 46 52 65 53
REMARK SMILES IDX 47 54 50 55 64 56 83 57 48 58 49 59 63 61 84 62 51 63 35 64
REMARK SMILES IDX 36 65 44 66 37 67 38 68 42 69 45 70 39 71 40 72 43 73 41 74
REMARK SMILES IDX 67 75 68 76 76 77 69 78 70 79 74 80 77 81 71 82 72 83 75 84
REMARK SMILES IDX 73 85 52 86 53 87 61 88 54 89 55 90 59 91 62 92 56 93 57 94
REMARK SMILES IDX 60 95 58 96
REMARK H PARENT 82 49 50 60
REMARK Flexibility Score: inf
ROOT
ATOM      1  C   UNL A   1      42.294  19.220  26.837  1.00  0.00     0.275 C 
ENDROOT
BRANCH   1   2
ATOM      2  O   UNL A   1      41.579  20.320  26.244  1.00  0.00    -0.458 OA
BRANCH   2   3
ATOM      3  C   UNL A   1      40.242  20.170  26.036  1.00  0.00     0.339 C 
ATOM      4  O   UNL A   1      39.680  19.129  25.750  1.00  0.00    -0.246 OA
BRANCH   3   5
ATOM      5  C   UNL A   1      39.573  21.473  26.315  1.00  0.00     0.080 A 
ATOM      6  C   UNL A   1      37.795  23.045  25.729  1.00  0.00     0.070 A 
ATOM      7  C   UNL A   1      38.436  24.045  26.456  1.00  0.00     0.030 A 
ATOM      8  C   UNL A   1      38.390  21.781  25.630  1.00  0.00     0.045 A 
ATOM      9  C   UNL A   1      39.557  23.720  27.226  1.00  0.00     0.023 A 
ATOM     10  C   UNL A   1      40.096  22.423  27.199  1.00  0.00     0.055 A 
ATOM     11  Cl  UNL A   1      41.409  22.110  28.279  1.00  0.00    -0.083 Cl
BRANCH   6  12
ATOM     12  N   UNL A   1      36.497  23.244  25.230  1.00  0.00    -0.196 N 
ATOM     13  C   UNL A   1      33.184  22.229  24.545  1.00  0.00     0.024 C 
ATOM     14  C   UNL A   1      34.373  22.839  24.640  1.00  0.00     0.065 C 
ATOM     15  C   UNL A   1      35.708  22.208  24.714  1.00  0.00     0.280 C 
ATOM     16  C   UNL A   1      34.621  24.256  24.957  1.00  0.00     0.071 C 
ATOM     17  O   UNL A   1      36.000  21.055  24.449  1.00  0.00    -0.267 OA
ATOM     18  N   UNL A   1      35.843  24.459  25.384  1.00  0.00    -0.169 NA
ATOM     19  C   UNL A   1      33.582  25.320  24.849  1.00  0.00     0.069 C 
BRANCH  13  20
ATOM     20  C   UNL A   1      33.072  20.770  24.661  1.00  0.00    -0.025 A 
ATOM     21  C   UNL A   1      32.578  17.993  24.828  1.00  0.00    -0.048 A 
ATOM     22  C   UNL A   1      32.921  18.742  25.968  1.00  0.00     0.004 A 
ATOM     23  C   UNL A   1      32.512  18.654  23.598  1.00  0.00     0.004 A 
ATOM     24  C   UNL A   1      33.167  20.119  25.889  1.00  0.00     0.008 A 
ATOM     25  C   UNL A   1      32.763  20.024  23.514  1.00  0.00     0.008 A 
BRANCH  21  26
ATOM     26  C   UNL A   1      32.237  16.530  25.001  1.00  0.00     0.032 C 
ATOM     27  C   UNL A   1      33.389  15.590  25.343  1.00  0.00     0.009 C 
ENDBRANCH  21  26
ENDBRANCH  13  20
ENDBRANCH   6  12
ENDBRANCH   3   5
ENDBRANCH   2   3
ENDBRANCH   1   2
BRANCH   1  28
ATOM     28  C   UNL A   1      43.061  18.442  25.763  1.00  0.00     0.275 C 
BRANCH  28  29
ATOM     29  O   UNL A   1      43.342  19.282  24.625  1.00  0.00    -0.458 OA
BRANCH  29  30
ATOM     30  C   UNL A   1      44.653  19.552  24.425  1.00  0.00     0.338 C 
ATOM     31  O   UNL A   1      45.492  18.829  23.915  1.00  0.00    -0.246 OA
BRANCH  30  32
ATOM     32  C   UNL A   1      44.916  20.965  24.741  1.00  0.00     0.060 A 
ATOM     33  C   UNL A   1      45.335  21.244  26.040  1.00  0.00     0.016 A 
ATOM     34  C   UNL A   1      44.706  22.003  23.833  1.00  0.00     0.016 A 
ATOM     35  C   UNL A   1      45.586  22.551  26.441  1.00  0.00     0.010 A 
ATOM     36  C   UNL A   1      44.931  23.327  24.243  1.00  0.00     0.010 A 
ATOM     37  C   UNL A   1      45.372  23.608  25.550  1.00  0.00    -0.014 A 
BRANCH  37  38
ATOM     38  C   UNL A   1      45.512  24.998  26.050  1.00  0.00     0.031 A 
ATOM     39  C   UNL A   1      46.830  25.702  25.914  1.00  0.00     0.074 A 
ATOM     40  C   UNL A   1      44.447  25.658  26.542  1.00  0.00     0.049 A 
ATOM     41  N   UNL A   1      47.174  26.908  26.289  1.00  0.00    -0.248 NA
ATOM     42  C   UNL A   1      47.906  24.945  25.256  1.00  0.00     0.031 C 
ATOM     43  C   UNL A   1      43.093  25.117  26.646  1.00  0.00     0.029 A 
ATOM     44  N   UNL A   1      44.336  26.936  27.032  1.00  0.00    -0.354 N 
ATOM     45  C   UNL A   1      48.509  27.047  25.934  1.00  0.00     0.074 A 
ATOM     46  C   UNL A   1      48.917  25.799  25.326  1.00  0.00     0.031 C 
ATOM     47  C   UNL A   1      42.284  26.060  27.158  1.00  0.00     0.029 A 
ATOM     48  C   UNL A   1      43.071  27.254  27.460  1.00  0.00     0.049 A 
ATOM     49  H   UNL A   1      45.093  27.565  27.072  1.00  0.00     0.167 HD
ATOM     50  C   UNL A   1      49.319  28.121  26.099  1.00  0.00     0.037 A 
ATOM     51  C   UNL A   1      42.607  28.375  28.046  1.00  0.00     0.037 A 
ATOM     52  C   UNL A   1      48.905  29.369  26.685  1.00  0.00     0.049 A 
ATOM     53  C   UNL A   1      43.553  29.521  28.302  1.00  0.00     0.074 A 
ATOM     54  C   UNL A   1      49.648  30.520  26.879  1.00  0.00     0.029 A 
ATOM     55  N   UNL A   1      47.634  29.627  27.180  1.00  0.00    -0.354 N 
ATOM     56  N   UNL A   1      44.814  29.646  27.968  1.00  0.00    -0.248 NA
ATOM     57  C   UNL A   1      43.008  30.679  29.026  1.00  0.00     0.031 C 
ATOM     58  C   UNL A   1      48.844  31.455  27.541  1.00  0.00     0.029 A 
ATOM     59  C   UNL A   1      47.582  30.908  27.710  1.00  0.00     0.049 A 
ATOM     60  H   UNL A   1      46.880  28.994  27.159  1.00  0.00     0.167 HD
ATOM     61  C   UNL A   1      45.204  30.904  28.411  1.00  0.00     0.074 A 
ATOM     62  C   UNL A   1      44.042  31.507  29.029  1.00  0.00     0.031 C 
ATOM     63  C   UNL A   1      46.417  31.503  28.314  1.00  0.00     0.037 A 
BRANCH  50  64
ATOM     64  C   UNL A   1      50.753  27.972  25.684  1.00  0.00     0.064 A 
ATOM     65  C   UNL A   1      51.159  28.100  24.347  1.00  0.00     0.173 A 
ATOM     66  C   UNL A   1      51.738  27.706  26.647  1.00  0.00     0.173 A 
ATOM     67  F   UNL A   1      50.255  28.340  23.386  1.00  0.00    -0.203 F 
ATOM     68  C   UNL A   1      52.495  27.934  23.987  1.00  0.00     0.198 A 
ATOM     69  C   UNL A   1      53.077  27.571  26.287  1.00  0.00     0.198 A 
ATOM     70  F   UNL A   1      51.404  27.579  27.940  1.00  0.00    -0.203 F 
ATOM     71  F   UNL A   1      52.853  28.005  22.698  1.00  0.00    -0.200 F 
ATOM     72  C   UNL A   1      53.452  27.675  24.957  1.00  0.00     0.200 A 
ATOM     73  F   UNL A   1      54.000  27.333  27.228  1.00  0.00    -0.200 F 
ATOM     74  F   UNL A   1      54.737  27.517  24.608  1.00  0.00    -0.200 F 
ENDBRANCH  50  64
BRANCH  51  75
ATOM     75  C   UNL A   1      41.179  28.470  28.452  1.00  0.00     0.064 A 
ATOM     76  C   UNL A   1      40.205  28.947  27.564  1.00  0.00     0.173 A 
ATOM     77  C   UNL A   1      40.765  28.114  29.744  1.00  0.00     0.173 A 
ATOM     78  F   UNL A   1      40.558  29.333  26.329  1.00  0.00    -0.203 F 
ATOM     79  C   UNL A   1      38.875  29.079  27.957  1.00  0.00     0.198 A 
ATOM     80  C   UNL A   1      39.428  28.217  30.126  1.00  0.00     0.198 A 
ATOM     81  F   UNL A   1      41.659  27.663  30.637  1.00  0.00    -0.203 F 
ATOM     82  F   UNL A   1      37.973  29.586  27.104  1.00  0.00    -0.200 F 
ATOM     83  C   UNL A   1      38.486  28.707  29.235  1.00  0.00     0.200 A 
ATOM     84  F   UNL A   1      39.057  27.852  31.360  1.00  0.00    -0.200 F 
ATOM     85  F   UNL A   1      37.207  28.834  29.613  1.00  0.00    -0.200 F 
ENDBRANCH  51  75
BRANCH  63  86
ATOM     86  C   UNL A   1      46.542  32.902  28.848  1.00  0.00     0.064 A 
ATOM     87  C   UNL A   1      46.957  33.155  30.163  1.00  0.00     0.173 A 
ATOM     88  C   UNL A   1      46.282  34.004  28.019  1.00  0.00     0.173 A 
ATOM     89  F   UNL A   1      47.204  32.136  31.002  1.00  0.00    -0.203 F 
ATOM     90  C   UNL A   1      47.084  34.459  30.636  1.00  0.00     0.198 A 
ATOM     91  C   UNL A   1      46.440  35.306  28.485  1.00  0.00     0.198 A 
ATOM     92  F   UNL A   1      45.888  33.818  26.750  1.00  0.00    -0.203 F 
ATOM     93  F   UNL A   1      47.436  34.677  31.911  1.00  0.00    -0.200 F 
ATOM     94  C   UNL A   1      46.833  35.533  29.795  1.00  0.00     0.200 A 
ATOM     95  F   UNL A   1      46.211  36.342  27.666  1.00  0.00    -0.200 F 
ATOM     96  F   UNL A   1      46.963  36.787  30.250  1.00  0.00    -0.200 F 
ENDBRANCH  63  86
ENDBRANCH  37  38
ENDBRANCH  30  32
ENDBRANCH  29  30
ENDBRANCH  28  29
ENDBRANCH   1  28
TORSDOF 14
ENDMDL
MODEL 3
REMARK VINA RESULT:     -12.6      5.928     11.344
REMARK SMILES CCc1ccc(/C=C2\C(=O)N(c3ccc(Cl)c(C(=O)OCCOC(=O)c4ccc(-c5c6nc(c(-c7c(F)c(F)c(F)c(F)c7F)c7ccc([nH]7)c(-c7c(F)c(F)c(F)c(F)c7F)c7nc(c(-c8c(F)c(F)c(F)c(F)c8F)c8ccc5[nH]8)C=C7)C=C6)cc4)c3)N=C2C)cc1
REMARK SMILES IDX 21 1 20 2 18 3 19 4 17 5 12 6 13 7 89 8 14 9 15 10 16 11
REMARK SMILES IDX 11 12 7 13 8 14 9 15 91 16 10 17 90 18 92 19 6 20 3 21 4 22
REMARK SMILES IDX 94 23 5 24 93 25 2 26 1 27 22 28 23 29 24 30 25 31 26 32
REMARK SMILES IDX 27 33 88 34 28 35 87 36 29 37 30 38 31 39 81 40 32 41 86 42
REMARK SMILES IDX 80 43 82 44 33 45 85 46 79 47 78 48 34 50 66 51 46 52 65 53
REMARK SMILES IDX 47 54 50 55 64 56 83 57 48 58 49 59 63 61 84 62 51 63 35 64
REMARK SMILES IDX 36 65 44 66 37 67 38 68 42 69 45 70 39 71 40 72 43 73 41 74
REMARK SMILES IDX 67 75 68 76 76 77 69 78 70 79 74 80 77 81 71 82 72 83 75 84
REMARK SMILES IDX 73 85 52 86 53 87 61 88 54 89 55 90 59 91 62 92 56 93 57 94
REMARK SMILES IDX 60 95 58 96
REMARK H PARENT 82 49 50 60
REMARK Flexibility Score: inf
ROOT
ATOM      1  C   UNL A   1      37.799  20.473  24.680  1.00  0.00     0.275 C 
ENDROOT
BRANCH   1   2
ATOM      2  O   UNL A   1      36.465  20.092  25.067  1.00  0.00    -0.458 OA
BRANCH   2   3
ATOM      3  C   UNL A   1      35.630  21.069  25.516  1.00  0.00     0.339 C 
ATOM      4  O   UNL A   1      35.858  21.829  26.439  1.00  0.00    -0.246 OA
BRANCH   3   5
ATOM      5  C   UNL A   1      34.437  21.114  24.624  1.00  0.00     0.080 A 
ATOM      6  C   UNL A   1      32.841  22.490  23.384  1.00  0.00     0.070 A 
ATOM      7  C   UNL A   1      31.990  21.394  23.259  1.00  0.00     0.030 A 
ATOM      8  C   UNL A   1      34.036  22.351  24.102  1.00  0.00     0.045 A 
ATOM      9  C   UNL A   1      32.427  20.136  23.684  1.00  0.00     0.023 A 
ATOM     10  C   UNL A   1      33.671  19.983  24.318  1.00  0.00     0.055 A 
ATOM     11  Cl  UNL A   1      34.155  18.367  24.692  1.00  0.00    -0.083 Cl
BRANCH   6  12
ATOM     12  N   UNL A   1      32.588  23.676  22.675  1.00  0.00    -0.196 N 
ATOM     13  C   UNL A   1      32.493  27.189  22.322  1.00  0.00     0.024 C 
ATOM     14  C   UNL A   1      32.383  25.858  22.209  1.00  0.00     0.065 C 
ATOM     15  C   UNL A   1      32.203  24.871  23.295  1.00  0.00     0.280 C 
ATOM     16  C   UNL A   1      32.677  25.042  21.018  1.00  0.00     0.071 C 
ATOM     17  O   UNL A   1      31.868  25.087  24.446  1.00  0.00    -0.267 OA
ATOM     18  N   UNL A   1      32.880  23.783  21.322  1.00  0.00    -0.169 NA
ATOM     19  C   UNL A   1      32.779  25.600  19.639  1.00  0.00     0.069 C 
BRANCH  13  20
ATOM     20  C   UNL A   1      32.600  27.828  23.640  1.00  0.00    -0.025 A 
ATOM     21  C   UNL A   1      32.772  29.308  26.040  1.00  0.00    -0.048 A 
ATOM     22  C   UNL A   1      33.889  28.629  25.521  1.00  0.00     0.004 A 
ATOM     23  C   UNL A   1      31.560  29.213  25.349  1.00  0.00     0.004 A 
ATOM     24  C   UNL A   1      33.807  27.894  24.331  1.00  0.00     0.008 A 
ATOM     25  C   UNL A   1      31.473  28.475  24.168  1.00  0.00     0.008 A 
BRANCH  21  26
ATOM     26  C   UNL A   1      32.955  30.158  27.278  1.00  0.00     0.032 C 
ATOM     27  C   UNL A   1      34.360  30.687  27.548  1.00  0.00     0.009 C 
ENDBRANCH  21  26
ENDBRANCH  13  20
ENDBRANCH   6  12
ENDBRANCH   3   5
ENDBRANCH   2   3
ENDBRANCH   1   2
BRANCH   1  28
ATOM     28  C   UNL A   1      38.834  19.721  25.523  1.00  0.00     0.275 C 
BRANCH  28  29
ATOM     29  O   UNL A   1      40.021  20.518  25.707  1.00  0.00    -0.458 OA
BRANCH  29  30
ATOM     30  C   UNL A   1      40.526  20.508  26.963  1.00  0.00     0.338 C 
ATOM     31  O   UNL A   1      40.784  19.536  27.654  1.00  0.00    -0.246 OA
BRANCH  30  32
ATOM     32  C   UNL A   1      40.921  21.874  27.344  1.00  0.00     0.060 A 
ATOM     33  C   UNL A   1      40.439  22.907  26.543  1.00  0.00     0.016 A 
ATOM     34  C   UNL A   1      41.783  22.152  28.405  1.00  0.00     0.016 A 
ATOM     35  C   UNL A   1      40.777  24.229  26.808  1.00  0.00     0.010 A 
ATOM     36  C   UNL A   1      42.148  23.483  28.659  1.00  0.00     0.010 A 
ATOM     37  C   UNL A   1      41.647  24.530  27.861  1.00  0.00    -0.014 A 
BRANCH  37  38
ATOM     38  C   UNL A   1      42.100  25.932  28.030  1.00  0.00     0.031 A 
ATOM     39  C   UNL A   1      43.406  26.363  27.428  1.00  0.00     0.074 A 
ATOM     40  C   UNL A   1      41.313  26.836  28.642  1.00  0.00     0.049 A 
ATOM     41  N   UNL A   1      43.994  27.532  27.462  1.00  0.00    -0.248 NA
ATOM     42  C   UNL A   1      44.144  25.338  26.674  1.00  0.00     0.031 C 
ATOM     43  C   UNL A   1      39.986  26.565  29.192  1.00  0.00     0.029 A 
ATOM     44  N   UNL A   1      41.512  28.173  28.888  1.00  0.00    -0.354 N 
ATOM     45  C   UNL A   1      45.180  27.378  26.757  1.00  0.00     0.074 A 
ATOM     46  C   UNL A   1      45.235  26.000  26.317  1.00  0.00     0.031 C 
ATOM     47  C   UNL A   1      39.484  27.703  29.702  1.00  0.00     0.029 A 
ATOM     48  C   UNL A   1      40.472  28.770  29.556  1.00  0.00     0.049 A 
ATOM     49  H   UNL A   1      42.324  28.657  28.611  1.00  0.00     0.167 HD
ATOM     50  C   UNL A   1      46.135  28.304  26.499  1.00  0.00     0.037 A 
ATOM     51  C   UNL A   1      40.342  30.030  30.014  1.00  0.00     0.037 A 
ATOM     52  C   UNL A   1      46.069  29.680  26.919  1.00  0.00     0.049 A 
ATOM     53  C   UNL A   1      41.461  31.016  29.793  1.00  0.00     0.074 A 
ATOM     54  C   UNL A   1      46.978  30.697  26.690  1.00  0.00     0.029 A 
ATOM     55  N   UNL A   1      45.034  30.229  27.663  1.00  0.00    -0.354 N 
ATOM     56  N   UNL A   1      42.581  30.865  29.129  1.00  0.00    -0.248 NA
ATOM     57  C   UNL A   1      41.298  32.348  30.395  1.00  0.00     0.031 C 
ATOM     58  C   UNL A   1      46.523  31.848  27.343  1.00  0.00     0.029 A 
ATOM     59  C   UNL A   1      45.301  31.564  27.931  1.00  0.00     0.049 A 
ATOM     60  H   UNL A   1      44.231  29.744  27.959  1.00  0.00     0.167 HD
ATOM     61  C   UNL A   1      43.239  32.086  29.206  1.00  0.00     0.074 A 
ATOM     62  C   UNL A   1      42.388  32.971  29.973  1.00  0.00     0.031 C 
ATOM     63  C   UNL A   1      44.441  32.440  28.687  1.00  0.00     0.037 A 
BRANCH  50  64
ATOM     64  C   UNL A   1      47.361  27.843  25.766  1.00  0.00     0.064 A 
ATOM     65  C   UNL A   1      48.529  27.454  26.438  1.00  0.00     0.173 A 
ATOM     66  C   UNL A   1      47.358  27.780  24.364  1.00  0.00     0.173 A 
ATOM     67  F   UNL A   1      48.589  27.509  27.777  1.00  0.00    -0.203 F 
ATOM     68  C   UNL A   1      49.660  27.052  25.731  1.00  0.00     0.198 A 
ATOM     69  C   UNL A   1      48.480  27.348  23.662  1.00  0.00     0.198 A 
ATOM     70  F   UNL A   1      46.264  28.136  23.673  1.00  0.00    -0.203 F 
ATOM     71  F   UNL A   1      50.784  26.737  26.391  1.00  0.00    -0.200 F 
ATOM     72  C   UNL A   1      49.633  26.994  24.345  1.00  0.00     0.200 A 
ATOM     73  F   UNL A   1      48.446  27.282  22.325  1.00  0.00    -0.200 F 
ATOM     74  F   UNL A   1      50.722  26.605  23.667  1.00  0.00    -0.200 F 
ENDBRANCH  50  64
BRANCH  51  75
ATOM     75  C   UNL A   1      39.112  30.436  30.746  1.00  0.00     0.064 A 
ATOM     76  C   UNL A   1      38.030  31.022  30.074  1.00  0.00     0.173 A 
ATOM     77  C   UNL A   1      39.006  30.274  32.136  1.00  0.00     0.173 A 
ATOM     78  F   UNL A   1      38.098  31.229  28.751  1.00  0.00    -0.203 F 
ATOM     79  C   UNL A   1      36.896  31.443  30.765  1.00  0.00     0.198 A 
ATOM     80  C   UNL A   1      37.858  30.668  32.821  1.00  0.00     0.198 A 
ATOM     81  F   UNL A   1      40.018  29.731  32.829  1.00  0.00    -0.203 F 
ATOM     82  F   UNL A   1      35.897  32.046  30.105  1.00  0.00    -0.200 F 
ATOM     83  C   UNL A   1      36.808  31.260  32.137  1.00  0.00     0.200 A 
ATOM     84  F   UNL A   1      37.776  30.485  34.146  1.00  0.00    -0.200 F 
ATOM     85  F   UNL A   1      35.718  31.666  32.801  1.00  0.00    -0.200 F 
ENDBRANCH  51  75
BRANCH  63  86
ATOM     86  C   UNL A   1      44.892  33.858  28.892  1.00  0.00     0.064 A 
ATOM     87  C   UNL A   1      45.695  34.228  29.980  1.00  0.00     0.173 A 
ATOM     88  C   UNL A   1      44.549  34.852  27.962  1.00  0.00     0.173 A 
ATOM     89  F   UNL A   1      46.039  33.319  30.906  1.00  0.00    -0.203 F 
ATOM     90  C   UNL A   1      46.118  35.546  30.144  1.00  0.00     0.198 A 
ATOM     91  C   UNL A   1      44.999  36.161  28.112  1.00  0.00     0.198 A 
ATOM     92  F   UNL A   1      43.789  34.551  26.899  1.00  0.00    -0.203 F 
ATOM     93  F   UNL A   1      46.844  35.886  31.217  1.00  0.00    -0.200 F 
ATOM     94  C   UNL A   1      45.776  36.508  29.206  1.00  0.00     0.200 A 
ATOM     95  F   UNL A   1      44.680  37.087  27.197  1.00  0.00    -0.200 F 
ATOM     96  F   UNL A   1      46.191  37.774  29.361  1.00  0.00    -0.200 F 
ENDBRANCH  63  86
ENDBRANCH  37  38
ENDBRANCH  30  32
ENDBRANCH  29  30
ENDBRANCH  28  29
ENDBRANCH   1  28
TORSDOF 14
ENDMDL
