MODEL 1
REMARK VINA RESULT:     -12.9      0.000      0.000
REMARK SMILES Cc1ccc2c(=O)c3cccc(CC(=O)OCCOC(=O)c4ccc(-c5c6nc(c(-c7c(F)c(F)c(F)c(F)c7F)c7ccc([nH]7)c(-c7c(F)c(F)c(F)c(F)c7F)c7nc(c(-c8c(F)c(F)c(F)c(F)c8F)c8ccc5[nH]8)C=C7)C=C6)cc4)c3oc2c1C
REMARK SMILES IDX 18 1 17 2 16 3 14 4 15 5 13 6 12 7 1 8 2 9 3 10 88 11 4 12
REMARK SMILES IDX 87 13 89 14 5 15 86 16 6 17 85 18 7 19 8 20 9 21 11 22 10 23
REMARK SMILES IDX 19 24 20 25 21 26 22 27 23 28 84 29 24 30 83 31 25 32 26 33
REMARK SMILES IDX 27 34 77 35 28 36 82 37 76 38 78 39 29 40 81 41 75 42 74 43
REMARK SMILES IDX 30 45 62 46 42 47 61 48 43 49 46 50 60 51 79 52 44 53 45 54
REMARK SMILES IDX 59 56 80 57 47 58 31 59 32 60 40 61 33 62 34 63 38 64 41 65
REMARK SMILES IDX 35 66 36 67 39 68 37 69 63 70 64 71 72 72 65 73 66 74 70 75
REMARK SMILES IDX 73 76 67 77 68 78 71 79 69 80 48 81 49 82 57 83 50 84 51 85
REMARK SMILES IDX 55 86 58 87 52 88 53 89 56 90 54 91
REMARK H PARENT 78 44 46 55
REMARK Flexibility Score: inf
ROOT
ATOM      1  C   UNL A   1      31.801  30.864  25.963  1.00  0.00     0.275 C 
ENDROOT
BRANCH   1   2
ATOM      2  C   UNL A   1      31.999  29.580  25.149  1.00  0.00     0.274 C 
BRANCH   2   3
ATOM      3  O   UNL A   1      33.389  29.202  25.061  1.00  0.00    -0.462 OA
BRANCH   3   4
ATOM      4  C   UNL A   1      33.631  27.905  24.746  1.00  0.00     0.310 C 
ATOM      5  O   UNL A   1      33.934  27.513  23.621  1.00  0.00    -0.252 OA
BRANCH   4   6
ATOM      6  C   UNL A   1      33.623  26.958  25.923  1.00  0.00     0.162 C 
BRANCH   6   7
ATOM      7  C   UNL A   1      32.600  25.851  25.947  1.00  0.00     0.007 A 
ATOM      8  C   UNL A   1      37.907  20.906  25.003  1.00  0.00     0.045 C 
ATOM      9  C   UNL A   1      36.442  21.259  25.032  1.00  0.00    -0.044 A 
ATOM     10  C   UNL A   1      35.492  20.230  25.005  1.00  0.00     0.005 A 
ATOM     11  C   UNL A   1      36.007  22.605  25.089  1.00  0.00    -0.005 A 
ATOM     12  C   UNL A   1      34.133  20.524  25.070  1.00  0.00     0.016 A 
ATOM     13  C   UNL A   1      34.633  22.895  25.224  1.00  0.00     0.141 A 
ATOM     14  C   UNL A   1      37.027  23.704  25.031  1.00  0.00     0.049 C 
ATOM     15  C   UNL A   1      33.713  21.850  25.196  1.00  0.00     0.066 A 
ATOM     16  O   UNL A   1      34.256  24.214  25.384  1.00  0.00    -0.455 OA
ATOM     17  C   UNL A   1      32.284  22.159  25.308  1.00  0.00     0.200 A 
ATOM     18  C   UNL A   1      32.937  24.513  25.654  1.00  0.00     0.142 A 
ATOM     19  O   UNL A   1      31.428  21.294  25.173  1.00  0.00    -0.288 OA
ATOM     20  C   UNL A   1      31.927  23.553  25.604  1.00  0.00     0.066 A 
ATOM     21  C   UNL A   1      30.590  23.897  25.827  1.00  0.00     0.016 A 
ATOM     22  C   UNL A   1      31.255  26.185  26.192  1.00  0.00     0.008 A 
ATOM     23  C   UNL A   1      30.256  25.215  26.125  1.00  0.00     0.001 A 
ENDBRANCH   6   7
ENDBRANCH   4   6
ENDBRANCH   3   4
ENDBRANCH   2   3
ENDBRANCH   1   2
BRANCH   1  24
ATOM     24  O   UNL A   1      32.458  30.806  27.246  1.00  0.00    -0.458 OA
BRANCH  24  25
ATOM     25  C   UNL A   1      33.310  31.831  27.459  1.00  0.00     0.338 C 
ATOM     26  O   UNL A   1      33.050  33.022  27.388  1.00  0.00    -0.246 OA
BRANCH  25  27
ATOM     27  C   UNL A   1      34.648  31.365  27.850  1.00  0.00     0.060 A 
ATOM     28  C   UNL A   1      35.671  32.295  28.038  1.00  0.00     0.016 A 
ATOM     29  C   UNL A   1      34.799  30.048  28.293  1.00  0.00     0.016 A 
ATOM     30  C   UNL A   1      36.848  31.901  28.685  1.00  0.00     0.010 A 
ATOM     31  C   UNL A   1      35.947  29.671  28.985  1.00  0.00     0.010 A 
ATOM     32  C   UNL A   1      36.985  30.592  29.176  1.00  0.00    -0.014 A 
BRANCH  32  33
ATOM     33  C   UNL A   1      38.250  30.149  29.809  1.00  0.00     0.031 A 
ATOM     34  C   UNL A   1      38.597  30.679  31.168  1.00  0.00     0.074 A 
ATOM     35  C   UNL A   1      39.083  29.298  29.183  1.00  0.00     0.049 A 
ATOM     36  N   UNL A   1      39.575  30.332  31.964  1.00  0.00    -0.248 NA
ATOM     37  C   UNL A   1      37.730  31.742  31.703  1.00  0.00     0.031 C 
ATOM     38  C   UNL A   1      38.888  28.756  27.840  1.00  0.00     0.029 A 
ATOM     39  N   UNL A   1      40.266  28.738  29.599  1.00  0.00    -0.354 N 
ATOM     40  C   UNL A   1      39.405  31.092  33.110  1.00  0.00     0.074 A 
ATOM     41  C   UNL A   1      38.291  31.982  32.877  1.00  0.00     0.031 C 
ATOM     42  C   UNL A   1      39.910  27.934  27.543  1.00  0.00     0.029 A 
ATOM     43  C   UNL A   1      40.823  27.879  28.682  1.00  0.00     0.049 A 
ATOM     44  H   UNL A   1      40.677  28.934  30.472  1.00  0.00     0.167 HD
ATOM     45  C   UNL A   1      40.088  31.019  34.275  1.00  0.00     0.037 A 
ATOM     46  C   UNL A   1      41.928  27.115  28.771  1.00  0.00     0.037 A 
ATOM     47  C   UNL A   1      41.216  30.163  34.500  1.00  0.00     0.049 A 
ATOM     48  C   UNL A   1      42.719  27.108  30.053  1.00  0.00     0.074 A 
ATOM     49  C   UNL A   1      41.971  30.011  35.648  1.00  0.00     0.029 A 
ATOM     50  N   UNL A   1      41.759  29.320  33.543  1.00  0.00    -0.354 N 
ATOM     51  N   UNL A   1      42.482  27.745  31.172  1.00  0.00    -0.248 NA
ATOM     52  C   UNL A   1      43.918  26.256  30.089  1.00  0.00     0.031 C 
ATOM     53  C   UNL A   1      42.991  29.091  35.377  1.00  0.00     0.029 A 
ATOM     54  C   UNL A   1      42.851  28.654  34.069  1.00  0.00     0.049 A 
ATOM     55  H   UNL A   1      41.418  29.212  32.626  1.00  0.00     0.167 HD
ATOM     56  C   UNL A   1      43.473  27.342  32.057  1.00  0.00     0.074 A 
ATOM     57  C   UNL A   1      44.320  26.409  31.344  1.00  0.00     0.031 C 
ATOM     58  C   UNL A   1      43.661  27.708  33.348  1.00  0.00     0.037 A 
BRANCH  45  59
ATOM     59  C   UNL A   1      39.587  31.865  35.402  1.00  0.00     0.064 A 
ATOM     60  C   UNL A   1      38.622  31.367  36.290  1.00  0.00     0.173 A 
ATOM     61  C   UNL A   1      40.063  33.167  35.601  1.00  0.00     0.173 A 
ATOM     62  F   UNL A   1      38.124  30.132  36.122  1.00  0.00    -0.203 F 
ATOM     63  C   UNL A   1      38.139  32.149  37.333  1.00  0.00     0.198 A 
ATOM     64  C   UNL A   1      39.589  33.941  36.656  1.00  0.00     0.198 A 
ATOM     65  F   UNL A   1      40.979  33.686  34.771  1.00  0.00    -0.203 F 
ATOM     66  F   UNL A   1      37.192  31.667  38.148  1.00  0.00    -0.200 F 
ATOM     67  C   UNL A   1      38.625  33.435  37.516  1.00  0.00     0.200 A 
ATOM     68  F   UNL A   1      40.057  35.184  36.834  1.00  0.00    -0.200 F 
ATOM     69  F   UNL A   1      38.158  34.191  38.520  1.00  0.00    -0.200 F 
ENDBRANCH  45  59
BRANCH  46  70
ATOM     70  C   UNL A   1      42.322  26.230  27.645  1.00  0.00     0.064 A 
ATOM     71  C   UNL A   1      41.746  24.960  27.501  1.00  0.00     0.173 A 
ATOM     72  C   UNL A   1      43.299  26.615  26.719  1.00  0.00     0.173 A 
ATOM     73  F   UNL A   1      40.824  24.541  28.380  1.00  0.00    -0.203 F 
ATOM     74  C   UNL A   1      42.147  24.100  26.482  1.00  0.00     0.198 A 
ATOM     75  C   UNL A   1      43.689  25.759  25.689  1.00  0.00     0.198 A 
ATOM     76  F   UNL A   1      43.883  27.819  26.818  1.00  0.00    -0.203 F 
ATOM     77  F   UNL A   1      41.609  22.875  26.391  1.00  0.00    -0.200 F 
ATOM     78  C   UNL A   1      43.118  24.500  25.576  1.00  0.00     0.200 A 
ATOM     79  F   UNL A   1      44.627  26.147  24.815  1.00  0.00    -0.200 F 
ATOM     80  F   UNL A   1      43.511  23.667  24.602  1.00  0.00    -0.200 F 
ENDBRANCH  46  70
BRANCH  58  81
ATOM     81  C   UNL A   1      44.793  27.073  34.090  1.00  0.00     0.064 A 
ATOM     82  C   UNL A   1      46.049  27.689  34.171  1.00  0.00     0.173 A 
ATOM     83  C   UNL A   1      44.593  25.878  34.797  1.00  0.00     0.173 A 
ATOM     84  F   UNL A   1      46.288  28.826  33.500  1.00  0.00    -0.203 F 
ATOM     85  C   UNL A   1      47.069  27.128  34.933  1.00  0.00     0.198 A 
ATOM     86  C   UNL A   1      45.610  25.330  35.572  1.00  0.00     0.198 A 
ATOM     87  F   UNL A   1      43.406  25.256  34.751  1.00  0.00    -0.203 F 
ATOM     88  F   UNL A   1      48.270  27.722  34.983  1.00  0.00    -0.200 F 
ATOM     89  C   UNL A   1      46.847  25.954  35.639  1.00  0.00     0.200 A 
ATOM     90  F   UNL A   1      45.391  24.202  36.262  1.00  0.00    -0.200 F 
ATOM     91  F   UNL A   1      47.826  25.425  36.386  1.00  0.00    -0.200 F 
ENDBRANCH  58  81
ENDBRANCH  32  33
ENDBRANCH  25  27
ENDBRANCH  24  25
ENDBRANCH   1  24
TORSDOF 12
ENDMDL
MODEL 2
REMARK VINA RESULT:     -12.7      4.343      9.825
REMARK SMILES Cc1ccc2c(=O)c3cccc(CC(=O)OCCOC(=O)c4ccc(-c5c6nc(c(-c7c(F)c(F)c(F)c(F)c7F)c7ccc([nH]7)c(-c7c(F)c(F)c(F)c(F)c7F)c7nc(c(-c8c(F)c(F)c(F)c(F)c8F)c8ccc5[nH]8)C=C7)C=C6)cc4)c3oc2c1C
REMARK SMILES IDX 18 1 17 2 16 3 14 4 15 5 13 6 12 7 1 8 2 9 3 10 88 11 4 12
REMARK SMILES IDX 87 13 89 14 5 15 86 16 6 17 85 18 7 19 8 20 9 21 11 22 10 23
REMARK SMILES IDX 19 24 20 25 21 26 22 27 23 28 84 29 24 30 83 31 25 32 26 33
REMARK SMILES IDX 27 34 77 35 28 36 82 37 76 38 78 39 29 40 81 41 75 42 74 43
REMARK SMILES IDX 30 45 62 46 42 47 61 48 43 49 46 50 60 51 79 52 44 53 45 54
REMARK SMILES IDX 59 56 80 57 47 58 31 59 32 60 40 61 33 62 34 63 38 64 41 65
REMARK SMILES IDX 35 66 36 67 39 68 37 69 63 70 64 71 72 72 65 73 66 74 70 75
REMARK SMILES IDX 73 76 67 77 68 78 71 79 69 80 48 81 49 82 57 83 50 84 51 85
REMARK SMILES IDX 55 86 58 87 52 88 53 89 56 90 54 91
REMARK H PARENT 78 44 46 55
REMARK Flexibility Score: inf
ROOT
ATOM      1  C   UNL A   1      38.261  20.192  25.153  1.00  0.00     0.275 C 
ENDROOT
BRANCH   1   2
ATOM      2  C   UNL A   1      37.085  20.956  24.531  1.00  0.00     0.274 C 
BRANCH   2   3
ATOM      3  O   UNL A   1      37.418  22.332  24.254  1.00  0.00    -0.462 OA
BRANCH   3   4
ATOM      4  C   UNL A   1      36.369  23.162  24.029  1.00  0.00     0.310 C 
ATOM      5  O   UNL A   1      35.762  23.234  22.963  1.00  0.00    -0.252 OA
BRANCH   4   6
ATOM      6  C   UNL A   1      35.902  23.930  25.243  1.00  0.00     0.162 C 
BRANCH   6   7
ATOM      7  C   UNL A   1      34.676  23.444  25.973  1.00  0.00     0.007 A 
ATOM      8  C   UNL A   1      30.580  28.321  22.376  1.00  0.00     0.045 C 
ATOM      9  C   UNL A   1      30.736  27.314  23.487  1.00  0.00    -0.044 A 
ATOM     10  C   UNL A   1      29.602  26.900  24.196  1.00  0.00     0.005 A 
ATOM     11  C   UNL A   1      32.002  26.777  23.824  1.00  0.00    -0.005 A 
ATOM     12  C   UNL A   1      29.710  25.942  25.200  1.00  0.00     0.016 A 
ATOM     13  C   UNL A   1      32.098  25.758  24.795  1.00  0.00     0.141 A 
ATOM     14  C   UNL A   1      33.223  27.290  23.118  1.00  0.00     0.049 C 
ATOM     15  C   UNL A   1      30.952  25.366  25.482  1.00  0.00     0.066 A 
ATOM     16  O   UNL A   1      33.333  25.184  25.021  1.00  0.00    -0.455 OA
ATOM     17  C   UNL A   1      31.061  24.326  26.509  1.00  0.00     0.200 A 
ATOM     18  C   UNL A   1      33.430  24.096  25.862  1.00  0.00     0.142 A 
ATOM     19  O   UNL A   1      30.111  24.025  27.222  1.00  0.00    -0.288 OA
ATOM     20  C   UNL A   1      32.358  23.649  26.635  1.00  0.00     0.066 A 
ATOM     21  C   UNL A   1      32.503  22.578  27.522  1.00  0.00     0.016 A 
ATOM     22  C   UNL A   1      34.807  22.352  26.851  1.00  0.00     0.008 A 
ATOM     23  C   UNL A   1      33.729  21.927  27.626  1.00  0.00     0.001 A 
ENDBRANCH   6   7
ENDBRANCH   4   6
ENDBRANCH   3   4
ENDBRANCH   2   3
ENDBRANCH   1   2
BRANCH   1  24
ATOM     24  O   UNL A   1      38.677  20.759  26.412  1.00  0.00    -0.458 OA
BRANCH  24  25
ATOM     25  C   UNL A   1      40.011  20.947  26.500  1.00  0.00     0.338 C 
ATOM     26  O   UNL A   1      40.882  20.159  26.166  1.00  0.00    -0.246 OA
BRANCH  25  27
ATOM     27  C   UNL A   1      40.347  22.278  27.024  1.00  0.00     0.060 A 
ATOM     28  C   UNL A   1      41.329  22.400  28.010  1.00  0.00     0.016 A 
ATOM     29  C   UNL A   1      39.889  23.406  26.339  1.00  0.00     0.016 A 
ATOM     30  C   UNL A   1      41.858  23.663  28.300  1.00  0.00     0.010 A 
ATOM     31  C   UNL A   1      40.455  24.654  26.590  1.00  0.00     0.010 A 
ATOM     32  C   UNL A   1      41.436  24.793  27.580  1.00  0.00    -0.014 A 
BRANCH  32  33
ATOM     33  C   UNL A   1      41.947  26.142  27.920  1.00  0.00     0.031 A 
ATOM     34  C   UNL A   1      43.335  26.514  27.489  1.00  0.00     0.074 A 
ATOM     35  C   UNL A   1      41.196  27.020  28.610  1.00  0.00     0.049 A 
ATOM     36  N   UNL A   1      43.937  27.673  27.558  1.00  0.00    -0.248 NA
ATOM     37  C   UNL A   1      44.154  25.440  26.904  1.00  0.00     0.031 C 
ATOM     38  C   UNL A   1      39.857  26.760  29.134  1.00  0.00     0.029 A 
ATOM     39  N   UNL A   1      41.456  28.313  28.991  1.00  0.00    -0.354 N 
ATOM     40  C   UNL A   1      45.179  27.478  26.976  1.00  0.00     0.074 A 
ATOM     41  C   UNL A   1      45.284  26.076  26.641  1.00  0.00     0.031 C 
ATOM     42  C   UNL A   1      39.407  27.861  29.760  1.00  0.00     0.029 A 
ATOM     43  C   UNL A   1      40.420  28.909  29.667  1.00  0.00     0.049 A 
ATOM     44  H   UNL A   1      42.306  28.770  28.797  1.00  0.00     0.167 HD
ATOM     45  C   UNL A   1      46.130  28.399  26.699  1.00  0.00     0.037 A 
ATOM     46  C   UNL A   1      40.296  30.169  30.129  1.00  0.00     0.037 A 
ATOM     47  C   UNL A   1      46.046  29.784  27.060  1.00  0.00     0.049 A 
ATOM     48  C   UNL A   1      41.403  31.158  29.876  1.00  0.00     0.074 A 
ATOM     49  C   UNL A   1      46.954  30.798  26.817  1.00  0.00     0.029 A 
ATOM     50  N   UNL A   1      44.988  30.346  27.757  1.00  0.00    -0.354 N 
ATOM     51  N   UNL A   1      42.526  30.992  29.222  1.00  0.00    -0.248 NA
ATOM     52  C   UNL A   1      41.214  32.517  30.407  1.00  0.00     0.031 C 
ATOM     53  C   UNL A   1      46.456  31.973  27.392  1.00  0.00     0.029 A 
ATOM     54  C   UNL A   1      45.226  31.692  27.969  1.00  0.00     0.049 A 
ATOM     55  H   UNL A   1      44.187  29.859  28.058  1.00  0.00     0.167 HD
ATOM     56  C   UNL A   1      43.156  32.229  29.225  1.00  0.00     0.074 A 
ATOM     57  C   UNL A   1      42.294  33.138  29.953  1.00  0.00     0.031 C 
ATOM     58  C   UNL A   1      44.340  32.582  28.670  1.00  0.00     0.037 A 
BRANCH  45  59
ATOM     59  C   UNL A   1      47.319  27.924  25.925  1.00  0.00     0.064 A 
ATOM     60  C   UNL A   1      47.266  27.833  24.526  1.00  0.00     0.173 A 
ATOM     61  C   UNL A   1      48.508  27.563  26.569  1.00  0.00     0.173 A 
ATOM     62  F   UNL A   1      46.138  28.150  23.871  1.00  0.00    -0.203 F 
ATOM     63  C   UNL A   1      48.360  27.380  23.798  1.00  0.00     0.198 A 
ATOM     64  C   UNL A   1      49.607  27.126  25.835  1.00  0.00     0.198 A 
ATOM     65  F   UNL A   1      48.600  27.627  27.905  1.00  0.00    -0.203 F 
ATOM     66  F   UNL A   1      48.276  27.266  22.466  1.00  0.00    -0.200 F 
ATOM     67  C   UNL A   1      49.531  27.030  24.453  1.00  0.00     0.200 A 
ATOM     68  F   UNL A   1      50.739  26.786  26.467  1.00  0.00    -0.200 F 
ATOM     69  F   UNL A   1      50.585  26.591  23.752  1.00  0.00    -0.200 F 
ENDBRANCH  45  59
BRANCH  46  70
ATOM     70  C   UNL A   1      39.051  30.599  30.813  1.00  0.00     0.064 A 
ATOM     71  C   UNL A   1      38.934  30.507  32.207  1.00  0.00     0.173 A 
ATOM     72  C   UNL A   1      37.947  31.073  30.093  1.00  0.00     0.173 A 
ATOM     73  F   UNL A   1      39.958  30.036  32.934  1.00  0.00    -0.203 F 
ATOM     74  C   UNL A   1      37.752  30.857  32.855  1.00  0.00     0.198 A 
ATOM     75  C   UNL A   1      36.768  31.437  30.744  1.00  0.00     0.198 A 
ATOM     76  F   UNL A   1      38.008  31.174  28.757  1.00  0.00    -0.203 F 
ATOM     77  F   UNL A   1      37.654  30.720  34.185  1.00  0.00    -0.200 F 
ATOM     78  C   UNL A   1      36.670  31.322  32.124  1.00  0.00     0.200 A 
ATOM     79  F   UNL A   1      35.724  31.887  30.036  1.00  0.00    -0.200 F 
ATOM     80  F   UNL A   1      35.528  31.647  32.746  1.00  0.00    -0.200 F 
ENDBRANCH  46  70
BRANCH  58  81
ATOM     81  C   UNL A   1      44.759  34.013  28.784  1.00  0.00     0.064 A 
ATOM     82  C   UNL A   1      45.604  34.446  29.815  1.00  0.00     0.173 A 
ATOM     83  C   UNL A   1      44.379  34.941  27.803  1.00  0.00     0.173 A 
ATOM     84  F   UNL A   1      45.982  33.594  30.780  1.00  0.00    -0.203 F 
ATOM     85  C   UNL A   1      46.052  35.762  29.862  1.00  0.00     0.198 A 
ATOM     86  C   UNL A   1      44.844  36.252  27.844  1.00  0.00     0.198 A 
ATOM     87  F   UNL A   1      43.574  34.570  26.797  1.00  0.00    -0.203 F 
ATOM     88  F   UNL A   1      46.845  36.162  30.866  1.00  0.00    -0.200 F 
ATOM     89  C   UNL A   1      45.679  36.661  28.873  1.00  0.00     0.200 A 
ATOM     90  F   UNL A   1      44.491  37.117  26.883  1.00  0.00    -0.200 F 
ATOM     91  F   UNL A   1      46.126  37.924  28.912  1.00  0.00    -0.200 F 
ENDBRANCH  58  81
ENDBRANCH  32  33
ENDBRANCH  25  27
ENDBRANCH  24  25
ENDBRANCH   1  24
TORSDOF 12
ENDMDL
MODEL 3
REMARK VINA RESULT:     -12.7      1.628      2.238
REMARK SMILES Cc1ccc2c(=O)c3cccc(CC(=O)OCCOC(=O)c4ccc(-c5c6nc(c(-c7c(F)c(F)c(F)c(F)c7F)c7ccc([nH]7)c(-c7c(F)c(F)c(F)c(F)c7F)c7nc(c(-c8c(F)c(F)c(F)c(F)c8F)c8ccc5[nH]8)C=C7)C=C6)cc4)c3oc2c1C
REMARK SMILES IDX 18 1 17 2 16 3 14 4 15 5 13 6 12 7 1 8 2 9 3 10 88 11 4 12
REMARK SMILES IDX 87 13 89 14 5 15 86 16 6 17 85 18 7 19 8 20 9 21 11 22 10 23
REMARK SMILES IDX 19 24 20 25 21 26 22 27 23 28 84 29 24 30 83 31 25 32 26 33
REMARK SMILES IDX 27 34 77 35 28 36 82 37 76 38 78 39 29 40 81 41 75 42 74 43
REMARK SMILES IDX 30 45 62 46 42 47 61 48 43 49 46 50 60 51 79 52 44 53 45 54
REMARK SMILES IDX 59 56 80 57 47 58 31 59 32 60 40 61 33 62 34 63 38 64 41 65
REMARK SMILES IDX 35 66 36 67 39 68 37 69 63 70 64 71 72 72 65 73 66 74 70 75
REMARK SMILES IDX 73 76 67 77 68 78 71 79 69 80 48 81 49 82 57 83 50 84 51 85
REMARK SMILES IDX 55 86 58 87 52 88 53 89 56 90 54 91
REMARK H PARENT 78 44 46 55
REMARK Flexibility Score: inf
ROOT
ATOM      1  C   UNL A   1      31.801  32.222  27.085  1.00  0.00     0.275 C 
ENDROOT
BRANCH   1   2
ATOM      2  C   UNL A   1      31.781  30.764  26.610  1.00  0.00     0.274 C 
BRANCH   2   3
ATOM      3  O   UNL A   1      32.751  29.953  27.307  1.00  0.00    -0.462 OA
BRANCH   3   4
ATOM      4  C   UNL A   1      32.568  28.611  27.228  1.00  0.00     0.310 C 
ATOM      5  O   UNL A   1      31.568  28.026  27.641  1.00  0.00    -0.252 OA
BRANCH   4   6
ATOM      6  C   UNL A   1      33.645  27.871  26.471  1.00  0.00     0.162 C 
BRANCH   6   7
ATOM      7  C   UNL A   1      33.535  27.779  24.971  1.00  0.00     0.007 A 
ATOM      8  C   UNL A   1      32.456  20.562  25.478  1.00  0.00     0.045 C 
ATOM      9  C   UNL A   1      32.746  21.783  24.643  1.00  0.00    -0.044 A 
ATOM     10  C   UNL A   1      32.690  21.683  23.247  1.00  0.00     0.005 A 
ATOM     11  C   UNL A   1      33.068  23.027  25.239  1.00  0.00    -0.005 A 
ATOM     12  C   UNL A   1      32.914  22.803  22.451  1.00  0.00     0.016 A 
ATOM     13  C   UNL A   1      33.227  24.173  24.432  1.00  0.00     0.141 A 
ATOM     14  C   UNL A   1      33.210  23.105  26.730  1.00  0.00     0.049 C 
ATOM     15  C   UNL A   1      33.164  24.042  23.047  1.00  0.00     0.066 A 
ATOM     16  O   UNL A   1      33.434  25.387  25.055  1.00  0.00    -0.455 OA
ATOM     17  C   UNL A   1      33.357  25.231  22.212  1.00  0.00     0.200 A 
ATOM     18  C   UNL A   1      33.456  26.540  24.300  1.00  0.00     0.142 A 
ATOM     19  O   UNL A   1      33.427  25.154  20.992  1.00  0.00    -0.288 OA
ATOM     20  C   UNL A   1      33.448  26.522  22.905  1.00  0.00     0.066 A 
ATOM     21  C   UNL A   1      33.528  27.707  22.166  1.00  0.00     0.016 A 
ATOM     22  C   UNL A   1      33.592  28.967  24.219  1.00  0.00     0.008 A 
ATOM     23  C   UNL A   1      33.596  28.930  22.825  1.00  0.00     0.001 A 
ENDBRANCH   6   7
ENDBRANCH   4   6
ENDBRANCH   3   4
ENDBRANCH   2   3
ENDBRANCH   1   2
BRANCH   1  24
ATOM     24  O   UNL A   1      33.116  32.806  27.006  1.00  0.00    -0.458 OA
BRANCH  24  25
ATOM     25  C   UNL A   1      33.393  33.647  28.025  1.00  0.00     0.338 C 
ATOM     26  O   UNL A   1      32.752  34.635  28.350  1.00  0.00    -0.246 OA
BRANCH  25  27
ATOM     27  C   UNL A   1      34.576  33.223  28.786  1.00  0.00     0.060 A 
ATOM     28  C   UNL A   1      34.437  32.276  29.803  1.00  0.00     0.016 A 
ATOM     29  C   UNL A   1      35.843  33.557  28.300  1.00  0.00     0.016 A 
ATOM     30  C   UNL A   1      35.577  31.657  30.326  1.00  0.00     0.010 A 
ATOM     31  C   UNL A   1      36.972  32.900  28.784  1.00  0.00     0.010 A 
ATOM     32  C   UNL A   1      36.849  31.953  29.808  1.00  0.00    -0.014 A 
BRANCH  32  33
ATOM     33  C   UNL A   1      38.066  31.346  30.396  1.00  0.00     0.031 A 
ATOM     34  C   UNL A   1      38.474  31.751  31.781  1.00  0.00     0.074 A 
ATOM     35  C   UNL A   1      38.804  30.455  29.708  1.00  0.00     0.049 A 
ATOM     36  N   UNL A   1      39.416  31.258  32.541  1.00  0.00    -0.248 NA
ATOM     37  C   UNL A   1      37.722  32.861  32.391  1.00  0.00     0.031 C 
ATOM     38  C   UNL A   1      38.548  30.022  28.337  1.00  0.00     0.029 A 
ATOM     39  N   UNL A   1      39.927  29.754  30.073  1.00  0.00    -0.354 N 
ATOM     40  C   UNL A   1      39.332  31.958  33.734  1.00  0.00     0.074 A 
ATOM     41  C   UNL A   1      38.312  32.969  33.570  1.00  0.00     0.031 C 
ATOM     42  C   UNL A   1      39.479  29.121  27.976  1.00  0.00     0.029 A 
ATOM     43  C   UNL A   1      40.388  28.903  29.098  1.00  0.00     0.049 A 
ATOM     44  H   UNL A   1      40.361  29.852  30.951  1.00  0.00     0.167 HD
ATOM     45  C   UNL A   1      40.011  31.743  34.884  1.00  0.00     0.037 A 
ATOM     46  C   UNL A   1      41.411  28.027  29.125  1.00  0.00     0.037 A 
ATOM     47  C   UNL A   1      41.048  30.764  35.041  1.00  0.00     0.049 A 
ATOM     48  C   UNL A   1      42.204  27.859  30.394  1.00  0.00     0.074 A 
ATOM     49  C   UNL A   1      41.791  30.465  36.168  1.00  0.00     0.029 A 
ATOM     50  N   UNL A   1      41.496  29.933  34.027  1.00  0.00    -0.354 N 
ATOM     51  N   UNL A   1      42.041  28.446  31.554  1.00  0.00    -0.248 NA
ATOM     52  C   UNL A   1      43.312  26.890  30.362  1.00  0.00     0.031 C 
ATOM     53  C   UNL A   1      42.710  29.466  35.828  1.00  0.00     0.029 A 
ATOM     54  C   UNL A   1      42.518  29.128  34.496  1.00  0.00     0.049 A 
ATOM     55  H   UNL A   1      41.140  29.918  33.109  1.00  0.00     0.167 HD
ATOM     56  C   UNL A   1      42.991  27.890  32.400  1.00  0.00     0.074 A 
ATOM     57  C   UNL A   1      43.734  26.923  31.619  1.00  0.00     0.031 C 
ATOM     58  C   UNL A   1      43.223  28.153  33.708  1.00  0.00     0.037 A 
BRANCH  45  59
ATOM     59  C   UNL A   1      39.605  32.563  36.067  1.00  0.00     0.064 A 
ATOM     60  C   UNL A   1      38.568  32.132  36.908  1.00  0.00     0.173 A 
ATOM     61  C   UNL A   1      40.245  33.771  36.367  1.00  0.00     0.173 A 
ATOM     62  F   UNL A   1      37.915  30.989  36.643  1.00  0.00    -0.203 F 
ATOM     63  C   UNL A   1      38.173  32.893  38.002  1.00  0.00     0.198 A 
ATOM     64  C   UNL A   1      39.858  34.522  37.474  1.00  0.00     0.198 A 
ATOM     65  F   UNL A   1      41.235  34.224  35.586  1.00  0.00    -0.203 F 
ATOM     66  F   UNL A   1      37.156  32.481  38.771  1.00  0.00    -0.200 F 
ATOM     67  C   UNL A   1      38.821  34.086  38.286  1.00  0.00     0.200 A 
ATOM     68  F   UNL A   1      40.482  35.675  37.749  1.00  0.00    -0.200 F 
ATOM     69  F   UNL A   1      38.439  34.821  39.340  1.00  0.00    -0.200 F 
ENDBRANCH  45  59
BRANCH  46  70
ATOM     70  C   UNL A   1      41.705  27.179  27.942  1.00  0.00     0.064 A 
ATOM     71  C   UNL A   1      41.083  25.934  27.784  1.00  0.00     0.173 A 
ATOM     72  C   UNL A   1      42.634  27.575  26.971  1.00  0.00     0.173 A 
ATOM     73  F   UNL A   1      40.205  25.504  28.702  1.00  0.00    -0.203 F 
ATOM     74  C   UNL A   1      41.392  25.106  26.707  1.00  0.00     0.198 A 
ATOM     75  C   UNL A   1      42.932  26.752  25.885  1.00  0.00     0.198 A 
ATOM     76  F   UNL A   1      43.260  28.756  27.082  1.00  0.00    -0.203 F 
ATOM     77  F   UNL A   1      40.812  23.902  26.602  1.00  0.00    -0.200 F 
ATOM     78  C   UNL A   1      42.316  25.516  25.758  1.00  0.00     0.200 A 
ATOM     79  F   UNL A   1      43.825  27.151  24.969  1.00  0.00    -0.200 F 
ATOM     80  F   UNL A   1      42.622  24.714  24.728  1.00  0.00    -0.200 F 
ENDBRANCH  46  70
BRANCH  58  81
ATOM     81  C   UNL A   1      44.290  27.361  34.395  1.00  0.00     0.064 A 
ATOM     82  C   UNL A   1      45.601  27.844  34.504  1.00  0.00     0.173 A 
ATOM     83  C   UNL A   1      43.975  26.147  35.023  1.00  0.00     0.173 A 
ATOM     84  F   UNL A   1      45.948  28.995  33.908  1.00  0.00    -0.203 F 
ATOM     85  C   UNL A   1      46.563  27.135  35.217  1.00  0.00     0.198 A 
ATOM     86  C   UNL A   1      44.936  25.451  35.750  1.00  0.00     0.198 A 
ATOM     87  F   UNL A   1      42.732  25.649  34.948  1.00  0.00    -0.203 F 
ATOM     88  F   UNL A   1      47.817  27.604  35.295  1.00  0.00    -0.200 F 
ATOM     89  C   UNL A   1      46.228  25.945  35.846  1.00  0.00     0.200 A 
ATOM     90  F   UNL A   1      44.609  24.306  36.365  1.00  0.00    -0.200 F 
ATOM     91  F   UNL A   1      47.153  25.273  36.546  1.00  0.00    -0.200 F 
ENDBRANCH  58  81
ENDBRANCH  32  33
ENDBRANCH  25  27
ENDBRANCH  24  25
ENDBRANCH   1  24
TORSDOF 12
ENDMDL
