MODEL 1
REMARK VINA RESULT:     -12.8      0.000      0.000
REMARK SMILES O=C(OCCOC(=O)c1ccc(N2CNC(c3ccccc3)=[NH+]C2=S)cc1)c1ccc(-c2c3nc(c(-c4c(F)c(F)c(F)c(F)c4F)c4ccc([nH]4)c(-c4c(F)c(F)c(F)c(F)c4F)c4nc(c(-c5c(F)c(F)c(F)c(F)c5F)c5ccc2[nH]5)C=C4)C=C3)cc1
REMARK SMILES IDX 4 1 3 2 2 3 1 4 28 5 29 6 90 7 30 8 89 9 31 10 32 11 33 12
REMARK SMILES IDX 83 13 34 14 88 15 82 16 84 17 35 18 87 19 81 20 80 21 36 23
REMARK SMILES IDX 68 24 48 25 67 26 49 27 52 28 66 29 85 30 50 31 51 32 65 34
REMARK SMILES IDX 86 35 53 36 37 37 38 38 46 39 39 40 40 41 44 42 47 43 41 44
REMARK SMILES IDX 42 45 45 46 43 47 69 48 70 49 78 50 71 51 72 52 76 53 79 54
REMARK SMILES IDX 73 55 74 56 77 57 75 58 54 59 55 60 63 61 56 62 57 63 61 64
REMARK SMILES IDX 64 65 58 66 59 67 62 68 60 69 5 70 6 71 7 72 8 73 9 74 10 75
REMARK SMILES IDX 27 76 11 77 26 78 12 79 13 80 14 81 24 82 15 83 23 84 25 85
REMARK SMILES IDX 16 86 17 89 18 90 22 91 19 92 21 93 20 94
REMARK H PARENT 84 22 52 33 15 87 23 88
REMARK Flexibility Score: inf
ROOT
ATOM      1  C   UNL A   1      31.499  32.086  27.199  1.00  0.00     0.275 C 
ENDROOT
BRANCH   1   2
ATOM      2  O   UNL A   1      32.464  33.140  27.060  1.00  0.00    -0.458 OA
BRANCH   2   3
ATOM      3  C   UNL A   1      33.149  33.822  28.007  1.00  0.00     0.338 C 
ATOM      4  O   UNL A   1      32.778  34.960  28.295  1.00  0.00    -0.246 OA
BRANCH   3   5
ATOM      5  C   UNL A   1      34.412  33.328  28.642  1.00  0.00     0.060 A 
ATOM      6  C   UNL A   1      35.643  33.989  28.673  1.00  0.00     0.016 A 
ATOM      7  C   UNL A   1      34.338  32.066  29.253  1.00  0.00     0.016 A 
ATOM      8  C   UNL A   1      36.739  33.457  29.356  1.00  0.00     0.010 A 
ATOM      9  C   UNL A   1      35.434  31.526  29.927  1.00  0.00     0.010 A 
ATOM     10  C   UNL A   1      36.642  32.221  29.991  1.00  0.00    -0.014 A 
BRANCH  10  11
ATOM     11  C   UNL A   1      37.848  31.602  30.580  1.00  0.00     0.031 A 
ATOM     12  C   UNL A   1      38.241  31.995  31.971  1.00  0.00     0.074 A 
ATOM     13  C   UNL A   1      38.534  30.660  29.908  1.00  0.00     0.049 A 
ATOM     14  N   UNL A   1      39.174  31.495  32.738  1.00  0.00    -0.248 NA
ATOM     15  C   UNL A   1      37.454  33.070  32.595  1.00  0.00     0.031 C 
ATOM     16  C   UNL A   1      38.197  30.165  28.577  1.00  0.00     0.029 A 
ATOM     17  N   UNL A   1      39.650  29.941  30.254  1.00  0.00    -0.354 N 
ATOM     18  C   UNL A   1      39.061  32.173  33.943  1.00  0.00     0.074 A 
ATOM     19  C   UNL A   1      38.020  33.163  33.787  1.00  0.00     0.031 C 
ATOM     20  C   UNL A   1      39.097  29.240  28.204  1.00  0.00     0.029 A 
ATOM     21  C   UNL A   1      40.072  29.074  29.276  1.00  0.00     0.049 A 
ATOM     22  H   UNL A   1      40.104  30.036  31.122  1.00  0.00     0.167 HD
ATOM     23  C   UNL A   1      39.748  31.964  35.091  1.00  0.00     0.037 A 
ATOM     24  C   UNL A   1      41.125  28.234  29.260  1.00  0.00     0.037 A 
ATOM     25  C   UNL A   1      40.810  31.006  35.217  1.00  0.00     0.049 A 
ATOM     26  C   UNL A   1      41.960  28.113  30.509  1.00  0.00     0.074 A 
ATOM     27  C   UNL A   1      41.588  30.715  36.321  1.00  0.00     0.029 A 
ATOM     28  N   UNL A   1      41.262  30.198  34.181  1.00  0.00    -0.354 N 
ATOM     29  N   UNL A   1      41.804  28.706  31.668  1.00  0.00    -0.248 NA
ATOM     30  C   UNL A   1      43.098  27.185  30.459  1.00  0.00     0.031 C 
ATOM     31  C   UNL A   1      42.546  29.770  35.938  1.00  0.00     0.029 A 
ATOM     32  C   UNL A   1      42.329  29.428  34.611  1.00  0.00     0.049 A 
ATOM     33  H   UNL A   1      40.879  30.176  33.274  1.00  0.00     0.167 HD
ATOM     34  C   UNL A   1      42.788  28.191  32.499  1.00  0.00     0.074 A 
ATOM     35  C   UNL A   1      43.535  27.233  31.709  1.00  0.00     0.031 C 
ATOM     36  C   UNL A   1      43.045  28.474  33.801  1.00  0.00     0.037 A 
BRANCH  23  37
ATOM     37  C   UNL A   1      39.372  32.817  36.263  1.00  0.00     0.064 A 
ATOM     38  C   UNL A   1      39.967  34.071  36.481  1.00  0.00     0.173 A 
ATOM     39  C   UNL A   1      38.445  32.358  37.211  1.00  0.00     0.173 A 
ATOM     40  F   UNL A   1      40.877  34.546  35.616  1.00  0.00    -0.203 F 
ATOM     41  C   UNL A   1      39.682  34.812  37.624  1.00  0.00     0.198 A 
ATOM     42  C   UNL A   1      38.140  33.116  38.339  1.00  0.00     0.198 A 
ATOM     43  F   UNL A   1      37.849  31.168  37.052  1.00  0.00    -0.203 F 
ATOM     44  F   UNL A   1      40.314  35.974  37.844  1.00  0.00    -0.200 F 
ATOM     45  C   UNL A   1      38.767  34.335  38.551  1.00  0.00     0.200 A 
ATOM     46  F   UNL A   1      37.251  32.657  39.231  1.00  0.00    -0.200 F 
ATOM     47  F   UNL A   1      38.501  35.044  39.657  1.00  0.00    -0.200 F 
ENDBRANCH  23  37
BRANCH  24  48
ATOM     48  C   UNL A   1      41.424  27.421  28.050  1.00  0.00     0.064 A 
ATOM     49  C   UNL A   1      42.237  27.917  27.023  1.00  0.00     0.173 A 
ATOM     50  C   UNL A   1      40.887  26.134  27.889  1.00  0.00     0.173 A 
ATOM     51  F   UNL A   1      42.768  29.144  27.122  1.00  0.00    -0.203 F 
ATOM     52  C   UNL A   1      42.480  27.171  25.869  1.00  0.00     0.198 A 
ATOM     53  C   UNL A   1      41.149  25.381  26.747  1.00  0.00     0.198 A 
ATOM     54  F   UNL A   1      40.115  25.600  28.847  1.00  0.00    -0.203 F 
ATOM     55  F   UNL A   1      43.228  27.688  24.884  1.00  0.00    -0.200 F 
ATOM     56  C   UNL A   1      41.938  25.902  25.732  1.00  0.00     0.200 A 
ATOM     57  F   UNL A   1      40.638  24.147  26.629  1.00  0.00    -0.200 F 
ATOM     58  F   UNL A   1      42.172  25.185  24.626  1.00  0.00    -0.200 F 
ENDBRANCH  24  48
BRANCH  36  59
ATOM     59  C   UNL A   1      44.150  27.703  34.461  1.00  0.00     0.064 A 
ATOM     60  C   UNL A   1      45.454  28.212  34.551  1.00  0.00     0.173 A 
ATOM     61  C   UNL A   1      43.886  26.456  35.048  1.00  0.00     0.173 A 
ATOM     62  F   UNL A   1      45.760  29.390  33.989  1.00  0.00    -0.203 F 
ATOM     63  C   UNL A   1      46.460  27.485  35.182  1.00  0.00     0.198 A 
ATOM     64  C   UNL A   1      44.886  25.750  35.708  1.00  0.00     0.198 A 
ATOM     65  F   UNL A   1      42.654  25.930  34.994  1.00  0.00    -0.203 F 
ATOM     66  F   UNL A   1      47.712  27.965  35.209  1.00  0.00    -0.200 F 
ATOM     67  C   UNL A   1      46.174  26.261  35.766  1.00  0.00     0.200 A 
ATOM     68  F   UNL A   1      44.605  24.574  36.286  1.00  0.00    -0.200 F 
ATOM     69  F   UNL A   1      47.143  25.568  36.381  1.00  0.00    -0.200 F 
ENDBRANCH  36  59
ENDBRANCH  10  11
ENDBRANCH   3   5
ENDBRANCH   2   3
ENDBRANCH   1   2
BRANCH   1  70
ATOM     70  C   UNL A   1      31.630  30.951  26.176  1.00  0.00     0.275 C 
BRANCH  70  71
ATOM     71  O   UNL A   1      31.761  29.642  26.757  1.00  0.00    -0.458 OA
BRANCH  71  72
ATOM     72  C   UNL A   1      33.002  29.094  26.658  1.00  0.00     0.338 C 
ATOM     73  O   UNL A   1      34.064  29.659  26.860  1.00  0.00    -0.246 OA
BRANCH  72  74
ATOM     74  C   UNL A   1      32.904  27.649  26.361  1.00  0.00     0.060 A 
ATOM     75  C   UNL A   1      34.041  26.984  25.895  1.00  0.00     0.019 A 
ATOM     76  C   UNL A   1      31.707  26.949  26.501  1.00  0.00     0.019 A 
ATOM     77  C   UNL A   1      33.995  25.608  25.622  1.00  0.00     0.044 A 
ATOM     78  C   UNL A   1      31.657  25.580  26.187  1.00  0.00     0.044 A 
ATOM     79  C   UNL A   1      32.808  24.882  25.776  1.00  0.00     0.103 A 
BRANCH  79  80
ATOM     80  N   UNL A   1      32.741  23.485  25.452  1.00  0.00    -0.219 N 
ATOM     81  C   UNL A   1      32.195  23.143  24.157  1.00  0.00     0.405 C 
ATOM     82  C   UNL A   1      33.023  22.426  26.338  1.00  0.00     0.297 C 
ATOM     83  N   UNL A   1      32.783  21.925  23.690  1.00  0.00    -0.274 N 
ATOM     84  N   UNL A   1      33.018  21.138  25.858  1.00  0.00    -0.236 N 
ATOM     85  S   UNL A   1      33.342  22.587  27.994  1.00  0.00    -0.005 S 
ATOM     86  C   UNL A   1      32.979  20.924  24.587  1.00  0.00     0.229 C 
ATOM     87  H   UNL A   1      33.039  21.817  22.746  1.00  0.00     0.260 HD
ATOM     88  H   UNL A   1      33.045  20.379  26.484  1.00  0.00     0.268 HD
BRANCH  86  89
ATOM     89  C   UNL A   1      33.152  19.524  24.122  1.00  0.00     0.047 A 
ATOM     90  C   UNL A   1      34.202  18.750  24.626  1.00  0.00     0.015 A 
ATOM     91  C   UNL A   1      32.309  19.012  23.131  1.00  0.00     0.015 A 
ATOM     92  C   UNL A   1      34.403  17.457  24.145  1.00  0.00     0.001 A 
ATOM     93  C   UNL A   1      32.525  17.722  22.642  1.00  0.00     0.001 A 
ATOM     94  C   UNL A   1      33.567  16.946  23.151  1.00  0.00     0.000 A 
ENDBRANCH  86  89
ENDBRANCH  79  80
ENDBRANCH  72  74
ENDBRANCH  71  72
ENDBRANCH  70  71
ENDBRANCH   1  70
TORSDOF 13
ENDMDL
MODEL 2
REMARK VINA RESULT:     -12.8      1.361      2.267
REMARK SMILES O=C(OCCOC(=O)c1ccc(N2CNC(c3ccccc3)=[NH+]C2=S)cc1)c1ccc(-c2c3nc(c(-c4c(F)c(F)c(F)c(F)c4F)c4ccc([nH]4)c(-c4c(F)c(F)c(F)c(F)c4F)c4nc(c(-c5c(F)c(F)c(F)c(F)c5F)c5ccc2[nH]5)C=C4)C=C3)cc1
REMARK SMILES IDX 4 1 3 2 2 3 1 4 28 5 29 6 90 7 30 8 89 9 31 10 32 11 33 12
REMARK SMILES IDX 83 13 34 14 88 15 82 16 84 17 35 18 87 19 81 20 80 21 36 23
REMARK SMILES IDX 68 24 48 25 67 26 49 27 52 28 66 29 85 30 50 31 51 32 65 34
REMARK SMILES IDX 86 35 53 36 37 37 38 38 46 39 39 40 40 41 44 42 47 43 41 44
REMARK SMILES IDX 42 45 45 46 43 47 69 48 70 49 78 50 71 51 72 52 76 53 79 54
REMARK SMILES IDX 73 55 74 56 77 57 75 58 54 59 55 60 63 61 56 62 57 63 61 64
REMARK SMILES IDX 64 65 58 66 59 67 62 68 60 69 5 70 6 71 7 72 8 73 9 74 10 75
REMARK SMILES IDX 27 76 11 77 26 78 12 79 13 80 14 81 24 82 15 83 23 84 25 85
REMARK SMILES IDX 16 86 17 89 18 90 22 91 19 92 21 93 20 94
REMARK H PARENT 84 22 52 33 15 87 23 88
REMARK Flexibility Score: inf
ROOT
ATOM      1  C   UNL A   1      31.844  30.875  26.804  1.00  0.00     0.275 C 
ENDROOT
BRANCH   1   2
ATOM      2  O   UNL A   1      32.763  31.970  26.659  1.00  0.00    -0.458 OA
BRANCH   2   3
ATOM      3  C   UNL A   1      33.549  32.573  27.580  1.00  0.00     0.338 C 
ATOM      4  O   UNL A   1      33.325  33.749  27.864  1.00  0.00    -0.246 OA
BRANCH   3   5
ATOM      5  C   UNL A   1      34.760  31.936  28.188  1.00  0.00     0.060 A 
ATOM      6  C   UNL A   1      34.866  30.621  28.650  1.00  0.00     0.016 A 
ATOM      7  C   UNL A   1      35.891  32.759  28.310  1.00  0.00     0.016 A 
ATOM      8  C   UNL A   1      36.073  30.115  29.140  1.00  0.00     0.010 A 
ATOM      9  C   UNL A   1      37.095  32.260  28.809  1.00  0.00     0.010 A 
ATOM     10  C   UNL A   1      37.198  30.932  29.220  1.00  0.00    -0.014 A 
BRANCH  10  11
ATOM     11  C   UNL A   1      38.424  30.430  29.877  1.00  0.00     0.031 A 
ATOM     12  C   UNL A   1      38.728  30.898  31.267  1.00  0.00     0.074 A 
ATOM     13  C   UNL A   1      39.207  29.522  29.267  1.00  0.00     0.049 A 
ATOM     14  N   UNL A   1      39.665  30.499  32.087  1.00  0.00    -0.248 NA
ATOM     15  C   UNL A   1      37.836  31.929  31.821  1.00  0.00     0.031 C 
ATOM     16  C   UNL A   1      38.964  28.958  27.942  1.00  0.00     0.029 A 
ATOM     17  N   UNL A   1      40.360  28.905  29.681  1.00  0.00    -0.354 N 
ATOM     18  C   UNL A   1      39.451  31.207  33.261  1.00  0.00     0.074 A 
ATOM     19  C   UNL A   1      38.343  32.105  33.029  1.00  0.00     0.031 C 
ATOM     20  C   UNL A   1      39.947  28.095  27.638  1.00  0.00     0.029 A 
ATOM     21  C   UNL A   1      40.888  28.042  28.752  1.00  0.00     0.049 A 
ATOM     22  H   UNL A   1      40.770  29.065  30.561  1.00  0.00     0.167 HD
ATOM     23  C   UNL A   1      40.104  31.091  34.440  1.00  0.00     0.037 A 
ATOM     24  C   UNL A   1      42.002  27.287  28.807  1.00  0.00     0.037 A 
ATOM     25  C   UNL A   1      41.232  30.224  34.642  1.00  0.00     0.049 A 
ATOM     26  C   UNL A   1      42.793  27.274  30.090  1.00  0.00     0.074 A 
ATOM     27  C   UNL A   1      41.984  30.033  35.785  1.00  0.00     0.029 A 
ATOM     28  N   UNL A   1      41.786  29.419  33.654  1.00  0.00    -0.354 N 
ATOM     29  N   UNL A   1      42.543  27.892  31.220  1.00  0.00    -0.248 NA
ATOM     30  C   UNL A   1      44.000  26.438  30.117  1.00  0.00     0.031 C 
ATOM     31  C   UNL A   1      43.027  29.153  35.473  1.00  0.00     0.029 A 
ATOM     32  C   UNL A   1      42.891  28.751  34.152  1.00  0.00     0.049 A 
ATOM     33  H   UNL A   1      41.443  29.337  32.735  1.00  0.00     0.167 HD
ATOM     34  C   UNL A   1      43.530  27.484  32.106  1.00  0.00     0.074 A 
ATOM     35  C   UNL A   1      44.381  26.562  31.380  1.00  0.00     0.031 C 
ATOM     36  C   UNL A   1      43.711  27.830  33.406  1.00  0.00     0.037 A 
BRANCH  23  37
ATOM     37  C   UNL A   1      39.616  31.951  35.566  1.00  0.00     0.064 A 
ATOM     38  C   UNL A   1      38.612  31.510  36.445  1.00  0.00     0.173 A 
ATOM     39  C   UNL A   1      40.116  33.249  35.740  1.00  0.00     0.173 A 
ATOM     40  F   UNL A   1      38.084  30.284  36.307  1.00  0.00    -0.203 F 
ATOM     41  C   UNL A   1      38.098  32.353  37.427  1.00  0.00     0.198 A 
ATOM     42  C   UNL A   1      39.620  34.079  36.742  1.00  0.00     0.198 A 
ATOM     43  F   UNL A   1      41.073  33.719  34.927  1.00  0.00    -0.203 F 
ATOM     44  F   UNL A   1      37.094  31.934  38.209  1.00  0.00    -0.200 F 
ATOM     45  C   UNL A   1      38.604  33.636  37.576  1.00  0.00     0.200 A 
ATOM     46  F   UNL A   1      40.113  35.317  36.889  1.00  0.00    -0.200 F 
ATOM     47  F   UNL A   1      38.101  34.451  38.514  1.00  0.00    -0.200 F 
ENDBRANCH  23  37
BRANCH  24  48
ATOM     48  C   UNL A   1      42.412  26.460  27.640  1.00  0.00     0.064 A 
ATOM     49  C   UNL A   1      41.860  25.192  27.416  1.00  0.00     0.173 A 
ATOM     50  C   UNL A   1      43.380  26.916  26.731  1.00  0.00     0.173 A 
ATOM     51  F   UNL A   1      40.938  24.705  28.259  1.00  0.00    -0.203 F 
ATOM     52  C   UNL A   1      42.278  24.400  26.346  1.00  0.00     0.198 A 
ATOM     53  C   UNL A   1      43.780  26.134  25.650  1.00  0.00     0.198 A 
ATOM     54  F   UNL A   1      43.932  28.129  26.885  1.00  0.00    -0.203 F 
ATOM     55  F   UNL A   1      41.762  23.175  26.181  1.00  0.00    -0.200 F 
ATOM     56  C   UNL A   1      43.236  24.872  25.462  1.00  0.00     0.200 A 
ATOM     57  F   UNL A   1      44.693  26.603  24.788  1.00  0.00    -0.200 F 
ATOM     58  F   UNL A   1      43.637  24.113  24.435  1.00  0.00    -0.200 F 
ENDBRANCH  24  48
BRANCH  36  59
ATOM     59  C   UNL A   1      44.844  27.171  34.135  1.00  0.00     0.064 A 
ATOM     60  C   UNL A   1      46.114  27.762  34.217  1.00  0.00     0.173 A 
ATOM     61  C   UNL A   1      44.642  25.950  34.796  1.00  0.00     0.173 A 
ATOM     62  F   UNL A   1      46.362  28.919  33.586  1.00  0.00    -0.203 F 
ATOM     63  C   UNL A   1      47.147  27.140  34.912  1.00  0.00     0.198 A 
ATOM     64  C   UNL A   1      45.667  25.349  35.519  1.00  0.00     0.198 A 
ATOM     65  F   UNL A   1      43.444  25.347  34.752  1.00  0.00    -0.203 F 
ATOM     66  F   UNL A   1      48.366  27.695  34.932  1.00  0.00    -0.200 F 
ATOM     67  C   UNL A   1      46.920  25.940  35.569  1.00  0.00     0.200 A 
ATOM     68  F   UNL A   1      45.442  24.197  36.166  1.00  0.00    -0.200 F 
ATOM     69  F   UNL A   1      47.914  25.347  36.245  1.00  0.00    -0.200 F 
ENDBRANCH  36  59
ENDBRANCH  10  11
ENDBRANCH   3   5
ENDBRANCH   2   3
ENDBRANCH   1   2
BRANCH   1  70
ATOM     70  C   UNL A   1      31.933  29.807  25.708  1.00  0.00     0.275 C 
BRANCH  70  71
ATOM     71  O   UNL A   1      33.206  29.142  25.630  1.00  0.00    -0.458 OA
BRANCH  71  72
ATOM     72  C   UNL A   1      33.444  28.499  24.456  1.00  0.00     0.338 C 
ATOM     73  O   UNL A   1      33.685  29.018  23.378  1.00  0.00    -0.246 OA
BRANCH  72  74
ATOM     74  C   UNL A   1      33.475  27.035  24.668  1.00  0.00     0.060 A 
ATOM     75  C   UNL A   1      33.623  26.202  23.556  1.00  0.00     0.019 A 
ATOM     76  C   UNL A   1      33.328  26.473  25.935  1.00  0.00     0.019 A 
ATOM     77  C   UNL A   1      33.679  24.810  23.717  1.00  0.00     0.044 A 
ATOM     78  C   UNL A   1      33.344  25.076  26.084  1.00  0.00     0.044 A 
ATOM     79  C   UNL A   1      33.554  24.225  24.983  1.00  0.00     0.103 A 
BRANCH  79  80
ATOM     80  N   UNL A   1      33.561  22.799  25.150  1.00  0.00    -0.219 N 
ATOM     81  C   UNL A   1      32.272  22.149  25.247  1.00  0.00     0.405 C 
ATOM     82  C   UNL A   1      34.707  22.007  25.372  1.00  0.00     0.297 C 
ATOM     83  N   UNL A   1      32.363  20.818  24.731  1.00  0.00    -0.274 N 
ATOM     84  N   UNL A   1      34.572  20.640  25.409  1.00  0.00    -0.236 N 
ATOM     85  S   UNL A   1      36.271  22.596  25.642  1.00  0.00    -0.005 S 
ATOM     86  C   UNL A   1      33.471  20.089  25.028  1.00  0.00     0.229 C 
ATOM     87  H   UNL A   1      31.642  20.440  24.177  1.00  0.00     0.260 HD
ATOM     88  H   UNL A   1      35.318  20.081  25.727  1.00  0.00     0.268 HD
BRANCH  86  89
ATOM     89  C   UNL A   1      33.444  18.608  24.924  1.00  0.00     0.047 A 
ATOM     90  C   UNL A   1      32.554  17.874  25.714  1.00  0.00     0.015 A 
ATOM     91  C   UNL A   1      34.356  17.953  24.092  1.00  0.00     0.015 A 
ATOM     92  C   UNL A   1      32.569  16.480  25.664  1.00  0.00     0.001 A 
ATOM     93  C   UNL A   1      34.377  16.557  24.057  1.00  0.00     0.001 A 
ATOM     94  C   UNL A   1      33.483  15.824  24.839  1.00  0.00     0.000 A 
ENDBRANCH  86  89
ENDBRANCH  79  80
ENDBRANCH  72  74
ENDBRANCH  71  72
ENDBRANCH  70  71
ENDBRANCH   1  70
TORSDOF 13
ENDMDL
MODEL 3
REMARK VINA RESULT:     -12.7      0.758      2.162
REMARK SMILES O=C(OCCOC(=O)c1ccc(N2CNC(c3ccccc3)=[NH+]C2=S)cc1)c1ccc(-c2c3nc(c(-c4c(F)c(F)c(F)c(F)c4F)c4ccc([nH]4)c(-c4c(F)c(F)c(F)c(F)c4F)c4nc(c(-c5c(F)c(F)c(F)c(F)c5F)c5ccc2[nH]5)C=C4)C=C3)cc1
REMARK SMILES IDX 4 1 3 2 2 3 1 4 28 5 29 6 90 7 30 8 89 9 31 10 32 11 33 12
REMARK SMILES IDX 83 13 34 14 88 15 82 16 84 17 35 18 87 19 81 20 80 21 36 23
REMARK SMILES IDX 68 24 48 25 67 26 49 27 52 28 66 29 85 30 50 31 51 32 65 34
REMARK SMILES IDX 86 35 53 36 37 37 38 38 46 39 39 40 40 41 44 42 47 43 41 44
REMARK SMILES IDX 42 45 45 46 43 47 69 48 70 49 78 50 71 51 72 52 76 53 79 54
REMARK SMILES IDX 73 55 74 56 77 57 75 58 54 59 55 60 63 61 56 62 57 63 61 64
REMARK SMILES IDX 64 65 58 66 59 67 62 68 60 69 5 70 6 71 7 72 8 73 9 74 10 75
REMARK SMILES IDX 27 76 11 77 26 78 12 79 13 80 14 81 24 82 15 83 23 84 25 85
REMARK SMILES IDX 16 86 17 89 18 90 22 91 19 92 21 93 20 94
REMARK H PARENT 84 22 52 33 15 87 23 88
REMARK Flexibility Score: inf
ROOT
ATOM      1  C   UNL A   1      31.799  32.087  26.958  1.00  0.00     0.275 C 
ENDROOT
BRANCH   1   2
ATOM      2  O   UNL A   1      32.591  33.283  27.032  1.00  0.00    -0.458 OA
BRANCH   2   3
ATOM      3  C   UNL A   1      33.222  33.845  28.088  1.00  0.00     0.338 C 
ATOM      4  O   UNL A   1      32.771  34.892  28.552  1.00  0.00    -0.246 OA
BRANCH   3   5
ATOM      5  C   UNL A   1      34.512  33.339  28.655  1.00  0.00     0.060 A 
ATOM      6  C   UNL A   1      35.799  33.721  28.265  1.00  0.00     0.016 A 
ATOM      7  C   UNL A   1      34.401  32.376  29.670  1.00  0.00     0.016 A 
ATOM      8  C   UNL A   1      36.934  33.228  28.915  1.00  0.00     0.010 A 
ATOM      9  C   UNL A   1      35.533  31.874  30.314  1.00  0.00     0.010 A 
ATOM     10  C   UNL A   1      36.808  32.302  29.947  1.00  0.00    -0.014 A 
BRANCH  10  11
ATOM     11  C   UNL A   1      38.018  31.677  30.523  1.00  0.00     0.031 A 
ATOM     12  C   UNL A   1      38.442  32.087  31.900  1.00  0.00     0.074 A 
ATOM     13  C   UNL A   1      38.679  30.715  29.854  1.00  0.00     0.049 A 
ATOM     14  N   UNL A   1      39.383  31.588  32.657  1.00  0.00    -0.248 NA
ATOM     15  C   UNL A   1      37.681  33.182  32.521  1.00  0.00     0.031 C 
ATOM     16  C   UNL A   1      38.311  30.204  28.537  1.00  0.00     0.029 A 
ATOM     17  N   UNL A   1      39.792  29.988  30.190  1.00  0.00    -0.354 N 
ATOM     18  C   UNL A   1      39.302  32.287  33.853  1.00  0.00     0.074 A 
ATOM     19  C   UNL A   1      38.270  33.286  33.701  1.00  0.00     0.031 C 
ATOM     20  C   UNL A   1      39.191  29.261  28.162  1.00  0.00     0.029 A 
ATOM     21  C   UNL A   1      40.185  29.101  29.218  1.00  0.00     0.049 A 
ATOM     22  H   UNL A   1      40.264  30.091  31.048  1.00  0.00     0.167 HD
ATOM     23  C   UNL A   1      40.008  32.087  34.990  1.00  0.00     0.037 A 
ATOM     24  C   UNL A   1      41.227  28.247  29.196  1.00  0.00     0.037 A 
ATOM     25  C   UNL A   1      41.061  31.118  35.112  1.00  0.00     0.049 A 
ATOM     26  C   UNL A   1      42.085  28.136  30.431  1.00  0.00     0.074 A 
ATOM     27  C   UNL A   1      41.856  30.835  36.206  1.00  0.00     0.029 A 
ATOM     28  N   UNL A   1      41.482  30.287  34.081  1.00  0.00    -0.354 N 
ATOM     29  N   UNL A   1      41.957  28.749  31.583  1.00  0.00    -0.248 NA
ATOM     30  C   UNL A   1      43.209  27.193  30.374  1.00  0.00     0.031 C 
ATOM     31  C   UNL A   1      42.795  29.871  35.820  1.00  0.00     0.029 A 
ATOM     32  C   UNL A   1      42.548  29.511  34.503  1.00  0.00     0.049 A 
ATOM     33  H   UNL A   1      41.082  30.256  33.182  1.00  0.00     0.167 HD
ATOM     34  C   UNL A   1      42.951  28.235  32.403  1.00  0.00     0.074 A 
ATOM     35  C   UNL A   1      43.671  27.255  31.615  1.00  0.00     0.031 C 
ATOM     36  C   UNL A   1      43.237  28.536  33.695  1.00  0.00     0.037 A 
BRANCH  23  37
ATOM     37  C   UNL A   1      39.665  32.964  36.156  1.00  0.00     0.064 A 
ATOM     38  C   UNL A   1      38.624  32.636  37.041  1.00  0.00     0.173 A 
ATOM     39  C   UNL A   1      40.347  34.172  36.364  1.00  0.00     0.173 A 
ATOM     40  F   UNL A   1      37.926  31.502  36.872  1.00  0.00    -0.203 F 
ATOM     41  C   UNL A   1      38.251  33.505  38.063  1.00  0.00     0.198 A 
ATOM     42  C   UNL A   1      39.989  35.025  37.406  1.00  0.00     0.198 A 
ATOM     43  F   UNL A   1      41.347  34.533  35.547  1.00  0.00    -0.203 F 
ATOM     44  F   UNL A   1      37.211  33.202  38.852  1.00  0.00    -0.200 F 
ATOM     45  C   UNL A   1      38.936  34.697  38.245  1.00  0.00     0.200 A 
ATOM     46  F   UNL A   1      40.656  36.174  37.585  1.00  0.00    -0.200 F 
ATOM     47  F   UNL A   1      38.568  35.538  39.222  1.00  0.00    -0.200 F 
ENDBRANCH  23  37
BRANCH  24  48
ATOM     48  C   UNL A   1      41.493  27.411  27.994  1.00  0.00     0.064 A 
ATOM     49  C   UNL A   1      40.951  26.125  27.868  1.00  0.00     0.173 A 
ATOM     50  C   UNL A   1      42.310  27.877  26.952  1.00  0.00     0.173 A 
ATOM     51  F   UNL A   1      40.172  25.627  28.839  1.00  0.00    -0.203 F 
ATOM     52  C   UNL A   1      41.238  25.326  26.761  1.00  0.00     0.198 A 
ATOM     53  C   UNL A   1      42.576  27.087  25.836  1.00  0.00     0.198 A 
ATOM     54  F   UNL A   1      42.841  29.107  27.010  1.00  0.00    -0.203 F 
ATOM     55  F   UNL A   1      40.740  24.084  26.687  1.00  0.00    -0.200 F 
ATOM     56  C   UNL A   1      42.048  25.807  25.744  1.00  0.00     0.200 A 
ATOM     57  F   UNL A   1      43.344  27.566  24.847  1.00  0.00    -0.200 F 
ATOM     58  F   UNL A   1      42.322  25.042  24.680  1.00  0.00    -0.200 F 
ENDBRANCH  24  48
BRANCH  36  59
ATOM     59  C   UNL A   1      44.344  27.762  34.346  1.00  0.00     0.064 A 
ATOM     60  C   UNL A   1      44.125  26.502  34.924  1.00  0.00     0.173 A 
ATOM     61  C   UNL A   1      45.651  28.273  34.354  1.00  0.00     0.173 A 
ATOM     62  F   UNL A   1      42.890  25.980  34.958  1.00  0.00    -0.203 F 
ATOM     63  C   UNL A   1      45.172  25.794  35.509  1.00  0.00     0.198 A 
ATOM     64  C   UNL A   1      46.700  27.547  34.909  1.00  0.00     0.198 A 
ATOM     65  F   UNL A   1      45.913  29.470  33.810  1.00  0.00    -0.203 F 
ATOM     66  F   UNL A   1      44.930  24.618  36.103  1.00  0.00    -0.200 F 
ATOM     67  C   UNL A   1      46.457  26.313  35.493  1.00  0.00     0.200 A 
ATOM     68  F   UNL A   1      47.945  28.041  34.880  1.00  0.00    -0.200 F 
ATOM     69  F   UNL A   1      47.465  25.625  36.050  1.00  0.00    -0.200 F 
ENDBRANCH  36  59
ENDBRANCH  10  11
ENDBRANCH   3   5
ENDBRANCH   2   3
ENDBRANCH   1   2
BRANCH   1  70
ATOM     70  C   UNL A   1      32.590  30.805  26.677  1.00  0.00     0.275 C 
BRANCH  70  71
ATOM     71  O   UNL A   1      31.786  29.613  26.614  1.00  0.00    -0.458 OA
BRANCH  71  72
ATOM     72  C   UNL A   1      31.356  29.280  25.367  1.00  0.00     0.338 C 
ATOM     73  O   UNL A   1      30.956  30.046  24.507  1.00  0.00    -0.246 OA
BRANCH  72  74
ATOM     74  C   UNL A   1      31.529  27.830  25.134  1.00  0.00     0.060 A 
ATOM     75  C   UNL A   1      30.516  27.133  24.470  1.00  0.00     0.019 A 
ATOM     76  C   UNL A   1      32.654  27.142  25.587  1.00  0.00     0.019 A 
ATOM     77  C   UNL A   1      30.652  25.761  24.212  1.00  0.00     0.044 A 
ATOM     78  C   UNL A   1      32.765  25.760  25.360  1.00  0.00     0.044 A 
ATOM     79  C   UNL A   1      31.783  25.056  24.639  1.00  0.00     0.103 A 
BRANCH  79  80
ATOM     80  N   UNL A   1      31.907  23.642  24.420  1.00  0.00    -0.219 N 
ATOM     81  C   UNL A   1      32.299  23.222  23.093  1.00  0.00     0.405 C 
ATOM     82  C   UNL A   1      31.543  22.638  25.339  1.00  0.00     0.297 C 
ATOM     83  N   UNL A   1      33.025  21.991  23.170  1.00  0.00    -0.274 N 
ATOM     84  N   UNL A   1      31.817  21.326  25.033  1.00  0.00    -0.236 N 
ATOM     85  S   UNL A   1      30.743  22.894  26.810  1.00  0.00    -0.005 S 
ATOM     86  C   UNL A   1      32.587  21.042  24.039  1.00  0.00     0.229 C 
ATOM     87  H   UNL A   1      33.819  21.836  22.609  1.00  0.00     0.260 HD
ATOM     88  H   UNL A   1      31.424  20.602  25.574  1.00  0.00     0.268 HD
BRANCH  86  89
ATOM     89  C   UNL A   1      32.986  19.623  23.863  1.00  0.00     0.047 A 
ATOM     90  C   UNL A   1      34.055  19.107  24.603  1.00  0.00     0.015 A 
ATOM     91  C   UNL A   1      32.340  18.832  22.909  1.00  0.00     0.015 A 
ATOM     92  C   UNL A   1      34.472  17.793  24.395  1.00  0.00     0.001 A 
ATOM     93  C   UNL A   1      32.772  17.522  22.694  1.00  0.00     0.001 A 
ATOM     94  C   UNL A   1      33.833  17.003  23.438  1.00  0.00     0.000 A 
ENDBRANCH  86  89
ENDBRANCH  79  80
ENDBRANCH  72  74
ENDBRANCH  71  72
ENDBRANCH  70  71
ENDBRANCH   1  70
TORSDOF 13
ENDMDL
