MODEL 1
REMARK VINA RESULT:     -10.7      0.000      0.000
REMARK SMILES CN(C(=O)[C@H]1CCCC[C@H]1C(=O)OCCOC(=O)c1ccc(-c2c3nc(c(-c4c(F)c(F)c(F)c(F)c4F)c4ccc([nH]4)c(-c4c(F)c(F)c(F)c(F)c4F)c4nc(c(-c5c(F)c(F)c(F)c(F)c5F)c5ccc2[nH]5)C=C4)C=C3)cc1)C1CC1
REMARK SMILES IDX 14 1 13 2 11 3 12 4 10 5 5 6 6 7 7 8 9 9 8 10 3 11 4 12 2 13
REMARK SMILES IDX 1 14 82 15 83 16 84 17 15 18 16 19 17 20 18 21 19 22 20 23
REMARK SMILES IDX 81 24 21 25 80 26 22 27 23 28 24 29 74 30 25 31 79 32 73 33
REMARK SMILES IDX 75 34 26 35 78 36 72 37 71 38 27 40 59 41 39 42 58 43 40 44
REMARK SMILES IDX 43 45 57 46 76 47 41 48 42 49 56 51 77 52 44 53 28 54 29 55
REMARK SMILES IDX 37 56 30 57 31 58 35 59 38 60 32 61 33 62 36 63 34 64 60 65
REMARK SMILES IDX 61 66 69 67 62 68 63 69 67 70 70 71 64 72 65 73 68 74 66 75
REMARK SMILES IDX 45 76 46 77 54 78 47 79 48 80 52 81 55 82 49 83 50 84 53 85
REMARK SMILES IDX 51 86
REMARK H PARENT 75 39 43 50
REMARK Flexibility Score: inf
ROOT
ATOM      1  C   UNL A   1      31.657  28.490  26.328  1.00  0.00     0.274 C 
ENDROOT
BRANCH   1   2
ATOM      2  O   UNL A   1      32.863  27.745  26.574  1.00  0.00    -0.462 OA
BRANCH   2   3
ATOM      3  C   UNL A   1      33.405  27.093  25.529  1.00  0.00     0.309 C 
ATOM      4  O   UNL A   1      33.644  27.605  24.440  1.00  0.00    -0.252 OA
BRANCH   3   5
ATOM      5  C   UNL A   1      33.743  25.638  25.808  1.00  0.00     0.111 C 
ATOM      6  C   UNL A   1      32.680  24.695  26.396  1.00  0.00     0.093 C 
ATOM      7  C   UNL A   1      33.319  23.359  26.818  1.00  0.00     0.014 C 
ATOM      8  C   UNL A   1      34.406  22.778  25.900  1.00  0.00     0.001 C 
ATOM      9  C   UNL A   1      34.522  25.004  24.663  1.00  0.00     0.016 C 
ATOM     10  C   UNL A   1      35.294  23.801  25.196  1.00  0.00     0.001 C 
BRANCH   6  11
ATOM     11  C   UNL A   1      31.305  24.657  25.686  1.00  0.00     0.226 C 
ATOM     12  O   UNL A   1      30.307  25.022  26.321  1.00  0.00    -0.275 OA
BRANCH  11  13
ATOM     13  N   UNL A   1      31.176  24.327  24.345  1.00  0.00    -0.343 N 
ATOM     14  C   UNL A   1      31.400  22.999  23.804  1.00  0.00     0.147 C 
BRANCH  13  15
ATOM     15  C   UNL A   1      30.377  25.195  23.505  1.00  0.00     0.084 C 
ATOM     16  C   UNL A   1      30.345  26.684  23.729  1.00  0.00     0.027 C 
ATOM     17  C   UNL A   1      31.024  26.130  22.515  1.00  0.00     0.027 C 
ENDBRANCH  13  15
ENDBRANCH  11  13
ENDBRANCH   6  11
ENDBRANCH   3   5
ENDBRANCH   2   3
ENDBRANCH   1   2
BRANCH   1  18
ATOM     18  C   UNL A   1      31.823  29.945  26.768  1.00  0.00     0.275 C 
BRANCH  18  19
ATOM     19  O   UNL A   1      33.122  30.456  26.407  1.00  0.00    -0.458 OA
BRANCH  19  20
ATOM     20  C   UNL A   1      33.573  31.476  27.170  1.00  0.00     0.338 C 
ATOM     21  O   UNL A   1      33.014  32.525  27.431  1.00  0.00    -0.246 OA
BRANCH  20  22
ATOM     22  C   UNL A   1      34.862  31.119  27.776  1.00  0.00     0.060 A 
ATOM     23  C   UNL A   1      35.025  29.811  28.237  1.00  0.00     0.016 A 
ATOM     24  C   UNL A   1      35.844  32.084  28.004  1.00  0.00     0.016 A 
ATOM     25  C   UNL A   1      36.174  29.455  28.934  1.00  0.00     0.010 A 
ATOM     26  C   UNL A   1      36.999  31.726  28.708  1.00  0.00     0.010 A 
ATOM     27  C   UNL A   1      37.162  30.414  29.187  1.00  0.00    -0.014 A 
BRANCH  27  28
ATOM     28  C   UNL A   1      38.344  30.046  30.000  1.00  0.00     0.031 A 
ATOM     29  C   UNL A   1      39.382  29.123  29.435  1.00  0.00     0.074 A 
ATOM     30  C   UNL A   1      38.493  30.566  31.231  1.00  0.00     0.049 A 
ATOM     31  N   UNL A   1      40.450  28.628  30.009  1.00  0.00    -0.248 NA
ATOM     32  C   UNL A   1      39.199  28.703  28.037  1.00  0.00     0.031 C 
ATOM     33  C   UNL A   1      37.574  31.513  31.861  1.00  0.00     0.029 A 
ATOM     34  N   UNL A   1      39.473  30.372  32.169  1.00  0.00    -0.354 N 
ATOM     35  C   UNL A   1      41.052  27.823  29.053  1.00  0.00     0.074 A 
ATOM     36  C   UNL A   1      40.230  27.889  27.863  1.00  0.00     0.031 C 
ATOM     37  C   UNL A   1      38.034  31.819  33.085  1.00  0.00     0.029 A 
ATOM     38  C   UNL A   1      39.255  31.057  33.338  1.00  0.00     0.049 A 
ATOM     39  H   UNL A   1      40.259  29.797  32.019  1.00  0.00     0.167 HD
ATOM     40  C   UNL A   1      42.189  27.095  29.163  1.00  0.00     0.037 A 
ATOM     41  C   UNL A   1      39.949  31.047  34.491  1.00  0.00     0.037 A 
ATOM     42  C   UNL A   1      43.013  27.046  30.342  1.00  0.00     0.049 A 
ATOM     43  C   UNL A   1      41.178  30.189  34.603  1.00  0.00     0.074 A 
ATOM     44  C   UNL A   1      44.192  26.351  30.545  1.00  0.00     0.029 A 
ATOM     45  N   UNL A   1      42.741  27.725  31.520  1.00  0.00    -0.354 N 
ATOM     46  N   UNL A   1      41.737  29.423  33.699  1.00  0.00    -0.248 NA
ATOM     47  C   UNL A   1      41.869  30.189  35.900  1.00  0.00     0.031 C 
ATOM     48  C   UNL A   1      44.616  26.583  31.859  1.00  0.00     0.029 A 
ATOM     49  C   UNL A   1      43.719  27.450  32.462  1.00  0.00     0.049 A 
ATOM     50  H   UNL A   1      41.966  28.316  31.667  1.00  0.00     0.167 HD
ATOM     51  C   UNL A   1      42.849  28.861  34.309  1.00  0.00     0.074 A 
ATOM     52  C   UNL A   1      42.896  29.386  35.658  1.00  0.00     0.031 C 
ATOM     53  C   UNL A   1      43.748  27.985  33.798  1.00  0.00     0.037 A 
BRANCH  40  54
ATOM     54  C   UNL A   1      42.594  26.265  27.983  1.00  0.00     0.064 A 
ATOM     55  C   UNL A   1      43.483  26.749  27.012  1.00  0.00     0.173 A 
ATOM     56  C   UNL A   1      42.116  24.954  27.843  1.00  0.00     0.173 A 
ATOM     57  F   UNL A   1      43.956  28.001  27.095  1.00  0.00    -0.203 F 
ATOM     58  C   UNL A   1      43.863  25.955  25.933  1.00  0.00     0.198 A 
ATOM     59  C   UNL A   1      42.515  24.155  26.775  1.00  0.00     0.198 A 
ATOM     60  F   UNL A   1      41.267  24.445  28.749  1.00  0.00    -0.203 F 
ATOM     61  F   UNL A   1      44.687  26.448  24.997  1.00  0.00    -0.200 F 
ATOM     62  C   UNL A   1      43.383  24.658  25.819  1.00  0.00     0.200 A 
ATOM     63  F   UNL A   1      42.057  22.900  26.670  1.00  0.00    -0.200 F 
ATOM     64  F   UNL A   1      43.755  23.893  24.782  1.00  0.00    -0.200 F 
ENDBRANCH  40  54
BRANCH  41  65
ATOM     65  C   UNL A   1      39.481  31.864  35.638  1.00  0.00     0.064 A 
ATOM     66  C   UNL A   1      39.974  33.158  35.851  1.00  0.00     0.173 A 
ATOM     67  C   UNL A   1      38.529  31.369  36.541  1.00  0.00     0.173 A 
ATOM     68  F   UNL A   1      40.905  33.663  35.028  1.00  0.00    -0.203 F 
ATOM     69  C   UNL A   1      39.539  33.923  36.930  1.00  0.00     0.198 A 
ATOM     70  C   UNL A   1      38.077  32.143  37.606  1.00  0.00     0.198 A 
ATOM     71  F   UNL A   1      38.029  30.134  36.381  1.00  0.00    -0.203 F 
ATOM     72  F   UNL A   1      40.052  35.144  37.133  1.00  0.00    -0.200 F 
ATOM     73  C   UNL A   1      38.587  33.418  37.803  1.00  0.00     0.200 A 
ATOM     74  F   UNL A   1      37.150  31.656  38.442  1.00  0.00    -0.200 F 
ATOM     75  F   UNL A   1      38.164  34.158  38.838  1.00  0.00    -0.200 F 
ENDBRANCH  41  65
BRANCH  53  76
ATOM     76  C   UNL A   1      44.871  27.560  34.696  1.00  0.00     0.064 A 
ATOM     77  C   UNL A   1      46.064  28.292  34.768  1.00  0.00     0.173 A 
ATOM     78  C   UNL A   1      44.736  26.432  35.518  1.00  0.00     0.173 A 
ATOM     79  F   UNL A   1      46.245  29.369  33.988  1.00  0.00    -0.203 F 
ATOM     80  C   UNL A   1      47.093  27.897  35.619  1.00  0.00     0.198 A 
ATOM     81  C   UNL A   1      45.759  26.053  36.383  1.00  0.00     0.198 A 
ATOM     82  F   UNL A   1      43.611  25.703  35.486  1.00  0.00    -0.203 F 
ATOM     83  F   UNL A   1      48.241  28.588  35.645  1.00  0.00    -0.200 F 
ATOM     84  C   UNL A   1      46.937  26.782  36.429  1.00  0.00     0.200 A 
ATOM     85  F   UNL A   1      45.603  24.980  37.171  1.00  0.00    -0.200 F 
ATOM     86  F   UNL A   1      47.928  26.405  37.250  1.00  0.00    -0.200 F 
ENDBRANCH  53  76
ENDBRANCH  27  28
ENDBRANCH  20  22
ENDBRANCH  19  20
ENDBRANCH  18  19
ENDBRANCH   1  18
TORSDOF 14
ENDMDL
MODEL 2
REMARK VINA RESULT:     -10.6      4.780      9.903
REMARK SMILES CN(C(=O)[C@H]1CCCC[C@H]1C(=O)OCCOC(=O)c1ccc(-c2c3nc(c(-c4c(F)c(F)c(F)c(F)c4F)c4ccc([nH]4)c(-c4c(F)c(F)c(F)c(F)c4F)c4nc(c(-c5c(F)c(F)c(F)c(F)c5F)c5ccc2[nH]5)C=C4)C=C3)cc1)C1CC1
REMARK SMILES IDX 14 1 13 2 11 3 12 4 10 5 5 6 6 7 7 8 9 9 8 10 3 11 4 12 2 13
REMARK SMILES IDX 1 14 82 15 83 16 84 17 15 18 16 19 17 20 18 21 19 22 20 23
REMARK SMILES IDX 81 24 21 25 80 26 22 27 23 28 24 29 74 30 25 31 79 32 73 33
REMARK SMILES IDX 75 34 26 35 78 36 72 37 71 38 27 40 59 41 39 42 58 43 40 44
REMARK SMILES IDX 43 45 57 46 76 47 41 48 42 49 56 51 77 52 44 53 28 54 29 55
REMARK SMILES IDX 37 56 30 57 31 58 35 59 38 60 32 61 33 62 36 63 34 64 60 65
REMARK SMILES IDX 61 66 69 67 62 68 63 69 67 70 70 71 64 72 65 73 68 74 66 75
REMARK SMILES IDX 45 76 46 77 54 78 47 79 48 80 52 81 55 82 49 83 50 84 53 85
REMARK SMILES IDX 51 86
REMARK H PARENT 75 39 43 50
REMARK Flexibility Score: inf
ROOT
ATOM      1  C   UNL A   1      36.690  22.231  24.012  1.00  0.00     0.274 C 
ENDROOT
BRANCH   1   2
ATOM      2  O   UNL A   1      35.305  21.852  24.106  1.00  0.00    -0.462 OA
BRANCH   2   3
ATOM      3  C   UNL A   1      34.395  22.738  23.661  1.00  0.00     0.309 C 
ATOM      4  O   UNL A   1      34.467  23.326  22.586  1.00  0.00    -0.252 OA
BRANCH   3   5
ATOM      5  C   UNL A   1      33.216  22.943  24.596  1.00  0.00     0.111 C 
ATOM      6  C   UNL A   1      32.193  21.815  24.814  1.00  0.00     0.093 C 
ATOM      7  C   UNL A   1      30.973  22.337  25.595  1.00  0.00     0.014 C 
ATOM      8  C   UNL A   1      31.241  23.332  26.735  1.00  0.00     0.001 C 
ATOM      9  C   UNL A   1      33.630  23.620  25.896  1.00  0.00     0.016 C 
ATOM     10  C   UNL A   1      32.409  24.290  26.518  1.00  0.00     0.001 C 
BRANCH   6  11
ATOM     11  C   UNL A   1      32.756  20.420  25.180  1.00  0.00     0.226 C 
ATOM     12  O   UNL A   1      33.275  20.271  26.294  1.00  0.00    -0.275 OA
BRANCH  11  13
ATOM     13  N   UNL A   1      32.606  19.322  24.346  1.00  0.00    -0.343 N 
ATOM     14  C   UNL A   1      32.155  19.395  22.969  1.00  0.00     0.147 C 
BRANCH  13  15
ATOM     15  C   UNL A   1      33.324  18.110  24.684  1.00  0.00     0.084 C 
ATOM     16  C   UNL A   1      33.665  17.087  23.633  1.00  0.00     0.027 C 
ATOM     17  C   UNL A   1      34.754  17.907  24.251  1.00  0.00     0.027 C 
ENDBRANCH  13  15
ENDBRANCH  11  13
ENDBRANCH   6  11
ENDBRANCH   3   5
ENDBRANCH   2   3
ENDBRANCH   1   2
BRANCH   1  18
ATOM     18  C   UNL A   1      37.587  21.157  24.629  1.00  0.00     0.275 C 
BRANCH  18  19
ATOM     19  O   UNL A   1      37.959  21.499  25.980  1.00  0.00    -0.458 OA
BRANCH  19  20
ATOM     20  C   UNL A   1      39.266  21.327  26.278  1.00  0.00     0.338 C 
ATOM     21  O   UNL A   1      39.948  20.331  26.127  1.00  0.00    -0.246 OA
BRANCH  20  22
ATOM     22  C   UNL A   1      39.845  22.591  26.750  1.00  0.00     0.060 A 
ATOM     23  C   UNL A   1      39.386  23.775  26.168  1.00  0.00     0.016 A 
ATOM     24  C   UNL A   1      40.909  22.607  27.652  1.00  0.00     0.016 A 
ATOM     25  C   UNL A   1      39.989  24.988  26.482  1.00  0.00     0.010 A 
ATOM     26  C   UNL A   1      41.518  23.826  27.966  1.00  0.00     0.010 A 
ATOM     27  C   UNL A   1      41.069  25.019  27.373  1.00  0.00    -0.014 A 
BRANCH  27  28
ATOM     28  C   UNL A   1      41.757  26.303  27.638  1.00  0.00     0.031 A 
ATOM     29  C   UNL A   1      41.072  27.365  28.446  1.00  0.00     0.074 A 
ATOM     30  C   UNL A   1      43.005  26.497  27.178  1.00  0.00     0.049 A 
ATOM     31  N   UNL A   1      41.476  28.578  28.731  1.00  0.00    -0.248 NA
ATOM     32  C   UNL A   1      39.760  27.017  29.013  1.00  0.00     0.031 C 
ATOM     33  C   UNL A   1      43.787  25.515  26.427  1.00  0.00     0.029 A 
ATOM     34  N   UNL A   1      43.834  27.584  27.277  1.00  0.00    -0.354 N 
ATOM     35  C   UNL A   1      40.462  29.145  29.488  1.00  0.00     0.074 A 
ATOM     36  C   UNL A   1      39.419  28.147  29.616  1.00  0.00     0.031 C 
ATOM     37  C   UNL A   1      44.985  26.046  26.131  1.00  0.00     0.029 A 
ATOM     38  C   UNL A   1      45.035  27.416  26.635  1.00  0.00     0.049 A 
ATOM     39  H   UNL A   1      43.591  28.407  27.761  1.00  0.00     0.167 HD
ATOM     40  C   UNL A   1      40.408  30.386  30.027  1.00  0.00     0.037 A 
ATOM     41  C   UNL A   1      46.050  28.282  26.453  1.00  0.00     0.037 A 
ATOM     42  C   UNL A   1      41.454  31.367  29.913  1.00  0.00     0.049 A 
ATOM     43  C   UNL A   1      45.942  29.671  27.017  1.00  0.00     0.074 A 
ATOM     44  C   UNL A   1      41.500  32.647  30.437  1.00  0.00     0.029 A 
ATOM     45  N   UNL A   1      42.643  31.174  29.224  1.00  0.00    -0.354 N 
ATOM     46  N   UNL A   1      44.975  30.203  27.724  1.00  0.00    -0.248 NA
ATOM     47  C   UNL A   1      47.063  30.583  26.750  1.00  0.00     0.031 C 
ATOM     48  C   UNL A   1      42.703  33.241  30.037  1.00  0.00     0.029 A 
ATOM     49  C   UNL A   1      43.421  32.318  29.294  1.00  0.00     0.049 A 
ATOM     50  H   UNL A   1      42.896  30.347  28.755  1.00  0.00     0.167 HD
ATOM     51  C   UNL A   1      45.375  31.504  27.998  1.00  0.00     0.074 A 
ATOM     52  C   UNL A   1      46.680  31.676  27.394  1.00  0.00     0.031 C 
ATOM     53  C   UNL A   1      44.718  32.469  28.687  1.00  0.00     0.037 A 
BRANCH  40  54
ATOM     54  C   UNL A   1      39.161  30.765  30.766  1.00  0.00     0.064 A 
ATOM     55  C   UNL A   1      39.044  30.589  32.153  1.00  0.00     0.173 A 
ATOM     56  C   UNL A   1      38.083  31.346  30.082  1.00  0.00     0.173 A 
ATOM     57  F   UNL A   1      40.042  30.025  32.847  1.00  0.00    -0.203 F 
ATOM     58  C   UNL A   1      37.884  30.966  32.824  1.00  0.00     0.198 A 
ATOM     59  C   UNL A   1      36.933  31.742  30.760  1.00  0.00     0.198 A 
ATOM     60  F   UNL A   1      38.150  31.538  28.756  1.00  0.00    -0.203 F 
ATOM     61  F   UNL A   1      37.778  30.759  34.145  1.00  0.00    -0.200 F 
ATOM     62  C   UNL A   1      36.833  31.547  32.129  1.00  0.00     0.200 A 
ATOM     63  F   UNL A   1      35.922  32.310  30.088  1.00  0.00    -0.200 F 
ATOM     64  F   UNL A   1      35.719  31.915  32.779  1.00  0.00    -0.200 F 
ENDBRANCH  40  54
BRANCH  41  65
ATOM     65  C   UNL A   1      47.247  27.861  25.683  1.00  0.00     0.064 A 
ATOM     66  C   UNL A   1      47.237  27.854  24.282  1.00  0.00     0.173 A 
ATOM     67  C   UNL A   1      48.425  27.462  26.333  1.00  0.00     0.173 A 
ATOM     68  F   UNL A   1      46.125  28.203  23.619  1.00  0.00    -0.203 F 
ATOM     69  C   UNL A   1      48.359  27.456  23.559  1.00  0.00     0.198 A 
ATOM     70  C   UNL A   1      49.553  27.087  25.609  1.00  0.00     0.198 A 
ATOM     71  F   UNL A   1      48.481  27.450  27.673  1.00  0.00    -0.203 F 
ATOM     72  F   UNL A   1      48.313  27.424  22.220  1.00  0.00    -0.200 F 
ATOM     73  C   UNL A   1      49.517  27.078  24.223  1.00  0.00     0.200 A 
ATOM     74  F   UNL A   1      50.673  26.731  26.253  1.00  0.00    -0.200 F 
ATOM     75  F   UNL A   1      50.598  26.700  23.525  1.00  0.00    -0.200 F 
ENDBRANCH  41  65
BRANCH  53  76
ATOM     76  C   UNL A   1      45.411  33.788  28.840  1.00  0.00     0.064 A 
ATOM     77  C   UNL A   1      45.213  34.828  27.920  1.00  0.00     0.173 A 
ATOM     78  C   UNL A   1      46.253  34.027  29.936  1.00  0.00     0.173 A 
ATOM     79  F   UNL A   1      44.430  34.640  26.847  1.00  0.00    -0.203 F 
ATOM     80  C   UNL A   1      45.851  36.055  28.083  1.00  0.00     0.198 A 
ATOM     81  C   UNL A   1      46.871  35.262  30.107  1.00  0.00     0.198 A 
ATOM     82  F   UNL A   1      46.470  33.064  30.844  1.00  0.00    -0.203 F 
ATOM     83  F   UNL A   1      45.678  37.023  27.173  1.00  0.00    -0.200 F 
ATOM     84  C   UNL A   1      46.673  36.272  29.178  1.00  0.00     0.200 A 
ATOM     85  F   UNL A   1      47.660  35.474  31.169  1.00  0.00    -0.200 F 
ATOM     86  F   UNL A   1      47.283  37.456  29.334  1.00  0.00    -0.200 F 
ENDBRANCH  53  76
ENDBRANCH  27  28
ENDBRANCH  20  22
ENDBRANCH  19  20
ENDBRANCH  18  19
ENDBRANCH   1  18
TORSDOF 14
ENDMDL
MODEL 3
REMARK VINA RESULT:     -10.6      4.405      9.660
REMARK SMILES CN(C(=O)[C@H]1CCCC[C@H]1C(=O)OCCOC(=O)c1ccc(-c2c3nc(c(-c4c(F)c(F)c(F)c(F)c4F)c4ccc([nH]4)c(-c4c(F)c(F)c(F)c(F)c4F)c4nc(c(-c5c(F)c(F)c(F)c(F)c5F)c5ccc2[nH]5)C=C4)C=C3)cc1)C1CC1
REMARK SMILES IDX 14 1 13 2 11 3 12 4 10 5 5 6 6 7 7 8 9 9 8 10 3 11 4 12 2 13
REMARK SMILES IDX 1 14 82 15 83 16 84 17 15 18 16 19 17 20 18 21 19 22 20 23
REMARK SMILES IDX 81 24 21 25 80 26 22 27 23 28 24 29 74 30 25 31 79 32 73 33
REMARK SMILES IDX 75 34 26 35 78 36 72 37 71 38 27 40 59 41 39 42 58 43 40 44
REMARK SMILES IDX 43 45 57 46 76 47 41 48 42 49 56 51 77 52 44 53 28 54 29 55
REMARK SMILES IDX 37 56 30 57 31 58 35 59 38 60 32 61 33 62 36 63 34 64 60 65
REMARK SMILES IDX 61 66 69 67 62 68 63 69 67 70 70 71 64 72 65 73 68 74 66 75
REMARK SMILES IDX 45 76 46 77 54 78 47 79 48 80 52 81 55 82 49 83 50 84 53 85
REMARK SMILES IDX 51 86
REMARK H PARENT 75 39 43 50
REMARK Flexibility Score: inf
ROOT
ATOM      1  C   UNL A   1      35.342  20.591  25.037  1.00  0.00     0.274 C 
ENDROOT
BRANCH   1   2
ATOM      2  O   UNL A   1      34.631  21.607  24.307  1.00  0.00    -0.462 OA
BRANCH   2   3
ATOM      3  C   UNL A   1      33.303  21.442  24.162  1.00  0.00     0.309 C 
ATOM      4  O   UNL A   1      32.681  20.455  24.541  1.00  0.00    -0.252 OA
BRANCH   3   5
ATOM      5  C   UNL A   1      32.598  22.614  23.502  1.00  0.00     0.111 C 
ATOM      6  C   UNL A   1      31.362  23.247  24.164  1.00  0.00     0.093 C 
ATOM      7  C   UNL A   1      30.683  24.239  23.201  1.00  0.00     0.014 C 
ATOM      8  C   UNL A   1      31.600  25.119  22.337  1.00  0.00     0.001 C 
ATOM      9  C   UNL A   1      33.582  23.654  22.982  1.00  0.00     0.016 C 
ATOM     10  C   UNL A   1      32.907  24.473  21.887  1.00  0.00     0.001 C 
BRANCH   6  11
ATOM     11  C   UNL A   1      31.491  23.645  25.654  1.00  0.00     0.226 C 
ATOM     12  O   UNL A   1      30.766  23.072  26.479  1.00  0.00    -0.275 OA
BRANCH  11  13
ATOM     13  N   UNL A   1      32.452  24.540  26.099  1.00  0.00    -0.343 N 
ATOM     14  C   UNL A   1      33.806  24.170  26.469  1.00  0.00     0.147 C 
BRANCH  13  15
ATOM     15  C   UNL A   1      32.273  25.942  25.784  1.00  0.00     0.084 C 
ATOM     16  C   UNL A   1      30.906  26.572  25.778  1.00  0.00     0.027 C 
ATOM     17  C   UNL A   1      31.886  26.935  26.850  1.00  0.00     0.027 C 
ENDBRANCH  13  15
ENDBRANCH  11  13
ENDBRANCH   6  11
ENDBRANCH   3   5
ENDBRANCH   2   3
ENDBRANCH   1   2
BRANCH   1  18
ATOM     18  C   UNL A   1      36.850  20.722  24.814  1.00  0.00     0.275 C 
BRANCH  18  19
ATOM     19  O   UNL A   1      37.450  21.592  25.795  1.00  0.00    -0.458 OA
BRANCH  19  20
ATOM     20  C   UNL A   1      38.754  21.351  26.058  1.00  0.00     0.338 C 
ATOM     21  O   UNL A   1      39.392  20.339  25.837  1.00  0.00    -0.246 OA
BRANCH  20  22
ATOM     22  C   UNL A   1      39.391  22.562  26.590  1.00  0.00     0.060 A 
ATOM     23  C   UNL A   1      38.964  23.795  26.094  1.00  0.00     0.016 A 
ATOM     24  C   UNL A   1      40.477  22.482  27.464  1.00  0.00     0.016 A 
ATOM     25  C   UNL A   1      39.621  24.963  26.465  1.00  0.00     0.010 A 
ATOM     26  C   UNL A   1      41.140  23.657  27.835  1.00  0.00     0.010 A 
ATOM     27  C   UNL A   1      40.722  24.900  27.328  1.00  0.00    -0.014 A 
BRANCH  27  28
ATOM     28  C   UNL A   1      41.464  26.139  27.652  1.00  0.00     0.031 A 
ATOM     29  C   UNL A   1      40.813  27.206  28.481  1.00  0.00     0.074 A 
ATOM     30  C   UNL A   1      42.731  26.287  27.226  1.00  0.00     0.049 A 
ATOM     31  N   UNL A   1      41.268  28.387  28.817  1.00  0.00    -0.248 NA
ATOM     32  C   UNL A   1      39.473  26.903  29.007  1.00  0.00     0.031 C 
ATOM     33  C   UNL A   1      43.482  25.294  26.458  1.00  0.00     0.029 A 
ATOM     34  N   UNL A   1      43.608  27.329  27.380  1.00  0.00    -0.354 N 
ATOM     35  C   UNL A   1      40.265  28.977  29.572  1.00  0.00     0.074 A 
ATOM     36  C   UNL A   1      39.173  28.028  29.643  1.00  0.00     0.031 C 
ATOM     37  C   UNL A   1      44.710  25.776  26.207  1.00  0.00     0.029 A 
ATOM     38  C   UNL A   1      44.815  27.124  26.759  1.00  0.00     0.049 A 
ATOM     39  H   UNL A   1      43.394  28.146  27.887  1.00  0.00     0.167 HD
ATOM     40  C   UNL A   1      40.259  30.201  30.152  1.00  0.00     0.037 A 
ATOM     41  C   UNL A   1      45.874  27.945  26.630  1.00  0.00     0.037 A 
ATOM     42  C   UNL A   1      41.353  31.133  30.094  1.00  0.00     0.049 A 
ATOM     43  C   UNL A   1      45.820  29.318  27.239  1.00  0.00     0.074 A 
ATOM     44  C   UNL A   1      41.448  32.391  30.664  1.00  0.00     0.029 A 
ATOM     45  N   UNL A   1      42.546  30.905  29.426  1.00  0.00    -0.354 N 
ATOM     46  N   UNL A   1      44.864  29.873  27.943  1.00  0.00    -0.248 NA
ATOM     47  C   UNL A   1      46.989  30.182  27.028  1.00  0.00     0.031 C 
ATOM     48  C   UNL A   1      42.687  32.938  30.311  1.00  0.00     0.029 A 
ATOM     49  C   UNL A   1      43.377  32.007  29.551  1.00  0.00     0.049 A 
ATOM     50  H   UNL A   1      42.771  30.082  28.933  1.00  0.00     0.167 HD
ATOM     51  C   UNL A   1      45.319  31.142  28.271  1.00  0.00     0.074 A 
ATOM     52  C   UNL A   1      46.644  31.271  27.701  1.00  0.00     0.031 C 
ATOM     53  C   UNL A   1      44.693  32.114  28.978  1.00  0.00     0.037 A 
BRANCH  40  54
ATOM     54  C   UNL A   1      39.014  30.614  30.877  1.00  0.00     0.064 A 
ATOM     55  C   UNL A   1      38.885  30.463  32.265  1.00  0.00     0.173 A 
ATOM     56  C   UNL A   1      37.952  31.205  30.177  1.00  0.00     0.173 A 
ATOM     57  F   UNL A   1      39.868  29.891  32.975  1.00  0.00    -0.203 F 
ATOM     58  C   UNL A   1      37.728  30.873  32.923  1.00  0.00     0.198 A 
ATOM     59  C   UNL A   1      36.806  31.633  30.841  1.00  0.00     0.198 A 
ATOM     60  F   UNL A   1      38.031  31.375  28.848  1.00  0.00    -0.203 F 
ATOM     61  F   UNL A   1      37.610  30.688  34.246  1.00  0.00    -0.200 F 
ATOM     62  C   UNL A   1      36.693  31.462  32.212  1.00  0.00     0.200 A 
ATOM     63  F   UNL A   1      35.810  32.210  30.154  1.00  0.00    -0.200 F 
ATOM     64  F   UNL A   1      35.583  31.861  32.848  1.00  0.00    -0.200 F 
ENDBRANCH  40  54
BRANCH  41  65
ATOM     65  C   UNL A   1      47.067  27.493  25.871  1.00  0.00     0.064 A 
ATOM     66  C   UNL A   1      48.139  26.867  26.520  1.00  0.00     0.173 A 
ATOM     67  C   UNL A   1      47.156  27.674  24.483  1.00  0.00     0.173 A 
ATOM     68  F   UNL A   1      48.108  26.696  27.850  1.00  0.00    -0.203 F 
ATOM     69  C   UNL A   1      49.261  26.446  25.810  1.00  0.00     0.198 A 
ATOM     70  C   UNL A   1      48.267  27.232  23.771  1.00  0.00     0.198 A 
ATOM     71  F   UNL A   1      46.156  28.271  23.818  1.00  0.00    -0.203 F 
ATOM     72  F   UNL A   1      50.289  25.882  26.459  1.00  0.00    -0.200 F 
ATOM     73  C   UNL A   1      49.322  26.623  24.436  1.00  0.00     0.200 A 
ATOM     74  F   UNL A   1      48.319  27.397  22.442  1.00  0.00    -0.200 F 
ATOM     75  F   UNL A   1      50.400  26.213  23.752  1.00  0.00    -0.200 F 
ENDBRANCH  41  65
BRANCH  53  76
ATOM     76  C   UNL A   1      45.446  33.392  29.192  1.00  0.00     0.064 A 
ATOM     77  C   UNL A   1      46.269  33.575  30.313  1.00  0.00     0.173 A 
ATOM     78  C   UNL A   1      45.372  34.428  28.250  1.00  0.00     0.173 A 
ATOM     79  F   UNL A   1      46.357  32.619  31.249  1.00  0.00    -0.203 F 
ATOM     80  C   UNL A   1      46.976  34.761  30.491  1.00  0.00     0.198 A 
ATOM     81  C   UNL A   1      46.098  35.603  28.421  1.00  0.00     0.198 A 
ATOM     82  F   UNL A   1      44.601  34.297  27.160  1.00  0.00    -0.203 F 
ATOM     83  F   UNL A   1      47.727  34.932  31.588  1.00  0.00    -0.200 F 
ATOM     84  C   UNL A   1      46.895  35.770  29.544  1.00  0.00     0.200 A 
ATOM     85  F   UNL A   1      46.025  36.574  27.501  1.00  0.00    -0.200 F 
ATOM     86  F   UNL A   1      47.580  36.910  29.716  1.00  0.00    -0.200 F 
ENDBRANCH  53  76
ENDBRANCH  27  28
ENDBRANCH  20  22
ENDBRANCH  19  20
ENDBRANCH  18  19
ENDBRANCH   1  18
TORSDOF 14
ENDMDL
