MODEL 1
REMARK VINA RESULT:     -12.3      0.000      0.000
REMARK SMILES CC1(C)C[C@@](Cc2ccccc2)(C(=O)OCCOC(=O)c2ccc(-c3c4nc(c(-c5c(F)c(F)c(F)c(F)c5F)c5ccc([nH]5)c(-c5c(F)c(F)c(F)c(F)c5F)c5nc(c(-c6c(F)c(F)c(F)c(F)c6F)c6ccc3[nH]6)C=C5)C=C4)cc2)CCO1
REMARK SMILES IDX 16 1 15 2 13 3 14 4 5 5 1 6 2 7 3 8 4 9 86 10 85 11 84 12
REMARK SMILES IDX 6 13 7 14 8 15 12 16 9 17 11 18 10 19 17 20 18 21 19 22
REMARK SMILES IDX 20 23 21 24 22 25 83 26 23 27 82 28 24 29 25 30 26 31 76 32
REMARK SMILES IDX 27 33 81 34 75 35 77 36 28 37 80 38 74 39 73 40 29 42 61 43
REMARK SMILES IDX 41 44 60 45 42 46 45 47 59 48 78 49 43 50 44 51 58 53 79 54
REMARK SMILES IDX 46 55 30 56 31 57 39 58 32 59 33 60 37 61 40 62 34 63 35 64
REMARK SMILES IDX 38 65 36 66 62 67 63 68 71 69 64 70 65 71 69 72 72 73 66 74
REMARK SMILES IDX 67 75 70 76 68 77 47 78 48 79 56 80 49 81 50 82 54 83 57 84
REMARK SMILES IDX 51 85 52 86 55 87 53 88
REMARK H PARENT 77 41 45 52
REMARK Flexibility Score: inf
ROOT
ATOM      1  C   UNL A   1      36.188  22.173  24.039  1.00  0.00     0.274 C 
ENDROOT
BRANCH   1   2
ATOM      2  O   UNL A   1      35.066  22.172  24.951  1.00  0.00    -0.462 OA
BRANCH   2   3
ATOM      3  C   UNL A   1      33.856  22.067  24.334  1.00  0.00     0.312 C 
ATOM      4  O   UNL A   1      33.625  22.605  23.261  1.00  0.00    -0.252 OA
BRANCH   3   5
ATOM      5  C   UNL A   1      32.799  21.297  25.134  1.00  0.00     0.077 C 
ATOM      6  C   UNL A   1      32.421  24.554  26.159  1.00  0.00     0.042 C 
ATOM      7  C   UNL A   1      31.649  23.266  26.494  1.00  0.00     0.064 C 
ATOM      8  C   UNL A   1      30.212  23.734  26.805  1.00  0.00     0.042 C 
ATOM      9  C   UNL A   1      31.547  22.174  25.399  1.00  0.00     0.054 C 
ATOM     10  O   UNL A   1      32.175  22.663  27.681  1.00  0.00    -0.376 OA
ATOM     11  C   UNL A   1      33.452  22.046  27.509  1.00  0.00     0.162 C 
ATOM     12  C   UNL A   1      33.407  20.903  26.501  1.00  0.00     0.047 C 
BRANCH   5  13
ATOM     13  C   UNL A   1      32.398  19.971  24.401  1.00  0.00     0.054 C 
BRANCH  13  14
ATOM     14  C   UNL A   1      33.114  18.682  24.757  1.00  0.00    -0.047 A 
ATOM     15  C   UNL A   1      34.426  18.439  24.325  1.00  0.00     0.004 A 
ATOM     16  C   UNL A   1      32.440  17.660  25.439  1.00  0.00     0.004 A 
ATOM     17  C   UNL A   1      35.054  17.218  24.584  1.00  0.00     0.000 A 
ATOM     18  C   UNL A   1      33.065  16.435  25.692  1.00  0.00     0.000 A 
ATOM     19  C   UNL A   1      34.373  16.215  25.268  1.00  0.00     0.000 A 
ENDBRANCH  13  14
ENDBRANCH   5  13
ENDBRANCH   3   5
ENDBRANCH   2   3
ENDBRANCH   1   2
BRANCH   1  20
ATOM     20  C   UNL A   1      37.347  21.292  24.522  1.00  0.00     0.275 C 
BRANCH  20  21
ATOM     21  O   UNL A   1      37.736  21.636  25.864  1.00  0.00    -0.458 OA
BRANCH  21  22
ATOM     22  C   UNL A   1      39.037  21.434  26.178  1.00  0.00     0.338 C 
ATOM     23  O   UNL A   1      39.648  20.378  26.065  1.00  0.00    -0.246 OA
BRANCH  22  24
ATOM     24  C   UNL A   1      39.668  22.685  26.675  1.00  0.00     0.060 A 
ATOM     25  C   UNL A   1      39.280  23.935  26.193  1.00  0.00     0.016 A 
ATOM     26  C   UNL A   1      40.730  22.614  27.576  1.00  0.00     0.016 A 
ATOM     27  C   UNL A   1      39.993  25.091  26.528  1.00  0.00     0.010 A 
ATOM     28  C   UNL A   1      41.393  23.782  27.982  1.00  0.00     0.010 A 
ATOM     29  C   UNL A   1      41.051  25.034  27.441  1.00  0.00    -0.014 A 
BRANCH  29  30
ATOM     30  C   UNL A   1      41.807  26.261  27.831  1.00  0.00     0.031 A 
ATOM     31  C   UNL A   1      41.144  27.334  28.655  1.00  0.00     0.074 A 
ATOM     32  C   UNL A   1      43.087  26.434  27.442  1.00  0.00     0.049 A 
ATOM     33  N   UNL A   1      41.541  28.559  28.901  1.00  0.00    -0.248 NA
ATOM     34  C   UNL A   1      39.867  26.979  29.291  1.00  0.00     0.031 C 
ATOM     35  C   UNL A   1      43.892  25.457  26.711  1.00  0.00     0.029 A 
ATOM     36  N   UNL A   1      43.932  27.509  27.598  1.00  0.00    -0.354 N 
ATOM     37  C   UNL A   1      40.545  29.133  29.681  1.00  0.00     0.074 A 
ATOM     38  C   UNL A   1      39.528  28.121  29.876  1.00  0.00     0.031 C 
ATOM     39  C   UNL A   1      45.112  25.969  26.490  1.00  0.00     0.029 A 
ATOM     40  C   UNL A   1      45.146  27.343  26.976  1.00  0.00     0.049 A 
ATOM     41  H   UNL A   1      43.691  28.316  28.107  1.00  0.00     0.167 HD
ATOM     42  C   UNL A   1      40.483  30.392  30.178  1.00  0.00     0.037 A 
ATOM     43  C   UNL A   1      46.150  28.215  26.756  1.00  0.00     0.037 A 
ATOM     44  C   UNL A   1      41.505  31.394  30.004  1.00  0.00     0.049 A 
ATOM     45  C   UNL A   1      46.016  29.635  27.232  1.00  0.00     0.074 A 
ATOM     46  C   UNL A   1      41.523  32.701  30.463  1.00  0.00     0.029 A 
ATOM     47  N   UNL A   1      42.694  31.197  29.319  1.00  0.00    -0.354 N 
ATOM     48  N   UNL A   1      45.042  30.193  27.906  1.00  0.00    -0.248 NA
ATOM     49  C   UNL A   1      47.113  30.553  26.891  1.00  0.00     0.031 C 
ATOM     50  C   UNL A   1      42.703  33.307  30.019  1.00  0.00     0.029 A 
ATOM     51  C   UNL A   1      43.442  32.366  29.324  1.00  0.00     0.049 A 
ATOM     52  H   UNL A   1      42.968  30.353  28.892  1.00  0.00     0.167 HD
ATOM     53  C   UNL A   1      45.411  31.520  28.082  1.00  0.00     0.074 A 
ATOM     54  C   UNL A   1      46.707  31.680  27.458  1.00  0.00     0.031 C 
ATOM     55  C   UNL A   1      44.732  32.515  28.700  1.00  0.00     0.037 A 
BRANCH  42  56
ATOM     56  C   UNL A   1      39.243  30.785  30.926  1.00  0.00     0.064 A 
ATOM     57  C   UNL A   1      38.130  31.341  30.280  1.00  0.00     0.173 A 
ATOM     58  C   UNL A   1      39.149  30.545  32.306  1.00  0.00     0.173 A 
ATOM     59  F   UNL A   1      38.174  31.600  28.964  1.00  0.00    -0.203 F 
ATOM     60  C   UNL A   1      36.974  31.658  30.992  1.00  0.00     0.198 A 
ATOM     61  C   UNL A   1      37.985  30.841  33.009  1.00  0.00     0.198 A 
ATOM     62  F   UNL A   1      40.183  30.007  32.970  1.00  0.00    -0.203 F 
ATOM     63  F   UNL A   1      35.933  32.219  30.360  1.00  0.00    -0.200 F 
ATOM     64  C   UNL A   1      36.900  31.402  32.352  1.00  0.00     0.200 A 
ATOM     65  F   UNL A   1      37.911  30.582  34.323  1.00  0.00    -0.200 F 
ATOM     66  F   UNL A   1      35.784  31.699  33.033  1.00  0.00    -0.200 F 
ENDBRANCH  42  56
BRANCH  43  67
ATOM     67  C   UNL A   1      47.344  27.782  25.984  1.00  0.00     0.064 A 
ATOM     68  C   UNL A   1      47.329  27.755  24.583  1.00  0.00     0.173 A 
ATOM     69  C   UNL A   1      48.525  27.391  26.633  1.00  0.00     0.173 A 
ATOM     70  F   UNL A   1      46.212  28.087  23.919  1.00  0.00    -0.203 F 
ATOM     71  C   UNL A   1      48.449  27.348  23.861  1.00  0.00     0.198 A 
ATOM     72  C   UNL A   1      49.654  27.016  25.909  1.00  0.00     0.198 A 
ATOM     73  F   UNL A   1      48.588  27.392  27.972  1.00  0.00    -0.203 F 
ATOM     74  F   UNL A   1      48.396  27.292  22.523  1.00  0.00    -0.200 F 
ATOM     75  C   UNL A   1      49.613  26.989  24.523  1.00  0.00     0.200 A 
ATOM     76  F   UNL A   1      50.780  26.683  26.554  1.00  0.00    -0.200 F 
ATOM     77  F   UNL A   1      50.693  26.610  23.828  1.00  0.00    -0.200 F 
ENDBRANCH  43  67
BRANCH  55  78
ATOM     78  C   UNL A   1      45.391  33.862  28.757  1.00  0.00     0.064 A 
ATOM     79  C   UNL A   1      46.267  34.205  29.797  1.00  0.00     0.173 A 
ATOM     80  C   UNL A   1      45.159  34.810  27.750  1.00  0.00     0.173 A 
ATOM     81  F   UNL A   1      46.506  33.338  30.792  1.00  0.00    -0.203 F 
ATOM     82  C   UNL A   1      46.870  35.460  29.838  1.00  0.00     0.198 A 
ATOM     83  C   UNL A   1      45.783  36.054  27.782  1.00  0.00     0.198 A 
ATOM     84  F   UNL A   1      44.332  34.528  26.733  1.00  0.00    -0.203 F 
ATOM     85  F   UNL A   1      47.669  35.784  30.865  1.00  0.00    -0.200 F 
ATOM     86  C   UNL A   1      46.632  36.380  28.829  1.00  0.00     0.200 A 
ATOM     87  F   UNL A   1      45.559  36.941  26.801  1.00  0.00    -0.200 F 
ATOM     88  F   UNL A   1      47.214  37.587  28.870  1.00  0.00    -0.200 F 
ENDBRANCH  55  78
ENDBRANCH  29  30
ENDBRANCH  22  24
ENDBRANCH  21  22
ENDBRANCH  20  21
ENDBRANCH   1  20
TORSDOF 13
ENDMDL
MODEL 2
REMARK VINA RESULT:     -12.3      5.277     10.617
REMARK SMILES CC1(C)C[C@@](Cc2ccccc2)(C(=O)OCCOC(=O)c2ccc(-c3c4nc(c(-c5c(F)c(F)c(F)c(F)c5F)c5ccc([nH]5)c(-c5c(F)c(F)c(F)c(F)c5F)c5nc(c(-c6c(F)c(F)c(F)c(F)c6F)c6ccc3[nH]6)C=C5)C=C4)cc2)CCO1
REMARK SMILES IDX 16 1 15 2 13 3 14 4 5 5 1 6 2 7 3 8 4 9 86 10 85 11 84 12
REMARK SMILES IDX 6 13 7 14 8 15 12 16 9 17 11 18 10 19 17 20 18 21 19 22
REMARK SMILES IDX 20 23 21 24 22 25 83 26 23 27 82 28 24 29 25 30 26 31 76 32
REMARK SMILES IDX 27 33 81 34 75 35 77 36 28 37 80 38 74 39 73 40 29 42 61 43
REMARK SMILES IDX 41 44 60 45 42 46 45 47 59 48 78 49 43 50 44 51 58 53 79 54
REMARK SMILES IDX 46 55 30 56 31 57 39 58 32 59 33 60 37 61 40 62 34 63 35 64
REMARK SMILES IDX 38 65 36 66 62 67 63 68 71 69 64 70 65 71 69 72 72 73 66 74
REMARK SMILES IDX 67 75 70 76 68 77 47 78 48 79 56 80 49 81 50 82 54 83 57 84
REMARK SMILES IDX 51 85 52 86 55 87 53 88
REMARK H PARENT 77 41 45 52
REMARK Flexibility Score: inf
ROOT
ATOM      1  C   UNL A   1      31.730  28.640  26.601  1.00  0.00     0.274 C 
ENDROOT
BRANCH   1   2
ATOM      2  O   UNL A   1      32.112  28.305  25.248  1.00  0.00    -0.462 OA
BRANCH   2   3
ATOM      3  C   UNL A   1      31.235  27.475  24.618  1.00  0.00     0.312 C 
ATOM      4  O   UNL A   1      30.693  26.544  25.197  1.00  0.00    -0.252 OA
BRANCH   3   5
ATOM      5  C   UNL A   1      31.056  27.754  23.122  1.00  0.00     0.077 C 
ATOM      6  C   UNL A   1      33.628  25.480  23.251  1.00  0.00     0.042 C 
ATOM      7  C   UNL A   1      32.883  26.137  22.075  1.00  0.00     0.064 C 
ATOM      8  C   UNL A   1      32.953  25.101  20.933  1.00  0.00     0.042 C 
ATOM      9  C   UNL A   1      31.390  26.499  22.273  1.00  0.00     0.054 C 
ATOM     10  O   UNL A   1      33.576  27.311  21.639  1.00  0.00    -0.376 OA
ATOM     11  C   UNL A   1      33.474  28.419  22.534  1.00  0.00     0.162 C 
ATOM     12  C   UNL A   1      32.032  28.883  22.713  1.00  0.00     0.047 C 
BRANCH   5  13
ATOM     13  C   UNL A   1      29.604  28.258  22.815  1.00  0.00     0.054 C 
BRANCH  13  14
ATOM     14  C   UNL A   1      29.343  29.748  22.714  1.00  0.00    -0.047 A 
ATOM     15  C   UNL A   1      29.407  30.574  23.846  1.00  0.00     0.004 A 
ATOM     16  C   UNL A   1      28.928  30.316  21.501  1.00  0.00     0.004 A 
ATOM     17  C   UNL A   1      29.085  31.931  23.765  1.00  0.00     0.000 A 
ATOM     18  C   UNL A   1      28.599  31.672  21.421  1.00  0.00     0.000 A 
ATOM     19  C   UNL A   1      28.681  32.481  22.552  1.00  0.00     0.000 A 
ENDBRANCH  13  14
ENDBRANCH   5  13
ENDBRANCH   3   5
ENDBRANCH   2   3
ENDBRANCH   1   2
BRANCH   1  20
ATOM     20  C   UNL A   1      31.750  30.152  26.866  1.00  0.00     0.275 C 
BRANCH  20  21
ATOM     21  O   UNL A   1      32.989  30.738  26.432  1.00  0.00    -0.458 OA
BRANCH  21  22
ATOM     22  C   UNL A   1      33.478  31.738  27.203  1.00  0.00     0.338 C 
ATOM     23  O   UNL A   1      32.936  32.817  27.411  1.00  0.00    -0.246 OA
BRANCH  22  24
ATOM     24  C   UNL A   1      34.783  31.359  27.807  1.00  0.00     0.060 A 
ATOM     25  C   UNL A   1      35.047  30.047  28.200  1.00  0.00     0.016 A 
ATOM     26  C   UNL A   1      35.736  32.343  28.070  1.00  0.00     0.016 A 
ATOM     27  C   UNL A   1      36.200  29.730  28.926  1.00  0.00     0.010 A 
ATOM     28  C   UNL A   1      36.934  32.011  28.721  1.00  0.00     0.010 A 
ATOM     29  C   UNL A   1      37.169  30.705  29.184  1.00  0.00    -0.014 A 
BRANCH  29  30
ATOM     30  C   UNL A   1      38.418  30.379  29.934  1.00  0.00     0.031 A 
ATOM     31  C   UNL A   1      39.454  29.468  29.328  1.00  0.00     0.074 A 
ATOM     32  C   UNL A   1      38.631  30.882  31.167  1.00  0.00     0.049 A 
ATOM     33  N   UNL A   1      40.482  28.884  29.895  1.00  0.00    -0.248 NA
ATOM     34  C   UNL A   1      39.319  29.182  27.892  1.00  0.00     0.031 C 
ATOM     35  C   UNL A   1      37.766  31.836  31.857  1.00  0.00     0.029 A 
ATOM     36  N   UNL A   1      39.645  30.644  32.067  1.00  0.00    -0.354 N 
ATOM     37  C   UNL A   1      41.088  28.129  28.899  1.00  0.00     0.074 A 
ATOM     38  C   UNL A   1      40.320  28.334  27.689  1.00  0.00     0.031 C 
ATOM     39  C   UNL A   1      38.284  32.110  33.063  1.00  0.00     0.029 A 
ATOM     40  C   UNL A   1      39.465  31.280  33.272  1.00  0.00     0.049 A 
ATOM     41  H   UNL A   1      40.423  30.075  31.867  1.00  0.00     0.167 HD
ATOM     42  C   UNL A   1      42.178  27.329  28.991  1.00  0.00     0.037 A 
ATOM     43  C   UNL A   1      40.128  31.162  34.439  1.00  0.00     0.037 A 
ATOM     44  C   UNL A   1      42.958  27.141  30.189  1.00  0.00     0.049 A 
ATOM     45  C   UNL A   1      41.275  30.195  34.545  1.00  0.00     0.074 A 
ATOM     46  C   UNL A   1      44.073  26.342  30.379  1.00  0.00     0.029 A 
ATOM     47  N   UNL A   1      42.705  27.764  31.401  1.00  0.00    -0.354 N 
ATOM     48  N   UNL A   1      41.800  29.429  33.621  1.00  0.00    -0.248 NA
ATOM     49  C   UNL A   1      41.905  30.058  35.866  1.00  0.00     0.031 C 
ATOM     50  C   UNL A   1      44.469  26.450  31.717  1.00  0.00     0.029 A 
ATOM     51  C   UNL A   1      43.630  27.351  32.349  1.00  0.00     0.049 A 
ATOM     52  H   UNL A   1      41.977  28.407  31.566  1.00  0.00     0.167 HD
ATOM     53  C   UNL A   1      42.825  28.730  34.242  1.00  0.00     0.074 A 
ATOM     54  C   UNL A   1      42.862  29.175  35.619  1.00  0.00     0.031 C 
ATOM     55  C   UNL A   1      43.658  27.799  33.717  1.00  0.00     0.037 A 
BRANCH  42  56
ATOM     56  C   UNL A   1      42.578  26.552  27.771  1.00  0.00     0.064 A 
ATOM     57  C   UNL A   1      43.559  27.016  26.884  1.00  0.00     0.173 A 
ATOM     58  C   UNL A   1      42.008  25.293  27.521  1.00  0.00     0.173 A 
ATOM     59  F   UNL A   1      44.126  28.216  27.072  1.00  0.00    -0.203 F 
ATOM     60  C   UNL A   1      43.942  26.254  25.781  1.00  0.00     0.198 A 
ATOM     61  C   UNL A   1      42.410  24.526  26.432  1.00  0.00     0.198 A 
ATOM     62  F   UNL A   1      41.071  24.801  28.346  1.00  0.00    -0.203 F 
ATOM     63  F   UNL A   1      44.859  26.730  24.926  1.00  0.00    -0.200 F 
ATOM     64  C   UNL A   1      43.374  25.009  25.560  1.00  0.00     0.200 A 
ATOM     65  F   UNL A   1      41.867  23.317  26.228  1.00  0.00    -0.200 F 
ATOM     66  F   UNL A   1      43.751  24.275  24.504  1.00  0.00    -0.200 F 
ENDBRANCH  42  56
BRANCH  43  67
ATOM     67  C   UNL A   1      39.673  31.933  35.625  1.00  0.00     0.064 A 
ATOM     68  C   UNL A   1      40.257  33.163  35.956  1.00  0.00     0.173 A 
ATOM     69  C   UNL A   1      38.643  31.455  36.450  1.00  0.00     0.173 A 
ATOM     70  F   UNL A   1      41.268  33.644  35.219  1.00  0.00    -0.203 F 
ATOM     71  C   UNL A   1      39.830  33.883  37.070  1.00  0.00     0.198 A 
ATOM     72  C   UNL A   1      38.196  32.191  37.543  1.00  0.00     0.198 A 
ATOM     73  F   UNL A   1      38.058  30.279  36.180  1.00  0.00    -0.203 F 
ATOM     74  F   UNL A   1      40.431  35.038  37.389  1.00  0.00    -0.200 F 
ATOM     75  C   UNL A   1      38.793  33.403  37.856  1.00  0.00     0.200 A 
ATOM     76  F   UNL A   1      37.185  31.728  38.291  1.00  0.00    -0.200 F 
ATOM     77  F   UNL A   1      38.375  34.102  38.919  1.00  0.00    -0.200 F 
ENDBRANCH  43  67
BRANCH  55  78
ATOM     78  C   UNL A   1      44.698  27.219  34.629  1.00  0.00     0.064 A 
ATOM     79  C   UNL A   1      45.949  27.831  34.796  1.00  0.00     0.173 A 
ATOM     80  C   UNL A   1      44.433  26.050  35.357  1.00  0.00     0.173 A 
ATOM     81  F   UNL A   1      46.256  28.940  34.108  1.00  0.00    -0.203 F 
ATOM     82  C   UNL A   1      46.906  27.279  35.644  1.00  0.00     0.198 A 
ATOM     83  C   UNL A   1      45.384  25.515  36.223  1.00  0.00     0.198 A 
ATOM     84  F   UNL A   1      43.251  25.430  35.234  1.00  0.00    -0.203 F 
ATOM     85  F   UNL A   1      48.112  27.854  35.756  1.00  0.00    -0.200 F 
ATOM     86  C   UNL A   1      46.621  26.126  36.360  1.00  0.00     0.200 A 
ATOM     87  F   UNL A   1      45.104  24.405  36.920  1.00  0.00    -0.200 F 
ATOM     88  F   UNL A   1      47.543  25.597  37.176  1.00  0.00    -0.200 F 
ENDBRANCH  55  78
ENDBRANCH  29  30
ENDBRANCH  22  24
ENDBRANCH  21  22
ENDBRANCH  20  21
ENDBRANCH   1  20
TORSDOF 13
ENDMDL
MODEL 3
REMARK VINA RESULT:     -12.3      5.286     10.595
REMARK SMILES CC1(C)C[C@@](Cc2ccccc2)(C(=O)OCCOC(=O)c2ccc(-c3c4nc(c(-c5c(F)c(F)c(F)c(F)c5F)c5ccc([nH]5)c(-c5c(F)c(F)c(F)c(F)c5F)c5nc(c(-c6c(F)c(F)c(F)c(F)c6F)c6ccc3[nH]6)C=C5)C=C4)cc2)CCO1
REMARK SMILES IDX 16 1 15 2 13 3 14 4 5 5 1 6 2 7 3 8 4 9 86 10 85 11 84 12
REMARK SMILES IDX 6 13 7 14 8 15 12 16 9 17 11 18 10 19 17 20 18 21 19 22
REMARK SMILES IDX 20 23 21 24 22 25 83 26 23 27 82 28 24 29 25 30 26 31 76 32
REMARK SMILES IDX 27 33 81 34 75 35 77 36 28 37 80 38 74 39 73 40 29 42 61 43
REMARK SMILES IDX 41 44 60 45 42 46 45 47 59 48 78 49 43 50 44 51 58 53 79 54
REMARK SMILES IDX 46 55 30 56 31 57 39 58 32 59 33 60 37 61 40 62 34 63 35 64
REMARK SMILES IDX 38 65 36 66 62 67 63 68 71 69 64 70 65 71 69 72 72 73 66 74
REMARK SMILES IDX 67 75 70 76 68 77 47 78 48 79 56 80 49 81 50 82 54 83 57 84
REMARK SMILES IDX 51 85 52 86 55 87 53 88
REMARK H PARENT 77 41 45 52
REMARK Flexibility Score: inf
ROOT
ATOM      1  C   UNL A   1      31.809  28.628  26.606  1.00  0.00     0.274 C 
ENDROOT
BRANCH   1   2
ATOM      2  O   UNL A   1      32.163  28.255  25.254  1.00  0.00    -0.462 OA
BRANCH   2   3
ATOM      3  C   UNL A   1      31.239  27.463  24.643  1.00  0.00     0.312 C 
ATOM      4  O   UNL A   1      30.664  26.561  25.234  1.00  0.00    -0.252 OA
BRANCH   3   5
ATOM      5  C   UNL A   1      31.050  27.743  23.147  1.00  0.00     0.077 C 
ATOM      6  C   UNL A   1      33.629  25.477  23.258  1.00  0.00     0.042 C 
ATOM      7  C   UNL A   1      32.875  26.133  22.088  1.00  0.00     0.064 C 
ATOM      8  C   UNL A   1      32.940  25.098  20.944  1.00  0.00     0.042 C 
ATOM      9  C   UNL A   1      31.382  26.490  22.295  1.00  0.00     0.054 C 
ATOM     10  O   UNL A   1      33.561  27.309  21.649  1.00  0.00    -0.376 OA
ATOM     11  C   UNL A   1      33.462  28.416  22.546  1.00  0.00     0.162 C 
ATOM     12  C   UNL A   1      32.020  28.876  22.733  1.00  0.00     0.047 C 
BRANCH   5  13
ATOM     13  C   UNL A   1      29.595  28.243  22.851  1.00  0.00     0.054 C 
BRANCH  13  14
ATOM     14  C   UNL A   1      29.332  29.732  22.735  1.00  0.00    -0.047 A 
ATOM     15  C   UNL A   1      29.391  30.568  23.859  1.00  0.00     0.004 A 
ATOM     16  C   UNL A   1      28.920  30.288  21.515  1.00  0.00     0.004 A 
ATOM     17  C   UNL A   1      29.068  31.924  23.765  1.00  0.00     0.000 A 
ATOM     18  C   UNL A   1      28.589  31.643  21.422  1.00  0.00     0.000 A 
ATOM     19  C   UNL A   1      28.667  32.463  22.546  1.00  0.00     0.000 A 
ENDBRANCH  13  14
ENDBRANCH   5  13
ENDBRANCH   3   5
ENDBRANCH   2   3
ENDBRANCH   1   2
BRANCH   1  20
ATOM     20  C   UNL A   1      31.748  30.149  26.805  1.00  0.00     0.275 C 
BRANCH  20  21
ATOM     21  O   UNL A   1      32.975  30.775  26.392  1.00  0.00    -0.458 OA
BRANCH  21  22
ATOM     22  C   UNL A   1      33.447  31.753  27.200  1.00  0.00     0.338 C 
ATOM     23  O   UNL A   1      32.890  32.819  27.440  1.00  0.00    -0.246 OA
BRANCH  22  24
ATOM     24  C   UNL A   1      34.751  31.369  27.800  1.00  0.00     0.060 A 
ATOM     25  C   UNL A   1      35.004  30.062  28.213  1.00  0.00     0.016 A 
ATOM     26  C   UNL A   1      35.718  32.346  28.039  1.00  0.00     0.016 A 
ATOM     27  C   UNL A   1      36.158  29.743  28.936  1.00  0.00     0.010 A 
ATOM     28  C   UNL A   1      36.917  32.012  28.687  1.00  0.00     0.010 A 
ATOM     29  C   UNL A   1      37.141  30.711  29.170  1.00  0.00    -0.014 A 
BRANCH  29  30
ATOM     30  C   UNL A   1      38.391  30.383  29.916  1.00  0.00     0.031 A 
ATOM     31  C   UNL A   1      39.419  29.462  29.312  1.00  0.00     0.074 A 
ATOM     32  C   UNL A   1      38.614  30.893  31.144  1.00  0.00     0.049 A 
ATOM     33  N   UNL A   1      40.446  28.876  29.877  1.00  0.00    -0.248 NA
ATOM     34  C   UNL A   1      39.276  29.166  27.879  1.00  0.00     0.031 C 
ATOM     35  C   UNL A   1      37.757  31.858  31.832  1.00  0.00     0.029 A 
ATOM     36  N   UNL A   1      39.631  30.656  32.042  1.00  0.00    -0.354 N 
ATOM     37  C   UNL A   1      41.043  28.110  28.884  1.00  0.00     0.074 A 
ATOM     38  C   UNL A   1      40.270  28.312  27.676  1.00  0.00     0.031 C 
ATOM     39  C   UNL A   1      38.283  32.137  33.034  1.00  0.00     0.029 A 
ATOM     40  C   UNL A   1      39.460  31.301  33.243  1.00  0.00     0.049 A 
ATOM     41  H   UNL A   1      40.404  30.081  31.841  1.00  0.00     0.167 HD
ATOM     42  C   UNL A   1      42.130  27.305  28.976  1.00  0.00     0.037 A 
ATOM     43  C   UNL A   1      40.129  31.187  34.407  1.00  0.00     0.037 A 
ATOM     44  C   UNL A   1      42.914  27.121  30.171  1.00  0.00     0.049 A 
ATOM     45  C   UNL A   1      41.271  30.215  34.514  1.00  0.00     0.074 A 
ATOM     46  C   UNL A   1      44.026  26.317  30.361  1.00  0.00     0.029 A 
ATOM     47  N   UNL A   1      42.671  27.754  31.380  1.00  0.00    -0.354 N 
ATOM     48  N   UNL A   1      41.787  29.440  33.593  1.00  0.00    -0.248 NA
ATOM     49  C   UNL A   1      41.906  30.083  35.833  1.00  0.00     0.031 C 
ATOM     50  C   UNL A   1      44.429  26.432  31.697  1.00  0.00     0.029 A 
ATOM     51  C   UNL A   1      43.598  27.342  32.326  1.00  0.00     0.049 A 
ATOM     52  H   UNL A   1      41.947  28.402  31.544  1.00  0.00     0.167 HD
ATOM     53  C   UNL A   1      42.811  28.739  34.213  1.00  0.00     0.074 A 
ATOM     54  C   UNL A   1      42.857  29.194  35.587  1.00  0.00     0.031 C 
ATOM     55  C   UNL A   1      43.636  27.800  33.691  1.00  0.00     0.037 A 
BRANCH  42  56
ATOM     56  C   UNL A   1      42.519  26.517  27.759  1.00  0.00     0.064 A 
ATOM     57  C   UNL A   1      43.500  26.968  26.866  1.00  0.00     0.173 A 
ATOM     58  C   UNL A   1      41.938  25.262  27.520  1.00  0.00     0.173 A 
ATOM     59  F   UNL A   1      44.078  28.165  27.045  1.00  0.00    -0.203 F 
ATOM     60  C   UNL A   1      43.874  26.196  25.767  1.00  0.00     0.198 A 
ATOM     61  C   UNL A   1      42.330  24.484  26.434  1.00  0.00     0.198 A 
ATOM     62  F   UNL A   1      41.000  24.782  28.351  1.00  0.00    -0.203 F 
ATOM     63  F   UNL A   1      44.791  26.659  24.906  1.00  0.00    -0.200 F 
ATOM     64  C   UNL A   1      43.294  24.954  25.556  1.00  0.00     0.200 A 
ATOM     65  F   UNL A   1      41.777  23.279  26.239  1.00  0.00    -0.200 F 
ATOM     66  F   UNL A   1      43.662  24.211  24.503  1.00  0.00    -0.200 F 
ENDBRANCH  42  56
BRANCH  43  67
ATOM     67  C   UNL A   1      39.684  31.969  35.590  1.00  0.00     0.064 A 
ATOM     68  C   UNL A   1      40.268  33.205  35.903  1.00  0.00     0.173 A 
ATOM     69  C   UNL A   1      38.664  31.497  36.430  1.00  0.00     0.173 A 
ATOM     70  F   UNL A   1      41.270  33.681  35.150  1.00  0.00    -0.203 F 
ATOM     71  C   UNL A   1      39.850  33.935  37.013  1.00  0.00     0.198 A 
ATOM     72  C   UNL A   1      38.226  32.243  37.520  1.00  0.00     0.198 A 
ATOM     73  F   UNL A   1      38.080  30.317  36.179  1.00  0.00    -0.203 F 
ATOM     74  F   UNL A   1      40.451  35.094  37.314  1.00  0.00    -0.200 F 
ATOM     75  C   UNL A   1      38.823  33.460  37.815  1.00  0.00     0.200 A 
ATOM     76  F   UNL A   1      37.225  31.785  38.284  1.00  0.00    -0.200 F 
ATOM     77  F   UNL A   1      38.414  34.168  38.875  1.00  0.00    -0.200 F 
ENDBRANCH  43  67
BRANCH  55  78
ATOM     78  C   UNL A   1      44.677  27.220  34.602  1.00  0.00     0.064 A 
ATOM     79  C   UNL A   1      44.444  26.042  35.326  1.00  0.00     0.173 A 
ATOM     80  C   UNL A   1      45.928  27.840  34.735  1.00  0.00     0.173 A 
ATOM     81  F   UNL A   1      43.257  25.424  35.246  1.00  0.00    -0.203 F 
ATOM     82  C   UNL A   1      45.420  25.518  36.170  1.00  0.00     0.198 A 
ATOM     83  C   UNL A   1      46.910  27.298  35.561  1.00  0.00     0.198 A 
ATOM     84  F   UNL A   1      46.201  28.966  34.061  1.00  0.00    -0.203 F 
ATOM     85  F   UNL A   1      45.161  24.416  36.888  1.00  0.00    -0.200 F 
ATOM     86  C   UNL A   1      46.653  26.142  36.283  1.00  0.00     0.200 A 
ATOM     87  F   UNL A   1      48.105  27.899  35.663  1.00  0.00    -0.200 F 
ATOM     88  F   UNL A   1      47.591  25.635  37.094  1.00  0.00    -0.200 F 
ENDBRANCH  55  78
ENDBRANCH  29  30
ENDBRANCH  22  24
ENDBRANCH  21  22
ENDBRANCH  20  21
ENDBRANCH   1  20
TORSDOF 13
ENDMDL
