MODEL 1
REMARK VINA RESULT:     -11.5      0.000      0.000
REMARK SMILES CC[C@H](NC(=O)c1ccc(C)nc1)C(=O)OCCOC(=O)c1ccc(-c2c3nc(c(-c4c(F)c(F)c(F)c(F)c4F)c4ccc([nH]4)c(-c4c(F)c(F)c(F)c(F)c4F)c4nc(c(-c5c(F)c(F)c(F)c(F)c5F)c5ccc2[nH]5)C=C4)C=C3)cc1
REMARK SMILES IDX 17 1 16 2 14 3 15 4 3 5 2 6 1 7 4 8 5 9 6 11 7 12 8 13 13 14
REMARK SMILES IDX 9 15 12 16 10 17 11 18 18 19 19 20 20 21 21 22 22 23 23 24
REMARK SMILES IDX 84 25 24 26 83 27 25 28 26 29 27 30 77 31 28 32 82 33 76 34
REMARK SMILES IDX 78 35 29 36 81 37 75 38 74 39 30 41 62 42 42 43 61 44 43 45
REMARK SMILES IDX 46 46 60 47 79 48 44 49 45 50 59 52 80 53 47 54 31 55 32 56
REMARK SMILES IDX 40 57 33 58 34 59 38 60 41 61 35 62 36 63 39 64 37 65 63 66
REMARK SMILES IDX 64 67 72 68 65 69 66 70 70 71 73 72 67 73 68 74 71 75 69 76
REMARK SMILES IDX 48 77 49 78 57 79 50 80 51 81 55 82 58 83 52 84 53 85 56 86
REMARK SMILES IDX 54 87
REMARK H PARENT 4 10 78 40 46 51
REMARK Flexibility Score: inf
ROOT
ATOM      1  C   UNL A   1      31.700  28.135  26.770  1.00  0.00     0.274 C 
ENDROOT
BRANCH   1   2
ATOM      2  O   UNL A   1      32.711  27.207  26.322  1.00  0.00    -0.461 OA
BRANCH   2   3
ATOM      3  C   UNL A   1      32.269  25.930  26.163  1.00  0.00     0.328 C 
ATOM      4  O   UNL A   1      31.248  25.481  26.681  1.00  0.00    -0.250 OA
BRANCH   3   5
ATOM      5  C   UNL A   1      33.175  25.063  25.275  1.00  0.00     0.192 C 
BRANCH   5   6
ATOM      6  C   UNL A   1      33.742  26.020  24.204  1.00  0.00     0.033 C 
ATOM      7  C   UNL A   1      32.764  26.332  23.084  1.00  0.00     0.007 C 
ENDBRANCH   5   6
BRANCH   5   8
ATOM      8  N   UNL A   1      32.566  23.903  24.613  1.00  0.00    -0.339 N 
ATOM      9  C   UNL A   1      33.147  22.933  23.836  1.00  0.00     0.253 C 
ATOM     10  H   UNL A   1      31.595  23.807  24.747  1.00  0.00     0.164 HD
ATOM     11  O   UNL A   1      32.484  22.420  22.938  1.00  0.00    -0.269 OA
BRANCH   9  12
ATOM     12  C   UNL A   1      34.511  22.426  24.081  1.00  0.00     0.058 A 
ATOM     13  C   UNL A   1      35.617  22.942  23.416  1.00  0.00     0.017 A 
ATOM     14  C   UNL A   1      34.748  21.606  25.179  1.00  0.00     0.125 A 
ATOM     15  C   UNL A   1      36.900  22.634  23.878  1.00  0.00     0.024 A 
ATOM     16  N   UNL A   1      35.987  21.253  25.618  1.00  0.00    -0.261 NA
ATOM     17  C   UNL A   1      37.048  21.801  24.982  1.00  0.00     0.037 A 
ATOM     18  C   UNL A   1      38.418  21.512  25.526  1.00  0.00     0.066 C 
ENDBRANCH   9  12
ENDBRANCH   5   8
ENDBRANCH   3   5
ENDBRANCH   2   3
ENDBRANCH   1   2
BRANCH   1  19
ATOM     19  C   UNL A   1      31.707  29.410  25.922  1.00  0.00     0.275 C 
BRANCH  19  20
ATOM     20  O   UNL A   1      33.010  30.015  25.962  1.00  0.00    -0.458 OA
BRANCH  20  21
ATOM     21  C   UNL A   1      33.155  31.014  26.858  1.00  0.00     0.338 C 
ATOM     22  O   UNL A   1      32.304  31.844  27.147  1.00  0.00    -0.246 OA
BRANCH  21  23
ATOM     23  C   UNL A   1      34.465  30.920  27.560  1.00  0.00     0.060 A 
ATOM     24  C   UNL A   1      35.296  32.032  27.754  1.00  0.00     0.016 A 
ATOM     25  C   UNL A   1      34.923  29.652  27.929  1.00  0.00     0.016 A 
ATOM     26  C   UNL A   1      36.583  31.874  28.278  1.00  0.00     0.010 A 
ATOM     27  C   UNL A   1      36.192  29.499  28.492  1.00  0.00     0.010 A 
ATOM     28  C   UNL A   1      37.033  30.608  28.671  1.00  0.00    -0.014 A 
BRANCH  28  29
ATOM     29  C   UNL A   1      38.320  30.420  29.384  1.00  0.00     0.031 A 
ATOM     30  C   UNL A   1      39.385  29.526  28.833  1.00  0.00     0.074 A 
ATOM     31  C   UNL A   1      38.472  30.964  30.603  1.00  0.00     0.049 A 
ATOM     32  N   UNL A   1      40.335  28.879  29.457  1.00  0.00    -0.248 NA
ATOM     33  C   UNL A   1      39.368  29.322  27.383  1.00  0.00     0.031 C 
ATOM     34  C   UNL A   1      37.540  31.897  31.234  1.00  0.00     0.029 A 
ATOM     35  N   UNL A   1      39.456  30.779  31.539  1.00  0.00    -0.354 N 
ATOM     36  C   UNL A   1      40.962  28.105  28.488  1.00  0.00     0.074 A 
ATOM     37  C   UNL A   1      40.313  28.402  27.228  1.00  0.00     0.031 C 
ATOM     38  C   UNL A   1      37.987  32.193  32.464  1.00  0.00     0.029 A 
ATOM     39  C   UNL A   1      39.190  31.412  32.728  1.00  0.00     0.049 A 
ATOM     40  H   UNL A   1      40.268  30.247  31.376  1.00  0.00     0.167 HD
ATOM     41  C   UNL A   1      41.978  27.225  28.656  1.00  0.00     0.037 A 
ATOM     42  C   UNL A   1      39.815  31.325  33.915  1.00  0.00     0.037 A 
ATOM     43  C   UNL A   1      42.695  27.054  29.897  1.00  0.00     0.049 A 
ATOM     44  C   UNL A   1      40.992  30.406  34.062  1.00  0.00     0.074 A 
ATOM     45  C   UNL A   1      43.767  26.221  30.172  1.00  0.00     0.029 A 
ATOM     46  N   UNL A   1      42.440  27.772  31.057  1.00  0.00    -0.354 N 
ATOM     47  N   UNL A   1      41.501  29.573  33.188  1.00  0.00    -0.248 NA
ATOM     48  C   UNL A   1      41.674  30.409  35.362  1.00  0.00     0.031 C 
ATOM     49  C   UNL A   1      44.157  26.432  31.500  1.00  0.00     0.029 A 
ATOM     50  C   UNL A   1      43.349  27.419  32.041  1.00  0.00     0.049 A 
ATOM     51  H   UNL A   1      41.720  28.433  31.165  1.00  0.00     0.167 HD
ATOM     52  C   UNL A   1      42.570  28.961  33.824  1.00  0.00     0.074 A 
ATOM     53  C   UNL A   1      42.646  29.532  35.154  1.00  0.00     0.031 C 
ATOM     54  C   UNL A   1      43.410  28.007  33.354  1.00  0.00     0.037 A 
BRANCH  41  55
ATOM     55  C   UNL A   1      42.369  26.350  27.499  1.00  0.00     0.064 A 
ATOM     56  C   UNL A   1      43.411  26.679  26.624  1.00  0.00     0.173 A 
ATOM     57  C   UNL A   1      41.736  25.107  27.324  1.00  0.00     0.173 A 
ATOM     58  F   UNL A   1      44.047  27.853  26.744  1.00  0.00    -0.203 F 
ATOM     59  C   UNL A   1      43.798  25.804  25.610  1.00  0.00     0.198 A 
ATOM     60  C   UNL A   1      42.144  24.224  26.329  1.00  0.00     0.198 A 
ATOM     61  F   UNL A   1      40.737  24.735  28.141  1.00  0.00    -0.203 F 
ATOM     62  F   UNL A   1      44.783  26.150  24.768  1.00  0.00    -0.200 F 
ATOM     63  C   UNL A   1      43.173  24.573  25.470  1.00  0.00     0.200 A 
ATOM     64  F   UNL A   1      41.549  23.028  26.210  1.00  0.00    -0.200 F 
ATOM     65  F   UNL A   1      43.563  23.725  24.509  1.00  0.00    -0.200 F 
ENDBRANCH  41  55
BRANCH  42  66
ATOM     66  C   UNL A   1      39.313  32.131  35.052  1.00  0.00     0.064 A 
ATOM     67  C   UNL A   1      38.504  31.547  36.034  1.00  0.00     0.173 A 
ATOM     68  C   UNL A   1      39.684  33.474  35.216  1.00  0.00     0.173 A 
ATOM     69  F   UNL A   1      38.113  30.270  35.907  1.00  0.00    -0.203 F 
ATOM     70  C   UNL A   1      38.081  32.278  37.142  1.00  0.00     0.198 A 
ATOM     71  C   UNL A   1      39.281  34.196  36.336  1.00  0.00     0.198 A 
ATOM     72  F   UNL A   1      40.468  34.070  34.307  1.00  0.00    -0.203 F 
ATOM     73  F   UNL A   1      37.290  31.703  38.057  1.00  0.00    -0.200 F 
ATOM     74  C   UNL A   1      38.479  33.598  37.296  1.00  0.00     0.200 A 
ATOM     75  F   UNL A   1      39.684  35.464  36.495  1.00  0.00    -0.200 F 
ATOM     76  F   UNL A   1      38.089  34.293  38.374  1.00  0.00    -0.200 F 
ENDBRANCH  42  66
BRANCH  54  77
ATOM     77  C   UNL A   1      44.504  27.556  34.272  1.00  0.00     0.064 A 
ATOM     78  C   UNL A   1      45.747  28.206  34.303  1.00  0.00     0.173 A 
ATOM     79  C   UNL A   1      44.300  26.474  35.139  1.00  0.00     0.173 A 
ATOM     80  F   UNL A   1      45.991  29.235  33.479  1.00  0.00    -0.203 F 
ATOM     81  C   UNL A   1      46.758  27.768  35.154  1.00  0.00     0.198 A 
ATOM     82  C   UNL A   1      45.306  26.053  36.004  1.00  0.00     0.198 A 
ATOM     83  F   UNL A   1      43.127  25.825  35.146  1.00  0.00    -0.203 F 
ATOM     84  F   UNL A   1      47.953  28.373  35.138  1.00  0.00    -0.200 F 
ATOM     85  C   UNL A   1      46.536  26.695  36.006  1.00  0.00     0.200 A 
ATOM     86  F   UNL A   1      45.089  25.019  36.829  1.00  0.00    -0.200 F 
ATOM     87  F   UNL A   1      47.511  26.273  36.821  1.00  0.00    -0.200 F 
ENDBRANCH  54  77
ENDBRANCH  28  29
ENDBRANCH  21  23
ENDBRANCH  20  21
ENDBRANCH  19  20
ENDBRANCH   1  19
TORSDOF 14
ENDMDL
MODEL 2
REMARK VINA RESULT:     -11.5      1.179      2.222
REMARK SMILES CC[C@H](NC(=O)c1ccc(C)nc1)C(=O)OCCOC(=O)c1ccc(-c2c3nc(c(-c4c(F)c(F)c(F)c(F)c4F)c4ccc([nH]4)c(-c4c(F)c(F)c(F)c(F)c4F)c4nc(c(-c5c(F)c(F)c(F)c(F)c5F)c5ccc2[nH]5)C=C4)C=C3)cc1
REMARK SMILES IDX 17 1 16 2 14 3 15 4 3 5 2 6 1 7 4 8 5 9 6 11 7 12 8 13 13 14
REMARK SMILES IDX 9 15 12 16 10 17 11 18 18 19 19 20 20 21 21 22 22 23 23 24
REMARK SMILES IDX 84 25 24 26 83 27 25 28 26 29 27 30 77 31 28 32 82 33 76 34
REMARK SMILES IDX 78 35 29 36 81 37 75 38 74 39 30 41 62 42 42 43 61 44 43 45
REMARK SMILES IDX 46 46 60 47 79 48 44 49 45 50 59 52 80 53 47 54 31 55 32 56
REMARK SMILES IDX 40 57 33 58 34 59 38 60 41 61 35 62 36 63 39 64 37 65 63 66
REMARK SMILES IDX 64 67 72 68 65 69 66 70 70 71 73 72 67 73 68 74 71 75 69 76
REMARK SMILES IDX 48 77 49 78 57 79 50 80 51 81 55 82 58 83 52 84 53 85 56 86
REMARK SMILES IDX 54 87
REMARK H PARENT 4 10 78 40 46 51
REMARK Flexibility Score: inf
ROOT
ATOM      1  C   UNL A   1      32.855  28.268  25.102  1.00  0.00     0.274 C 
ENDROOT
BRANCH   1   2
ATOM      2  O   UNL A   1      31.497  27.779  25.086  1.00  0.00    -0.461 OA
BRANCH   2   3
ATOM      3  C   UNL A   1      31.175  26.984  26.144  1.00  0.00     0.328 C 
ATOM      4  O   UNL A   1      31.049  27.386  27.298  1.00  0.00    -0.250 OA
BRANCH   3   5
ATOM      5  C   UNL A   1      30.989  25.504  25.776  1.00  0.00     0.192 C 
BRANCH   5   6
ATOM      6  C   UNL A   1      30.063  25.497  24.541  1.00  0.00     0.033 C 
ATOM      7  C   UNL A   1      30.634  24.742  23.352  1.00  0.00     0.007 C 
ENDBRANCH   5   6
BRANCH   5   8
ATOM      8  N   UNL A   1      30.431  24.616  26.803  1.00  0.00    -0.339 N 
ATOM      9  C   UNL A   1      30.494  23.248  26.908  1.00  0.00     0.253 C 
ATOM     10  H   UNL A   1      29.938  25.068  27.525  1.00  0.00     0.164 HD
ATOM     11  O   UNL A   1      29.559  22.653  27.435  1.00  0.00    -0.269 OA
BRANCH   9  12
ATOM     12  C   UNL A   1      31.672  22.470  26.479  1.00  0.00     0.058 A 
ATOM     13  C   UNL A   1      31.724  21.836  25.243  1.00  0.00     0.017 A 
ATOM     14  C   UNL A   1      32.860  22.579  27.194  1.00  0.00     0.125 A 
ATOM     15  C   UNL A   1      32.948  21.356  24.770  1.00  0.00     0.024 A 
ATOM     16  N   UNL A   1      34.054  22.077  26.777  1.00  0.00    -0.261 NA
ATOM     17  C   UNL A   1      34.089  21.502  25.552  1.00  0.00     0.037 A 
ATOM     18  C   UNL A   1      35.421  21.046  25.030  1.00  0.00     0.066 C 
ENDBRANCH   9  12
ENDBRANCH   5   8
ENDBRANCH   3   5
ENDBRANCH   2   3
ENDBRANCH   1   2
BRANCH   1  19
ATOM     19  C   UNL A   1      32.897  29.771  25.384  1.00  0.00     0.275 C 
BRANCH  19  20
ATOM     20  O   UNL A   1      32.783  30.005  26.799  1.00  0.00    -0.458 OA
BRANCH  20  21
ATOM     21  C   UNL A   1      33.243  31.200  27.224  1.00  0.00     0.338 C 
ATOM     22  O   UNL A   1      32.628  32.258  27.188  1.00  0.00    -0.246 OA
BRANCH  21  23
ATOM     23  C   UNL A   1      34.579  31.064  27.868  1.00  0.00     0.060 A 
ATOM     24  C   UNL A   1      35.494  32.124  27.936  1.00  0.00     0.016 A 
ATOM     25  C   UNL A   1      34.967  29.796  28.313  1.00  0.00     0.016 A 
ATOM     26  C   UNL A   1      36.793  31.912  28.409  1.00  0.00     0.010 A 
ATOM     27  C   UNL A   1      36.251  29.594  28.825  1.00  0.00     0.010 A 
ATOM     28  C   UNL A   1      37.174  30.649  28.877  1.00  0.00    -0.014 A 
BRANCH  28  29
ATOM     29  C   UNL A   1      38.481  30.421  29.541  1.00  0.00     0.031 A 
ATOM     30  C   UNL A   1      39.494  29.489  28.954  1.00  0.00     0.074 A 
ATOM     31  C   UNL A   1      38.699  30.966  30.749  1.00  0.00     0.049 A 
ATOM     32  N   UNL A   1      40.445  28.813  29.544  1.00  0.00    -0.248 NA
ATOM     33  C   UNL A   1      39.413  29.279  27.507  1.00  0.00     0.031 C 
ATOM     34  C   UNL A   1      37.824  31.933  31.410  1.00  0.00     0.029 A 
ATOM     35  N   UNL A   1      39.712  30.753  31.647  1.00  0.00    -0.354 N 
ATOM     36  C   UNL A   1      41.007  28.014  28.556  1.00  0.00     0.074 A 
ATOM     37  C   UNL A   1      40.320  28.327  27.320  1.00  0.00     0.031 C 
ATOM     38  C   UNL A   1      38.329  32.220  32.620  1.00  0.00     0.029 A 
ATOM     39  C   UNL A   1      39.515  31.400  32.841  1.00  0.00     0.049 A 
ATOM     40  H   UNL A   1      40.499  30.193  31.456  1.00  0.00     0.167 HD
ATOM     41  C   UNL A   1      41.999  27.101  28.690  1.00  0.00     0.037 A 
ATOM     42  C   UNL A   1      40.183  31.297  34.004  1.00  0.00     0.037 A 
ATOM     43  C   UNL A   1      42.759  26.913  29.903  1.00  0.00     0.049 A 
ATOM     44  C   UNL A   1      41.333  30.340  34.110  1.00  0.00     0.074 A 
ATOM     45  C   UNL A   1      43.812  26.046  30.142  1.00  0.00     0.029 A 
ATOM     46  N   UNL A   1      42.573  27.644  31.068  1.00  0.00    -0.354 N 
ATOM     47  N   UNL A   1      41.780  29.487  33.222  1.00  0.00    -0.248 NA
ATOM     48  C   UNL A   1      42.065  30.327  35.383  1.00  0.00     0.031 C 
ATOM     49  C   UNL A   1      44.260  26.250  31.452  1.00  0.00     0.029 A 
ATOM     50  C   UNL A   1      43.508  27.266  32.018  1.00  0.00     0.049 A 
ATOM     51  H   UNL A   1      41.880  28.330  31.199  1.00  0.00     0.167 HD
ATOM     52  C   UNL A   1      42.851  28.842  33.820  1.00  0.00     0.074 A 
ATOM     53  C   UNL A   1      42.999  29.417  35.143  1.00  0.00     0.031 C 
ATOM     54  C   UNL A   1      43.640  27.858  33.324  1.00  0.00     0.037 A 
BRANCH  41  55
ATOM     55  C   UNL A   1      42.315  26.208  27.525  1.00  0.00     0.064 A 
ATOM     56  C   UNL A   1      43.335  26.495  26.609  1.00  0.00     0.173 A 
ATOM     57  C   UNL A   1      41.632  24.988  27.379  1.00  0.00     0.173 A 
ATOM     58  F   UNL A   1      44.018  27.646  26.699  1.00  0.00    -0.203 F 
ATOM     59  C   UNL A   1      43.652  25.603  25.586  1.00  0.00     0.198 A 
ATOM     60  C   UNL A   1      41.970  24.087  26.375  1.00  0.00     0.198 A 
ATOM     61  F   UNL A   1      40.651  24.657  28.235  1.00  0.00    -0.203 F 
ATOM     62  F   UNL A   1      44.617  25.910  24.707  1.00  0.00    -0.200 F 
ATOM     63  C   UNL A   1      42.978  24.395  25.476  1.00  0.00     0.200 A 
ATOM     64  F   UNL A   1      41.328  22.913  26.284  1.00  0.00    -0.200 F 
ATOM     65  F   UNL A   1      43.302  23.529  24.506  1.00  0.00    -0.200 F 
ENDBRANCH  41  55
BRANCH  42  66
ATOM     66  C   UNL A   1      39.753  32.126  35.155  1.00  0.00     0.064 A 
ATOM     67  C   UNL A   1      40.206  33.443  35.290  1.00  0.00     0.173 A 
ATOM     68  C   UNL A   1      38.833  31.645  36.099  1.00  0.00     0.173 A 
ATOM     69  F   UNL A   1      41.098  33.937  34.418  1.00  0.00    -0.203 F 
ATOM     70  C   UNL A   1      39.757  34.252  36.331  1.00  0.00     0.198 A 
ATOM     71  C   UNL A   1      38.365  32.463  37.123  1.00  0.00     0.198 A 
ATOM     72  F   UNL A   1      38.363  30.393  36.001  1.00  0.00    -0.203 F 
ATOM     73  F   UNL A   1      40.222  35.503  36.451  1.00  0.00    -0.200 F 
ATOM     74  C   UNL A   1      38.829  33.765  37.240  1.00  0.00     0.200 A 
ATOM     75  F   UNL A   1      37.454  31.997  37.987  1.00  0.00    -0.200 F 
ATOM     76  F   UNL A   1      38.381  34.552  38.227  1.00  0.00    -0.200 F 
ENDBRANCH  42  66
BRANCH  54  77
ATOM     77  C   UNL A   1      44.754  27.375  34.201  1.00  0.00     0.064 A 
ATOM     78  C   UNL A   1      44.578  26.296  35.079  1.00  0.00     0.173 A 
ATOM     79  C   UNL A   1      46.013  27.990  34.149  1.00  0.00     0.173 A 
ATOM     80  F   UNL A   1      43.386  25.689  35.173  1.00  0.00    -0.203 F 
ATOM     81  C   UNL A   1      45.620  25.866  35.896  1.00  0.00     0.198 A 
ATOM     82  C   UNL A   1      47.058  27.543  34.952  1.00  0.00     0.198 A 
ATOM     83  F   UNL A   1      46.227  29.023  33.322  1.00  0.00    -0.203 F 
ATOM     84  F   UNL A   1      45.420  24.862  36.760  1.00  0.00    -0.200 F 
ATOM     85  C   UNL A   1      46.859  26.487  35.829  1.00  0.00     0.200 A 
ATOM     86  F   UNL A   1      48.256  28.141  34.885  1.00  0.00    -0.200 F 
ATOM     87  F   UNL A   1      47.860  26.074  36.619  1.00  0.00    -0.200 F 
ENDBRANCH  54  77
ENDBRANCH  28  29
ENDBRANCH  21  23
ENDBRANCH  20  21
ENDBRANCH  19  20
ENDBRANCH   1  19
TORSDOF 14
ENDMDL
MODEL 3
REMARK VINA RESULT:     -11.4      1.188      2.583
REMARK SMILES CC[C@H](NC(=O)c1ccc(C)nc1)C(=O)OCCOC(=O)c1ccc(-c2c3nc(c(-c4c(F)c(F)c(F)c(F)c4F)c4ccc([nH]4)c(-c4c(F)c(F)c(F)c(F)c4F)c4nc(c(-c5c(F)c(F)c(F)c(F)c5F)c5ccc2[nH]5)C=C4)C=C3)cc1
REMARK SMILES IDX 17 1 16 2 14 3 15 4 3 5 2 6 1 7 4 8 5 9 6 11 7 12 8 13 13 14
REMARK SMILES IDX 9 15 12 16 10 17 11 18 18 19 19 20 20 21 21 22 22 23 23 24
REMARK SMILES IDX 84 25 24 26 83 27 25 28 26 29 27 30 77 31 28 32 82 33 76 34
REMARK SMILES IDX 78 35 29 36 81 37 75 38 74 39 30 41 62 42 42 43 61 44 43 45
REMARK SMILES IDX 46 46 60 47 79 48 44 49 45 50 59 52 80 53 47 54 31 55 32 56
REMARK SMILES IDX 40 57 33 58 34 59 38 60 41 61 35 62 36 63 39 64 37 65 63 66
REMARK SMILES IDX 64 67 72 68 65 69 66 70 70 71 73 72 67 73 68 74 71 75 69 76
REMARK SMILES IDX 48 77 49 78 57 79 50 80 51 81 55 82 58 83 52 84 53 85 56 86
REMARK SMILES IDX 54 87
REMARK H PARENT 4 10 78 40 46 51
REMARK Flexibility Score: inf
ROOT
ATOM      1  C   UNL A   1      31.632  28.156  26.780  1.00  0.00     0.274 C 
ENDROOT
BRANCH   1   2
ATOM      2  O   UNL A   1      32.423  27.020  26.372  1.00  0.00    -0.461 OA
BRANCH   2   3
ATOM      3  C   UNL A   1      31.750  25.837  26.379  1.00  0.00     0.328 C 
ATOM      4  O   UNL A   1      30.624  25.684  26.848  1.00  0.00    -0.250 OA
BRANCH   3   5
ATOM      5  C   UNL A   1      32.530  24.672  25.750  1.00  0.00     0.192 C 
BRANCH   5   6
ATOM      6  C   UNL A   1      33.953  25.217  25.497  1.00  0.00     0.033 C 
ATOM      7  C   UNL A   1      34.474  24.942  24.097  1.00  0.00     0.007 C 
ENDBRANCH   5   6
BRANCH   5   8
ATOM      8  N   UNL A   1      32.005  24.098  24.505  1.00  0.00    -0.339 N 
ATOM      9  C   UNL A   1      30.990  24.543  23.696  1.00  0.00     0.253 C 
ATOM     10  H   UNL A   1      32.447  23.271  24.206  1.00  0.00     0.164 HD
ATOM     11  O   UNL A   1      30.322  23.717  23.079  1.00  0.00    -0.269 OA
BRANCH   9  12
ATOM     12  C   UNL A   1      30.713  25.975  23.478  1.00  0.00     0.058 A 
ATOM     13  C   UNL A   1      31.596  26.797  22.785  1.00  0.00     0.017 A 
ATOM     14  C   UNL A   1      29.438  26.471  23.728  1.00  0.00     0.125 A 
ATOM     15  C   UNL A   1      31.169  28.060  22.364  1.00  0.00     0.024 A 
ATOM     16  N   UNL A   1      29.015  27.714  23.370  1.00  0.00    -0.261 NA
ATOM     17  C   UNL A   1      29.877  28.480  22.661  1.00  0.00     0.037 A 
ATOM     18  C   UNL A   1      29.386  29.808  22.160  1.00  0.00     0.066 C 
ENDBRANCH   9  12
ENDBRANCH   5   8
ENDBRANCH   3   5
ENDBRANCH   2   3
ENDBRANCH   1   2
BRANCH   1  19
ATOM     19  C   UNL A   1      31.736  29.295  25.763  1.00  0.00     0.275 C 
BRANCH  19  20
ATOM     20  O   UNL A   1      33.028  29.919  25.859  1.00  0.00    -0.458 OA
BRANCH  20  21
ATOM     21  C   UNL A   1      33.132  30.888  26.793  1.00  0.00     0.338 C 
ATOM     22  O   UNL A   1      32.249  31.674  27.109  1.00  0.00    -0.246 OA
BRANCH  21  23
ATOM     23  C   UNL A   1      34.442  30.818  27.497  1.00  0.00     0.060 A 
ATOM     24  C   UNL A   1      35.236  31.951  27.724  1.00  0.00     0.016 A 
ATOM     25  C   UNL A   1      34.939  29.556  27.835  1.00  0.00     0.016 A 
ATOM     26  C   UNL A   1      36.526  31.821  28.248  1.00  0.00     0.010 A 
ATOM     27  C   UNL A   1      36.211  29.429  28.398  1.00  0.00     0.010 A 
ATOM     28  C   UNL A   1      37.015  30.559  28.610  1.00  0.00    -0.014 A 
BRANCH  28  29
ATOM     29  C   UNL A   1      38.305  30.394  29.323  1.00  0.00     0.031 A 
ATOM     30  C   UNL A   1      39.382  29.510  28.777  1.00  0.00     0.074 A 
ATOM     31  C   UNL A   1      38.451  30.949  30.537  1.00  0.00     0.049 A 
ATOM     32  N   UNL A   1      40.341  28.881  29.404  1.00  0.00    -0.248 NA
ATOM     33  C   UNL A   1      39.366  29.295  27.328  1.00  0.00     0.031 C 
ATOM     34  C   UNL A   1      37.507  31.874  31.163  1.00  0.00     0.029 A 
ATOM     35  N   UNL A   1      39.439  30.785  31.474  1.00  0.00    -0.354 N 
ATOM     36  C   UNL A   1      40.977  28.108  28.440  1.00  0.00     0.074 A 
ATOM     37  C   UNL A   1      40.323  28.387  27.178  1.00  0.00     0.031 C 
ATOM     38  C   UNL A   1      37.952  32.185  32.389  1.00  0.00     0.029 A 
ATOM     39  C   UNL A   1      39.166  31.422  32.657  1.00  0.00     0.049 A 
ATOM     40  H   UNL A   1      40.258  30.263  31.314  1.00  0.00     0.167 HD
ATOM     41  C   UNL A   1      42.006  27.243  28.614  1.00  0.00     0.037 A 
ATOM     42  C   UNL A   1      39.794  31.352  33.845  1.00  0.00     0.037 A 
ATOM     43  C   UNL A   1      42.727  27.092  29.855  1.00  0.00     0.049 A 
ATOM     44  C   UNL A   1      40.983  30.451  33.997  1.00  0.00     0.074 A 
ATOM     45  C   UNL A   1      43.809  26.275  30.135  1.00  0.00     0.029 A 
ATOM     46  N   UNL A   1      42.463  27.814  31.010  1.00  0.00    -0.354 N 
ATOM     47  N   UNL A   1      41.502  29.618  33.129  1.00  0.00    -0.248 NA
ATOM     48  C   UNL A   1      41.667  30.473  35.296  1.00  0.00     0.031 C 
ATOM     49  C   UNL A   1      44.198  26.501  31.461  1.00  0.00     0.029 A 
ATOM     50  C   UNL A   1      43.378  27.482  31.995  1.00  0.00     0.049 A 
ATOM     51  H   UNL A   1      41.734  28.467  31.113  1.00  0.00     0.167 HD
ATOM     52  C   UNL A   1      42.580  29.025  33.768  1.00  0.00     0.074 A 
ATOM     53  C   UNL A   1      42.650  29.607  35.094  1.00  0.00     0.031 C 
ATOM     54  C   UNL A   1      43.432  28.079  33.304  1.00  0.00     0.037 A 
BRANCH  41  55
ATOM     55  C   UNL A   1      42.407  26.365  27.463  1.00  0.00     0.064 A 
ATOM     56  C   UNL A   1      43.467  26.684  26.605  1.00  0.00     0.173 A 
ATOM     57  C   UNL A   1      41.765  25.129  27.276  1.00  0.00     0.173 A 
ATOM     58  F   UNL A   1      44.113  27.852  26.737  1.00  0.00    -0.203 F 
ATOM     59  C   UNL A   1      43.862  25.807  25.597  1.00  0.00     0.198 A 
ATOM     60  C   UNL A   1      42.180  24.242  26.287  1.00  0.00     0.198 A 
ATOM     61  F   UNL A   1      40.749  24.767  28.076  1.00  0.00    -0.203 F 
ATOM     62  F   UNL A   1      44.864  26.143  24.772  1.00  0.00    -0.200 F 
ATOM     63  C   UNL A   1      43.227  24.582  25.446  1.00  0.00     0.200 A 
ATOM     64  F   UNL A   1      41.575  23.052  26.157  1.00  0.00    -0.200 F 
ATOM     65  F   UNL A   1      43.625  23.730  24.491  1.00  0.00    -0.200 F 
ENDBRANCH  41  55
BRANCH  42  66
ATOM     66  C   UNL A   1      39.282  32.161  34.977  1.00  0.00     0.064 A 
ATOM     67  C   UNL A   1      38.482  31.573  35.963  1.00  0.00     0.173 A 
ATOM     68  C   UNL A   1      39.635  33.509  35.130  1.00  0.00     0.173 A 
ATOM     69  F   UNL A   1      38.108  30.290  35.846  1.00  0.00    -0.203 F 
ATOM     70  C   UNL A   1      38.050  32.307  37.066  1.00  0.00     0.198 A 
ATOM     71  C   UNL A   1      39.224  34.234  36.246  1.00  0.00     0.198 A 
ATOM     72  F   UNL A   1      40.410  34.109  34.216  1.00  0.00    -0.203 F 
ATOM     73  F   UNL A   1      37.267  31.728  37.987  1.00  0.00    -0.200 F 
ATOM     74  C   UNL A   1      38.430  33.633  37.211  1.00  0.00     0.200 A 
ATOM     75  F   UNL A   1      39.610  35.508  36.394  1.00  0.00    -0.200 F 
ATOM     76  F   UNL A   1      38.033  34.330  38.284  1.00  0.00    -0.200 F 
ENDBRANCH  42  66
BRANCH  54  77
ATOM     77  C   UNL A   1      44.534  27.650  34.224  1.00  0.00     0.064 A 
ATOM     78  C   UNL A   1      45.766  28.320  34.251  1.00  0.00     0.173 A 
ATOM     79  C   UNL A   1      44.346  26.569  35.096  1.00  0.00     0.173 A 
ATOM     80  F   UNL A   1      45.994  29.348  33.422  1.00  0.00    -0.203 F 
ATOM     81  C   UNL A   1      46.784  27.902  35.105  1.00  0.00     0.198 A 
ATOM     82  C   UNL A   1      45.359  26.168  35.963  1.00  0.00     0.198 A 
ATOM     83  F   UNL A   1      43.183  25.902  35.107  1.00  0.00    -0.203 F 
ATOM     84  F   UNL A   1      47.969  28.525  35.085  1.00  0.00    -0.200 F 
ATOM     85  C   UNL A   1      46.579  26.830  35.961  1.00  0.00     0.200 A 
ATOM     86  F   UNL A   1      45.159  25.135  36.793  1.00  0.00    -0.200 F 
ATOM     87  F   UNL A   1      47.561  26.427  36.779  1.00  0.00    -0.200 F 
ENDBRANCH  54  77
ENDBRANCH  28  29
ENDBRANCH  21  23
ENDBRANCH  20  21
ENDBRANCH  19  20
ENDBRANCH   1  19
TORSDOF 14
ENDMDL
