MODEL 1
REMARK VINA RESULT:     -11.9      0.000      0.000
REMARK SMILES Cc1nsc(N(C)C(=O)[C@@H]2CCC[C@H]2C[NH3+])c1C(=O)OCCOC(=O)c1ccc(-c2c3nc(c(-c4c(F)c(F)c(F)c(F)c4F)c4ccc([nH]4)c(-c4c(F)c(F)c(F)c(F)c4F)c4nc(c(-c5c(F)c(F)c(F)c(F)c5F)c5ccc2[nH]5)C=C4)C=C3)cc1
REMARK SMILES IDX 20 1 18 2 19 3 17 4 1 5 2 6 3 7 4 8 5 9 6 10 7 11 8 12 9 13
REMARK SMILES IDX 10 14 11 15 14 16 12 17 13 18 15 19 16 20 21 24 22 25 23 26
REMARK SMILES IDX 24 27 25 28 26 29 27 30 88 31 28 32 87 33 29 34 30 35 31 36
REMARK SMILES IDX 81 37 32 38 86 39 80 40 82 41 33 42 85 43 79 44 78 45 34 47
REMARK SMILES IDX 66 48 46 49 65 50 47 51 50 52 64 53 83 54 48 55 49 56 63 58
REMARK SMILES IDX 84 59 51 60 35 61 36 62 44 63 37 64 38 65 42 66 45 67 39 68
REMARK SMILES IDX 40 69 43 70 41 71 67 72 68 73 76 74 69 75 70 76 74 77 77 78
REMARK SMILES IDX 71 79 72 80 75 81 73 82 52 83 53 84 61 85 54 86 55 87 59 88
REMARK SMILES IDX 62 89 56 90 57 91 60 92 58 93
REMARK H PARENT 16 21 16 22 16 23 82 46 50 57
REMARK Flexibility Score: inf
ROOT
ATOM      1  O   UNL A   1      35.951  22.283  24.945  1.00  0.00    -0.458 OA
ENDROOT
BRANCH   1   2
ATOM      2  C   UNL A   1      35.018  22.566  23.993  1.00  0.00     0.343 C 
ATOM      3  O   UNL A   1      35.285  22.937  22.853  1.00  0.00    -0.246 OA
BRANCH   2   4
ATOM      4  C   UNL A   1      33.669  22.411  24.514  1.00  0.00     0.117 A 
ATOM      5  C   UNL A   1      33.655  19.765  24.478  1.00  0.00     0.069 C 
ATOM      6  C   UNL A   1      33.062  21.107  24.766  1.00  0.00     0.068 A 
ATOM      7  N   UNL A   1      31.856  21.117  25.323  1.00  0.00    -0.195 NA
ATOM      8  S   UNL A   1      31.367  22.664  25.496  1.00  0.00    -0.017 S 
ATOM      9  C   UNL A   1      32.771  23.434  24.843  1.00  0.00     0.133 A 
BRANCH   9  10
ATOM     10  N   UNL A   1      32.732  24.867  24.728  1.00  0.00    -0.305 N 
ATOM     11  C   UNL A   1      33.310  25.697  25.785  1.00  0.00     0.154 C 
BRANCH  10  12
ATOM     12  C   UNL A   1      31.909  25.429  23.734  1.00  0.00     0.231 C 
ATOM     13  O   UNL A   1      31.680  24.793  22.697  1.00  0.00    -0.274 OA
BRANCH  12  14
ATOM     14  C   UNL A   1      31.245  26.863  23.821  1.00  0.00     0.088 C 
ATOM     15  C   UNL A   1      29.769  27.036  23.454  1.00  0.00     0.014 C 
ATOM     16  C   UNL A   1      31.921  27.879  22.838  1.00  0.00     0.056 C 
ATOM     17  C   UNL A   1      29.542  28.480  23.062  1.00  0.00     0.001 C 
ATOM     18  C   UNL A   1      30.882  28.998  22.607  1.00  0.00     0.010 C 
BRANCH  16  19
ATOM     19  C   UNL A   1      33.232  28.589  23.244  1.00  0.00     0.263 C 
BRANCH  19  20
ATOM     20  N   UNL A   1      33.189  29.592  24.287  1.00  0.00    -0.357 N 
ATOM     21  H   UNL A   1      32.236  29.943  24.382  1.00  0.00     0.344 HD
ATOM     22  H   UNL A   1      33.813  30.361  24.045  1.00  0.00     0.344 HD
ATOM     23  H   UNL A   1      33.488  29.177  25.170  1.00  0.00     0.344 HD
ENDBRANCH  19  20
ENDBRANCH  16  19
ENDBRANCH  12  14
ENDBRANCH  10  12
ENDBRANCH   9  10
ENDBRANCH   2   4
ENDBRANCH   1   2
BRANCH   1  24
ATOM     24  C   UNL A   1      37.326  22.373  24.560  1.00  0.00     0.275 C 
BRANCH  24  25
ATOM     25  C   UNL A   1      38.141  21.794  25.702  1.00  0.00     0.275 C 
BRANCH  25  26
ATOM     26  O   UNL A   1      38.744  22.863  26.420  1.00  0.00    -0.458 OA
BRANCH  26  27
ATOM     27  C   UNL A   1      39.876  22.661  27.136  1.00  0.00     0.338 C 
ATOM     28  O   UNL A   1      40.329  21.616  27.555  1.00  0.00    -0.246 OA
BRANCH  27  29
ATOM     29  C   UNL A   1      40.379  24.016  27.438  1.00  0.00     0.060 A 
ATOM     30  C   UNL A   1      41.399  24.252  28.363  1.00  0.00     0.016 A 
ATOM     31  C   UNL A   1      39.722  25.082  26.807  1.00  0.00     0.016 A 
ATOM     32  C   UNL A   1      41.666  25.570  28.727  1.00  0.00     0.010 A 
ATOM     33  C   UNL A   1      40.065  26.371  27.069  1.00  0.00     0.010 A 
ATOM     34  C   UNL A   1      40.936  26.602  28.118  1.00  0.00    -0.014 A 
BRANCH  34  35
ATOM     35  C   UNL A   1      40.952  27.961  28.610  1.00  0.00     0.031 A 
ATOM     36  C   UNL A   1      42.005  28.844  28.069  1.00  0.00     0.074 A 
ATOM     37  C   UNL A   1      39.914  28.442  29.325  1.00  0.00     0.049 A 
ATOM     38  N   UNL A   1      43.033  29.307  28.693  1.00  0.00    -0.248 NA
ATOM     39  C   UNL A   1      41.973  29.172  26.641  1.00  0.00     0.031 C 
ATOM     40  C   UNL A   1      38.628  27.814  29.664  1.00  0.00     0.029 A 
ATOM     41  N   UNL A   1      39.785  29.684  29.850  1.00  0.00    -0.354 N 
ATOM     42  C   UNL A   1      43.705  30.127  27.790  1.00  0.00     0.074 A 
ATOM     43  C   UNL A   1      43.101  29.876  26.507  1.00  0.00     0.031 C 
ATOM     44  C   UNL A   1      37.782  28.748  30.155  1.00  0.00     0.029 A 
ATOM     45  C   UNL A   1      38.523  29.982  30.335  1.00  0.00     0.049 A 
ATOM     46  H   UNL A   1      40.531  30.324  29.883  1.00  0.00     0.167 HD
ATOM     47  C   UNL A   1      44.573  31.082  28.229  1.00  0.00     0.037 A 
ATOM     48  C   UNL A   1      38.133  31.177  30.835  1.00  0.00     0.037 A 
ATOM     49  C   UNL A   1      44.884  30.881  29.626  1.00  0.00     0.049 A 
ATOM     50  C   UNL A   1      39.373  31.890  31.251  1.00  0.00     0.074 A 
ATOM     51  C   UNL A   1      45.492  29.866  30.340  1.00  0.00     0.029 A 
ATOM     52  N   UNL A   1      44.192  31.619  30.557  1.00  0.00    -0.354 N 
ATOM     53  N   UNL A   1      40.142  31.478  32.225  1.00  0.00    -0.248 NA
ATOM     54  C   UNL A   1      40.021  32.747  30.267  1.00  0.00     0.031 C 
ATOM     55  C   UNL A   1      44.714  29.743  31.531  1.00  0.00     0.029 A 
ATOM     56  C   UNL A   1      43.737  30.741  31.510  1.00  0.00     0.049 A 
ATOM     57  H   UNL A   1      44.050  32.593  30.544  1.00  0.00     0.167 HD
ATOM     58  C   UNL A   1      41.440  31.669  31.765  1.00  0.00     0.074 A 
ATOM     59  C   UNL A   1      41.301  32.520  30.584  1.00  0.00     0.031 C 
ATOM     60  C   UNL A   1      42.474  30.888  32.201  1.00  0.00     0.037 A 
BRANCH  47  61
ATOM     61  C   UNL A   1      44.907  32.377  27.528  1.00  0.00     0.064 A 
ATOM     62  C   UNL A   1      46.126  32.473  26.822  1.00  0.00     0.173 A 
ATOM     63  C   UNL A   1      44.240  33.599  27.747  1.00  0.00     0.173 A 
ATOM     64  F   UNL A   1      46.845  31.376  26.539  1.00  0.00    -0.203 F 
ATOM     65  C   UNL A   1      46.683  33.704  26.464  1.00  0.00     0.198 A 
ATOM     66  C   UNL A   1      44.775  34.823  27.342  1.00  0.00     0.198 A 
ATOM     67  F   UNL A   1      43.105  33.678  28.449  1.00  0.00    -0.203 F 
ATOM     68  F   UNL A   1      47.904  33.747  25.915  1.00  0.00    -0.200 F 
ATOM     69  C   UNL A   1      46.012  34.879  26.736  1.00  0.00     0.200 A 
ATOM     70  F   UNL A   1      44.111  35.954  27.620  1.00  0.00    -0.200 F 
ATOM     71  F   UNL A   1      46.571  36.064  26.457  1.00  0.00    -0.200 F 
ENDBRANCH  47  61
BRANCH  48  72
ATOM     72  C   UNL A   1      36.824  31.840  30.647  1.00  0.00     0.064 A 
ATOM     73  C   UNL A   1      35.923  31.990  31.712  1.00  0.00     0.173 A 
ATOM     74  C   UNL A   1      36.542  32.579  29.478  1.00  0.00     0.173 A 
ATOM     75  F   UNL A   1      36.144  31.355  32.871  1.00  0.00    -0.203 F 
ATOM     76  C   UNL A   1      34.820  32.846  31.622  1.00  0.00     0.198 A 
ATOM     77  C   UNL A   1      35.440  33.430  29.389  1.00  0.00     0.198 A 
ATOM     78  F   UNL A   1      37.383  32.560  28.433  1.00  0.00    -0.203 F 
ATOM     79  F   UNL A   1      34.013  33.009  32.680  1.00  0.00    -0.200 F 
ATOM     80  C   UNL A   1      34.586  33.574  30.466  1.00  0.00     0.200 A 
ATOM     81  F   UNL A   1      35.248  34.155  28.278  1.00  0.00    -0.200 F 
ATOM     82  F   UNL A   1      33.567  34.442  30.404  1.00  0.00    -0.200 F 
ENDBRANCH  48  72
BRANCH  60  83
ATOM     83  C   UNL A   1      42.213  29.930  33.336  1.00  0.00     0.064 A 
ATOM     84  C   UNL A   1      41.866  28.579  33.159  1.00  0.00     0.173 A 
ATOM     85  C   UNL A   1      42.493  30.346  34.644  1.00  0.00     0.173 A 
ATOM     86  F   UNL A   1      41.686  28.069  31.939  1.00  0.00    -0.203 F 
ATOM     87  C   UNL A   1      41.763  27.701  34.237  1.00  0.00     0.198 A 
ATOM     88  C   UNL A   1      42.424  29.459  35.717  1.00  0.00     0.198 A 
ATOM     89  F   UNL A   1      42.893  31.606  34.876  1.00  0.00    -0.203 F 
ATOM     90  F   UNL A   1      41.427  26.418  34.029  1.00  0.00    -0.200 F 
ATOM     91  C   UNL A   1      42.050  28.140  35.515  1.00  0.00     0.200 A 
ATOM     92  F   UNL A   1      42.755  29.877  36.947  1.00  0.00    -0.200 F 
ATOM     93  F   UNL A   1      41.996  27.288  36.548  1.00  0.00    -0.200 F 
ENDBRANCH  60  83
ENDBRANCH  34  35
ENDBRANCH  27  29
ENDBRANCH  26  27
ENDBRANCH  25  26
ENDBRANCH  24  25
ENDBRANCH   1  24
TORSDOF 16
ENDMDL
MODEL 2
REMARK VINA RESULT:     -11.9      1.263      2.233
REMARK SMILES Cc1nsc(N(C)C(=O)[C@@H]2CCC[C@H]2C[NH3+])c1C(=O)OCCOC(=O)c1ccc(-c2c3nc(c(-c4c(F)c(F)c(F)c(F)c4F)c4ccc([nH]4)c(-c4c(F)c(F)c(F)c(F)c4F)c4nc(c(-c5c(F)c(F)c(F)c(F)c5F)c5ccc2[nH]5)C=C4)C=C3)cc1
REMARK SMILES IDX 20 1 18 2 19 3 17 4 1 5 2 6 3 7 4 8 5 9 6 10 7 11 8 12 9 13
REMARK SMILES IDX 10 14 11 15 14 16 12 17 13 18 15 19 16 20 21 24 22 25 23 26
REMARK SMILES IDX 24 27 25 28 26 29 27 30 88 31 28 32 87 33 29 34 30 35 31 36
REMARK SMILES IDX 81 37 32 38 86 39 80 40 82 41 33 42 85 43 79 44 78 45 34 47
REMARK SMILES IDX 66 48 46 49 65 50 47 51 50 52 64 53 83 54 48 55 49 56 63 58
REMARK SMILES IDX 84 59 51 60 35 61 36 62 44 63 37 64 38 65 42 66 45 67 39 68
REMARK SMILES IDX 40 69 43 70 41 71 67 72 68 73 76 74 69 75 70 76 74 77 77 78
REMARK SMILES IDX 71 79 72 80 75 81 73 82 52 83 53 84 61 85 54 86 55 87 59 88
REMARK SMILES IDX 62 89 56 90 57 91 60 92 58 93
REMARK H PARENT 16 21 16 22 16 23 82 46 50 57
REMARK Flexibility Score: inf
ROOT
ATOM      1  O   UNL A   1      36.365  21.689  24.655  1.00  0.00    -0.458 OA
ENDROOT
BRANCH   1   2
ATOM      2  C   UNL A   1      35.451  22.285  23.839  1.00  0.00     0.343 C 
ATOM      3  O   UNL A   1      35.739  22.937  22.839  1.00  0.00    -0.246 OA
BRANCH   2   4
ATOM      4  C   UNL A   1      34.097  22.085  24.329  1.00  0.00     0.117 A 
ATOM      5  C   UNL A   1      34.256  19.450  24.528  1.00  0.00     0.069 C 
ATOM      6  C   UNL A   1      33.566  20.769  24.676  1.00  0.00     0.068 A 
ATOM      7  N   UNL A   1      32.342  20.745  25.192  1.00  0.00    -0.195 NA
ATOM      8  S   UNL A   1      31.749  22.265  25.212  1.00  0.00    -0.017 S 
ATOM      9  C   UNL A   1      33.122  23.069  24.538  1.00  0.00     0.133 A 
BRANCH   9  10
ATOM     10  N   UNL A   1      32.995  24.481  24.295  1.00  0.00    -0.305 N 
ATOM     11  C   UNL A   1      32.531  24.955  22.992  1.00  0.00     0.154 C 
BRANCH  10  12
ATOM     12  C   UNL A   1      33.570  25.366  25.226  1.00  0.00     0.231 C 
ATOM     13  O   UNL A   1      34.603  25.040  25.825  1.00  0.00    -0.274 OA
BRANCH  12  14
ATOM     14  C   UNL A   1      32.977  26.784  25.603  1.00  0.00     0.088 C 
ATOM     15  C   UNL A   1      33.851  27.795  26.350  1.00  0.00     0.014 C 
ATOM     16  C   UNL A   1      31.756  26.665  26.577  1.00  0.00     0.056 C 
ATOM     17  C   UNL A   1      32.945  28.766  27.075  1.00  0.00     0.001 C 
ATOM     18  C   UNL A   1      31.643  28.035  27.283  1.00  0.00     0.010 C 
BRANCH  16  19
ATOM     19  C   UNL A   1      30.349  26.356  26.016  1.00  0.00     0.263 C 
BRANCH  19  20
ATOM     20  N   UNL A   1      29.737  25.082  26.329  1.00  0.00    -0.357 N 
ATOM     21  H   UNL A   1      30.414  24.489  26.808  1.00  0.00     0.344 HD
ATOM     22  H   UNL A   1      29.437  24.628  25.467  1.00  0.00     0.344 HD
ATOM     23  H   UNL A   1      28.929  25.233  26.933  1.00  0.00     0.344 HD
ENDBRANCH  19  20
ENDBRANCH  16  19
ENDBRANCH  12  14
ENDBRANCH  10  12
ENDBRANCH   9  10
ENDBRANCH   2   4
ENDBRANCH   1   2
BRANCH   1  24
ATOM     24  C   UNL A   1      36.860  22.459  25.755  1.00  0.00     0.275 C 
BRANCH  24  25
ATOM     25  C   UNL A   1      38.337  22.138  25.888  1.00  0.00     0.275 C 
BRANCH  25  26
ATOM     26  O   UNL A   1      38.981  23.219  26.549  1.00  0.00    -0.458 OA
BRANCH  26  27
ATOM     27  C   UNL A   1      40.086  23.007  27.303  1.00  0.00     0.338 C 
ATOM     28  O   UNL A   1      40.497  21.963  27.766  1.00  0.00    -0.246 OA
BRANCH  27  29
ATOM     29  C   UNL A   1      40.619  24.355  27.581  1.00  0.00     0.060 A 
ATOM     30  C   UNL A   1      41.707  24.575  28.430  1.00  0.00     0.016 A 
ATOM     31  C   UNL A   1      39.924  25.432  27.013  1.00  0.00     0.016 A 
ATOM     32  C   UNL A   1      42.009  25.887  28.787  1.00  0.00     0.010 A 
ATOM     33  C   UNL A   1      40.294  26.716  27.263  1.00  0.00     0.010 A 
ATOM     34  C   UNL A   1      41.243  26.931  28.246  1.00  0.00    -0.014 A 
BRANCH  34  35
ATOM     35  C   UNL A   1      41.305  28.284  28.749  1.00  0.00     0.031 A 
ATOM     36  C   UNL A   1      42.442  29.105  28.290  1.00  0.00     0.074 A 
ATOM     37  C   UNL A   1      40.250  28.822  29.396  1.00  0.00     0.049 A 
ATOM     38  N   UNL A   1      43.451  29.504  28.986  1.00  0.00    -0.248 NA
ATOM     39  C   UNL A   1      42.527  29.442  26.866  1.00  0.00     0.031 C 
ATOM     40  C   UNL A   1      38.909  28.269  29.641  1.00  0.00     0.029 A 
ATOM     41  N   UNL A   1      40.158  30.066  29.922  1.00  0.00    -0.354 N 
ATOM     42  C   UNL A   1      44.229  30.287  28.139  1.00  0.00     0.074 A 
ATOM     43  C   UNL A   1      43.701  30.078  26.815  1.00  0.00     0.031 C 
ATOM     44  C   UNL A   1      38.088  29.249  30.082  1.00  0.00     0.029 A 
ATOM     45  C   UNL A   1      38.886  30.436  30.322  1.00  0.00     0.049 A 
ATOM     46  H   UNL A   1      40.936  30.662  30.011  1.00  0.00     0.167 HD
ATOM     47  C   UNL A   1      45.120  31.187  28.644  1.00  0.00     0.037 A 
ATOM     48  C   UNL A   1      38.532  31.650  30.805  1.00  0.00     0.037 A 
ATOM     49  C   UNL A   1      45.322  30.962  30.057  1.00  0.00     0.049 A 
ATOM     50  C   UNL A   1      39.781  32.287  31.311  1.00  0.00     0.074 A 
ATOM     51  C   UNL A   1      45.818  29.909  30.802  1.00  0.00     0.029 A 
ATOM     52  N   UNL A   1      44.612  31.735  30.945  1.00  0.00    -0.354 N 
ATOM     53  N   UNL A   1      40.456  31.825  32.331  1.00  0.00    -0.248 NA
ATOM     54  C   UNL A   1      40.544  33.109  30.381  1.00  0.00     0.031 C 
ATOM     55  C   UNL A   1      44.955  29.827  31.936  1.00  0.00     0.029 A 
ATOM     56  C   UNL A   1      44.042  30.881  31.857  1.00  0.00     0.049 A 
ATOM     57  H   UNL A   1      44.529  32.716  30.931  1.00  0.00     0.167 HD
ATOM     58  C   UNL A   1      41.791  31.942  31.963  1.00  0.00     0.074 A 
ATOM     59  C   UNL A   1      41.784  32.804  30.783  1.00  0.00     0.031 C 
ATOM     60  C   UNL A   1      42.746  31.098  32.461  1.00  0.00     0.037 A 
BRANCH  47  61
ATOM     61  C   UNL A   1      45.577  32.463  27.979  1.00  0.00     0.064 A 
ATOM     62  C   UNL A   1      44.618  33.458  27.686  1.00  0.00     0.173 A 
ATOM     63  C   UNL A   1      46.833  32.639  27.366  1.00  0.00     0.173 A 
ATOM     64  F   UNL A   1      43.390  33.407  28.223  1.00  0.00    -0.203 F 
ATOM     65  C   UNL A   1      44.865  34.482  26.767  1.00  0.00     0.198 A 
ATOM     66  C   UNL A   1      47.094  33.693  26.488  1.00  0.00     0.198 A 
ATOM     67  F   UNL A   1      47.825  31.753  27.500  1.00  0.00    -0.203 F 
ATOM     68  F   UNL A   1      43.879  35.320  26.425  1.00  0.00    -0.200 F 
ATOM     69  C   UNL A   1      46.100  34.590  26.160  1.00  0.00     0.200 A 
ATOM     70  F   UNL A   1      48.297  33.780  25.903  1.00  0.00    -0.200 F 
ATOM     71  F   UNL A   1      46.321  35.528  25.228  1.00  0.00    -0.200 F 
ENDBRANCH  47  61
BRANCH  48  72
ATOM     72  C   UNL A   1      37.280  32.390  30.534  1.00  0.00     0.064 A 
ATOM     73  C   UNL A   1      37.008  32.920  29.263  1.00  0.00     0.173 A 
ATOM     74  C   UNL A   1      36.204  32.360  31.445  1.00  0.00     0.173 A 
ATOM     75  F   UNL A   1      37.967  32.944  28.327  1.00  0.00    -0.203 F 
ATOM     76  C   UNL A   1      35.730  33.371  28.917  1.00  0.00     0.198 A 
ATOM     77  C   UNL A   1      34.930  32.813  31.099  1.00  0.00     0.198 A 
ATOM     78  F   UNL A   1      36.345  31.805  32.657  1.00  0.00    -0.203 F 
ATOM     79  F   UNL A   1      35.492  33.818  27.676  1.00  0.00    -0.200 F 
ATOM     80  C   UNL A   1      34.689  33.306  29.831  1.00  0.00     0.200 A 
ATOM     81  F   UNL A   1      33.926  32.710  31.982  1.00  0.00    -0.200 F 
ATOM     82  F   UNL A   1      33.451  33.679  29.479  1.00  0.00    -0.200 F 
ENDBRANCH  48  72
BRANCH  60  83
ATOM     83  C   UNL A   1      42.351  30.152  33.568  1.00  0.00     0.064 A 
ATOM     84  C   UNL A   1      41.905  28.837  33.353  1.00  0.00     0.173 A 
ATOM     85  C   UNL A   1      42.599  30.529  34.894  1.00  0.00     0.173 A 
ATOM     86  F   UNL A   1      41.745  28.357  32.118  1.00  0.00    -0.203 F 
ATOM     87  C   UNL A   1      41.678  27.958  34.411  1.00  0.00     0.198 A 
ATOM     88  C   UNL A   1      42.405  29.638  35.949  1.00  0.00     0.198 A 
ATOM     89  F   UNL A   1      43.088  31.749  35.165  1.00  0.00    -0.203 F 
ATOM     90  F   UNL A   1      41.249  26.709  34.167  1.00  0.00    -0.200 F 
ATOM     91  C   UNL A   1      41.936  28.357  35.709  1.00  0.00     0.200 A 
ATOM     92  F   UNL A   1      42.707  30.014  37.199  1.00  0.00    -0.200 F 
ATOM     93  F   UNL A   1      41.761  27.500  36.724  1.00  0.00    -0.200 F 
ENDBRANCH  60  83
ENDBRANCH  34  35
ENDBRANCH  27  29
ENDBRANCH  26  27
ENDBRANCH  25  26
ENDBRANCH  24  25
ENDBRANCH   1  24
TORSDOF 16
ENDMDL
MODEL 3
REMARK VINA RESULT:     -11.7      3.386      8.863
REMARK SMILES Cc1nsc(N(C)C(=O)[C@@H]2CCC[C@H]2C[NH3+])c1C(=O)OCCOC(=O)c1ccc(-c2c3nc(c(-c4c(F)c(F)c(F)c(F)c4F)c4ccc([nH]4)c(-c4c(F)c(F)c(F)c(F)c4F)c4nc(c(-c5c(F)c(F)c(F)c(F)c5F)c5ccc2[nH]5)C=C4)C=C3)cc1
REMARK SMILES IDX 20 1 18 2 19 3 17 4 1 5 2 6 3 7 4 8 5 9 6 10 7 11 8 12 9 13
REMARK SMILES IDX 10 14 11 15 14 16 12 17 13 18 15 19 16 20 21 24 22 25 23 26
REMARK SMILES IDX 24 27 25 28 26 29 27 30 88 31 28 32 87 33 29 34 30 35 31 36
REMARK SMILES IDX 81 37 32 38 86 39 80 40 82 41 33 42 85 43 79 44 78 45 34 47
REMARK SMILES IDX 66 48 46 49 65 50 47 51 50 52 64 53 83 54 48 55 49 56 63 58
REMARK SMILES IDX 84 59 51 60 35 61 36 62 44 63 37 64 38 65 42 66 45 67 39 68
REMARK SMILES IDX 40 69 43 70 41 71 67 72 68 73 76 74 69 75 70 76 74 77 77 78
REMARK SMILES IDX 71 79 72 80 75 81 73 82 52 83 53 84 61 85 54 86 55 87 59 88
REMARK SMILES IDX 62 89 56 90 57 91 60 92 58 93
REMARK H PARENT 16 21 16 22 16 23 82 46 50 57
REMARK Flexibility Score: inf
ROOT
ATOM      1  O   UNL A   1      33.195  28.061  26.739  1.00  0.00    -0.458 OA
ENDROOT
BRANCH   1   2
ATOM      2  C   UNL A   1      32.309  27.127  26.291  1.00  0.00     0.343 C 
ATOM      3  O   UNL A   1      31.442  26.608  26.987  1.00  0.00    -0.246 OA
BRANCH   2   4
ATOM      4  C   UNL A   1      32.552  26.797  24.896  1.00  0.00     0.117 A 
ATOM      5  C   UNL A   1      31.354  28.929  23.887  1.00  0.00     0.069 C 
ATOM      6  C   UNL A   1      32.134  27.657  23.793  1.00  0.00     0.068 A 
ATOM      7  N   UNL A   1      32.498  27.272  22.575  1.00  0.00    -0.195 NA
ATOM      8  S   UNL A   1      33.278  25.843  22.684  1.00  0.00    -0.017 S 
ATOM      9  C   UNL A   1      33.194  25.655  24.400  1.00  0.00     0.133 A 
BRANCH   9  10
ATOM     10  N   UNL A   1      33.719  24.431  24.946  1.00  0.00    -0.305 N 
ATOM     11  C   UNL A   1      35.155  24.300  25.186  1.00  0.00     0.154 C 
BRANCH  10  12
ATOM     12  C   UNL A   1      32.871  23.308  24.986  1.00  0.00     0.231 C 
ATOM     13  O   UNL A   1      31.926  23.282  25.784  1.00  0.00    -0.274 OA
BRANCH  12  14
ATOM     14  C   UNL A   1      33.042  22.021  24.081  1.00  0.00     0.088 C 
ATOM     15  C   UNL A   1      32.300  21.932  22.745  1.00  0.00     0.014 C 
ATOM     16  C   UNL A   1      32.523  20.730  24.800  1.00  0.00     0.056 C 
ATOM     17  C   UNL A   1      32.153  20.472  22.377  1.00  0.00     0.001 C 
ATOM     18  C   UNL A   1      32.223  19.712  23.677  1.00  0.00     0.010 C 
BRANCH  16  19
ATOM     19  C   UNL A   1      33.428  19.994  25.814  1.00  0.00     0.263 C 
BRANCH  19  20
ATOM     20  N   UNL A   1      32.907  18.832  26.501  1.00  0.00    -0.357 N 
ATOM     21  H   UNL A   1      32.241  19.130  27.214  1.00  0.00     0.344 HD
ATOM     22  H   UNL A   1      33.674  18.326  26.943  1.00  0.00     0.344 HD
ATOM     23  H   UNL A   1      32.438  18.222  25.831  1.00  0.00     0.344 HD
ENDBRANCH  19  20
ENDBRANCH  16  19
ENDBRANCH  12  14
ENDBRANCH  10  12
ENDBRANCH   9  10
ENDBRANCH   2   4
ENDBRANCH   1   2
BRANCH   1  24
ATOM     24  C   UNL A   1      32.655  29.284  27.249  1.00  0.00     0.275 C 
BRANCH  24  25
ATOM     25  C   UNL A   1      33.664  30.374  26.937  1.00  0.00     0.275 C 
BRANCH  25  26
ATOM     26  O   UNL A   1      34.672  30.363  27.940  1.00  0.00    -0.458 OA
BRANCH  26  27
ATOM     27  C   UNL A   1      35.521  31.409  28.075  1.00  0.00     0.338 C 
ATOM     28  O   UNL A   1      35.394  32.544  27.665  1.00  0.00    -0.246 OA
BRANCH  27  29
ATOM     29  C   UNL A   1      36.727  30.838  28.707  1.00  0.00     0.060 A 
ATOM     30  C   UNL A   1      37.928  31.545  28.816  1.00  0.00     0.016 A 
ATOM     31  C   UNL A   1      36.641  29.502  29.125  1.00  0.00     0.016 A 
ATOM     32  C   UNL A   1      39.061  30.857  29.242  1.00  0.00     0.010 A 
ATOM     33  C   UNL A   1      37.717  28.864  29.657  1.00  0.00     0.010 A 
ATOM     34  C   UNL A   1      38.942  29.502  29.586  1.00  0.00    -0.014 A 
BRANCH  34  35
ATOM     35  C   UNL A   1      40.089  28.646  29.784  1.00  0.00     0.031 A 
ATOM     36  C   UNL A   1      40.524  28.440  31.179  1.00  0.00     0.074 A 
ATOM     37  C   UNL A   1      40.564  27.894  28.769  1.00  0.00     0.049 A 
ATOM     38  N   UNL A   1      41.593  28.890  31.740  1.00  0.00    -0.248 NA
ATOM     39  C   UNL A   1      39.619  27.737  32.094  1.00  0.00     0.031 C 
ATOM     40  C   UNL A   1      40.045  27.710  27.405  1.00  0.00     0.029 A 
ATOM     41  N   UNL A   1      41.622  27.050  28.799  1.00  0.00    -0.354 N 
ATOM     42  C   UNL A   1      41.595  28.395  33.041  1.00  0.00     0.074 A 
ATOM     43  C   UNL A   1      40.284  27.834  33.249  1.00  0.00     0.031 C 
ATOM     44  C   UNL A   1      40.669  26.664  26.818  1.00  0.00     0.029 A 
ATOM     45  C   UNL A   1      41.746  26.233  27.689  1.00  0.00     0.049 A 
ATOM     46  H   UNL A   1      42.254  27.020  29.553  1.00  0.00     0.167 HD
ATOM     47  C   UNL A   1      42.751  28.326  33.760  1.00  0.00     0.037 A 
ATOM     48  C   UNL A   1      42.674  25.262  27.524  1.00  0.00     0.037 A 
ATOM     49  C   UNL A   1      43.796  29.087  33.114  1.00  0.00     0.049 A 
ATOM     50  C   UNL A   1      43.798  25.586  28.448  1.00  0.00     0.074 A 
ATOM     51  C   UNL A   1      43.959  30.423  32.799  1.00  0.00     0.029 A 
ATOM     52  N   UNL A   1      44.692  28.413  32.319  1.00  0.00    -0.354 N 
ATOM     53  N   UNL A   1      44.552  26.645  28.311  1.00  0.00    -0.248 NA
ATOM     54  C   UNL A   1      43.751  25.025  29.791  1.00  0.00     0.031 C 
ATOM     55  C   UNL A   1      44.537  30.422  31.494  1.00  0.00     0.029 A 
ATOM     56  C   UNL A   1      44.767  29.093  31.128  1.00  0.00     0.049 A 
ATOM     57  H   UNL A   1      45.188  27.597  32.557  1.00  0.00     0.167 HD
ATOM     58  C   UNL A   1      44.737  27.125  29.602  1.00  0.00     0.074 A 
ATOM     59  C   UNL A   1      44.279  26.045  30.476  1.00  0.00     0.031 C 
ATOM     60  C   UNL A   1      44.961  28.452  29.846  1.00  0.00     0.037 A 
BRANCH  47  61
ATOM     61  C   UNL A   1      43.063  27.339  34.859  1.00  0.00     0.064 A 
ATOM     62  C   UNL A   1      43.381  27.831  36.144  1.00  0.00     0.173 A 
ATOM     63  C   UNL A   1      43.342  25.973  34.651  1.00  0.00     0.173 A 
ATOM     64  F   UNL A   1      43.147  29.112  36.466  1.00  0.00    -0.203 F 
ATOM     65  C   UNL A   1      44.027  27.044  37.102  1.00  0.00     0.198 A 
ATOM     66  C   UNL A   1      43.940  25.177  35.628  1.00  0.00     0.198 A 
ATOM     67  F   UNL A   1      43.150  25.376  33.470  1.00  0.00    -0.203 F 
ATOM     68  F   UNL A   1      44.426  27.596  38.255  1.00  0.00    -0.200 F 
ATOM     69  C   UNL A   1      44.318  25.721  36.838  1.00  0.00     0.200 A 
ATOM     70  F   UNL A   1      44.220  23.895  35.353  1.00  0.00    -0.200 F 
ATOM     71  F   UNL A   1      44.997  24.982  37.725  1.00  0.00    -0.200 F 
ENDBRANCH  47  61
BRANCH  48  72
ATOM     72  C   UNL A   1      42.480  23.937  26.894  1.00  0.00     0.064 A 
ATOM     73  C   UNL A   1      43.351  23.470  25.898  1.00  0.00     0.173 A 
ATOM     74  C   UNL A   1      41.592  22.990  27.446  1.00  0.00     0.173 A 
ATOM     75  F   UNL A   1      44.254  24.298  25.353  1.00  0.00    -0.203 F 
ATOM     76  C   UNL A   1      43.350  22.130  25.495  1.00  0.00     0.198 A 
ATOM     77  C   UNL A   1      41.591  21.655  27.042  1.00  0.00     0.198 A 
ATOM     78  F   UNL A   1      40.773  23.322  28.455  1.00  0.00    -0.203 F 
ATOM     79  F   UNL A   1      44.235  21.706  24.582  1.00  0.00    -0.200 F 
ATOM     80  C   UNL A   1      42.479  21.221  26.076  1.00  0.00     0.200 A 
ATOM     81  F   UNL A   1      40.768  20.780  27.638  1.00  0.00    -0.200 F 
ATOM     82  F   UNL A   1      42.523  19.926  25.736  1.00  0.00    -0.200 F 
ENDBRANCH  48  72
BRANCH  60  83
ATOM     83  C   UNL A   1      45.192  29.362  28.666  1.00  0.00     0.064 A 
ATOM     84  C   UNL A   1      44.173  30.089  28.024  1.00  0.00     0.173 A 
ATOM     85  C   UNL A   1      46.509  29.645  28.283  1.00  0.00     0.173 A 
ATOM     86  F   UNL A   1      42.898  29.964  28.398  1.00  0.00    -0.203 F 
ATOM     87  C   UNL A   1      44.455  31.017  27.023  1.00  0.00     0.198 A 
ATOM     88  C   UNL A   1      46.792  30.599  27.306  1.00  0.00     0.198 A 
ATOM     89  F   UNL A   1      47.533  29.035  28.900  1.00  0.00    -0.203 F 
ATOM     90  F   UNL A   1      43.455  31.690  26.431  1.00  0.00    -0.200 F 
ATOM     91  C   UNL A   1      45.765  31.277  26.670  1.00  0.00     0.200 A 
ATOM     92  F   UNL A   1      48.066  30.885  27.006  1.00  0.00    -0.200 F 
ATOM     93  F   UNL A   1      46.041  32.202  25.739  1.00  0.00    -0.200 F 
ENDBRANCH  60  83
ENDBRANCH  34  35
ENDBRANCH  27  29
ENDBRANCH  26  27
ENDBRANCH  25  26
ENDBRANCH  24  25
ENDBRANCH   1  24
TORSDOF 16
ENDMDL
