MODEL 1
REMARK VINA RESULT:     -11.9      0.000      0.000
REMARK SMILES COCc1cccc(C(=O)N2C[C@@H](O)C[C@@H]2C(=O)OCCOC(=O)c2ccc(-c3c4nc(c(-c5c(F)c(F)c(F)c(F)c5F)c5ccc([nH]5)c(-c5c(F)c(F)c(F)c(F)c5F)c5nc(c(-c6c(F)c(F)c(F)c(F)c6F)c6ccc3[nH]6)C=C5)C=C4)cc2)c1
REMARK SMILES IDX 20 1 19 2 17 3 18 4 16 5 11 6 12 7 13 8 15 9 9 10 10 11 8 12
REMARK SMILES IDX 4 13 5 14 88 15 6 16 7 17 3 18 2 19 1 20 14 21 21 23 22 24
REMARK SMILES IDX 23 25 24 26 25 27 26 28 87 29 27 30 86 31 28 32 29 33 30 34
REMARK SMILES IDX 80 35 31 36 85 37 79 38 81 39 32 40 84 41 78 42 77 43 33 45
REMARK SMILES IDX 65 46 45 47 64 48 46 49 49 50 63 51 82 52 47 53 48 54 62 56
REMARK SMILES IDX 83 57 50 58 34 59 35 60 43 61 36 62 37 63 41 64 44 65 38 66
REMARK SMILES IDX 39 67 42 68 40 69 66 70 67 71 75 72 68 73 69 74 73 75 76 76
REMARK SMILES IDX 70 77 71 78 74 79 72 80 51 81 52 82 60 83 53 84 54 85 58 86
REMARK SMILES IDX 61 87 55 88 56 89 59 90 57 91
REMARK H PARENT 14 22 81 44 49 55
REMARK Flexibility Score: inf
ROOT
ATOM      1  C   UNL A   1      31.912  28.071  26.626  1.00  0.00     0.274 C 
ENDROOT
BRANCH   1   2
ATOM      2  O   UNL A   1      32.995  27.544  25.837  1.00  0.00    -0.461 OA
BRANCH   2   3
ATOM      3  C   UNL A   1      32.695  26.446  25.093  1.00  0.00     0.329 C 
ATOM      4  O   UNL A   1      31.894  25.588  25.452  1.00  0.00    -0.250 OA
BRANCH   3   5
ATOM      5  C   UNL A   1      33.381  26.441  23.713  1.00  0.00     0.198 C 
ATOM      6  N   UNL A   1      32.441  26.997  22.739  1.00  0.00    -0.322 N 
ATOM      7  C   UNL A   1      32.306  26.135  21.583  1.00  0.00     0.152 C 
ATOM      8  C   UNL A   1      32.685  24.762  22.127  1.00  0.00     0.136 C 
ATOM      9  C   UNL A   1      33.786  25.084  23.136  1.00  0.00     0.071 C 
BRANCH   6  10
ATOM     10  C   UNL A   1      32.137  28.345  22.740  1.00  0.00     0.254 C 
ATOM     11  O   UNL A   1      32.998  29.208  22.883  1.00  0.00    -0.269 OA
BRANCH  10  12
ATOM     12  C   UNL A   1      30.679  28.697  22.769  1.00  0.00     0.040 A 
ATOM     13  C   UNL A   1      28.800  30.083  22.033  1.00  0.00    -0.022 A 
ATOM     14  C   UNL A   1      27.920  29.172  22.627  1.00  0.00     0.006 A 
ATOM     15  C   UNL A   1      30.177  29.818  22.091  1.00  0.00     0.020 A 
ATOM     16  C   UNL A   1      28.405  28.039  23.285  1.00  0.00     0.001 A 
ATOM     17  C   UNL A   1      29.779  27.803  23.360  1.00  0.00     0.014 A 
BRANCH  13  18
ATOM     18  C   UNL A   1      28.316  31.277  21.246  1.00  0.00     0.195 C 
BRANCH  18  19
ATOM     19  O   UNL A   1      27.749  32.268  22.100  1.00  0.00    -0.380 OA
ATOM     20  C   UNL A   1      28.739  33.031  22.774  1.00  0.00     0.195 C 
ENDBRANCH  18  19
ENDBRANCH  13  18
ENDBRANCH  10  12
ENDBRANCH   6  10
BRANCH   8  21
ATOM     21  O   UNL A   1      33.140  23.873  21.123  1.00  0.00    -0.391 OA
ATOM     22  H   UNL A   1      32.759  24.128  20.268  1.00  0.00     0.211 HD
ENDBRANCH   8  21
ENDBRANCH   3   5
ENDBRANCH   2   3
ENDBRANCH   1   2
BRANCH   1  23
ATOM     23  C   UNL A   1      31.777  29.586  26.434  1.00  0.00     0.275 C 
BRANCH  23  24
ATOM     24  O   UNL A   1      33.038  30.228  26.155  1.00  0.00    -0.458 OA
BRANCH  24  25
ATOM     25  C   UNL A   1      33.386  31.219  27.004  1.00  0.00     0.338 C 
ATOM     26  O   UNL A   1      32.698  32.183  27.334  1.00  0.00    -0.246 OA
BRANCH  25  27
ATOM     27  C   UNL A   1      34.705  30.963  27.595  1.00  0.00     0.060 A 
ATOM     28  C   UNL A   1      35.032  29.648  27.933  1.00  0.00     0.016 A 
ATOM     29  C   UNL A   1      35.568  32.009  27.924  1.00  0.00     0.016 A 
ATOM     30  C   UNL A   1      36.197  29.369  28.637  1.00  0.00     0.010 A 
ATOM     31  C   UNL A   1      36.751  31.727  28.617  1.00  0.00     0.010 A 
ATOM     32  C   UNL A   1      37.061  30.409  28.995  1.00  0.00    -0.014 A 
BRANCH  32  33
ATOM     33  C   UNL A   1      38.264  30.107  29.805  1.00  0.00     0.031 A 
ATOM     34  C   UNL A   1      39.337  29.218  29.249  1.00  0.00     0.074 A 
ATOM     35  C   UNL A   1      38.405  30.661  31.022  1.00  0.00     0.049 A 
ATOM     36  N   UNL A   1      40.420  28.764  29.827  1.00  0.00    -0.248 NA
ATOM     37  C   UNL A   1      39.170  28.779  27.855  1.00  0.00     0.031 C 
ATOM     38  C   UNL A   1      37.456  31.587  31.642  1.00  0.00     0.029 A 
ATOM     39  N   UNL A   1      39.401  30.524  31.955  1.00  0.00    -0.354 N 
ATOM     40  C   UNL A   1      41.050  27.970  28.879  1.00  0.00     0.074 A 
ATOM     41  C   UNL A   1      40.224  27.993  27.690  1.00  0.00     0.031 C 
ATOM     42  C   UNL A   1      37.917  31.936  32.854  1.00  0.00     0.029 A 
ATOM     43  C   UNL A   1      39.163  31.222  33.113  1.00  0.00     0.049 A 
ATOM     44  H   UNL A   1      40.206  29.978  31.810  1.00  0.00     0.167 HD
ATOM     45  C   UNL A   1      42.213  27.287  28.994  1.00  0.00     0.037 A 
ATOM     46  C   UNL A   1      39.861  31.257  34.263  1.00  0.00     0.037 A 
ATOM     47  C   UNL A   1      43.042  27.289  30.171  1.00  0.00     0.049 A 
ATOM     48  C   UNL A   1      41.123  30.449  34.383  1.00  0.00     0.074 A 
ATOM     49  C   UNL A   1      44.245  26.637  30.382  1.00  0.00     0.029 A 
ATOM     50  N   UNL A   1      42.756  27.986  31.336  1.00  0.00    -0.354 N 
ATOM     51  N   UNL A   1      41.702  29.684  33.491  1.00  0.00    -0.248 NA
ATOM     52  C   UNL A   1      41.825  30.505  35.672  1.00  0.00     0.031 C 
ATOM     53  C   UNL A   1      44.668  26.910  31.687  1.00  0.00     0.029 A 
ATOM     54  C   UNL A   1      43.748  27.763  32.276  1.00  0.00     0.049 A 
ATOM     55  H   UNL A   1      41.963  28.553  31.474  1.00  0.00     0.167 HD
ATOM     56  C   UNL A   1      42.842  29.181  34.100  1.00  0.00     0.074 A 
ATOM     57  C   UNL A   1      42.882  29.739  35.436  1.00  0.00     0.031 C 
ATOM     58  C   UNL A   1      43.772  28.333  33.599  1.00  0.00     0.037 A 
BRANCH  45  59
ATOM     59  C   UNL A   1      42.644  26.453  27.826  1.00  0.00     0.064 A 
ATOM     60  C   UNL A   1      42.178  25.143  27.641  1.00  0.00     0.173 A 
ATOM     61  C   UNL A   1      43.511  26.985  26.859  1.00  0.00     0.173 A 
ATOM     62  F   UNL A   1      41.359  24.584  28.545  1.00  0.00    -0.203 F 
ATOM     63  C   UNL A   1      42.578  24.392  26.539  1.00  0.00     0.198 A 
ATOM     64  C   UNL A   1      43.891  26.239  25.749  1.00  0.00     0.198 A 
ATOM     65  F   UNL A   1      43.983  28.236  26.990  1.00  0.00    -0.203 F 
ATOM     66  F   UNL A   1      42.149  23.129  26.401  1.00  0.00    -0.200 F 
ATOM     67  C   UNL A   1      43.429  24.941  25.592  1.00  0.00     0.200 A 
ATOM     68  F   UNL A   1      44.705  26.775  24.829  1.00  0.00    -0.200 F 
ATOM     69  F   UNL A   1      43.808  24.217  24.529  1.00  0.00    -0.200 F 
ENDBRANCH  45  59
BRANCH  46  70
ATOM     70  C   UNL A   1      39.362  32.070  35.401  1.00  0.00     0.064 A 
ATOM     71  C   UNL A   1      39.712  33.419  35.535  1.00  0.00     0.173 A 
ATOM     72  C   UNL A   1      38.519  31.512  36.375  1.00  0.00     0.173 A 
ATOM     73  F   UNL A   1      40.536  33.988  34.642  1.00  0.00    -0.203 F 
ATOM     74  C   UNL A   1      39.246  34.178  36.606  1.00  0.00     0.198 A 
ATOM     75  C   UNL A   1      38.034  32.279  37.430  1.00  0.00     0.198 A 
ATOM     76  F   UNL A   1      38.159  30.223  36.292  1.00  0.00    -0.203 F 
ATOM     77  F   UNL A   1      39.626  35.457  36.731  1.00  0.00    -0.200 F 
ATOM     78  C   UNL A   1      38.402  33.610  37.548  1.00  0.00     0.200 A 
ATOM     79  F   UNL A   1      37.212  31.728  38.333  1.00  0.00    -0.200 F 
ATOM     80  F   UNL A   1      37.950  34.343  38.575  1.00  0.00    -0.200 F 
ENDBRANCH  46  70
BRANCH  58  81
ATOM     81  C   UNL A   1      44.923  27.976  34.490  1.00  0.00     0.064 A 
ATOM     82  C   UNL A   1      44.897  26.829  35.296  1.00  0.00     0.173 A 
ATOM     83  C   UNL A   1      46.080  28.770  34.508  1.00  0.00     0.173 A 
ATOM     84  F   UNL A   1      43.805  26.049  35.325  1.00  0.00    -0.203 F 
ATOM     85  C   UNL A   1      45.981  26.499  36.105  1.00  0.00     0.198 A 
ATOM     86  C   UNL A   1      47.171  28.424  35.299  1.00  0.00     0.198 A 
ATOM     87  F   UNL A   1      46.154  29.874  33.751  1.00  0.00    -0.203 F 
ATOM     88  F   UNL A   1      45.921  25.420  36.896  1.00  0.00    -0.200 F 
ATOM     89  C   UNL A   1      47.119  27.292  36.100  1.00  0.00     0.200 A 
ATOM     90  F   UNL A   1      48.273  29.186  35.288  1.00  0.00    -0.200 F 
ATOM     91  F   UNL A   1      48.165  26.970  36.874  1.00  0.00    -0.200 F 
ENDBRANCH  58  81
ENDBRANCH  32  33
ENDBRANCH  25  27
ENDBRANCH  24  25
ENDBRANCH  23  24
ENDBRANCH   1  23
TORSDOF 16
ENDMDL
MODEL 2
REMARK VINA RESULT:     -11.7      5.087     10.419
REMARK SMILES COCc1cccc(C(=O)N2C[C@@H](O)C[C@@H]2C(=O)OCCOC(=O)c2ccc(-c3c4nc(c(-c5c(F)c(F)c(F)c(F)c5F)c5ccc([nH]5)c(-c5c(F)c(F)c(F)c(F)c5F)c5nc(c(-c6c(F)c(F)c(F)c(F)c6F)c6ccc3[nH]6)C=C5)C=C4)cc2)c1
REMARK SMILES IDX 20 1 19 2 17 3 18 4 16 5 11 6 12 7 13 8 15 9 9 10 10 11 8 12
REMARK SMILES IDX 4 13 5 14 88 15 6 16 7 17 3 18 2 19 1 20 14 21 21 23 22 24
REMARK SMILES IDX 23 25 24 26 25 27 26 28 87 29 27 30 86 31 28 32 29 33 30 34
REMARK SMILES IDX 80 35 31 36 85 37 79 38 81 39 32 40 84 41 78 42 77 43 33 45
REMARK SMILES IDX 65 46 45 47 64 48 46 49 49 50 63 51 82 52 47 53 48 54 62 56
REMARK SMILES IDX 83 57 50 58 34 59 35 60 43 61 36 62 37 63 41 64 44 65 38 66
REMARK SMILES IDX 39 67 42 68 40 69 66 70 67 71 75 72 68 73 69 74 73 75 76 76
REMARK SMILES IDX 70 77 71 78 74 79 72 80 51 81 52 82 60 83 53 84 54 85 58 86
REMARK SMILES IDX 61 87 55 88 56 89 59 90 57 91
REMARK H PARENT 14 22 81 44 49 55
REMARK Flexibility Score: inf
ROOT
ATOM      1  C   UNL A   1      36.404  21.287  24.583  1.00  0.00     0.274 C 
ENDROOT
BRANCH   1   2
ATOM      2  O   UNL A   1      36.025  22.315  25.518  1.00  0.00    -0.461 OA
BRANCH   2   3
ATOM      3  C   UNL A   1      34.798  22.164  26.085  1.00  0.00     0.329 C 
ATOM      4  O   UNL A   1      34.602  21.492  27.094  1.00  0.00    -0.250 OA
BRANCH   3   5
ATOM      5  C   UNL A   1      33.703  23.002  25.398  1.00  0.00     0.198 C 
ATOM      6  N   UNL A   1      33.130  22.197  24.317  1.00  0.00    -0.322 N 
ATOM      7  C   UNL A   1      33.100  22.933  23.070  1.00  0.00     0.152 C 
ATOM      8  C   UNL A   1      34.215  23.958  23.243  1.00  0.00     0.136 C 
ATOM      9  C   UNL A   1      34.133  24.307  24.728  1.00  0.00     0.071 C 
BRANCH   6  10
ATOM     10  C   UNL A   1      32.324  21.111  24.595  1.00  0.00     0.254 C 
ATOM     11  O   UNL A   1      31.438  21.156  25.444  1.00  0.00    -0.269 OA
BRANCH  10  12
ATOM     12  C   UNL A   1      32.719  19.811  23.961  1.00  0.00     0.040 A 
ATOM     13  C   UNL A   1      33.772  17.604  24.086  1.00  0.00    -0.022 A 
ATOM     14  C   UNL A   1      33.212  17.287  22.844  1.00  0.00     0.006 A 
ATOM     15  C   UNL A   1      33.495  18.862  24.643  1.00  0.00     0.020 A 
ATOM     16  C   UNL A   1      32.417  18.213  22.164  1.00  0.00     0.001 A 
ATOM     17  C   UNL A   1      32.174  19.472  22.717  1.00  0.00     0.014 A 
BRANCH  13  18
ATOM     18  C   UNL A   1      34.571  16.606  24.889  1.00  0.00     0.195 C 
BRANCH  18  19
ATOM     19  O   UNL A   1      33.961  15.318  24.874  1.00  0.00    -0.380 OA
ATOM     20  C   UNL A   1      32.750  15.286  25.615  1.00  0.00     0.195 C 
ENDBRANCH  18  19
ENDBRANCH  13  18
ENDBRANCH  10  12
ENDBRANCH   6  10
BRANCH   8  21
ATOM     21  O   UNL A   1      34.049  25.104  22.428  1.00  0.00    -0.391 OA
ATOM     22  H   UNL A   1      34.314  24.894  21.519  1.00  0.00     0.211 HD
ENDBRANCH   8  21
ENDBRANCH   3   5
ENDBRANCH   2   3
ENDBRANCH   1   2
BRANCH   1  23
ATOM     23  C   UNL A   1      37.760  20.677  24.957  1.00  0.00     0.275 C 
BRANCH  23  24
ATOM     24  O   UNL A   1      38.230  21.108  26.250  1.00  0.00    -0.458 OA
BRANCH  24  25
ATOM     25  C   UNL A   1      39.565  21.029  26.440  1.00  0.00     0.338 C 
ATOM     26  O   UNL A   1      40.290  20.069  26.189  1.00  0.00    -0.246 OA
BRANCH  25  27
ATOM     27  C   UNL A   1      40.103  22.311  26.912  1.00  0.00     0.060 A 
ATOM     28  C   UNL A   1      39.641  23.483  26.309  1.00  0.00     0.016 A 
ATOM     29  C   UNL A   1      41.135  22.363  27.851  1.00  0.00     0.016 A 
ATOM     30  C   UNL A   1      40.227  24.707  26.605  1.00  0.00     0.010 A 
ATOM     31  C   UNL A   1      41.714  23.598  28.163  1.00  0.00     0.010 A 
ATOM     32  C   UNL A   1      41.278  24.773  27.526  1.00  0.00    -0.014 A 
BRANCH  32  33
ATOM     33  C   UNL A   1      41.941  26.073  27.780  1.00  0.00     0.031 A 
ATOM     34  C   UNL A   1      41.235  27.129  28.578  1.00  0.00     0.074 A 
ATOM     35  C   UNL A   1      43.187  26.288  27.323  1.00  0.00     0.049 A 
ATOM     36  N   UNL A   1      41.604  28.358  28.838  1.00  0.00    -0.248 NA
ATOM     37  C   UNL A   1      39.939  26.754  29.165  1.00  0.00     0.031 C 
ATOM     38  C   UNL A   1      43.993  25.313  26.587  1.00  0.00     0.029 A 
ATOM     39  N   UNL A   1      43.992  27.394  27.411  1.00  0.00    -0.354 N 
ATOM     40  C   UNL A   1      40.579  28.909  29.594  1.00  0.00     0.074 A 
ATOM     41  C   UNL A   1      39.566  27.885  29.745  1.00  0.00     0.031 C 
ATOM     42  C   UNL A   1      45.180  25.867  26.289  1.00  0.00     0.029 A 
ATOM     43  C   UNL A   1      45.197  27.245  26.771  1.00  0.00     0.049 A 
ATOM     44  H   UNL A   1      43.731  28.216  27.885  1.00  0.00     0.167 HD
ATOM     45  C   UNL A   1      40.497  30.156  30.116  1.00  0.00     0.037 A 
ATOM     46  C   UNL A   1      46.190  28.131  26.572  1.00  0.00     0.037 A 
ATOM     47  C   UNL A   1      41.520  31.160  29.984  1.00  0.00     0.049 A 
ATOM     48  C   UNL A   1      46.051  29.525  27.118  1.00  0.00     0.074 A 
ATOM     49  C   UNL A   1      41.535  32.450  30.485  1.00  0.00     0.029 A 
ATOM     50  N   UNL A   1      42.716  30.982  29.304  1.00  0.00    -0.354 N 
ATOM     51  N   UNL A   1      45.071  30.046  27.815  1.00  0.00    -0.248 NA
ATOM     52  C   UNL A   1      47.154  30.456  26.845  1.00  0.00     0.031 C 
ATOM     53  C   UNL A   1      42.723  33.065  30.078  1.00  0.00     0.029 A 
ATOM     54  C   UNL A   1      43.467  32.145  29.356  1.00  0.00     0.049 A 
ATOM     55  H   UNL A   1      42.990  30.152  28.851  1.00  0.00     0.167 HD
ATOM     56  C   UNL A   1      45.443  31.356  28.079  1.00  0.00     0.074 A 
ATOM     57  C   UNL A   1      46.747  31.548  27.478  1.00  0.00     0.031 C 
ATOM     58  C   UNL A   1      44.766  32.314  28.756  1.00  0.00     0.037 A 
BRANCH  45  59
ATOM     59  C   UNL A   1      39.243  30.516  30.853  1.00  0.00     0.064 A 
ATOM     60  C   UNL A   1      39.120  30.329  32.237  1.00  0.00     0.173 A 
ATOM     61  C   UNL A   1      38.161  31.088  30.167  1.00  0.00     0.173 A 
ATOM     62  F   UNL A   1      40.121  29.772  32.935  1.00  0.00    -0.203 F 
ATOM     63  C   UNL A   1      37.951  30.685  32.905  1.00  0.00     0.198 A 
ATOM     64  C   UNL A   1      37.003  31.464  30.842  1.00  0.00     0.198 A 
ATOM     65  F   UNL A   1      38.231  31.290  28.842  1.00  0.00    -0.203 F 
ATOM     66  F   UNL A   1      37.840  30.464  34.223  1.00  0.00    -0.200 F 
ATOM     67  C   UNL A   1      36.897  31.257  32.208  1.00  0.00     0.200 A 
ATOM     68  F   UNL A   1      35.989  32.025  30.168  1.00  0.00    -0.200 F 
ATOM     69  F   UNL A   1      35.774  31.605  32.854  1.00  0.00    -0.200 F 
ENDBRANCH  45  59
BRANCH  46  70
ATOM     70  C   UNL A   1      47.390  27.729  25.798  1.00  0.00     0.064 A 
ATOM     71  C   UNL A   1      48.562  27.314  26.444  1.00  0.00     0.173 A 
ATOM     72  C   UNL A   1      47.387  27.746  24.395  1.00  0.00     0.173 A 
ATOM     73  F   UNL A   1      48.620  27.306  27.784  1.00  0.00    -0.203 F 
ATOM     74  C   UNL A   1      49.689  26.941  25.715  1.00  0.00     0.198 A 
ATOM     75  C   UNL A   1      48.506  27.349  23.668  1.00  0.00     0.198 A 
ATOM     76  F   UNL A   1      46.290  28.140  23.731  1.00  0.00    -0.203 F 
ATOM     77  F   UNL A   1      50.810  26.584  26.357  1.00  0.00    -0.200 F 
ATOM     78  C   UNL A   1      49.658  26.952  24.329  1.00  0.00     0.200 A 
ATOM     79  F   UNL A   1      48.468  27.353  22.329  1.00  0.00    -0.200 F 
ATOM     80  F   UNL A   1      50.741  26.588  23.630  1.00  0.00    -0.200 F 
ENDBRANCH  46  70
BRANCH  58  81
ATOM     81  C   UNL A   1      45.433  33.648  28.904  1.00  0.00     0.064 A 
ATOM     82  C   UNL A   1      46.301  33.917  29.972  1.00  0.00     0.173 A 
ATOM     83  C   UNL A   1      45.231  34.653  27.947  1.00  0.00     0.173 A 
ATOM     84  F   UNL A   1      46.512  32.992  30.920  1.00  0.00    -0.203 F 
ATOM     85  C   UNL A   1      46.930  35.154  30.087  1.00  0.00     0.198 A 
ATOM     86  C   UNL A   1      45.879  35.881  28.053  1.00  0.00     0.198 A 
ATOM     87  F   UNL A   1      44.412  34.441  26.906  1.00  0.00    -0.203 F 
ATOM     88  F   UNL A   1      47.726  35.404  31.135  1.00  0.00    -0.200 F 
ATOM     89  C   UNL A   1      46.723  36.132  29.124  1.00  0.00     0.200 A 
ATOM     90  F   UNL A   1      45.685  36.821  27.118  1.00  0.00    -0.200 F 
ATOM     91  F   UNL A   1      47.333  37.320  29.233  1.00  0.00    -0.200 F 
ENDBRANCH  58  81
ENDBRANCH  32  33
ENDBRANCH  25  27
ENDBRANCH  24  25
ENDBRANCH  23  24
ENDBRANCH   1  23
TORSDOF 16
ENDMDL
MODEL 3
REMARK VINA RESULT:     -11.6      5.034      7.937
REMARK SMILES COCc1cccc(C(=O)N2C[C@@H](O)C[C@@H]2C(=O)OCCOC(=O)c2ccc(-c3c4nc(c(-c5c(F)c(F)c(F)c(F)c5F)c5ccc([nH]5)c(-c5c(F)c(F)c(F)c(F)c5F)c5nc(c(-c6c(F)c(F)c(F)c(F)c6F)c6ccc3[nH]6)C=C5)C=C4)cc2)c1
REMARK SMILES IDX 20 1 19 2 17 3 18 4 16 5 11 6 12 7 13 8 15 9 9 10 10 11 8 12
REMARK SMILES IDX 4 13 5 14 88 15 6 16 7 17 3 18 2 19 1 20 14 21 21 23 22 24
REMARK SMILES IDX 23 25 24 26 25 27 26 28 87 29 27 30 86 31 28 32 29 33 30 34
REMARK SMILES IDX 80 35 31 36 85 37 79 38 81 39 32 40 84 41 78 42 77 43 33 45
REMARK SMILES IDX 65 46 45 47 64 48 46 49 49 50 63 51 82 52 47 53 48 54 62 56
REMARK SMILES IDX 83 57 50 58 34 59 35 60 43 61 36 62 37 63 41 64 44 65 38 66
REMARK SMILES IDX 39 67 42 68 40 69 66 70 67 71 75 72 68 73 69 74 73 75 76 76
REMARK SMILES IDX 70 77 71 78 74 79 72 80 51 81 52 82 60 83 53 84 54 85 58 86
REMARK SMILES IDX 61 87 55 88 56 89 59 90 57 91
REMARK H PARENT 14 22 81 44 49 55
REMARK Flexibility Score: inf
ROOT
ATOM      1  C   UNL A   1      36.280  20.259  24.987  1.00  0.00     0.274 C 
ENDROOT
BRANCH   1   2
ATOM      2  O   UNL A   1      35.880  21.642  25.006  1.00  0.00    -0.461 OA
BRANCH   2   3
ATOM      3  C   UNL A   1      34.874  21.947  25.868  1.00  0.00     0.329 C 
ATOM      4  O   UNL A   1      34.870  21.600  27.046  1.00  0.00    -0.250 OA
BRANCH   3   5
ATOM      5  C   UNL A   1      33.794  22.854  25.247  1.00  0.00     0.198 C 
ATOM      6  N   UNL A   1      33.055  22.066  24.259  1.00  0.00    -0.322 N 
ATOM      7  C   UNL A   1      32.970  22.757  22.989  1.00  0.00     0.152 C 
ATOM      8  C   UNL A   1      34.181  23.684  23.015  1.00  0.00     0.136 C 
ATOM      9  C   UNL A   1      34.270  24.091  24.485  1.00  0.00     0.071 C 
BRANCH   6  10
ATOM     10  C   UNL A   1      32.189  21.067  24.657  1.00  0.00     0.254 C 
ATOM     11  O   UNL A   1      31.287  21.269  25.466  1.00  0.00    -0.269 OA
BRANCH  10  12
ATOM     12  C   UNL A   1      32.531  19.676  24.215  1.00  0.00     0.040 A 
ATOM     13  C   UNL A   1      33.056  17.339  24.725  1.00  0.00    -0.022 A 
ATOM     14  C   UNL A   1      32.905  17.029  23.369  1.00  0.00     0.006 A 
ATOM     15  C   UNL A   1      32.841  18.664  25.136  1.00  0.00     0.020 A 
ATOM     16  C   UNL A   1      32.573  18.022  22.445  1.00  0.00     0.001 A 
ATOM     17  C   UNL A   1      32.391  19.342  22.864  1.00  0.00     0.014 A 
BRANCH  13  18
ATOM     18  C   UNL A   1      33.337  16.284  25.768  1.00  0.00     0.195 C 
BRANCH  18  19
ATOM     19  O   UNL A   1      34.317  15.354  25.315  1.00  0.00    -0.380 OA
ATOM     20  C   UNL A   1      35.635  15.876  25.397  1.00  0.00     0.195 C 
ENDBRANCH  18  19
ENDBRANCH  13  18
ENDBRANCH  10  12
ENDBRANCH   6  10
BRANCH   8  21
ATOM     21  O   UNL A   1      34.038  24.810  22.169  1.00  0.00    -0.391 OA
ATOM     22  H   UNL A   1      33.202  25.259  22.369  1.00  0.00     0.211 HD
ENDBRANCH   8  21
ENDBRANCH   3   5
ENDBRANCH   2   3
ENDBRANCH   1   2
BRANCH   1  23
ATOM     23  C   UNL A   1      37.808  20.128  25.016  1.00  0.00     0.275 C 
BRANCH  23  24
ATOM     24  O   UNL A   1      38.466  21.343  25.426  1.00  0.00    -0.458 OA
BRANCH  24  25
ATOM     25  C   UNL A   1      39.499  21.185  26.282  1.00  0.00     0.338 C 
ATOM     26  O   UNL A   1      40.067  20.132  26.565  1.00  0.00    -0.246 OA
BRANCH  25  27
ATOM     27  C   UNL A   1      39.959  22.482  26.793  1.00  0.00     0.060 A 
ATOM     28  C   UNL A   1      39.435  23.642  26.217  1.00  0.00     0.016 A 
ATOM     29  C   UNL A   1      40.977  22.567  27.744  1.00  0.00     0.016 A 
ATOM     30  C   UNL A   1      39.948  24.889  26.551  1.00  0.00     0.010 A 
ATOM     31  C   UNL A   1      41.482  23.825  28.095  1.00  0.00     0.010 A 
ATOM     32  C   UNL A   1      40.985  24.990  27.484  1.00  0.00    -0.014 A 
BRANCH  32  33
ATOM     33  C   UNL A   1      41.570  26.318  27.779  1.00  0.00     0.031 A 
ATOM     34  C   UNL A   1      42.970  26.633  27.344  1.00  0.00     0.074 A 
ATOM     35  C   UNL A   1      40.829  27.249  28.406  1.00  0.00     0.049 A 
ATOM     36  N   UNL A   1      43.693  27.698  27.579  1.00  0.00    -0.248 NA
ATOM     37  C   UNL A   1      43.652  25.611  26.534  1.00  0.00     0.031 C 
ATOM     38  C   UNL A   1      39.437  27.078  28.822  1.00  0.00     0.029 A 
ATOM     39  N   UNL A   1      41.145  28.524  28.800  1.00  0.00    -0.354 N 
ATOM     40  C   UNL A   1      44.918  27.467  26.970  1.00  0.00     0.074 A 
ATOM     41  C   UNL A   1      44.848  26.155  26.362  1.00  0.00     0.031 C 
ATOM     42  C   UNL A   1      39.018  28.207  29.416  1.00  0.00     0.029 A 
ATOM     43  C   UNL A   1      40.124  29.159  29.463  1.00  0.00     0.049 A 
ATOM     44  H   UNL A   1      42.019  28.943  28.627  1.00  0.00     0.167 HD
ATOM     45  C   UNL A   1      46.000  28.280  26.923  1.00  0.00     0.037 A 
ATOM     46  C   UNL A   1      40.095  30.362  30.063  1.00  0.00     0.037 A 
ATOM     47  C   UNL A   1      46.053  29.594  27.508  1.00  0.00     0.049 A 
ATOM     48  C   UNL A   1      41.327  31.225  30.040  1.00  0.00     0.074 A 
ATOM     49  C   UNL A   1      47.100  30.500  27.504  1.00  0.00     0.029 A 
ATOM     50  N   UNL A   1      45.008  30.194  28.196  1.00  0.00    -0.354 N 
ATOM     51  N   UNL A   1      42.489  30.992  29.481  1.00  0.00    -0.248 NA
ATOM     52  C   UNL A   1      41.244  32.515  30.738  1.00  0.00     0.031 C 
ATOM     53  C   UNL A   1      46.702  31.633  28.222  1.00  0.00     0.029 A 
ATOM     54  C   UNL A   1      45.392  31.449  28.638  1.00  0.00     0.049 A 
ATOM     55  H   UNL A   1      44.125  29.787  28.347  1.00  0.00     0.167 HD
ATOM     56  C   UNL A   1      43.270  32.108  29.741  1.00  0.00     0.074 A 
ATOM     57  C   UNL A   1      42.445  33.027  30.500  1.00  0.00     0.031 C 
ATOM     58  C   UNL A   1      44.554  32.351  29.387  1.00  0.00     0.037 A 
BRANCH  45  59
ATOM     59  C   UNL A   1      47.228  27.759  26.241  1.00  0.00     0.064 A 
ATOM     60  C   UNL A   1      48.265  27.142  26.956  1.00  0.00     0.173 A 
ATOM     61  C   UNL A   1      47.353  27.848  24.846  1.00  0.00     0.173 A 
ATOM     62  F   UNL A   1      48.199  27.045  28.292  1.00  0.00    -0.203 F 
ATOM     63  C   UNL A   1      49.390  26.649  26.300  1.00  0.00     0.198 A 
ATOM     64  C   UNL A   1      48.469  27.334  24.192  1.00  0.00     0.198 A 
ATOM     65  F   UNL A   1      46.386  28.427  24.117  1.00  0.00    -0.203 F 
ATOM     66  F   UNL A   1      50.386  26.095  27.006  1.00  0.00    -0.200 F 
ATOM     67  C   UNL A   1      49.488  26.740  24.920  1.00  0.00     0.200 A 
ATOM     68  F   UNL A   1      48.557  27.415  22.857  1.00  0.00    -0.200 F 
ATOM     69  F   UNL A   1      50.570  26.260  24.290  1.00  0.00    -0.200 F 
ENDBRANCH  45  59
BRANCH  46  70
ATOM     70  C   UNL A   1      38.863  30.808  30.759  1.00  0.00     0.064 A 
ATOM     71  C   UNL A   1      37.821  31.430  30.059  1.00  0.00     0.173 A 
ATOM     72  C   UNL A   1      38.700  30.615  32.140  1.00  0.00     0.173 A 
ATOM     73  F   UNL A   1      37.943  31.659  28.743  1.00  0.00    -0.203 F 
ATOM     74  C   UNL A   1      36.667  31.851  30.715  1.00  0.00     0.198 A 
ATOM     75  C   UNL A   1      37.535  31.014  32.789  1.00  0.00     0.198 A 
ATOM     76  F   UNL A   1      39.671  30.028  32.854  1.00  0.00    -0.203 F 
ATOM     77  F   UNL A   1      35.700  32.477  30.029  1.00  0.00    -0.200 F 
ATOM     78  C   UNL A   1      36.522  31.636  32.078  1.00  0.00     0.200 A 
ATOM     79  F   UNL A   1      37.396  30.796  34.104  1.00  0.00    -0.200 F 
ATOM     80  F   UNL A   1      35.408  32.037  32.706  1.00  0.00    -0.200 F 
ENDBRANCH  46  70
BRANCH  58  81
ATOM     81  C   UNL A   1      45.139  33.670  29.793  1.00  0.00     0.064 A 
ATOM     82  C   UNL A   1      45.830  33.823  31.003  1.00  0.00     0.173 A 
ATOM     83  C   UNL A   1      45.039  34.782  28.943  1.00  0.00     0.173 A 
ATOM     84  F   UNL A   1      45.936  32.792  31.855  1.00  0.00    -0.203 F 
ATOM     85  C   UNL A   1      46.385  35.049  31.358  1.00  0.00     0.198 A 
ATOM     86  C   UNL A   1      45.616  36.000  29.291  1.00  0.00     0.198 A 
ATOM     87  F   UNL A   1      44.391  34.683  27.773  1.00  0.00    -0.203 F 
ATOM     88  F   UNL A   1      47.008  35.184  32.536  1.00  0.00    -0.200 F 
ATOM     89  C   UNL A   1      46.283  36.134  30.499  1.00  0.00     0.200 A 
ATOM     90  F   UNL A   1      45.524  37.045  28.457  1.00  0.00    -0.200 F 
ATOM     91  F   UNL A   1      46.823  37.312  30.840  1.00  0.00    -0.200 F 
ENDBRANCH  58  81
ENDBRANCH  32  33
ENDBRANCH  25  27
ENDBRANCH  24  25
ENDBRANCH  23  24
ENDBRANCH   1  23
TORSDOF 16
ENDMDL
