MODEL 1
REMARK VINA RESULT:     -11.6      0.000      0.000
REMARK SMILES CCc1cc(OCC(=O)OCCOC(=O)c2ccc(-c3c4nc(c(-c5c(F)c(F)c(F)c(F)c5F)c5ccc([nH]5)c(-c5c(F)c(F)c(F)c(F)c5F)c5nc(c(-c6c(F)c(F)c(F)c(F)c6F)c6ccc3[nH]6)C=C5)C=C4)cc2)nc(Nc2ccc(C)c(F)c2)n1
REMARK SMILES IDX 11 1 10 2 8 3 9 4 7 5 6 6 5 7 3 8 4 9 90 10 80 11 79 12 2 13
REMARK SMILES IDX 1 14 81 15 82 17 83 18 89 19 84 20 87 21 85 22 88 23 86 24
REMARK SMILES IDX 12 25 13 26 14 27 15 28 16 29 17 30 78 31 18 32 77 33 19 34
REMARK SMILES IDX 20 35 21 36 71 37 22 38 76 39 70 40 72 41 23 42 75 43 69 44
REMARK SMILES IDX 68 45 24 47 56 48 36 49 55 50 37 51 40 52 54 53 73 54 38 55
REMARK SMILES IDX 39 56 53 58 74 59 41 60 25 61 26 62 34 63 27 64 28 65 32 66
REMARK SMILES IDX 35 67 29 68 30 69 33 70 31 71 57 72 58 73 66 74 59 75 60 76
REMARK SMILES IDX 64 77 67 78 61 79 62 80 65 81 63 82 42 83 43 84 51 85 44 86
REMARK SMILES IDX 45 87 49 88 52 89 46 90 47 91 50 92 48 93
REMARK H PARENT 81 16 72 46 40 57
REMARK Flexibility Score: inf
ROOT
ATOM      1  C   UNL A   1      31.655  31.466  26.540  1.00  0.00     0.274 C 
ENDROOT
BRANCH   1   2
ATOM      2  O   UNL A   1      32.688  30.676  27.161  1.00  0.00    -0.460 OA
BRANCH   2   3
ATOM      3  C   UNL A   1      32.537  29.328  27.088  1.00  0.00     0.344 C 
ATOM      4  O   UNL A   1      31.653  28.692  27.653  1.00  0.00    -0.248 OA
BRANCH   3   5
ATOM      5  C   UNL A   1      33.601  28.648  26.234  1.00  0.00     0.353 C 
BRANCH   5   6
ATOM      6  O   UNL A   1      33.820  27.270  26.450  1.00  0.00    -0.466 OA
BRANCH   6   7
ATOM      7  C   UNL A   1      33.588  26.388  25.437  1.00  0.00     0.218 A 
ATOM      8  C   UNL A   1      33.978  24.546  24.045  1.00  0.00     0.050 A 
ATOM      9  C   UNL A   1      34.420  25.349  25.071  1.00  0.00     0.092 A 
ATOM     10  N   UNL A   1      32.784  24.742  23.478  1.00  0.00    -0.218 NA
ATOM     11  C   UNL A   1      32.029  25.770  23.886  1.00  0.00     0.230 A 
ATOM     12  N   UNL A   1      32.413  26.633  24.826  1.00  0.00    -0.177 NA
BRANCH   8  13
ATOM     13  C   UNL A   1      34.782  23.422  23.452  1.00  0.00     0.053 C 
ATOM     14  C   UNL A   1      36.137  23.232  24.102  1.00  0.00     0.011 C 
ENDBRANCH   8  13
BRANCH  11  15
ATOM     15  N   UNL A   1      30.805  25.965  23.247  1.00  0.00    -0.324 N 
ATOM     16  H   UNL A   1      30.338  25.179  22.884  1.00  0.00     0.170 HD
BRANCH  15  17
ATOM     17  C   UNL A   1      30.204  27.220  23.093  1.00  0.00     0.044 A 
ATOM     18  C   UNL A   1      30.836  28.236  22.371  1.00  0.00     0.026 A 
ATOM     19  C   UNL A   1      28.869  27.398  23.482  1.00  0.00     0.065 A 
ATOM     20  C   UNL A   1      30.126  29.387  22.001  1.00  0.00     0.008 A 
ATOM     21  C   UNL A   1      28.176  28.547  23.127  1.00  0.00     0.128 A 
ATOM     22  C   UNL A   1      28.783  29.546  22.370  1.00  0.00    -0.015 A 
ATOM     23  F   UNL A   1      26.891  28.661  23.491  1.00  0.00    -0.207 F 
ATOM     24  C   UNL A   1      27.991  30.720  21.884  1.00  0.00     0.047 C 
ENDBRANCH  15  17
ENDBRANCH  11  15
ENDBRANCH   6   7
ENDBRANCH   5   6
ENDBRANCH   3   5
ENDBRANCH   2   3
ENDBRANCH   1   2
BRANCH   1  25
ATOM     25  C   UNL A   1      31.777  32.952  26.875  1.00  0.00     0.275 C 
BRANCH  25  26
ATOM     26  O   UNL A   1      33.143  33.321  27.144  1.00  0.00    -0.458 OA
BRANCH  26  27
ATOM     27  C   UNL A   1      33.296  34.109  28.229  1.00  0.00     0.338 C 
ATOM     28  O   UNL A   1      32.598  35.049  28.565  1.00  0.00    -0.246 OA
BRANCH  27  29
ATOM     29  C   UNL A   1      34.429  33.668  29.054  1.00  0.00     0.060 A 
ATOM     30  C   UNL A   1      35.713  34.131  28.752  1.00  0.00     0.016 A 
ATOM     31  C   UNL A   1      34.247  32.599  29.936  1.00  0.00     0.016 A 
ATOM     32  C   UNL A   1      36.826  33.490  29.293  1.00  0.00     0.010 A 
ATOM     33  C   UNL A   1      35.363  31.978  30.501  1.00  0.00     0.010 A 
ATOM     34  C   UNL A   1      36.658  32.402  30.162  1.00  0.00    -0.014 A 
BRANCH  34  35
ATOM     35  C   UNL A   1      37.837  31.752  30.776  1.00  0.00     0.031 A 
ATOM     36  C   UNL A   1      38.626  30.708  30.043  1.00  0.00     0.074 A 
ATOM     37  C   UNL A   1      38.173  32.101  32.029  1.00  0.00     0.049 A 
ATOM     38  N   UNL A   1      39.632  29.986  30.470  1.00  0.00    -0.248 NA
ATOM     39  C   UNL A   1      38.243  30.442  28.650  1.00  0.00     0.031 C 
ATOM     40  C   UNL A   1      37.485  33.115  32.829  1.00  0.00     0.029 A 
ATOM     41  N   UNL A   1      39.154  31.623  32.857  1.00  0.00    -0.354 N 
ATOM     42  C   UNL A   1      40.007  29.187  29.400  1.00  0.00     0.074 A 
ATOM     43  C   UNL A   1      39.110  29.496  28.306  1.00  0.00     0.031 C 
ATOM     44  C   UNL A   1      38.040  33.156  34.048  1.00  0.00     0.029 A 
ATOM     45  C   UNL A   1      39.098  32.152  34.120  1.00  0.00     0.049 A 
ATOM     46  H   UNL A   1      39.831  30.967  32.573  1.00  0.00     0.167 HD
ATOM     47  C   UNL A   1      41.014  28.282  29.341  1.00  0.00     0.037 A 
ATOM     48  C   UNL A   1      39.789  31.831  35.228  1.00  0.00     0.037 A 
ATOM     49  C   UNL A   1      41.905  27.980  30.432  1.00  0.00     0.049 A 
ATOM     50  C   UNL A   1      40.840  30.767  35.161  1.00  0.00     0.074 A 
ATOM     51  C   UNL A   1      43.002  27.135  30.443  1.00  0.00     0.029 A 
ATOM     52  N   UNL A   1      41.788  28.502  31.711  1.00  0.00    -0.354 N 
ATOM     53  N   UNL A   1      41.212  30.042  34.136  1.00  0.00    -0.248 NA
ATOM     54  C   UNL A   1      41.567  30.476  36.403  1.00  0.00     0.031 C 
ATOM     55  C   UNL A   1      43.529  27.119  31.742  1.00  0.00     0.029 A 
ATOM     56  C   UNL A   1      42.773  27.971  32.529  1.00  0.00     0.049 A 
ATOM     57  H   UNL A   1      41.106  29.151  31.996  1.00  0.00     0.167 HD
ATOM     58  C   UNL A   1      42.217  29.211  34.604  1.00  0.00     0.074 A 
ATOM     59  C   UNL A   1      42.404  29.526  36.005  1.00  0.00     0.031 C 
ATOM     60  C   UNL A   1      42.926  28.276  33.927  1.00  0.00     0.037 A 
BRANCH  47  61
ATOM     61  C   UNL A   1      41.220  27.545  28.054  1.00  0.00     0.064 A 
ATOM     62  C   UNL A   1      42.063  28.048  27.055  1.00  0.00     0.173 A 
ATOM     63  C   UNL A   1      40.643  26.282  27.860  1.00  0.00     0.173 A 
ATOM     64  F   UNL A   1      42.632  29.254  27.198  1.00  0.00    -0.203 F 
ATOM     65  C   UNL A   1      42.321  27.311  25.902  1.00  0.00     0.198 A 
ATOM     66  C   UNL A   1      40.912  25.543  26.710  1.00  0.00     0.198 A 
ATOM     67  F   UNL A   1      39.832  25.758  28.792  1.00  0.00    -0.203 F 
ATOM     68  F   UNL A   1      43.126  27.812  24.955  1.00  0.00    -0.200 F 
ATOM     69  C   UNL A   1      41.751  26.057  25.733  1.00  0.00     0.200 A 
ATOM     70  F   UNL A   1      40.366  24.329  26.551  1.00  0.00    -0.200 F 
ATOM     71  F   UNL A   1      42.013  25.344  24.630  1.00  0.00    -0.200 F 
ENDBRANCH  47  61
BRANCH  48  72
ATOM     72  C   UNL A   1      39.451  32.511  36.498  1.00  0.00     0.064 A 
ATOM     73  C   UNL A   1      40.105  33.683  36.889  1.00  0.00     0.173 A 
ATOM     74  C   UNL A   1      38.415  32.028  37.312  1.00  0.00     0.173 A 
ATOM     75  F   UNL A   1      41.111  34.168  36.146  1.00  0.00    -0.203 F 
ATOM     76  C   UNL A   1      39.730  34.357  38.049  1.00  0.00     0.198 A 
ATOM     77  C   UNL A   1      38.029  32.711  38.460  1.00  0.00     0.198 A 
ATOM     78  F   UNL A   1      37.758  30.910  36.968  1.00  0.00    -0.203 F 
ATOM     79  F   UNL A   1      40.374  35.473  38.410  1.00  0.00    -0.200 F 
ATOM     80  C   UNL A   1      38.687  33.875  38.828  1.00  0.00     0.200 A 
ATOM     81  F   UNL A   1      37.013  32.250  39.203  1.00  0.00    -0.200 F 
ATOM     82  F   UNL A   1      38.315  34.535  39.933  1.00  0.00    -0.200 F 
ENDBRANCH  48  72
BRANCH  60  83
ATOM     83  C   UNL A   1      43.962  27.524  34.703  1.00  0.00     0.064 A 
ATOM     84  C   UNL A   1      43.670  26.284  35.287  1.00  0.00     0.173 A 
ATOM     85  C   UNL A   1      45.257  28.040  34.851  1.00  0.00     0.173 A 
ATOM     86  F   UNL A   1      42.439  25.763  35.184  1.00  0.00    -0.203 F 
ATOM     87  C   UNL A   1      44.638  25.592  36.008  1.00  0.00     0.198 A 
ATOM     88  C   UNL A   1      46.226  27.339  35.561  1.00  0.00     0.198 A 
ATOM     89  F   UNL A   1      45.579  29.225  34.310  1.00  0.00    -0.203 F 
ATOM     90  F   UNL A   1      44.331  24.424  36.589  1.00  0.00    -0.200 F 
ATOM     91  C   UNL A   1      45.915  26.118  36.142  1.00  0.00     0.200 A 
ATOM     92  F   UNL A   1      47.460  27.847  35.690  1.00  0.00    -0.200 F 
ATOM     93  F   UNL A   1      46.845  25.453  36.842  1.00  0.00    -0.200 F 
ENDBRANCH  60  83
ENDBRANCH  34  35
ENDBRANCH  27  29
ENDBRANCH  26  27
ENDBRANCH  25  26
ENDBRANCH   1  25
TORSDOF 16
ENDMDL
MODEL 2
REMARK VINA RESULT:     -11.5      5.296     10.623
REMARK SMILES CCc1cc(OCC(=O)OCCOC(=O)c2ccc(-c3c4nc(c(-c5c(F)c(F)c(F)c(F)c5F)c5ccc([nH]5)c(-c5c(F)c(F)c(F)c(F)c5F)c5nc(c(-c6c(F)c(F)c(F)c(F)c6F)c6ccc3[nH]6)C=C5)C=C4)cc2)nc(Nc2ccc(C)c(F)c2)n1
REMARK SMILES IDX 11 1 10 2 8 3 9 4 7 5 6 6 5 7 3 8 4 9 90 10 80 11 79 12 2 13
REMARK SMILES IDX 1 14 81 15 82 17 83 18 89 19 84 20 87 21 85 22 88 23 86 24
REMARK SMILES IDX 12 25 13 26 14 27 15 28 16 29 17 30 78 31 18 32 77 33 19 34
REMARK SMILES IDX 20 35 21 36 71 37 22 38 76 39 70 40 72 41 23 42 75 43 69 44
REMARK SMILES IDX 68 45 24 47 56 48 36 49 55 50 37 51 40 52 54 53 73 54 38 55
REMARK SMILES IDX 39 56 53 58 74 59 41 60 25 61 26 62 34 63 27 64 28 65 32 66
REMARK SMILES IDX 35 67 29 68 30 69 33 70 31 71 57 72 58 73 66 74 59 75 60 76
REMARK SMILES IDX 64 77 67 78 61 79 62 80 65 81 63 82 42 83 43 84 51 85 44 86
REMARK SMILES IDX 45 87 49 88 52 89 46 90 47 91 50 92 48 93
REMARK H PARENT 81 16 72 46 40 57
REMARK Flexibility Score: inf
ROOT
ATOM      1  C   UNL A   1      38.256  20.584  25.034  1.00  0.00     0.274 C 
ENDROOT
BRANCH   1   2
ATOM      2  O   UNL A   1      38.651  21.789  25.717  1.00  0.00    -0.460 OA
BRANCH   2   3
ATOM      3  C   UNL A   1      37.718  22.775  25.780  1.00  0.00     0.344 C 
ATOM      4  O   UNL A   1      37.915  23.895  26.241  1.00  0.00    -0.248 OA
BRANCH   3   5
ATOM      5  C   UNL A   1      36.359  22.355  25.230  1.00  0.00     0.353 C 
BRANCH   5   6
ATOM      6  O   UNL A   1      35.581  21.487  26.026  1.00  0.00    -0.466 OA
BRANCH   6   7
ATOM      7  C   UNL A   1      34.415  20.986  25.527  1.00  0.00     0.218 A 
ATOM      8  C   UNL A   1      32.995  19.428  24.508  1.00  0.00     0.050 A 
ATOM      9  C   UNL A   1      34.270  19.764  24.901  1.00  0.00     0.092 A 
ATOM     10  N   UNL A   1      31.956  20.227  24.772  1.00  0.00    -0.218 NA
ATOM     11  C   UNL A   1      32.174  21.398  25.384  1.00  0.00     0.230 A 
ATOM     12  N   UNL A   1      33.385  21.827  25.737  1.00  0.00    -0.177 NA
BRANCH   8  13
ATOM     13  C   UNL A   1      32.654  18.183  23.738  1.00  0.00     0.053 C 
ATOM     14  C   UNL A   1      33.848  17.292  23.458  1.00  0.00     0.011 C 
ENDBRANCH   8  13
BRANCH  11  15
ATOM     15  N   UNL A   1      31.071  22.222  25.610  1.00  0.00    -0.324 N 
ATOM     16  H   UNL A   1      30.327  21.867  26.147  1.00  0.00     0.170 HD
BRANCH  15  17
ATOM     17  C   UNL A   1      30.966  23.526  25.114  1.00  0.00     0.044 A 
ATOM     18  C   UNL A   1      30.702  23.763  23.763  1.00  0.00     0.026 A 
ATOM     19  C   UNL A   1      30.916  24.603  26.011  1.00  0.00     0.065 A 
ATOM     20  C   UNL A   1      30.341  25.046  23.328  1.00  0.00     0.008 A 
ATOM     21  C   UNL A   1      30.575  25.874  25.571  1.00  0.00     0.128 A 
ATOM     22  C   UNL A   1      30.266  26.112  24.234  1.00  0.00    -0.015 A 
ATOM     23  F   UNL A   1      30.506  26.868  26.468  1.00  0.00    -0.207 F 
ATOM     24  C   UNL A   1      29.776  27.457  23.794  1.00  0.00     0.047 C 
ENDBRANCH  15  17
ENDBRANCH  11  15
ENDBRANCH   6   7
ENDBRANCH   5   6
ENDBRANCH   3   5
ENDBRANCH   2   3
ENDBRANCH   1   2
BRANCH   1  25
ATOM     25  C   UNL A   1      39.156  19.397  25.377  1.00  0.00     0.275 C 
BRANCH  25  26
ATOM     26  O   UNL A   1      40.037  19.706  26.474  1.00  0.00    -0.458 OA
BRANCH  26  27
ATOM     27  C   UNL A   1      41.348  19.639  26.161  1.00  0.00     0.338 C 
ATOM     28  O   UNL A   1      41.937  18.713  25.633  1.00  0.00    -0.246 OA
BRANCH  27  29
ATOM     29  C   UNL A   1      42.040  20.893  26.489  1.00  0.00     0.060 A 
ATOM     30  C   UNL A   1      42.215  21.244  27.831  1.00  0.00     0.016 A 
ATOM     31  C   UNL A   1      42.261  21.828  25.474  1.00  0.00     0.016 A 
ATOM     32  C   UNL A   1      42.563  22.551  28.166  1.00  0.00     0.010 A 
ATOM     33  C   UNL A   1      42.640  23.130  25.811  1.00  0.00     0.010 A 
ATOM     34  C   UNL A   1      42.767  23.505  27.158  1.00  0.00    -0.014 A 
BRANCH  34  35
ATOM     35  C   UNL A   1      43.184  24.880  27.510  1.00  0.00     0.031 A 
ATOM     36  C   UNL A   1      42.212  25.876  28.070  1.00  0.00     0.074 A 
ATOM     37  C   UNL A   1      44.462  25.231  27.288  1.00  0.00     0.049 A 
ATOM     38  N   UNL A   1      42.399  27.140  28.352  1.00  0.00    -0.248 NA
ATOM     39  C   UNL A   1      40.856  25.390  28.358  1.00  0.00     0.031 C 
ATOM     40  C   UNL A   1      45.496  24.340  26.760  1.00  0.00     0.029 A 
ATOM     41  N   UNL A   1      45.099  26.434  27.448  1.00  0.00    -0.354 N 
ATOM     42  C   UNL A   1      41.191  27.601  28.856  1.00  0.00     0.074 A 
ATOM     43  C   UNL A   1      40.268  26.485  28.826  1.00  0.00     0.031 C 
ATOM     44  C   UNL A   1      46.631  25.037  26.603  1.00  0.00     0.029 A 
ATOM     45  C   UNL A   1      46.390  26.424  26.989  1.00  0.00     0.049 A 
ATOM     46  H   UNL A   1      44.673  27.223  27.853  1.00  0.00     0.167 HD
ATOM     47  C   UNL A   1      40.888  28.842  29.307  1.00  0.00     0.037 A 
ATOM     48  C   UNL A   1      47.270  27.432  26.848  1.00  0.00     0.037 A 
ATOM     49  C   UNL A   1      41.811  29.947  29.337  1.00  0.00     0.049 A 
ATOM     50  C   UNL A   1      46.884  28.814  27.275  1.00  0.00     0.074 A 
ATOM     51  C   UNL A   1      41.619  31.221  29.846  1.00  0.00     0.029 A 
ATOM     52  N   UNL A   1      43.097  29.913  28.820  1.00  0.00    -0.354 N 
ATOM     53  N   UNL A   1      45.752  29.232  27.783  1.00  0.00    -0.248 NA
ATOM     54  C   UNL A   1      47.896  29.865  27.107  1.00  0.00     0.031 C 
ATOM     55  C   UNL A   1      42.779  31.969  29.605  1.00  0.00     0.029 A 
ATOM     56  C   UNL A   1      43.699  31.153  28.967  1.00  0.00     0.049 A 
ATOM     57  H   UNL A   1      43.520  29.126  28.408  1.00  0.00     0.167 HD
ATOM     58  C   UNL A   1      45.912  30.592  28.001  1.00  0.00     0.074 A 
ATOM     59  C   UNL A   1      47.256  30.928  27.577  1.00  0.00     0.031 C 
ATOM     60  C   UNL A   1      45.026  31.477  28.514  1.00  0.00     0.037 A 
BRANCH  47  61
ATOM     61  C   UNL A   1      39.500  29.085  29.811  1.00  0.00     0.064 A 
ATOM     62  C   UNL A   1      39.157  28.834  31.146  1.00  0.00     0.173 A 
ATOM     63  C   UNL A   1      38.532  29.662  28.976  1.00  0.00     0.173 A 
ATOM     64  F   UNL A   1      40.050  28.279  31.978  1.00  0.00    -0.203 F 
ATOM     65  C   UNL A   1      37.890  29.151  31.628  1.00  0.00     0.198 A 
ATOM     66  C   UNL A   1      37.269  29.987  29.465  1.00  0.00     0.198 A 
ATOM     67  F   UNL A   1      38.818  29.924  27.691  1.00  0.00    -0.203 F 
ATOM     68  F   UNL A   1      37.579  28.898  32.907  1.00  0.00    -0.200 F 
ATOM     69  C   UNL A   1      36.950  29.733  30.790  1.00  0.00     0.200 A 
ATOM     70  F   UNL A   1      36.364  30.555  28.656  1.00  0.00    -0.200 F 
ATOM     71  F   UNL A   1      35.737  30.051  31.261  1.00  0.00    -0.200 F 
ENDBRANCH  47  61
BRANCH  48  72
ATOM     72  C   UNL A   1      48.582  27.148  26.227  1.00  0.00     0.064 A 
ATOM     73  C   UNL A   1      49.679  26.754  26.999  1.00  0.00     0.173 A 
ATOM     74  C   UNL A   1      48.739  27.205  24.834  1.00  0.00     0.173 A 
ATOM     75  F   UNL A   1      49.574  26.702  28.335  1.00  0.00    -0.203 F 
ATOM     76  C   UNL A   1      50.890  26.417  26.399  1.00  0.00     0.198 A 
ATOM     77  C   UNL A   1      49.943  26.851  24.234  1.00  0.00     0.198 A 
ATOM     78  F   UNL A   1      47.709  27.573  24.058  1.00  0.00    -0.203 F 
ATOM     79  F   UNL A   1      51.931  26.049  27.156  1.00  0.00    -0.200 F 
ATOM     80  C   UNL A   1      51.018  26.457  25.017  1.00  0.00     0.200 A 
ATOM     81  F   UNL A   1      50.059  26.879  22.899  1.00  0.00    -0.200 F 
ATOM     82  F   UNL A   1      52.178  26.115  24.441  1.00  0.00    -0.200 F 
ENDBRANCH  48  72
BRANCH  60  83
ATOM     83  C   UNL A   1      45.484  32.896  28.635  1.00  0.00     0.064 A 
ATOM     84  C   UNL A   1      45.211  33.833  27.629  1.00  0.00     0.173 A 
ATOM     85  C   UNL A   1      46.189  33.325  29.769  1.00  0.00     0.173 A 
ATOM     86  F   UNL A   1      44.556  33.460  26.520  1.00  0.00    -0.203 F 
ATOM     87  C   UNL A   1      45.643  35.151  27.747  1.00  0.00     0.198 A 
ATOM     88  C   UNL A   1      46.606  34.646  29.890  1.00  0.00     0.198 A 
ATOM     89  F   UNL A   1      46.473  32.461  30.755  1.00  0.00    -0.203 F 
ATOM     90  F   UNL A   1      45.402  36.025  26.760  1.00  0.00    -0.200 F 
ATOM     91  C   UNL A   1      46.337  35.557  28.879  1.00  0.00     0.200 A 
ATOM     92  F   UNL A   1      47.276  35.039  30.983  1.00  0.00    -0.200 F 
ATOM     93  F   UNL A   1      46.757  36.825  28.988  1.00  0.00    -0.200 F 
ENDBRANCH  60  83
ENDBRANCH  34  35
ENDBRANCH  27  29
ENDBRANCH  26  27
ENDBRANCH  25  26
ENDBRANCH   1  25
TORSDOF 16
ENDMDL
MODEL 3
REMARK VINA RESULT:     -11.5      1.436      3.359
REMARK SMILES CCc1cc(OCC(=O)OCCOC(=O)c2ccc(-c3c4nc(c(-c5c(F)c(F)c(F)c(F)c5F)c5ccc([nH]5)c(-c5c(F)c(F)c(F)c(F)c5F)c5nc(c(-c6c(F)c(F)c(F)c(F)c6F)c6ccc3[nH]6)C=C5)C=C4)cc2)nc(Nc2ccc(C)c(F)c2)n1
REMARK SMILES IDX 11 1 10 2 8 3 9 4 7 5 6 6 5 7 3 8 4 9 90 10 80 11 79 12 2 13
REMARK SMILES IDX 1 14 81 15 82 17 83 18 89 19 84 20 87 21 85 22 88 23 86 24
REMARK SMILES IDX 12 25 13 26 14 27 15 28 16 29 17 30 78 31 18 32 77 33 19 34
REMARK SMILES IDX 20 35 21 36 71 37 22 38 76 39 70 40 72 41 23 42 75 43 69 44
REMARK SMILES IDX 68 45 24 47 56 48 36 49 55 50 37 51 40 52 54 53 73 54 38 55
REMARK SMILES IDX 39 56 53 58 74 59 41 60 25 61 26 62 34 63 27 64 28 65 32 66
REMARK SMILES IDX 35 67 29 68 30 69 33 70 31 71 57 72 58 73 66 74 59 75 60 76
REMARK SMILES IDX 64 77 67 78 61 79 62 80 65 81 63 82 42 83 43 84 51 85 44 86
REMARK SMILES IDX 45 87 49 88 52 89 46 90 47 91 50 92 48 93
REMARK H PARENT 81 16 72 46 40 57
REMARK Flexibility Score: inf
ROOT
ATOM      1  C   UNL A   1      32.097  31.110  26.915  1.00  0.00     0.274 C 
ENDROOT
BRANCH   1   2
ATOM      2  O   UNL A   1      33.467  30.781  26.614  1.00  0.00    -0.460 OA
BRANCH   2   3
ATOM      3  C   UNL A   1      33.892  29.557  27.022  1.00  0.00     0.344 C 
ATOM      4  O   UNL A   1      34.776  29.364  27.851  1.00  0.00    -0.248 OA
BRANCH   3   5
ATOM      5  C   UNL A   1      33.169  28.406  26.331  1.00  0.00     0.353 C 
BRANCH   5   6
ATOM      6  O   UNL A   1      32.906  28.545  24.950  1.00  0.00    -0.466 OA
BRANCH   6   7
ATOM      7  C   UNL A   1      31.669  28.232  24.469  1.00  0.00     0.218 A 
ATOM      8  C   UNL A   1      29.645  28.560  23.339  1.00  0.00     0.050 A 
ATOM      9  C   UNL A   1      30.838  29.089  23.775  1.00  0.00     0.092 A 
ATOM     10  N   UNL A   1      29.344  27.273  23.538  1.00  0.00    -0.218 NA
ATOM     11  C   UNL A   1      30.200  26.501  24.220  1.00  0.00     0.230 A 
ATOM     12  N   UNL A   1      31.344  26.952  24.733  1.00  0.00    -0.177 NA
BRANCH   8  13
ATOM     13  C   UNL A   1      28.577  29.358  22.644  1.00  0.00     0.053 C 
ATOM     14  C   UNL A   1      28.280  30.687  23.307  1.00  0.00     0.011 C 
ENDBRANCH   8  13
BRANCH  11  15
ATOM     15  N   UNL A   1      29.836  25.173  24.440  1.00  0.00    -0.324 N 
ATOM     16  H   UNL A   1      28.887  24.971  24.604  1.00  0.00     0.170 HD
BRANCH  15  17
ATOM     17  C   UNL A   1      30.748  24.111  24.442  1.00  0.00     0.044 A 
ATOM     18  C   UNL A   1      30.923  23.314  25.576  1.00  0.00     0.026 A 
ATOM     19  C   UNL A   1      31.338  23.707  23.236  1.00  0.00     0.065 A 
ATOM     20  C   UNL A   1      31.632  22.109  25.490  1.00  0.00     0.008 A 
ATOM     21  C   UNL A   1      32.053  22.521  23.160  1.00  0.00     0.128 A 
ATOM     22  C   UNL A   1      32.196  21.697  24.275  1.00  0.00    -0.015 A 
ATOM     23  F   UNL A   1      32.572  22.156  21.979  1.00  0.00    -0.207 F 
ATOM     24  C   UNL A   1      32.858  20.360  24.153  1.00  0.00     0.047 C 
ENDBRANCH  15  17
ENDBRANCH  11  15
ENDBRANCH   6   7
ENDBRANCH   5   6
ENDBRANCH   3   5
ENDBRANCH   2   3
ENDBRANCH   1   2
BRANCH   1  25
ATOM     25  C   UNL A   1      31.866  32.619  27.004  1.00  0.00     0.275 C 
BRANCH  25  26
ATOM     26  O   UNL A   1      33.112  33.338  27.070  1.00  0.00    -0.458 OA
BRANCH  26  27
ATOM     27  C   UNL A   1      33.231  34.131  28.156  1.00  0.00     0.338 C 
ATOM     28  O   UNL A   1      32.506  35.055  28.480  1.00  0.00    -0.246 OA
BRANCH  27  29
ATOM     29  C   UNL A   1      34.363  33.720  28.997  1.00  0.00     0.060 A 
ATOM     30  C   UNL A   1      35.633  34.238  28.732  1.00  0.00     0.016 A 
ATOM     31  C   UNL A   1      34.204  32.628  29.856  1.00  0.00     0.016 A 
ATOM     32  C   UNL A   1      36.759  33.630  29.286  1.00  0.00     0.010 A 
ATOM     33  C   UNL A   1      35.331  32.040  30.435  1.00  0.00     0.010 A 
ATOM     34  C   UNL A   1      36.616  32.521  30.132  1.00  0.00    -0.014 A 
BRANCH  34  35
ATOM     35  C   UNL A   1      37.806  31.905  30.759  1.00  0.00     0.031 A 
ATOM     36  C   UNL A   1      38.597  30.839  30.062  1.00  0.00     0.074 A 
ATOM     37  C   UNL A   1      38.150  32.307  31.994  1.00  0.00     0.049 A 
ATOM     38  N   UNL A   1      39.613  30.144  30.507  1.00  0.00    -0.248 NA
ATOM     39  C   UNL A   1      38.203  30.515  28.684  1.00  0.00     0.031 C 
ATOM     40  C   UNL A   1      37.461  33.346  32.760  1.00  0.00     0.029 A 
ATOM     41  N   UNL A   1      39.143  31.870  32.831  1.00  0.00    -0.354 N 
ATOM     42  C   UNL A   1      39.986  29.305  29.466  1.00  0.00     0.074 A 
ATOM     43  C   UNL A   1      39.076  29.564  28.369  1.00  0.00     0.031 C 
ATOM     44  C   UNL A   1      38.027  33.441  33.972  1.00  0.00     0.029 A 
ATOM     45  C   UNL A   1      39.094  32.449  34.073  1.00  0.00     0.049 A 
ATOM     46  H   UNL A   1      39.823  31.210  32.568  1.00  0.00     0.167 HD
ATOM     47  C   UNL A   1      41.000  28.408  29.433  1.00  0.00     0.037 A 
ATOM     48  C   UNL A   1      39.798  32.178  35.186  1.00  0.00     0.037 A 
ATOM     49  C   UNL A   1      41.903  28.157  30.527  1.00  0.00     0.049 A 
ATOM     50  C   UNL A   1      40.858  31.121  35.151  1.00  0.00     0.074 A 
ATOM     51  C   UNL A   1      43.008  27.322  30.561  1.00  0.00     0.029 A 
ATOM     52  N   UNL A   1      41.794  28.728  31.785  1.00  0.00    -0.354 N 
ATOM     53  N   UNL A   1      41.226  30.359  34.153  1.00  0.00    -0.248 NA
ATOM     54  C   UNL A   1      41.598  30.885  36.397  1.00  0.00     0.031 C 
ATOM     55  C   UNL A   1      43.546  27.362  31.854  1.00  0.00     0.029 A 
ATOM     56  C   UNL A   1      42.790  28.239  32.614  1.00  0.00     0.049 A 
ATOM     57  H   UNL A   1      41.109  29.382  32.050  1.00  0.00     0.167 HD
ATOM     58  C   UNL A   1      42.243  29.555  34.643  1.00  0.00     0.074 A 
ATOM     59  C   UNL A   1      42.440  29.928  36.029  1.00  0.00     0.031 C 
ATOM     60  C   UNL A   1      42.953  28.600  33.998  1.00  0.00     0.037 A 
BRANCH  47  61
ATOM     61  C   UNL A   1      41.199  27.621  28.175  1.00  0.00     0.064 A 
ATOM     62  C   UNL A   1      42.032  28.090  27.150  1.00  0.00     0.173 A 
ATOM     63  C   UNL A   1      40.629  26.348  28.035  1.00  0.00     0.173 A 
ATOM     64  F   UNL A   1      42.595  29.303  27.240  1.00  0.00    -0.203 F 
ATOM     65  C   UNL A   1      42.285  27.309  26.025  1.00  0.00     0.198 A 
ATOM     66  C   UNL A   1      40.894  25.566  26.913  1.00  0.00     0.198 A 
ATOM     67  F   UNL A   1      39.829  25.857  28.994  1.00  0.00    -0.203 F 
ATOM     68  F   UNL A   1      43.080  27.777  25.052  1.00  0.00    -0.200 F 
ATOM     69  C   UNL A   1      41.722  26.047  25.910  1.00  0.00     0.200 A 
ATOM     70  F   UNL A   1      40.354  24.344  26.807  1.00  0.00    -0.200 F 
ATOM     71  F   UNL A   1      41.980  25.292  24.834  1.00  0.00    -0.200 F 
ENDBRANCH  47  61
BRANCH  48  72
ATOM     72  C   UNL A   1      39.465  32.905  36.432  1.00  0.00     0.064 A 
ATOM     73  C   UNL A   1      38.554  32.382  37.354  1.00  0.00     0.173 A 
ATOM     74  C   UNL A   1      40.111  34.109  36.749  1.00  0.00     0.173 A 
ATOM     75  F   UNL A   1      37.905  31.240  37.081  1.00  0.00    -0.203 F 
ATOM     76  C   UNL A   1      38.303  33.035  38.558  1.00  0.00     0.198 A 
ATOM     77  C   UNL A   1      39.873  34.752  37.959  1.00  0.00     0.198 A 
ATOM     78  F   UNL A   1      40.997  34.640  35.893  1.00  0.00    -0.203 F 
ATOM     79  F   UNL A   1      37.421  32.522  39.425  1.00  0.00    -0.200 F 
ATOM     80  C   UNL A   1      38.970  34.214  38.863  1.00  0.00     0.200 A 
ATOM     81  F   UNL A   1      40.528  35.883  38.255  1.00  0.00    -0.200 F 
ATOM     82  F   UNL A   1      38.741  34.831  40.030  1.00  0.00    -0.200 F 
ENDBRANCH  48  72
BRANCH  60  83
ATOM     83  C   UNL A   1      44.003  27.888  34.793  1.00  0.00     0.064 A 
ATOM     84  C   UNL A   1      45.290  28.426  34.936  1.00  0.00     0.173 A 
ATOM     85  C   UNL A   1      43.717  26.671  35.425  1.00  0.00     0.173 A 
ATOM     86  F   UNL A   1      45.610  29.580  34.332  1.00  0.00    -0.203 F 
ATOM     87  C   UNL A   1      46.262  27.758  35.674  1.00  0.00     0.198 A 
ATOM     88  C   UNL A   1      44.687  26.013  36.174  1.00  0.00     0.198 A 
ATOM     89  F   UNL A   1      42.499  26.120  35.313  1.00  0.00    -0.203 F 
ATOM     90  F   UNL A   1      47.496  28.270  35.773  1.00  0.00    -0.200 F 
ATOM     91  C   UNL A   1      45.959  26.554  36.296  1.00  0.00     0.200 A 
ATOM     92  F   UNL A   1      44.395  24.851  36.775  1.00  0.00    -0.200 F 
ATOM     93  F   UNL A   1      46.898  25.910  37.002  1.00  0.00    -0.200 F 
ENDBRANCH  60  83
ENDBRANCH  34  35
ENDBRANCH  27  29
ENDBRANCH  26  27
ENDBRANCH  25  26
ENDBRANCH   1  25
TORSDOF 16
ENDMDL
