MODEL 1
REMARK VINA RESULT:     -11.6      0.000      0.000
REMARK SMILES COc1ccccc1N1C(=O)[C@@H]2[C@@H](C1=O)[C@@](Cc1ccccc1)(C(=O)OCCOC(=O)c1ccc(-c3c4nc(c(-c5c(F)c(F)c(F)c(F)c5F)c5ccc([nH]5)c(-c5c(F)c(F)c(F)c(F)c5F)c5nc(c(-c6c(F)c(F)c(F)c(F)c6F)c6ccc3[nH]6)C=C5)C=C4)cc1)[NH2+][C@H]2c1ccc(C)cc1
REMARK SMILES IDX 27 1 26 2 24 3 25 4 16 5 9 6 10 7 14 8 11 9 12 10 13 11
REMARK SMILES IDX 15 12 96 13 95 14 8 17 3 18 4 19 5 20 7 21 6 22 2 23 1 24
REMARK SMILES IDX 97 25 98 26 103 27 99 28 102 29 100 30 101 31 17 32 18 33
REMARK SMILES IDX 19 34 23 35 20 36 22 37 21 38 28 39 29 40 30 41 31 42 32 43
REMARK SMILES IDX 33 44 94 45 34 46 93 47 35 48 36 49 37 50 87 51 38 52 92 53
REMARK SMILES IDX 86 54 88 55 39 56 91 57 85 58 84 59 40 61 72 62 52 63 71 64
REMARK SMILES IDX 53 65 56 66 70 67 89 68 54 69 55 70 69 72 90 73 57 74 41 75
REMARK SMILES IDX 42 76 50 77 43 78 44 79 48 80 51 81 45 82 46 83 49 84 47 85
REMARK SMILES IDX 73 86 74 87 82 88 75 89 76 90 80 91 83 92 77 93 78 94 81 95
REMARK SMILES IDX 79 96 58 97 59 98 67 99 60 100 61 101 65 102 68 103 62 104
REMARK SMILES IDX 63 105 66 106 64 107
REMARK H PARENT 95 15 95 16 88 60 56 71
REMARK Flexibility Score: inf
ROOT
ATOM      1  C   UNL A   1      48.856  23.862  38.363  1.00  0.00     0.274 C 
ENDROOT
BRANCH   1   2
ATOM      2  O   UNL A   1      48.187  22.876  39.188  1.00  0.00    -0.457 OA
BRANCH   2   3
ATOM      3  C   UNL A   1      48.943  21.793  39.480  1.00  0.00     0.369 C 
ATOM      4  O   UNL A   1      49.823  21.817  40.341  1.00  0.00    -0.245 OA
BRANCH   3   5
ATOM      5  C   UNL A   1      48.647  20.510  38.666  1.00  0.00     0.211 C 
ATOM      6  N   UNL A   1      50.483  20.709  35.449  1.00  0.00    -0.246 N 
ATOM      7  C   UNL A   1      49.137  20.774  35.112  1.00  0.00     0.244 C 
ATOM      8  C   UNL A   1      50.657  20.694  36.833  1.00  0.00     0.245 C 
ATOM      9  O   UNL A   1      48.588  20.634  34.035  1.00  0.00    -0.273 OA
ATOM     10  C   UNL A   1      48.464  21.079  36.397  1.00  0.00     0.162 C 
ATOM     11  C   UNL A   1      49.318  20.275  37.346  1.00  0.00     0.172 C 
ATOM     12  O   UNL A   1      51.647  20.931  37.503  1.00  0.00    -0.273 OA
ATOM     13  C   UNL A   1      47.082  20.602  36.709  1.00  0.00     0.228 C 
ATOM     14  N   UNL A   1      47.156  20.513  38.213  1.00  0.00    -0.324 N 
ATOM     15  H   UNL A   1      46.678  21.316  38.624  1.00  0.00     0.347 HD
ATOM     16  H   UNL A   1      46.706  19.652  38.524  1.00  0.00     0.347 HD
BRANCH   6  17
ATOM     17  C   UNL A   1      51.509  20.670  34.491  1.00  0.00     0.094 A 
ATOM     18  C   UNL A   1      51.845  21.774  33.693  1.00  0.00     0.143 A 
ATOM     19  C   UNL A   1      52.854  21.652  32.731  1.00  0.00     0.048 A 
ATOM     20  C   UNL A   1      53.545  20.449  32.574  1.00  0.00     0.004 A 
ATOM     21  C   UNL A   1      52.231  19.472  34.337  1.00  0.00     0.031 A 
ATOM     22  C   UNL A   1      53.233  19.358  33.376  1.00  0.00     0.002 A 
BRANCH  18  23
ATOM     23  O   UNL A   1      51.252  23.007  33.765  1.00  0.00    -0.495 OA
ATOM     24  C   UNL A   1      51.487  23.836  32.628  1.00  0.00     0.278 C 
ENDBRANCH  18  23
ENDBRANCH   6  17
BRANCH  13  25
ATOM     25  C   UNL A   1      45.957  21.497  36.187  1.00  0.00     0.010 A 
ATOM     26  C   UNL A   1      45.287  21.232  34.983  1.00  0.00     0.010 A 
ATOM     27  C   UNL A   1      45.523  22.622  36.904  1.00  0.00     0.010 A 
ATOM     28  C   UNL A   1      44.302  22.071  34.464  1.00  0.00     0.004 A 
ATOM     29  C   UNL A   1      44.474  23.433  36.422  1.00  0.00     0.004 A 
ATOM     30  C   UNL A   1      43.864  23.169  35.188  1.00  0.00    -0.051 A 
ATOM     31  C   UNL A   1      42.801  24.044  34.591  1.00  0.00     0.044 C 
ENDBRANCH  13  25
BRANCH   5  32
ATOM     32  C   UNL A   1      48.921  19.327  39.665  1.00  0.00     0.117 C 
BRANCH  32  33
ATOM     33  C   UNL A   1      47.668  18.694  40.260  1.00  0.00    -0.041 A 
ATOM     34  C   UNL A   1      47.243  19.031  41.550  1.00  0.00     0.004 A 
ATOM     35  C   UNL A   1      46.881  17.788  39.527  1.00  0.00     0.004 A 
ATOM     36  C   UNL A   1      46.026  18.552  42.049  1.00  0.00     0.000 A 
ATOM     37  C   UNL A   1      45.649  17.340  40.006  1.00  0.00     0.000 A 
ATOM     38  C   UNL A   1      45.215  17.734  41.265  1.00  0.00     0.000 A 
ENDBRANCH  32  33
ENDBRANCH   5  32
ENDBRANCH   3   5
ENDBRANCH   2   3
ENDBRANCH   1   2
BRANCH   1  39
ATOM     39  C   UNL A   1      48.049  25.154  38.150  1.00  0.00     0.275 C 
BRANCH  39  40
ATOM     40  O   UNL A   1      47.764  25.436  36.757  1.00  0.00    -0.458 OA
BRANCH  40  41
ATOM     41  C   UNL A   1      47.944  26.738  36.452  1.00  0.00     0.338 C 
ATOM     42  O   UNL A   1      49.022  27.310  36.488  1.00  0.00    -0.246 OA
BRANCH  41  43
ATOM     43  C   UNL A   1      46.764  27.460  35.951  1.00  0.00     0.060 A 
ATOM     44  C   UNL A   1      45.515  26.877  36.147  1.00  0.00     0.016 A 
ATOM     45  C   UNL A   1      46.909  28.437  34.967  1.00  0.00     0.016 A 
ATOM     46  C   UNL A   1      44.472  27.125  35.268  1.00  0.00     0.010 A 
ATOM     47  C   UNL A   1      45.795  28.830  34.207  1.00  0.00     0.010 A 
ATOM     48  C   UNL A   1      44.567  28.156  34.331  1.00  0.00    -0.014 A 
BRANCH  48  49
ATOM     49  C   UNL A   1      43.343  28.546  33.575  1.00  0.00     0.031 A 
ATOM     50  C   UNL A   1      43.093  28.107  32.159  1.00  0.00     0.074 A 
ATOM     51  C   UNL A   1      42.422  29.302  34.204  1.00  0.00     0.049 A 
ATOM     52  N   UNL A   1      42.116  28.404  31.338  1.00  0.00    -0.248 NA
ATOM     53  C   UNL A   1      44.085  27.200  31.587  1.00  0.00     0.031 C 
ATOM     54  C   UNL A   1      42.510  29.769  35.590  1.00  0.00     0.029 A 
ATOM     55  N   UNL A   1      41.228  29.807  33.762  1.00  0.00    -0.354 N 
ATOM     56  C   UNL A   1      42.393  27.728  30.152  1.00  0.00     0.074 A 
ATOM     57  C   UNL A   1      43.629  27.013  30.357  1.00  0.00     0.031 C 
ATOM     58  C   UNL A   1      41.405  30.456  35.897  1.00  0.00     0.029 A 
ATOM     59  C   UNL A   1      40.592  30.581  34.698  1.00  0.00     0.049 A 
ATOM     60  H   UNL A   1      40.863  29.631  32.864  1.00  0.00     0.167 HD
ATOM     61  C   UNL A   1      41.690  27.721  28.992  1.00  0.00     0.037 A 
ATOM     62  C   UNL A   1      39.506  31.362  34.590  1.00  0.00     0.037 A 
ATOM     63  C   UNL A   1      40.480  28.478  28.791  1.00  0.00     0.049 A 
ATOM     64  C   UNL A   1      38.803  31.431  33.270  1.00  0.00     0.074 A 
ATOM     65  C   UNL A   1      39.689  28.569  27.659  1.00  0.00     0.029 A 
ATOM     66  N   UNL A   1      39.902  29.296  29.751  1.00  0.00    -0.354 N 
ATOM     67  N   UNL A   1      39.066  30.793  32.156  1.00  0.00    -0.248 NA
ATOM     68  C   UNL A   1      37.655  32.339  33.192  1.00  0.00     0.031 C 
ATOM     69  C   UNL A   1      38.679  29.506  27.910  1.00  0.00     0.029 A 
ATOM     70  C   UNL A   1      38.794  29.937  29.222  1.00  0.00     0.049 A 
ATOM     71  H   UNL A   1      40.232  29.406  30.672  1.00  0.00     0.167 HD
ATOM     72  C   UNL A   1      38.107  31.207  31.246  1.00  0.00     0.074 A 
ATOM     73  C   UNL A   1      37.240  32.131  31.951  1.00  0.00     0.031 C 
ATOM     74  C   UNL A   1      37.956  30.862  29.942  1.00  0.00     0.037 A 
BRANCH  61  75
ATOM     75  C   UNL A   1      42.246  26.940  27.831  1.00  0.00     0.064 A 
ATOM     76  C   UNL A   1      41.916  25.594  27.605  1.00  0.00     0.173 A 
ATOM     77  C   UNL A   1      43.104  27.561  26.908  1.00  0.00     0.173 A 
ATOM     78  F   UNL A   1      41.115  24.941  28.460  1.00  0.00    -0.203 F 
ATOM     79  C   UNL A   1      42.441  24.897  26.517  1.00  0.00     0.198 A 
ATOM     80  C   UNL A   1      43.603  26.870  25.806  1.00  0.00     0.198 A 
ATOM     81  F   UNL A   1      43.456  28.845  27.071  1.00  0.00    -0.203 F 
ATOM     82  F   UNL A   1      42.149  23.599  26.348  1.00  0.00    -0.200 F 
ATOM     83  C   UNL A   1      43.279  25.537  25.615  1.00  0.00     0.200 A 
ATOM     84  F   UNL A   1      44.404  27.496  24.931  1.00  0.00    -0.200 F 
ATOM     85  F   UNL A   1      43.778  24.867  24.567  1.00  0.00    -0.200 F 
ENDBRANCH  61  75
BRANCH  62  86
ATOM     86  C   UNL A   1      39.068  32.163  35.761  1.00  0.00     0.064 A 
ATOM     87  C   UNL A   1      38.224  31.614  36.732  1.00  0.00     0.173 A 
ATOM     88  C   UNL A   1      39.528  33.476  35.959  1.00  0.00     0.173 A 
ATOM     89  F   UNL A   1      37.749  30.368  36.578  1.00  0.00    -0.203 F 
ATOM     90  C   UNL A   1      37.846  32.349  37.852  1.00  0.00     0.198 A 
ATOM     91  C   UNL A   1      39.181  34.196  37.098  1.00  0.00     0.198 A 
ATOM     92  F   UNL A   1      40.349  34.044  35.063  1.00  0.00    -0.203 F 
ATOM     93  F   UNL A   1      37.005  31.815  38.748  1.00  0.00    -0.200 F 
ATOM     94  C   UNL A   1      38.333  33.634  38.040  1.00  0.00     0.200 A 
ATOM     95  F   UNL A   1      39.677  35.425  37.288  1.00  0.00    -0.200 F 
ATOM     96  F   UNL A   1      37.983  34.333  39.128  1.00  0.00    -0.200 F 
ENDBRANCH  62  86
BRANCH  74  97
ATOM     97  C   UNL A   1      36.793  31.471  29.216  1.00  0.00     0.064 A 
ATOM     98  C   UNL A   1      36.778  32.828  28.860  1.00  0.00     0.173 A 
ATOM     99  C   UNL A   1      35.680  30.689  28.880  1.00  0.00     0.173 A 
ATOM    100  F   UNL A   1      37.813  33.622  29.174  1.00  0.00    -0.203 F 
ATOM    101  C   UNL A   1      35.667  33.389  28.237  1.00  0.00     0.198 A 
ATOM    102  C   UNL A   1      34.587  31.245  28.220  1.00  0.00     0.198 A 
ATOM    103  F   UNL A   1      35.648  29.384  29.190  1.00  0.00    -0.203 F 
ATOM    104  F   UNL A   1      35.641  34.703  27.975  1.00  0.00    -0.200 F 
ATOM    105  C   UNL A   1      34.576  32.597  27.913  1.00  0.00     0.200 A 
ATOM    106  F   UNL A   1      33.541  30.473  27.893  1.00  0.00    -0.200 F 
ATOM    107  F   UNL A   1      33.506  33.139  27.318  1.00  0.00    -0.200 F 
ENDBRANCH  74  97
ENDBRANCH  48  49
ENDBRANCH  41  43
ENDBRANCH  40  41
ENDBRANCH  39  40
ENDBRANCH   1  39
TORSDOF 16
ENDMDL
MODEL 2
REMARK VINA RESULT:     -11.3      1.752      5.233
REMARK SMILES COc1ccccc1N1C(=O)[C@@H]2[C@@H](C1=O)[C@@](Cc1ccccc1)(C(=O)OCCOC(=O)c1ccc(-c3c4nc(c(-c5c(F)c(F)c(F)c(F)c5F)c5ccc([nH]5)c(-c5c(F)c(F)c(F)c(F)c5F)c5nc(c(-c6c(F)c(F)c(F)c(F)c6F)c6ccc3[nH]6)C=C5)C=C4)cc1)[NH2+][C@H]2c1ccc(C)cc1
REMARK SMILES IDX 27 1 26 2 24 3 25 4 16 5 9 6 10 7 14 8 11 9 12 10 13 11
REMARK SMILES IDX 15 12 96 13 95 14 8 17 3 18 4 19 5 20 7 21 6 22 2 23 1 24
REMARK SMILES IDX 97 25 98 26 103 27 99 28 102 29 100 30 101 31 17 32 18 33
REMARK SMILES IDX 19 34 23 35 20 36 22 37 21 38 28 39 29 40 30 41 31 42 32 43
REMARK SMILES IDX 33 44 94 45 34 46 93 47 35 48 36 49 37 50 87 51 38 52 92 53
REMARK SMILES IDX 86 54 88 55 39 56 91 57 85 58 84 59 40 61 72 62 52 63 71 64
REMARK SMILES IDX 53 65 56 66 70 67 89 68 54 69 55 70 69 72 90 73 57 74 41 75
REMARK SMILES IDX 42 76 50 77 43 78 44 79 48 80 51 81 45 82 46 83 49 84 47 85
REMARK SMILES IDX 73 86 74 87 82 88 75 89 76 90 80 91 83 92 77 93 78 94 81 95
REMARK SMILES IDX 79 96 58 97 59 98 67 99 60 100 61 101 65 102 68 103 62 104
REMARK SMILES IDX 63 105 66 106 64 107
REMARK H PARENT 95 15 95 16 88 60 56 71
REMARK Flexibility Score: inf
ROOT
ATOM      1  C   UNL A   1      47.415  23.796  38.290  1.00  0.00     0.274 C 
ENDROOT
BRANCH   1   2
ATOM      2  O   UNL A   1      47.983  22.584  37.735  1.00  0.00    -0.457 OA
BRANCH   2   3
ATOM      3  C   UNL A   1      48.658  21.828  38.631  1.00  0.00     0.369 C 
ATOM      4  O   UNL A   1      48.990  22.255  39.737  1.00  0.00    -0.245 OA
BRANCH   3   5
ATOM      5  C   UNL A   1      49.002  20.384  38.189  1.00  0.00     0.211 C 
ATOM      6  N   UNL A   1      46.453  18.086  39.596  1.00  0.00    -0.246 N 
ATOM      7  C   UNL A   1      47.639  17.763  40.241  1.00  0.00     0.244 C 
ATOM      8  C   UNL A   1      46.618  19.186  38.754  1.00  0.00     0.245 C 
ATOM      9  O   UNL A   1      47.933  16.785  40.905  1.00  0.00    -0.273 OA
ATOM     10  C   UNL A   1      48.523  18.918  39.957  1.00  0.00     0.162 C 
ATOM     11  C   UNL A   1      48.097  19.243  38.547  1.00  0.00     0.172 C 
ATOM     12  O   UNL A   1      45.790  19.931  38.262  1.00  0.00    -0.273 OA
ATOM     13  C   UNL A   1      50.007  18.778  39.832  1.00  0.00     0.228 C 
ATOM     14  N   UNL A   1      50.311  19.921  38.896  1.00  0.00    -0.324 N 
ATOM     15  H   UNL A   1      50.703  20.699  39.427  1.00  0.00     0.347 HD
ATOM     16  H   UNL A   1      50.984  19.613  38.194  1.00  0.00     0.347 HD
BRANCH   6  17
ATOM     17  C   UNL A   1      45.257  17.376  39.794  1.00  0.00     0.094 A 
ATOM     18  C   UNL A   1      44.563  17.384  41.013  1.00  0.00     0.143 A 
ATOM     19  C   UNL A   1      43.397  16.623  41.151  1.00  0.00     0.048 A 
ATOM     20  C   UNL A   1      42.906  15.872  40.081  1.00  0.00     0.004 A 
ATOM     21  C   UNL A   1      44.737  16.634  38.718  1.00  0.00     0.031 A 
ATOM     22  C   UNL A   1      43.577  15.876  38.864  1.00  0.00     0.002 A 
BRANCH  18  23
ATOM     23  O   UNL A   1      44.934  18.091  42.126  1.00  0.00    -0.495 OA
ATOM     24  C   UNL A   1      44.478  17.530  43.355  1.00  0.00     0.278 C 
ENDBRANCH  18  23
ENDBRANCH   6  17
BRANCH  13  25
ATOM     25  C   UNL A   1      50.773  18.827  41.154  1.00  0.00     0.010 A 
ATOM     26  C   UNL A   1      50.230  19.401  42.313  1.00  0.00     0.010 A 
ATOM     27  C   UNL A   1      52.057  18.274  41.279  1.00  0.00     0.010 A 
ATOM     28  C   UNL A   1      50.938  19.507  43.510  1.00  0.00     0.004 A 
ATOM     29  C   UNL A   1      52.749  18.310  42.508  1.00  0.00     0.004 A 
ATOM     30  C   UNL A   1      52.198  18.941  43.631  1.00  0.00    -0.051 A 
ATOM     31  C   UNL A   1      52.923  19.079  44.937  1.00  0.00     0.044 C 
ENDBRANCH  13  25
BRANCH   5  32
ATOM     32  C   UNL A   1      49.214  20.478  36.634  1.00  0.00     0.117 C 
BRANCH  32  33
ATOM     33  C   UNL A   1      50.673  20.545  36.194  1.00  0.00    -0.041 A 
ATOM     34  C   UNL A   1      51.338  21.774  36.115  1.00  0.00     0.004 A 
ATOM     35  C   UNL A   1      51.406  19.383  35.894  1.00  0.00     0.004 A 
ATOM     36  C   UNL A   1      52.709  21.828  35.839  1.00  0.00     0.000 A 
ATOM     37  C   UNL A   1      52.780  19.431  35.656  1.00  0.00     0.000 A 
ATOM     38  C   UNL A   1      53.435  20.655  35.642  1.00  0.00     0.000 A 
ENDBRANCH  32  33
ENDBRANCH   5  32
ENDBRANCH   3   5
ENDBRANCH   2   3
ENDBRANCH   1   2
BRANCH   1  39
ATOM     39  C   UNL A   1      48.221  25.068  37.974  1.00  0.00     0.275 C 
BRANCH  39  40
ATOM     40  O   UNL A   1      47.393  26.237  37.751  1.00  0.00    -0.458 OA
BRANCH  40  41
ATOM     41  C   UNL A   1      47.708  26.874  36.604  1.00  0.00     0.338 C 
ATOM     42  O   UNL A   1      48.831  27.256  36.314  1.00  0.00    -0.246 OA
BRANCH  41  43
ATOM     43  C   UNL A   1      46.626  27.012  35.615  1.00  0.00     0.060 A 
ATOM     44  C   UNL A   1      46.602  28.166  34.837  1.00  0.00     0.016 A 
ATOM     45  C   UNL A   1      45.462  26.257  35.745  1.00  0.00     0.016 A 
ATOM     46  C   UNL A   1      45.405  28.662  34.344  1.00  0.00     0.010 A 
ATOM     47  C   UNL A   1      44.293  26.660  35.076  1.00  0.00     0.010 A 
ATOM     48  C   UNL A   1      44.245  27.886  34.390  1.00  0.00    -0.014 A 
BRANCH  48  49
ATOM     49  C   UNL A   1      43.046  28.352  33.637  1.00  0.00     0.031 A 
ATOM     50  C   UNL A   1      42.802  27.985  32.200  1.00  0.00     0.074 A 
ATOM     51  C   UNL A   1      42.143  29.111  34.287  1.00  0.00     0.049 A 
ATOM     52  N   UNL A   1      41.847  28.352  31.380  1.00  0.00    -0.248 NA
ATOM     53  C   UNL A   1      43.769  27.070  31.600  1.00  0.00     0.031 C 
ATOM     54  C   UNL A   1      42.227  29.513  35.693  1.00  0.00     0.029 A 
ATOM     55  N   UNL A   1      40.974  29.677  33.853  1.00  0.00    -0.354 N 
ATOM     56  C   UNL A   1      42.117  27.720  30.168  1.00  0.00     0.074 A 
ATOM     57  C   UNL A   1      43.326  26.954  30.357  1.00  0.00     0.031 C 
ATOM     58  C   UNL A   1      41.142  30.224  36.017  1.00  0.00     0.029 A 
ATOM     59  C   UNL A   1      40.351  30.430  34.814  1.00  0.00     0.049 A 
ATOM     60  H   UNL A   1      40.616  29.554  32.944  1.00  0.00     0.167 HD
ATOM     61  C   UNL A   1      41.431  27.789  29.000  1.00  0.00     0.037 A 
ATOM     62  C   UNL A   1      39.294  31.254  34.727  1.00  0.00     0.037 A 
ATOM     63  C   UNL A   1      40.252  28.596  28.818  1.00  0.00     0.049 A 
ATOM     64  C   UNL A   1      38.613  31.406  33.402  1.00  0.00     0.074 A 
ATOM     65  C   UNL A   1      39.481  28.765  27.682  1.00  0.00     0.029 A 
ATOM     66  N   UNL A   1      39.689  29.391  29.806  1.00  0.00    -0.354 N 
ATOM     67  N   UNL A   1      38.870  30.808  32.264  1.00  0.00    -0.248 NA
ATOM     68  C   UNL A   1      37.499  32.356  33.350  1.00  0.00     0.031 C 
ATOM     69  C   UNL A   1      38.500  29.725  27.961  1.00  0.00     0.029 A 
ATOM     70  C   UNL A   1      38.611  30.093  29.292  1.00  0.00     0.049 A 
ATOM     71  H   UNL A   1      40.009  29.448  30.735  1.00  0.00     0.167 HD
ATOM     72  C   UNL A   1      37.939  31.296  31.362  1.00  0.00     0.074 A 
ATOM     73  C   UNL A   1      37.094  32.217  32.097  1.00  0.00     0.031 C 
ATOM     74  C   UNL A   1      37.795  31.014  30.042  1.00  0.00     0.037 A 
BRANCH  61  75
ATOM     75  C   UNL A   1      41.977  27.041  27.813  1.00  0.00     0.064 A 
ATOM     76  C   UNL A   1      42.893  27.617  26.919  1.00  0.00     0.173 A 
ATOM     77  C   UNL A   1      41.596  25.708  27.582  1.00  0.00     0.173 A 
ATOM     78  F   UNL A   1      43.281  28.891  27.076  1.00  0.00    -0.203 F 
ATOM     79  C   UNL A   1      43.386  26.896  25.831  1.00  0.00     0.198 A 
ATOM     80  C   UNL A   1      42.113  24.982  26.512  1.00  0.00     0.198 A 
ATOM     81  F   UNL A   1      40.723  25.103  28.403  1.00  0.00    -0.203 F 
ATOM     82  F   UNL A   1      44.224  27.483  24.963  1.00  0.00    -0.200 F 
ATOM     83  C   UNL A   1      43.002  25.579  25.632  1.00  0.00     0.200 A 
ATOM     84  F   UNL A   1      41.748  23.705  26.330  1.00  0.00    -0.200 F 
ATOM     85  F   UNL A   1      43.481  24.887  24.589  1.00  0.00    -0.200 F 
ENDBRANCH  61  75
BRANCH  62  86
ATOM     86  C   UNL A   1      38.868  32.017  35.927  1.00  0.00     0.064 A 
ATOM     87  C   UNL A   1      38.074  31.421  36.913  1.00  0.00     0.173 A 
ATOM     88  C   UNL A   1      39.290  33.340  36.136  1.00  0.00     0.173 A 
ATOM     89  F   UNL A   1      37.637  30.163  36.750  1.00  0.00    -0.203 F 
ATOM     90  C   UNL A   1      37.708  32.122  38.059  1.00  0.00     0.198 A 
ATOM     91  C   UNL A   1      38.955  34.027  37.301  1.00  0.00     0.198 A 
ATOM     92  F   UNL A   1      40.062  33.954  35.227  1.00  0.00    -0.203 F 
ATOM     93  F   UNL A   1      36.915  31.542  38.970  1.00  0.00    -0.200 F 
ATOM     94  C   UNL A   1      38.158  33.419  38.257  1.00  0.00     0.200 A 
ATOM     95  F   UNL A   1      39.416  35.268  37.499  1.00  0.00    -0.200 F 
ATOM     96  F   UNL A   1      37.819  34.084  39.369  1.00  0.00    -0.200 F 
ENDBRANCH  62  86
BRANCH  74  97
ATOM     97  C   UNL A   1      36.664  31.696  29.330  1.00  0.00     0.064 A 
ATOM     98  C   UNL A   1      36.699  33.068  29.038  1.00  0.00     0.173 A 
ATOM     99  C   UNL A   1      35.532  30.967  28.940  1.00  0.00     0.173 A 
ATOM    100  F   UNL A   1      37.755  33.810  29.404  1.00  0.00    -0.203 F 
ATOM    101  C   UNL A   1      35.617  33.694  28.427  1.00  0.00     0.198 A 
ATOM    102  C   UNL A   1      34.469  31.590  28.292  1.00  0.00     0.198 A 
ATOM    103  F   UNL A   1      35.453  29.651  29.186  1.00  0.00    -0.203 F 
ATOM    104  F   UNL A   1      35.639  35.019  28.228  1.00  0.00    -0.200 F 
ATOM    105  C   UNL A   1      34.507  32.955  28.050  1.00  0.00     0.200 A 
ATOM    106  F   UNL A   1      33.404  30.870  27.913  1.00  0.00    -0.200 F 
ATOM    107  F   UNL A   1      33.464  33.560  27.465  1.00  0.00    -0.200 F 
ENDBRANCH  74  97
ENDBRANCH  48  49
ENDBRANCH  41  43
ENDBRANCH  40  41
ENDBRANCH  39  40
ENDBRANCH   1  39
TORSDOF 16
ENDMDL
MODEL 3
REMARK VINA RESULT:     -11.3      0.548      6.847
REMARK SMILES COc1ccccc1N1C(=O)[C@@H]2[C@@H](C1=O)[C@@](Cc1ccccc1)(C(=O)OCCOC(=O)c1ccc(-c3c4nc(c(-c5c(F)c(F)c(F)c(F)c5F)c5ccc([nH]5)c(-c5c(F)c(F)c(F)c(F)c5F)c5nc(c(-c6c(F)c(F)c(F)c(F)c6F)c6ccc3[nH]6)C=C5)C=C4)cc1)[NH2+][C@H]2c1ccc(C)cc1
REMARK SMILES IDX 27 1 26 2 24 3 25 4 16 5 9 6 10 7 14 8 11 9 12 10 13 11
REMARK SMILES IDX 15 12 96 13 95 14 8 17 3 18 4 19 5 20 7 21 6 22 2 23 1 24
REMARK SMILES IDX 97 25 98 26 103 27 99 28 102 29 100 30 101 31 17 32 18 33
REMARK SMILES IDX 19 34 23 35 20 36 22 37 21 38 28 39 29 40 30 41 31 42 32 43
REMARK SMILES IDX 33 44 94 45 34 46 93 47 35 48 36 49 37 50 87 51 38 52 92 53
REMARK SMILES IDX 86 54 88 55 39 56 91 57 85 58 84 59 40 61 72 62 52 63 71 64
REMARK SMILES IDX 53 65 56 66 70 67 89 68 54 69 55 70 69 72 90 73 57 74 41 75
REMARK SMILES IDX 42 76 50 77 43 78 44 79 48 80 51 81 45 82 46 83 49 84 47 85
REMARK SMILES IDX 73 86 74 87 82 88 75 89 76 90 80 91 83 92 77 93 78 94 81 95
REMARK SMILES IDX 79 96 58 97 59 98 67 99 60 100 61 101 65 102 68 103 62 104
REMARK SMILES IDX 63 105 66 106 64 107
REMARK H PARENT 95 15 95 16 88 60 56 71
REMARK Flexibility Score: inf
ROOT
ATOM      1  C   UNL A   1      48.091  23.778  39.555  1.00  0.00     0.274 C 
ENDROOT
BRANCH   1   2
ATOM      2  O   UNL A   1      47.681  22.390  39.486  1.00  0.00    -0.457 OA
BRANCH   2   3
ATOM      3  C   UNL A   1      48.705  21.516  39.357  1.00  0.00     0.369 C 
ATOM      4  O   UNL A   1      49.807  21.711  39.872  1.00  0.00    -0.245 OA
BRANCH   3   5
ATOM      5  C   UNL A   1      48.422  20.246  38.517  1.00  0.00     0.211 C 
ATOM      6  N   UNL A   1      50.354  20.471  35.359  1.00  0.00    -0.246 N 
ATOM      7  C   UNL A   1      49.021  20.553  34.983  1.00  0.00     0.244 C 
ATOM      8  C   UNL A   1      50.488  20.436  36.747  1.00  0.00     0.245 C 
ATOM      9  O   UNL A   1      48.502  20.433  33.888  1.00  0.00    -0.273 OA
ATOM     10  C   UNL A   1      48.312  20.848  36.251  1.00  0.00     0.162 C 
ATOM     11  C   UNL A   1      49.130  20.022  37.214  1.00  0.00     0.172 C 
ATOM     12  O   UNL A   1      51.459  20.655  37.449  1.00  0.00    -0.273 OA
ATOM     13  C   UNL A   1      46.916  20.379  36.516  1.00  0.00     0.228 C 
ATOM     14  N   UNL A   1      46.945  20.270  38.020  1.00  0.00    -0.324 N 
ATOM     15  H   UNL A   1      46.463  21.071  38.428  1.00  0.00     0.347 HD
ATOM     16  H   UNL A   1      46.479  19.409  38.305  1.00  0.00     0.347 HD
BRANCH   6  17
ATOM     17  C   UNL A   1      51.409  20.435  34.431  1.00  0.00     0.094 A 
ATOM     18  C   UNL A   1      51.589  21.421  33.449  1.00  0.00     0.143 A 
ATOM     19  C   UNL A   1      52.640  21.301  32.533  1.00  0.00     0.048 A 
ATOM     20  C   UNL A   1      53.524  20.222  32.600  1.00  0.00     0.004 A 
ATOM     21  C   UNL A   1      52.322  19.367  34.501  1.00  0.00     0.031 A 
ATOM     22  C   UNL A   1      53.364  19.254  33.584  1.00  0.00     0.002 A 
BRANCH  18  23
ATOM     23  O   UNL A   1      50.801  22.530  33.293  1.00  0.00    -0.495 OA
ATOM     24  C   UNL A   1      51.382  23.551  32.485  1.00  0.00     0.278 C 
ENDBRANCH  18  23
ENDBRANCH   6  17
BRANCH  13  25
ATOM     25  C   UNL A   1      45.817  21.292  35.973  1.00  0.00     0.010 A 
ATOM     26  C   UNL A   1      45.428  22.468  36.632  1.00  0.00     0.010 A 
ATOM     27  C   UNL A   1      45.155  21.008  34.769  1.00  0.00     0.010 A 
ATOM     28  C   UNL A   1      44.386  23.280  36.182  1.00  0.00     0.004 A 
ATOM     29  C   UNL A   1      44.152  21.865  34.269  1.00  0.00     0.004 A 
ATOM     30  C   UNL A   1      43.751  23.003  34.982  1.00  0.00    -0.051 A 
ATOM     31  C   UNL A   1      42.636  23.903  34.536  1.00  0.00     0.044 C 
ENDBRANCH  13  25
BRANCH   5  32
ATOM     32  C   UNL A   1      48.656  19.048  39.507  1.00  0.00     0.117 C 
BRANCH  32  33
ATOM     33  C   UNL A   1      47.389  18.512  40.167  1.00  0.00    -0.041 A 
ATOM     34  C   UNL A   1      46.894  19.096  41.339  1.00  0.00     0.004 A 
ATOM     35  C   UNL A   1      46.659  17.448  39.606  1.00  0.00     0.004 A 
ATOM     36  C   UNL A   1      45.666  18.692  41.873  1.00  0.00     0.000 A 
ATOM     37  C   UNL A   1      45.416  17.071  40.115  1.00  0.00     0.000 A 
ATOM     38  C   UNL A   1      44.912  17.703  41.243  1.00  0.00     0.000 A 
ENDBRANCH  32  33
ENDBRANCH   5  32
ENDBRANCH   3   5
ENDBRANCH   2   3
ENDBRANCH   1   2
BRANCH   1  39
ATOM     39  C   UNL A   1      47.046  24.769  39.013  1.00  0.00     0.275 C 
BRANCH  39  40
ATOM     40  O   UNL A   1      47.626  25.892  38.303  1.00  0.00    -0.458 OA
BRANCH  40  41
ATOM     41  C   UNL A   1      47.408  25.823  36.973  1.00  0.00     0.338 C 
ATOM     42  O   UNL A   1      47.921  24.997  36.233  1.00  0.00    -0.246 OA
BRANCH  41  43
ATOM     43  C   UNL A   1      46.404  26.751  36.427  1.00  0.00     0.060 A 
ATOM     44  C   UNL A   1      45.066  26.374  36.497  1.00  0.00     0.016 A 
ATOM     45  C   UNL A   1      46.785  27.732  35.514  1.00  0.00     0.016 A 
ATOM     46  C   UNL A   1      44.153  26.828  35.559  1.00  0.00     0.010 A 
ATOM     47  C   UNL A   1      45.815  28.336  34.696  1.00  0.00     0.010 A 
ATOM     48  C   UNL A   1      44.489  27.869  34.690  1.00  0.00    -0.014 A 
BRANCH  48  49
ATOM     49  C   UNL A   1      43.410  28.488  33.869  1.00  0.00     0.031 A 
ATOM     50  C   UNL A   1      42.414  29.456  34.443  1.00  0.00     0.074 A 
ATOM     51  C   UNL A   1      43.351  28.177  32.560  1.00  0.00     0.049 A 
ATOM     52  N   UNL A   1      41.379  30.038  33.887  1.00  0.00    -0.248 NA
ATOM     53  C   UNL A   1      42.613  29.825  35.841  1.00  0.00     0.031 C 
ATOM     54  C   UNL A   1      44.275  27.284  31.856  1.00  0.00     0.029 A 
ATOM     55  N   UNL A   1      42.479  28.582  31.584  1.00  0.00    -0.354 N 
ATOM     56  C   UNL A   1      40.803  30.826  34.880  1.00  0.00     0.074 A 
ATOM     57  C   UNL A   1      41.597  30.644  36.071  1.00  0.00     0.031 C 
ATOM     58  C   UNL A   1      43.947  27.238  30.560  1.00  0.00     0.029 A 
ATOM     59  C   UNL A   1      42.722  27.998  30.368  1.00  0.00     0.049 A 
ATOM     60  H   UNL A   1      41.751  29.227  31.740  1.00  0.00     0.167 HD
ATOM     61  C   UNL A   1      39.702  31.615  34.810  1.00  0.00     0.037 A 
ATOM     62  C   UNL A   1      42.005  28.015  29.234  1.00  0.00     0.037 A 
ATOM     63  C   UNL A   1      38.895  31.750  33.624  1.00  0.00     0.049 A 
ATOM     64  C   UNL A   1      40.731  28.800  29.205  1.00  0.00     0.074 A 
ATOM     65  C   UNL A   1      37.748  32.499  33.433  1.00  0.00     0.029 A 
ATOM     66  N   UNL A   1      39.147  31.091  32.429  1.00  0.00    -0.354 N 
ATOM     67  N   UNL A   1      40.193  29.542  30.142  1.00  0.00    -0.248 NA
ATOM     68  C   UNL A   1      39.960  28.743  27.960  1.00  0.00     0.031 C 
ATOM     69  C   UNL A   1      37.262  32.230  32.148  1.00  0.00     0.029 A 
ATOM     70  C   UNL A   1      38.150  31.377  31.511  1.00  0.00     0.049 A 
ATOM     71  H   UNL A   1      39.922  30.507  32.258  1.00  0.00     0.167 HD
ATOM     72  C   UNL A   1      39.027  30.056  29.596  1.00  0.00     0.074 A 
ATOM     73  C   UNL A   1      38.955  29.561  28.235  1.00  0.00     0.031 C 
ATOM     74  C   UNL A   1      38.095  30.860  30.167  1.00  0.00     0.037 A 
BRANCH  61  75
ATOM     75  C   UNL A   1      39.259  32.327  36.061  1.00  0.00     0.064 A 
ATOM     76  C   UNL A   1      39.741  33.598  36.413  1.00  0.00     0.173 A 
ATOM     77  C   UNL A   1      38.308  31.736  36.911  1.00  0.00     0.173 A 
ATOM     78  F   UNL A   1      40.663  34.205  35.651  1.00  0.00    -0.203 F 
ATOM     79  C   UNL A   1      39.307  34.236  37.575  1.00  0.00     0.198 A 
ATOM     80  C   UNL A   1      37.855  32.389  38.055  1.00  0.00     0.198 A 
ATOM     81  F   UNL A   1      37.811  30.523  36.628  1.00  0.00    -0.203 F 
ATOM     82  F   UNL A   1      39.818  35.429  37.914  1.00  0.00    -0.200 F 
ATOM     83  C   UNL A   1      38.360  33.635  38.391  1.00  0.00     0.200 A 
ATOM     84  F   UNL A   1      36.932  31.810  38.835  1.00  0.00    -0.200 F 
ATOM     85  F   UNL A   1      37.942  34.252  39.504  1.00  0.00    -0.200 F 
ENDBRANCH  61  75
BRANCH  62  86
ATOM     86  C   UNL A   1      42.470  27.221  28.069  1.00  0.00     0.064 A 
ATOM     87  C   UNL A   1      42.013  25.915  27.861  1.00  0.00     0.173 A 
ATOM     88  C   UNL A   1      43.340  27.771  27.112  1.00  0.00     0.173 A 
ATOM     89  F   UNL A   1      41.191  25.343  28.754  1.00  0.00    -0.203 F 
ATOM     90  C   UNL A   1      42.415  25.184  26.746  1.00  0.00     0.198 A 
ATOM     91  C   UNL A   1      43.711  27.053  25.979  1.00  0.00     0.198 A 
ATOM     92  F   UNL A   1      43.797  29.023  27.259  1.00  0.00    -0.203 F 
ATOM     93  F   UNL A   1      41.995  23.921  26.590  1.00  0.00    -0.200 F 
ATOM     94  C   UNL A   1      43.254  25.757  25.801  1.00  0.00     0.200 A 
ATOM     95  F   UNL A   1      44.497  27.621  25.057  1.00  0.00    -0.200 F 
ATOM     96  F   UNL A   1      43.625  25.057  24.720  1.00  0.00    -0.200 F 
ENDBRANCH  62  86
BRANCH  74  97
ATOM     97  C   UNL A   1      36.939  31.267  29.302  1.00  0.00     0.064 A 
ATOM     98  C   UNL A   1      36.822  32.570  28.795  1.00  0.00     0.173 A 
ATOM     99  C   UNL A   1      35.936  30.342  28.981  1.00  0.00     0.173 A 
ATOM    100  F   UNL A   1      37.749  33.495  29.088  1.00  0.00    -0.203 F 
ATOM    101  C   UNL A   1      35.714  32.945  28.041  1.00  0.00     0.198 A 
ATOM    102  C   UNL A   1      34.850  30.710  28.191  1.00  0.00     0.198 A 
ATOM    103  F   UNL A   1      36.005  29.081  29.432  1.00  0.00    -0.203 F 
ATOM    104  F   UNL A   1      35.584  34.214  27.633  1.00  0.00    -0.200 F 
ATOM    105  C   UNL A   1      34.734  32.014  27.735  1.00  0.00     0.200 A 
ATOM    106  F   UNL A   1      33.912  29.804  27.883  1.00  0.00    -0.200 F 
ATOM    107  F   UNL A   1      33.666  32.378  27.012  1.00  0.00    -0.200 F 
ENDBRANCH  74  97
ENDBRANCH  48  49
ENDBRANCH  41  43
ENDBRANCH  40  41
ENDBRANCH  39  40
ENDBRANCH   1  39
TORSDOF 16
ENDMDL
