MODEL 1
REMARK VINA RESULT:     -10.8      0.000      0.000
REMARK SMILES O=C(OCCOC(=O)[C@@H]1CCc2[nH]ncc2C1)c1ccc(-c2c3nc(c(-c4c(F)c(F)c(F)c(F)c4F)c4ccc([nH]4)c(-c4c(F)c(F)c(F)c(F)c4F)c4nc(c(-c5c(F)c(F)c(F)c(F)c5F)c5ccc2[nH]5)C=C4)C=C3)cc1
REMARK SMILES IDX 4 1 3 2 2 3 1 4 18 5 19 6 80 7 20 8 79 9 21 10 22 11 23 12
REMARK SMILES IDX 73 13 24 14 78 15 72 16 74 17 25 18 77 19 71 20 70 21 26 23
REMARK SMILES IDX 58 24 38 25 57 26 39 27 42 28 56 29 75 30 40 31 41 32 55 34
REMARK SMILES IDX 76 35 43 36 27 37 28 38 36 39 29 40 30 41 34 42 37 43 31 44
REMARK SMILES IDX 32 45 35 46 33 47 59 48 60 49 68 50 61 51 62 52 66 53 69 54
REMARK SMILES IDX 63 55 64 56 67 57 65 58 44 59 45 60 53 61 46 62 47 63 51 64
REMARK SMILES IDX 54 65 48 66 49 67 52 68 50 69 5 70 6 71 7 72 8 73 9 74 10 75
REMARK SMILES IDX 17 76 11 77 16 78 12 79 15 80 13 81 14 82
REMARK H PARENT 74 22 42 33 13 83
REMARK Flexibility Score: inf
ROOT
ATOM      1  C   UNL A   1      44.714  22.728  24.152  1.00  0.00     0.275 C 
ENDROOT
BRANCH   1   2
ATOM      2  O   UNL A   1      43.299  22.938  24.266  1.00  0.00    -0.458 OA
BRANCH   2   3
ATOM      3  C   UNL A   1      42.526  22.982  25.375  1.00  0.00     0.338 C 
ATOM      4  O   UNL A   1      41.765  22.044  25.609  1.00  0.00    -0.246 OA
BRANCH   3   5
ATOM      5  C   UNL A   1      42.420  24.193  26.247  1.00  0.00     0.060 A 
ATOM      6  C   UNL A   1      42.932  25.463  25.971  1.00  0.00     0.016 A 
ATOM      7  C   UNL A   1      41.730  24.012  27.457  1.00  0.00     0.016 A 
ATOM      8  C   UNL A   1      42.662  26.552  26.814  1.00  0.00     0.010 A 
ATOM      9  C   UNL A   1      41.438  25.094  28.287  1.00  0.00     0.010 A 
ATOM     10  C   UNL A   1      41.893  26.380  27.963  1.00  0.00    -0.014 A 
BRANCH  10  11
ATOM     11  C   UNL A   1      41.646  27.487  28.916  1.00  0.00     0.031 A 
ATOM     12  C   UNL A   1      42.385  27.471  30.221  1.00  0.00     0.074 A 
ATOM     13  C   UNL A   1      40.735  28.447  28.661  1.00  0.00     0.049 A 
ATOM     14  N   UNL A   1      42.255  28.265  31.250  1.00  0.00    -0.248 NA
ATOM     15  C   UNL A   1      43.428  26.442  30.376  1.00  0.00     0.031 C 
ATOM     16  C   UNL A   1      40.023  28.644  27.402  1.00  0.00     0.029 A 
ATOM     17  N   UNL A   1      40.196  29.402  29.489  1.00  0.00    -0.354 N 
ATOM     18  C   UNL A   1      43.236  27.867  32.145  1.00  0.00     0.074 A 
ATOM     19  C   UNL A   1      43.880  26.697  31.594  1.00  0.00     0.031 C 
ATOM     20  C   UNL A   1      39.039  29.543  27.582  1.00  0.00     0.029 A 
ATOM     21  C   UNL A   1      39.076  30.005  28.962  1.00  0.00     0.049 A 
ATOM     22  H   UNL A   1      40.573  29.634  30.369  1.00  0.00     0.167 HD
ATOM     23  C   UNL A   1      43.610  28.475  33.292  1.00  0.00     0.037 A 
ATOM     24  C   UNL A   1      38.169  30.810  29.547  1.00  0.00     0.037 A 
ATOM     25  C   UNL A   1      42.958  29.635  33.827  1.00  0.00     0.049 A 
ATOM     26  C   UNL A   1      38.464  31.326  30.929  1.00  0.00     0.074 A 
ATOM     27  C   UNL A   1      43.304  30.392  34.930  1.00  0.00     0.029 A 
ATOM     28  N   UNL A   1      41.801  30.191  33.301  1.00  0.00    -0.354 N 
ATOM     29  N   UNL A   1      39.479  31.046  31.709  1.00  0.00    -0.248 NA
ATOM     30  C   UNL A   1      37.534  32.317  31.486  1.00  0.00     0.031 C 
ATOM     31  C   UNL A   1      42.319  31.369  35.108  1.00  0.00     0.029 A 
ATOM     32  C   UNL A   1      41.387  31.250  34.089  1.00  0.00     0.049 A 
ATOM     33  H   UNL A   1      41.344  29.878  32.487  1.00  0.00     0.167 HD
ATOM     34  C   UNL A   1      39.360  31.888  32.804  1.00  0.00     0.074 A 
ATOM     35  C   UNL A   1      38.155  32.665  32.604  1.00  0.00     0.031 C 
ATOM     36  C   UNL A   1      40.194  32.026  33.863  1.00  0.00     0.037 A 
BRANCH  23  37
ATOM     37  C   UNL A   1      44.793  27.909  34.013  1.00  0.00     0.064 A 
ATOM     38  C   UNL A   1      46.095  28.353  33.728  1.00  0.00     0.173 A 
ATOM     39  C   UNL A   1      44.631  26.932  35.002  1.00  0.00     0.173 A 
ATOM     40  F   UNL A   1      46.303  29.275  32.776  1.00  0.00    -0.203 F 
ATOM     41  C   UNL A   1      47.194  27.817  34.392  1.00  0.00     0.198 A 
ATOM     42  C   UNL A   1      45.730  26.416  35.682  1.00  0.00     0.198 A 
ATOM     43  F   UNL A   1      43.407  26.475  35.307  1.00  0.00    -0.203 F 
ATOM     44  F   UNL A   1      48.431  28.221  34.073  1.00  0.00    -0.200 F 
ATOM     45  C   UNL A   1      47.010  26.853  35.373  1.00  0.00     0.200 A 
ATOM     46  F   UNL A   1      45.553  25.490  36.634  1.00  0.00    -0.200 F 
ATOM     47  F   UNL A   1      48.069  26.341  36.015  1.00  0.00    -0.200 F 
ENDBRANCH  23  37
BRANCH  24  48
ATOM     48  C   UNL A   1      36.910  31.185  28.851  1.00  0.00     0.064 A 
ATOM     49  C   UNL A   1      36.654  32.504  28.458  1.00  0.00     0.173 A 
ATOM     50  C   UNL A   1      35.894  30.236  28.653  1.00  0.00     0.173 A 
ATOM     51  F   UNL A   1      37.587  33.449  28.643  1.00  0.00    -0.203 F 
ATOM     52  C   UNL A   1      35.413  32.874  27.938  1.00  0.00     0.198 A 
ATOM     53  C   UNL A   1      34.660  30.604  28.116  1.00  0.00     0.198 A 
ATOM     54  F   UNL A   1      36.090  28.956  29.004  1.00  0.00    -0.203 F 
ATOM     55  F   UNL A   1      35.173  34.156  27.634  1.00  0.00    -0.200 F 
ATOM     56  C   UNL A   1      34.415  31.925  27.773  1.00  0.00     0.200 A 
ATOM     57  F   UNL A   1      33.701  29.682  27.953  1.00  0.00    -0.200 F 
ATOM     58  F   UNL A   1      33.215  32.286  27.300  1.00  0.00    -0.200 F 
ENDBRANCH  24  48
BRANCH  36  59
ATOM     59  C   UNL A   1      39.871  33.098  34.859  1.00  0.00     0.064 A 
ATOM     60  C   UNL A   1      39.175  32.817  36.041  1.00  0.00     0.173 A 
ATOM     61  C   UNL A   1      40.323  34.410  34.651  1.00  0.00     0.173 A 
ATOM     62  F   UNL A   1      38.703  31.583  36.271  1.00  0.00    -0.203 F 
ATOM     63  C   UNL A   1      38.930  33.818  36.976  1.00  0.00     0.198 A 
ATOM     64  C   UNL A   1      40.108  35.399  35.604  1.00  0.00     0.198 A 
ATOM     65  F   UNL A   1      40.994  34.726  33.533  1.00  0.00    -0.203 F 
ATOM     66  F   UNL A   1      38.225  33.540  38.081  1.00  0.00    -0.200 F 
ATOM     67  C   UNL A   1      39.408  35.103  36.764  1.00  0.00     0.200 A 
ATOM     68  F   UNL A   1      40.584  36.634  35.404  1.00  0.00    -0.200 F 
ATOM     69  F   UNL A   1      39.189  36.059  37.676  1.00  0.00    -0.200 F 
ENDBRANCH  36  59
ENDBRANCH  10  11
ENDBRANCH   3   5
ENDBRANCH   2   3
ENDBRANCH   1   2
BRANCH   1  70
ATOM     70  C   UNL A   1      45.368  22.006  25.331  1.00  0.00     0.274 C 
BRANCH  70  71
ATOM     71  O   UNL A   1      46.405  22.744  25.998  1.00  0.00    -0.462 OA
BRANCH  71  72
ATOM     72  C   UNL A   1      45.995  23.538  27.027  1.00  0.00     0.309 C 
ATOM     73  O   UNL A   1      45.226  23.176  27.912  1.00  0.00    -0.252 OA
BRANCH  72  74
ATOM     74  C   UNL A   1      46.576  24.942  26.979  1.00  0.00     0.104 C 
ATOM     75  C   UNL A   1      45.972  25.898  28.035  1.00  0.00     0.022 C 
ATOM     76  C   UNL A   1      46.509  25.482  25.527  1.00  0.00     0.054 C 
ATOM     77  C   UNL A   1      46.632  27.289  27.991  1.00  0.00     0.057 C 
ATOM     78  C   UNL A   1      46.519  26.971  25.477  1.00  0.00    -0.006 A 
ATOM     79  C   UNL A   1      46.569  27.766  26.598  1.00  0.00     0.038 A 
ATOM     80  C   UNL A   1      46.425  27.887  24.414  1.00  0.00     0.138 A 
ATOM     81  N   UNL A   1      46.502  29.058  26.177  1.00  0.00    -0.282 N 
ATOM     82  N   UNL A   1      46.406  29.157  24.837  1.00  0.00    -0.184 NA
ATOM     83  H   UNL A   1      46.520  29.833  26.784  1.00  0.00     0.190 HD
ENDBRANCH  72  74
ENDBRANCH  71  72
ENDBRANCH  70  71
ENDBRANCH   1  70
TORSDOF 11
ENDMDL
MODEL 2
REMARK VINA RESULT:     -10.8      4.964      8.086
REMARK SMILES O=C(OCCOC(=O)[C@@H]1CCc2[nH]ncc2C1)c1ccc(-c2c3nc(c(-c4c(F)c(F)c(F)c(F)c4F)c4ccc([nH]4)c(-c4c(F)c(F)c(F)c(F)c4F)c4nc(c(-c5c(F)c(F)c(F)c(F)c5F)c5ccc2[nH]5)C=C4)C=C3)cc1
REMARK SMILES IDX 4 1 3 2 2 3 1 4 18 5 19 6 80 7 20 8 79 9 21 10 22 11 23 12
REMARK SMILES IDX 73 13 24 14 78 15 72 16 74 17 25 18 77 19 71 20 70 21 26 23
REMARK SMILES IDX 58 24 38 25 57 26 39 27 42 28 56 29 75 30 40 31 41 32 55 34
REMARK SMILES IDX 76 35 43 36 27 37 28 38 36 39 29 40 30 41 34 42 37 43 31 44
REMARK SMILES IDX 32 45 35 46 33 47 59 48 60 49 68 50 61 51 62 52 66 53 69 54
REMARK SMILES IDX 63 55 64 56 67 57 65 58 44 59 45 60 53 61 46 62 47 63 51 64
REMARK SMILES IDX 54 65 48 66 49 67 52 68 50 69 5 70 6 71 7 72 8 73 9 74 10 75
REMARK SMILES IDX 17 76 11 77 16 78 12 79 15 80 13 81 14 82
REMARK H PARENT 74 22 42 33 13 83
REMARK Flexibility Score: inf
ROOT
ATOM      1  C   UNL A   1      42.972  18.184  26.262  1.00  0.00     0.275 C 
ENDROOT
BRANCH   1   2
ATOM      2  O   UNL A   1      43.447  18.633  24.984  1.00  0.00    -0.458 OA
BRANCH   2   3
ATOM      3  C   UNL A   1      44.589  19.289  24.677  1.00  0.00     0.338 C 
ATOM      4  O   UNL A   1      45.593  18.637  24.393  1.00  0.00    -0.246 OA
BRANCH   3   5
ATOM      5  C   UNL A   1      44.746  20.769  24.831  1.00  0.00     0.060 A 
ATOM      6  C   UNL A   1      44.614  21.729  23.824  1.00  0.00     0.016 A 
ATOM      7  C   UNL A   1      45.054  21.216  26.126  1.00  0.00     0.016 A 
ATOM      8  C   UNL A   1      44.665  23.099  24.118  1.00  0.00     0.010 A 
ATOM      9  C   UNL A   1      45.082  22.576  26.430  1.00  0.00     0.010 A 
ATOM     10  C   UNL A   1      44.874  23.532  25.426  1.00  0.00    -0.014 A 
BRANCH  10  11
ATOM     11  C   UNL A   1      45.006  24.968  25.766  1.00  0.00     0.031 A 
ATOM     12  C   UNL A   1      46.387  25.539  25.885  1.00  0.00     0.074 A 
ATOM     13  C   UNL A   1      43.929  25.731  26.034  1.00  0.00     0.049 A 
ATOM     14  N   UNL A   1      46.755  26.730  26.275  1.00  0.00    -0.248 NA
ATOM     15  C   UNL A   1      47.501  24.662  25.483  1.00  0.00     0.031 C 
ATOM     16  C   UNL A   1      42.533  25.340  25.860  1.00  0.00     0.029 A 
ATOM     17  N   UNL A   1      43.845  26.987  26.586  1.00  0.00    -0.354 N 
ATOM     18  C   UNL A   1      48.131  26.761  26.110  1.00  0.00     0.074 A 
ATOM     19  C   UNL A   1      48.549  25.443  25.692  1.00  0.00     0.031 C 
ATOM     20  C   UNL A   1      41.737  26.259  26.435  1.00  0.00     0.029 A 
ATOM     21  C   UNL A   1      42.570  27.317  26.989  1.00  0.00     0.049 A 
ATOM     22  H   UNL A   1      44.617  27.591  26.682  1.00  0.00     0.167 HD
ATOM     23  C   UNL A   1      48.959  27.822  26.229  1.00  0.00     0.037 A 
ATOM     24  C   UNL A   1      42.139  28.341  27.748  1.00  0.00     0.037 A 
ATOM     25  C   UNL A   1      48.528  29.125  26.647  1.00  0.00     0.049 A 
ATOM     26  C   UNL A   1      43.115  29.436  28.084  1.00  0.00     0.074 A 
ATOM     27  C   UNL A   1      49.255  30.297  26.716  1.00  0.00     0.029 A 
ATOM     28  N   UNL A   1      47.247  29.415  27.094  1.00  0.00    -0.354 N 
ATOM     29  N   UNL A   1      44.390  29.515  27.793  1.00  0.00    -0.248 NA
ATOM     30  C   UNL A   1      42.586  30.612  28.788  1.00  0.00     0.031 C 
ATOM     31  C   UNL A   1      48.430  31.284  27.266  1.00  0.00     0.029 A 
ATOM     32  C   UNL A   1      47.176  30.737  27.495  1.00  0.00     0.049 A 
ATOM     33  H   UNL A   1      46.500  28.775  27.123  1.00  0.00     0.167 HD
ATOM     34  C   UNL A   1      44.794  30.779  28.195  1.00  0.00     0.074 A 
ATOM     35  C   UNL A   1      43.637  31.420  28.781  1.00  0.00     0.031 C 
ATOM     36  C   UNL A   1      46.009  31.365  28.058  1.00  0.00     0.037 A 
BRANCH  23  37
ATOM     37  C   UNL A   1      50.396  27.613  25.867  1.00  0.00     0.064 A 
ATOM     38  C   UNL A   1      51.365  27.377  26.857  1.00  0.00     0.173 A 
ATOM     39  C   UNL A   1      50.809  27.631  24.530  1.00  0.00     0.173 A 
ATOM     40  F   UNL A   1      51.020  27.367  28.153  1.00  0.00    -0.203 F 
ATOM     41  C   UNL A   1      52.702  27.193  26.517  1.00  0.00     0.198 A 
ATOM     42  C   UNL A   1      52.143  27.422  24.193  1.00  0.00     0.198 A 
ATOM     43  F   UNL A   1      49.920  27.855  23.550  1.00  0.00    -0.203 F 
ATOM     44  F   UNL A   1      53.618  27.016  27.480  1.00  0.00    -0.200 F 
ATOM     45  C   UNL A   1      53.089  27.210  25.186  1.00  0.00     0.200 A 
ATOM     46  F   UNL A   1      52.516  27.431  22.906  1.00  0.00    -0.200 F 
ATOM     47  F   UNL A   1      54.376  27.028  24.860  1.00  0.00    -0.200 F 
ENDBRANCH  23  37
BRANCH  24  48
ATOM     48  C   UNL A   1      40.739  28.396  28.245  1.00  0.00     0.064 A 
ATOM     49  C   UNL A   1      39.707  28.938  27.469  1.00  0.00     0.173 A 
ATOM     50  C   UNL A   1      40.428  27.991  29.553  1.00  0.00     0.173 A 
ATOM     51  F   UNL A   1      39.959  29.356  26.220  1.00  0.00    -0.203 F 
ATOM     52  C   UNL A   1      38.428  29.119  27.996  1.00  0.00     0.198 A 
ATOM     53  C   UNL A   1      39.144  28.155  30.072  1.00  0.00     0.198 A 
ATOM     54  F   UNL A   1      41.378  27.457  30.336  1.00  0.00    -0.203 F 
ATOM     55  F   UNL A   1      37.477  29.703  27.254  1.00  0.00    -0.200 F 
ATOM     56  C   UNL A   1      38.148  28.732  29.298  1.00  0.00     0.200 A 
ATOM     57  F   UNL A   1      38.877  27.775  31.329  1.00  0.00    -0.200 F 
ATOM     58  F   UNL A   1      36.927  28.932  29.812  1.00  0.00    -0.200 F 
ENDBRANCH  24  48
BRANCH  36  59
ATOM     59  C   UNL A   1      46.136  32.793  28.492  1.00  0.00     0.064 A 
ATOM     60  C   UNL A   1      46.582  33.135  29.776  1.00  0.00     0.173 A 
ATOM     61  C   UNL A   1      45.867  33.831  27.586  1.00  0.00     0.173 A 
ATOM     62  F   UNL A   1      46.827  32.178  30.682  1.00  0.00    -0.203 F 
ATOM     63  C   UNL A   1      46.742  34.468  30.141  1.00  0.00     0.198 A 
ATOM     64  C   UNL A   1      46.063  35.160  27.943  1.00  0.00     0.198 A 
ATOM     65  F   UNL A   1      45.438  33.552  26.346  1.00  0.00    -0.203 F 
ATOM     66  F   UNL A   1      47.129  34.776  31.386  1.00  0.00    -0.200 F 
ATOM     67  C   UNL A   1      46.497  35.477  29.221  1.00  0.00     0.200 A 
ATOM     68  F   UNL A   1      45.840  36.132  27.049  1.00  0.00    -0.200 F 
ATOM     69  F   UNL A   1      46.672  36.759  29.570  1.00  0.00    -0.200 F 
ENDBRANCH  36  59
ENDBRANCH  10  11
ENDBRANCH   3   5
ENDBRANCH   2   3
ENDBRANCH   1   2
BRANCH   1  70
ATOM     70  C   UNL A   1      42.175  19.212  27.065  1.00  0.00     0.274 C 
BRANCH  70  71
ATOM     71  O   UNL A   1      41.543  20.239  26.282  1.00  0.00    -0.462 OA
BRANCH  71  72
ATOM     72  C   UNL A   1      41.316  21.417  26.929  1.00  0.00     0.309 C 
ATOM     73  O   UNL A   1      41.936  21.789  27.920  1.00  0.00    -0.252 OA
BRANCH  72  74
ATOM     74  C   UNL A   1      40.200  22.243  26.310  1.00  0.00     0.104 C 
ATOM     75  C   UNL A   1      39.659  23.352  27.245  1.00  0.00     0.022 C 
ATOM     76  C   UNL A   1      39.104  21.299  25.751  1.00  0.00     0.054 C 
ATOM     77  C   UNL A   1      38.576  24.202  26.556  1.00  0.00     0.057 C 
ATOM     78  C   UNL A   1      37.778  21.972  25.648  1.00  0.00    -0.006 A 
ATOM     79  C   UNL A   1      37.560  23.277  26.021  1.00  0.00     0.038 A 
ATOM     80  C   UNL A   1      36.508  21.514  25.255  1.00  0.00     0.138 A 
ATOM     81  N   UNL A   1      36.234  23.529  25.847  1.00  0.00    -0.282 N 
ATOM     82  N   UNL A   1      35.565  22.456  25.382  1.00  0.00    -0.184 NA
ATOM     83  H   UNL A   1      35.812  24.397  26.039  1.00  0.00     0.190 HD
ENDBRANCH  72  74
ENDBRANCH  71  72
ENDBRANCH  70  71
ENDBRANCH   1  70
TORSDOF 11
ENDMDL
MODEL 3
REMARK VINA RESULT:     -10.7      4.883     10.446
REMARK SMILES O=C(OCCOC(=O)[C@@H]1CCc2[nH]ncc2C1)c1ccc(-c2c3nc(c(-c4c(F)c(F)c(F)c(F)c4F)c4ccc([nH]4)c(-c4c(F)c(F)c(F)c(F)c4F)c4nc(c(-c5c(F)c(F)c(F)c(F)c5F)c5ccc2[nH]5)C=C4)C=C3)cc1
REMARK SMILES IDX 4 1 3 2 2 3 1 4 18 5 19 6 80 7 20 8 79 9 21 10 22 11 23 12
REMARK SMILES IDX 73 13 24 14 78 15 72 16 74 17 25 18 77 19 71 20 70 21 26 23
REMARK SMILES IDX 58 24 38 25 57 26 39 27 42 28 56 29 75 30 40 31 41 32 55 34
REMARK SMILES IDX 76 35 43 36 27 37 28 38 36 39 29 40 30 41 34 42 37 43 31 44
REMARK SMILES IDX 32 45 35 46 33 47 59 48 60 49 68 50 61 51 62 52 66 53 69 54
REMARK SMILES IDX 63 55 64 56 67 57 65 58 44 59 45 60 53 61 46 62 47 63 51 64
REMARK SMILES IDX 54 65 48 66 49 67 52 68 50 69 5 70 6 71 7 72 8 73 9 74 10 75
REMARK SMILES IDX 17 76 11 77 16 78 12 79 15 80 13 81 14 82
REMARK H PARENT 74 22 42 33 13 83
REMARK Flexibility Score: inf
ROOT
ATOM      1  C   UNL A   1      32.964  36.288  29.542  1.00  0.00     0.275 C 
ENDROOT
BRANCH   1   2
ATOM      2  O   UNL A   1      32.288  36.014  30.777  1.00  0.00    -0.458 OA
BRANCH   2   3
ATOM      3  C   UNL A   1      32.769  36.040  32.042  1.00  0.00     0.338 C 
ATOM      4  O   UNL A   1      32.426  36.954  32.791  1.00  0.00    -0.246 OA
BRANCH   3   5
ATOM      5  C   UNL A   1      33.835  35.110  32.527  1.00  0.00     0.060 A 
ATOM      6  C   UNL A   1      33.643  33.930  33.251  1.00  0.00     0.016 A 
ATOM      7  C   UNL A   1      35.153  35.478  32.211  1.00  0.00     0.016 A 
ATOM      8  C   UNL A   1      34.717  33.077  33.545  1.00  0.00     0.010 A 
ATOM      9  C   UNL A   1      36.222  34.624  32.479  1.00  0.00     0.010 A 
ATOM     10  C   UNL A   1      36.010  33.407  33.140  1.00  0.00    -0.014 A 
BRANCH  10  11
ATOM     11  C   UNL A   1      37.180  32.570  33.494  1.00  0.00     0.031 A 
ATOM     12  C   UNL A   1      38.049  33.020  34.629  1.00  0.00     0.074 A 
ATOM     13  C   UNL A   1      37.506  31.475  32.779  1.00  0.00     0.049 A 
ATOM     14  N   UNL A   1      39.179  32.517  35.050  1.00  0.00    -0.248 NA
ATOM     15  C   UNL A   1      37.568  34.170  35.413  1.00  0.00     0.031 C 
ATOM     16  C   UNL A   1      36.702  30.867  31.722  1.00  0.00     0.029 A 
ATOM     17  N   UNL A   1      38.652  30.716  32.790  1.00  0.00    -0.354 N 
ATOM     18  C   UNL A   1      39.510  33.253  36.177  1.00  0.00     0.074 A 
ATOM     19  C   UNL A   1      38.528  34.303  36.316  1.00  0.00     0.031 C 
ATOM     20  C   UNL A   1      37.435  29.937  31.084  1.00  0.00     0.029 A 
ATOM     21  C   UNL A   1      38.747  29.865  31.711  1.00  0.00     0.049 A 
ATOM     22  H   UNL A   1      39.334  30.773  33.497  1.00  0.00     0.167 HD
ATOM     23  C   UNL A   1      40.508  33.021  37.058  1.00  0.00     0.037 A 
ATOM     24  C   UNL A   1      39.792  29.141  31.269  1.00  0.00     0.037 A 
ATOM     25  C   UNL A   1      41.476  31.974  36.906  1.00  0.00     0.049 A 
ATOM     26  C   UNL A   1      41.013  29.049  32.142  1.00  0.00     0.074 A 
ATOM     27  C   UNL A   1      42.474  31.584  37.777  1.00  0.00     0.029 A 
ATOM     28  N   UNL A   1      41.577  31.164  35.784  1.00  0.00    -0.354 N 
ATOM     29  N   UNL A   1      41.250  29.645  33.285  1.00  0.00    -0.248 NA
ATOM     30  C   UNL A   1      42.080  28.138  31.708  1.00  0.00     0.031 C 
ATOM     31  C   UNL A   1      43.221  30.578  37.154  1.00  0.00     0.029 A 
ATOM     32  C   UNL A   1      42.658  30.310  35.915  1.00  0.00     0.049 A 
ATOM     33  H   UNL A   1      40.971  31.193  35.009  1.00  0.00     0.167 HD
ATOM     34  C   UNL A   1      42.445  29.116  33.749  1.00  0.00     0.074 A 
ATOM     35  C   UNL A   1      42.901  28.176  32.748  1.00  0.00     0.031 C 
ATOM     36  C   UNL A   1      43.086  29.365  34.917  1.00  0.00     0.037 A 
BRANCH  23  37
ATOM     37  C   UNL A   1      40.567  33.895  38.271  1.00  0.00     0.064 A 
ATOM     38  C   UNL A   1      39.810  33.597  39.417  1.00  0.00     0.173 A 
ATOM     39  C   UNL A   1      41.392  35.025  38.301  1.00  0.00     0.173 A 
ATOM     40  F   UNL A   1      38.992  32.534  39.430  1.00  0.00    -0.203 F 
ATOM     41  C   UNL A   1      39.860  34.418  40.540  1.00  0.00     0.198 A 
ATOM     42  C   UNL A   1      41.459  35.830  39.435  1.00  0.00     0.198 A 
ATOM     43  F   UNL A   1      42.132  35.351  37.231  1.00  0.00    -0.203 F 
ATOM     44  F   UNL A   1      39.096  34.141  41.605  1.00  0.00    -0.200 F 
ATOM     45  C   UNL A   1      40.689  35.530  40.550  1.00  0.00     0.200 A 
ATOM     46  F   UNL A   1      42.264  36.901  39.447  1.00  0.00    -0.200 F 
ATOM     47  F   UNL A   1      40.740  36.318  41.633  1.00  0.00    -0.200 F 
ENDBRANCH  23  37
BRANCH  24  48
ATOM     48  C   UNL A   1      39.747  28.447  29.954  1.00  0.00     0.064 A 
ATOM     49  C   UNL A   1      39.255  27.142  29.831  1.00  0.00     0.173 A 
ATOM     50  C   UNL A   1      40.289  29.052  28.809  1.00  0.00     0.173 A 
ATOM     51  F   UNL A   1      38.743  26.517  30.901  1.00  0.00    -0.203 F 
ATOM     52  C   UNL A   1      39.350  26.447  28.625  1.00  0.00     0.198 A 
ATOM     53  C   UNL A   1      40.366  28.362  27.598  1.00  0.00     0.198 A 
ATOM     54  F   UNL A   1      40.766  30.304  28.870  1.00  0.00    -0.203 F 
ATOM     55  F   UNL A   1      38.933  25.176  28.553  1.00  0.00    -0.200 F 
ATOM     56  C   UNL A   1      39.910  27.055  27.511  1.00  0.00     0.200 A 
ATOM     57  F   UNL A   1      40.903  28.955  26.524  1.00  0.00    -0.200 F 
ATOM     58  F   UNL A   1      40.026  26.377  26.362  1.00  0.00    -0.200 F 
ENDBRANCH  24  48
BRANCH  36  59
ATOM     59  C   UNL A   1      44.319  28.565  35.209  1.00  0.00     0.064 A 
ATOM     60  C   UNL A   1      45.596  29.035  34.878  1.00  0.00     0.173 A 
ATOM     61  C   UNL A   1      44.218  27.340  35.885  1.00  0.00     0.173 A 
ATOM     62  F   UNL A   1      45.739  30.189  34.210  1.00  0.00    -0.203 F 
ATOM     63  C   UNL A   1      46.731  28.298  35.205  1.00  0.00     0.198 A 
ATOM     64  C   UNL A   1      45.356  26.624  36.242  1.00  0.00     0.198 A 
ATOM     65  F   UNL A   1      43.015  26.849  36.222  1.00  0.00    -0.203 F 
ATOM     66  F   UNL A   1      47.942  28.744  34.843  1.00  0.00    -0.200 F 
ATOM     67  C   UNL A   1      46.611  27.103  35.898  1.00  0.00     0.200 A 
ATOM     68  F   UNL A   1      45.238  25.478  36.924  1.00  0.00    -0.200 F 
ATOM     69  F   UNL A   1      47.707  26.407  36.229  1.00  0.00    -0.200 F 
ENDBRANCH  36  59
ENDBRANCH  10  11
ENDBRANCH   3   5
ENDBRANCH   2   3
ENDBRANCH   1   2
BRANCH   1  70
ATOM     70  C   UNL A   1      33.266  35.066  28.673  1.00  0.00     0.274 C 
BRANCH  70  71
ATOM     71  O   UNL A   1      33.666  33.889  29.395  1.00  0.00    -0.462 OA
BRANCH  71  72
ATOM     72  C   UNL A   1      34.810  33.291  28.961  1.00  0.00     0.309 C 
ATOM     73  O   UNL A   1      35.891  33.863  28.862  1.00  0.00    -0.252 OA
BRANCH  72  74
ATOM     74  C   UNL A   1      34.629  31.828  28.593  1.00  0.00     0.104 C 
ATOM     75  C   UNL A   1      35.908  31.170  28.022  1.00  0.00     0.022 C 
ATOM     76  C   UNL A   1      33.380  31.672  27.685  1.00  0.00     0.054 C 
ATOM     77  C   UNL A   1      35.695  29.674  27.721  1.00  0.00     0.057 C 
ATOM     78  C   UNL A   1      33.441  30.442  26.848  1.00  0.00    -0.006 A 
ATOM     79  C   UNL A   1      34.494  29.558  26.875  1.00  0.00     0.038 A 
ATOM     80  C   UNL A   1      32.585  29.919  25.861  1.00  0.00     0.138 A 
ATOM     81  N   UNL A   1      34.237  28.597  25.946  1.00  0.00    -0.282 N 
ATOM     82  N   UNL A   1      33.070  28.802  25.306  1.00  0.00    -0.184 NA
ATOM     83  H   UNL A   1      34.836  27.838  25.764  1.00  0.00     0.190 HD
ENDBRANCH  72  74
ENDBRANCH  71  72
ENDBRANCH  70  71
ENDBRANCH   1  70
TORSDOF 11
ENDMDL
