MODEL 1
REMARK VINA RESULT:     -11.8      0.000      0.000
REMARK SMILES C[C@@H]1C(=O)NC(=O)CN1C(=O)NC1(CC(=O)OCCOC(=O)c2ccc(-c3c4nc(c(-c5c(F)c(F)c(F)c(F)c5F)c5ccc([nH]5)c(-c5c(F)c(F)c(F)c(F)c5F)c5nc(c(-c6c(F)c(F)c(F)c(F)c6F)c6ccc3[nH]6)C=C5)C=C4)cc2)CCC1
REMARK SMILES IDX 18 1 17 2 15 3 16 4 14 5 13 6 86 7 88 8 87 9 12 10 10 11
REMARK SMILES IDX 11 12 9 14 1 15 2 16 3 17 4 18 5 19 8 20 6 21 7 23 19 24
REMARK SMILES IDX 20 25 21 26 22 27 23 28 24 29 85 30 25 31 84 32 26 33 27 34
REMARK SMILES IDX 28 35 78 36 29 37 83 38 77 39 79 40 30 41 82 42 76 43 75 44
REMARK SMILES IDX 31 46 63 47 43 48 62 49 44 50 47 51 61 52 80 53 45 54 46 55
REMARK SMILES IDX 60 57 81 58 48 59 32 60 33 61 41 62 34 63 35 64 39 65 42 66
REMARK SMILES IDX 36 67 37 68 40 69 38 70 64 71 65 72 73 73 66 74 67 75 71 76
REMARK SMILES IDX 74 77 68 78 69 79 72 80 70 81 49 82 50 83 58 84 51 85 52 86
REMARK SMILES IDX 56 87 59 88 53 89 54 90 57 91 55 92
REMARK H PARENT 12 13 5 22 79 45 47 56
REMARK Flexibility Score: inf
ROOT
ATOM      1  C   UNL A   1      31.527  29.208  24.946  1.00  0.00     0.274 C 
ENDROOT
BRANCH   1   2
ATOM      2  O   UNL A   1      32.701  28.425  24.637  1.00  0.00    -0.462 OA
BRANCH   2   3
ATOM      3  C   UNL A   1      32.885  27.269  25.316  1.00  0.00     0.308 C 
ATOM      4  O   UNL A   1      33.362  27.202  26.444  1.00  0.00    -0.252 OA
BRANCH   3   5
ATOM      5  C   UNL A   1      32.526  26.026  24.531  1.00  0.00     0.151 C 
BRANCH   5   6
ATOM      6  C   UNL A   1      31.356  25.130  24.988  1.00  0.00     0.052 C 
ATOM      7  C   UNL A   1      30.584  24.497  23.789  1.00  0.00     0.029 C 
ATOM      8  C   UNL A   1      29.965  25.837  25.280  1.00  0.00     0.029 C 
ATOM      9  C   UNL A   1      29.665  25.728  23.780  1.00  0.00     0.005 C 
BRANCH   6  10
ATOM     10  N   UNL A   1      31.759  24.298  26.151  1.00  0.00    -0.332 N 
ATOM     11  C   UNL A   1      32.362  23.158  26.536  1.00  0.00     0.318 C 
ATOM     12  O   UNL A   1      32.365  22.985  27.762  1.00  0.00    -0.249 OA
ATOM     13  H   UNL A   1      31.470  24.769  26.966  1.00  0.00     0.165 HD
BRANCH  11  14
ATOM     14  N   UNL A   1      32.939  22.221  25.739  1.00  0.00    -0.304 N 
ATOM     15  C   UNL A   1      34.225  22.602  23.677  1.00  0.00     0.042 C 
ATOM     16  C   UNL A   1      34.276  22.201  25.155  1.00  0.00     0.174 C 
ATOM     17  C   UNL A   1      34.927  20.813  25.235  1.00  0.00     0.249 C 
ATOM     18  O   UNL A   1      36.141  20.652  25.108  1.00  0.00    -0.272 OA
ATOM     19  N   UNL A   1      34.088  19.730  25.245  1.00  0.00    -0.293 N 
ATOM     20  C   UNL A   1      32.057  21.128  25.284  1.00  0.00     0.222 C 
ATOM     21  C   UNL A   1      32.720  19.759  25.203  1.00  0.00     0.246 C 
ATOM     22  H   UNL A   1      34.510  18.842  25.286  1.00  0.00     0.173 HD
ATOM     23  O   UNL A   1      32.081  18.728  25.000  1.00  0.00    -0.273 OA
ENDBRANCH  11  14
ENDBRANCH   6  10
ENDBRANCH   5   6
ENDBRANCH   3   5
ENDBRANCH   2   3
ENDBRANCH   1   2
BRANCH   1  24
ATOM     24  C   UNL A   1      31.784  30.198  26.085  1.00  0.00     0.275 C 
BRANCH  24  25
ATOM     25  O   UNL A   1      33.178  30.533  26.190  1.00  0.00    -0.458 OA
BRANCH  25  26
ATOM     26  C   UNL A   1      33.439  31.559  27.034  1.00  0.00     0.338 C 
ATOM     27  O   UNL A   1      32.713  32.510  27.262  1.00  0.00    -0.246 OA
BRANCH  26  28
ATOM     28  C   UNL A   1      34.667  31.264  27.786  1.00  0.00     0.060 A 
ATOM     29  C   UNL A   1      34.817  29.990  28.340  1.00  0.00     0.016 A 
ATOM     30  C   UNL A   1      35.650  32.237  27.964  1.00  0.00     0.016 A 
ATOM     31  C   UNL A   1      35.965  29.670  29.059  1.00  0.00     0.010 A 
ATOM     32  C   UNL A   1      36.804  31.914  28.685  1.00  0.00     0.010 A 
ATOM     33  C   UNL A   1      36.971  30.628  29.230  1.00  0.00    -0.014 A 
BRANCH  33  34
ATOM     34  C   UNL A   1      38.204  30.282  29.973  1.00  0.00     0.031 A 
ATOM     35  C   UNL A   1      39.206  29.343  29.374  1.00  0.00     0.074 A 
ATOM     36  C   UNL A   1      38.412  30.811  31.193  1.00  0.00     0.049 A 
ATOM     37  N   UNL A   1      40.280  28.825  29.914  1.00  0.00    -0.248 NA
ATOM     38  C   UNL A   1      38.970  28.932  27.982  1.00  0.00     0.031 C 
ATOM     39  C   UNL A   1      37.529  31.770  31.858  1.00  0.00     0.029 A 
ATOM     40  N   UNL A   1      39.426  30.607  32.095  1.00  0.00    -0.354 N 
ATOM     41  C   UNL A   1      40.836  28.011  28.939  1.00  0.00     0.074 A 
ATOM     42  C   UNL A   1      39.978  28.095  27.775  1.00  0.00     0.031 C 
ATOM     43  C   UNL A   1      38.036  32.066  33.065  1.00  0.00     0.029 A 
ATOM     44  C   UNL A   1      39.247  31.279  33.279  1.00  0.00     0.049 A 
ATOM     45  H   UNL A   1      40.206  30.034  31.912  1.00  0.00     0.167 HD
ATOM     46  C   UNL A   1      41.962  27.263  29.013  1.00  0.00     0.037 A 
ATOM     47  C   UNL A   1      39.959  31.234  34.421  1.00  0.00     0.037 A 
ATOM     48  C   UNL A   1      42.819  27.196  30.169  1.00  0.00     0.049 A 
ATOM     49  C   UNL A   1      41.165  30.340  34.499  1.00  0.00     0.074 A 
ATOM     50  C   UNL A   1      43.999  26.489  30.330  1.00  0.00     0.029 A 
ATOM     51  N   UNL A   1      42.585  27.861  31.364  1.00  0.00    -0.354 N 
ATOM     52  N   UNL A   1      41.685  29.569  33.576  1.00  0.00    -0.248 NA
ATOM     53  C   UNL A   1      41.877  30.299  35.785  1.00  0.00     0.031 C 
ATOM     54  C   UNL A   1      44.455  26.691  31.637  1.00  0.00     0.029 A 
ATOM     55  C   UNL A   1      43.584  27.558  32.277  1.00  0.00     0.049 A 
ATOM     56  H   UNL A   1      41.824  28.459  31.538  1.00  0.00     0.167 HD
ATOM     57  C   UNL A   1      42.788  28.964  34.160  1.00  0.00     0.074 A 
ATOM     58  C   UNL A   1      42.875  29.469  35.514  1.00  0.00     0.031 C 
ATOM     59  C   UNL A   1      43.651  28.068  33.623  1.00  0.00     0.037 A 
BRANCH  46  60
ATOM     60  C   UNL A   1      42.320  26.428  27.820  1.00  0.00     0.064 A 
ATOM     61  C   UNL A   1      43.268  26.854  26.879  1.00  0.00     0.173 A 
ATOM     62  C   UNL A   1      41.735  25.165  27.642  1.00  0.00     0.173 A 
ATOM     63  F   UNL A   1      43.848  28.057  27.003  1.00  0.00    -0.203 F 
ATOM     64  C   UNL A   1      43.605  26.052  25.791  1.00  0.00     0.198 A 
ATOM     65  C   UNL A   1      42.092  24.356  26.566  1.00  0.00     0.198 A 
ATOM     66  F   UNL A   1      40.828  24.709  28.519  1.00  0.00    -0.203 F 
ATOM     67  F   UNL A   1      44.490  26.491  24.885  1.00  0.00    -0.200 F 
ATOM     68  C   UNL A   1      43.022  24.803  25.640  1.00  0.00     0.200 A 
ATOM     69  F   UNL A   1      41.538  23.143  26.428  1.00  0.00    -0.200 F 
ATOM     70  F   UNL A   1      43.354  24.028  24.597  1.00  0.00    -0.200 F 
ENDBRANCH  46  60
BRANCH  47  71
ATOM     71  C   UNL A   1      39.525  32.036  35.592  1.00  0.00     0.064 A 
ATOM     72  C   UNL A   1      40.052  33.313  35.828  1.00  0.00     0.173 A 
ATOM     73  C   UNL A   1      38.574  31.543  36.499  1.00  0.00     0.173 A 
ATOM     74  F   UNL A   1      40.983  33.814  35.005  1.00  0.00    -0.203 F 
ATOM     75  C   UNL A   1      39.651  34.062  36.933  1.00  0.00     0.198 A 
ATOM     76  C   UNL A   1      38.155  32.304  37.587  1.00  0.00     0.198 A 
ATOM     77  F   UNL A   1      38.043  30.325  36.319  1.00  0.00    -0.203 F 
ATOM     78  F   UNL A   1      40.199  35.264  37.157  1.00  0.00    -0.200 F 
ATOM     79  C   UNL A   1      38.698  33.560  37.807  1.00  0.00     0.200 A 
ATOM     80  F   UNL A   1      37.227  31.819  38.423  1.00  0.00    -0.200 F 
ATOM     81  F   UNL A   1      38.309  34.284  38.865  1.00  0.00    -0.200 F 
ENDBRANCH  47  71
BRANCH  59  82
ATOM     82  C   UNL A   1      44.771  27.588  34.497  1.00  0.00     0.064 A 
ATOM     83  C   UNL A   1      44.647  26.427  35.274  1.00  0.00     0.173 A 
ATOM     84  C   UNL A   1      45.993  28.276  34.531  1.00  0.00     0.173 A 
ATOM     85  F   UNL A   1      43.492  25.745  35.288  1.00  0.00    -0.203 F 
ATOM     86  C   UNL A   1      45.701  25.983  36.068  1.00  0.00     0.198 A 
ATOM     87  C   UNL A   1      47.053  27.815  35.307  1.00  0.00     0.198 A 
ATOM     88  F   UNL A   1      46.162  29.390  33.803  1.00  0.00    -0.203 F 
ATOM     89  F   UNL A   1      45.547  24.894  36.834  1.00  0.00    -0.200 F 
ATOM     90  C   UNL A   1      46.904  26.672  36.080  1.00  0.00     0.200 A 
ATOM     91  F   UNL A   1      48.218  28.477  35.309  1.00  0.00    -0.200 F 
ATOM     92  F   UNL A   1      47.919  26.240  36.840  1.00  0.00    -0.200 F 
ENDBRANCH  59  82
ENDBRANCH  33  34
ENDBRANCH  26  28
ENDBRANCH  25  26
ENDBRANCH  24  25
ENDBRANCH   1  24
TORSDOF 14
ENDMDL
MODEL 2
REMARK VINA RESULT:     -11.7      0.949      2.253
REMARK SMILES C[C@@H]1C(=O)NC(=O)CN1C(=O)NC1(CC(=O)OCCOC(=O)c2ccc(-c3c4nc(c(-c5c(F)c(F)c(F)c(F)c5F)c5ccc([nH]5)c(-c5c(F)c(F)c(F)c(F)c5F)c5nc(c(-c6c(F)c(F)c(F)c(F)c6F)c6ccc3[nH]6)C=C5)C=C4)cc2)CCC1
REMARK SMILES IDX 18 1 17 2 15 3 16 4 14 5 13 6 86 7 88 8 87 9 12 10 10 11
REMARK SMILES IDX 11 12 9 14 1 15 2 16 3 17 4 18 5 19 8 20 6 21 7 23 19 24
REMARK SMILES IDX 20 25 21 26 22 27 23 28 24 29 85 30 25 31 84 32 26 33 27 34
REMARK SMILES IDX 28 35 78 36 29 37 83 38 77 39 79 40 30 41 82 42 76 43 75 44
REMARK SMILES IDX 31 46 63 47 43 48 62 49 44 50 47 51 61 52 80 53 45 54 46 55
REMARK SMILES IDX 60 57 81 58 48 59 32 60 33 61 41 62 34 63 35 64 39 65 42 66
REMARK SMILES IDX 36 67 37 68 40 69 38 70 64 71 65 72 73 73 66 74 67 75 71 76
REMARK SMILES IDX 74 77 68 78 69 79 72 80 70 81 49 82 50 83 58 84 51 85 52 86
REMARK SMILES IDX 56 87 59 88 53 89 54 90 57 91 55 92
REMARK H PARENT 12 13 5 22 79 45 47 56
REMARK Flexibility Score: inf
ROOT
ATOM      1  C   UNL A   1      31.633  29.293  24.359  1.00  0.00     0.274 C 
ENDROOT
BRANCH   1   2
ATOM      2  O   UNL A   1      32.871  29.253  23.618  1.00  0.00    -0.462 OA
BRANCH   2   3
ATOM      3  C   UNL A   1      33.144  28.136  22.905  1.00  0.00     0.308 C 
ATOM      4  O   UNL A   1      33.992  28.073  22.021  1.00  0.00    -0.252 OA
BRANCH   3   5
ATOM      5  C   UNL A   1      32.247  26.960  23.229  1.00  0.00     0.151 C 
BRANCH   5   6
ATOM      6  C   UNL A   1      32.813  25.735  23.977  1.00  0.00     0.052 C 
ATOM      7  C   UNL A   1      32.046  25.437  25.303  1.00  0.00     0.029 C 
ATOM      8  C   UNL A   1      34.043  25.977  24.951  1.00  0.00     0.029 C 
ATOM      9  C   UNL A   1      33.029  26.364  26.035  1.00  0.00     0.005 C 
BRANCH   6  10
ATOM     10  N   UNL A   1      33.126  24.640  23.023  1.00  0.00    -0.332 N 
ATOM     11  C   UNL A   1      33.425  23.333  22.903  1.00  0.00     0.318 C 
ATOM     12  O   UNL A   1      33.626  22.974  21.735  1.00  0.00    -0.249 OA
ATOM     13  H   UNL A   1      33.106  25.023  22.116  1.00  0.00     0.165 HD
BRANCH  11  14
ATOM     14  N   UNL A   1      33.526  22.415  23.900  1.00  0.00    -0.304 N 
ATOM     15  C   UNL A   1      32.016  22.127  25.820  1.00  0.00     0.042 C 
ATOM     16  C   UNL A   1      32.492  21.563  24.477  1.00  0.00     0.174 C 
ATOM     17  C   UNL A   1      32.988  20.131  24.728  1.00  0.00     0.249 C 
ATOM     18  O   UNL A   1      32.213  19.190  24.894  1.00  0.00    -0.272 OA
ATOM     19  N   UNL A   1      34.328  19.969  24.968  1.00  0.00    -0.293 N 
ATOM     20  C   UNL A   1      34.826  22.355  24.593  1.00  0.00     0.222 C 
ATOM     21  C   UNL A   1      35.276  20.957  24.996  1.00  0.00     0.246 C 
ATOM     22  H   UNL A   1      34.640  19.052  25.137  1.00  0.00     0.173 HD
ATOM     23  O   UNL A   1      36.402  20.726  25.432  1.00  0.00    -0.273 OA
ENDBRANCH  11  14
ENDBRANCH   6  10
ENDBRANCH   5   6
ENDBRANCH   3   5
ENDBRANCH   2   3
ENDBRANCH   1   2
BRANCH   1  24
ATOM     24  C   UNL A   1      31.795  30.003  25.706  1.00  0.00     0.275 C 
BRANCH  24  25
ATOM     25  O   UNL A   1      33.176  30.280  25.994  1.00  0.00    -0.458 OA
BRANCH  25  26
ATOM     26  C   UNL A   1      33.365  31.285  26.882  1.00  0.00     0.338 C 
ATOM     27  O   UNL A   1      32.583  32.184  27.135  1.00  0.00    -0.246 OA
BRANCH  26  28
ATOM     28  C   UNL A   1      34.596  31.028  27.645  1.00  0.00     0.060 A 
ATOM     29  C   UNL A   1      34.818  29.738  28.134  1.00  0.00     0.016 A 
ATOM     30  C   UNL A   1      35.511  32.050  27.894  1.00  0.00     0.016 A 
ATOM     31  C   UNL A   1      35.970  29.455  28.861  1.00  0.00     0.010 A 
ATOM     32  C   UNL A   1      36.670  31.763  28.622  1.00  0.00     0.010 A 
ATOM     33  C   UNL A   1      36.909  30.463  29.103  1.00  0.00    -0.014 A 
BRANCH  33  34
ATOM     34  C   UNL A   1      38.148  30.157  29.853  1.00  0.00     0.031 A 
ATOM     35  C   UNL A   1      39.167  29.222  29.277  1.00  0.00     0.074 A 
ATOM     36  C   UNL A   1      38.348  30.720  31.060  1.00  0.00     0.049 A 
ATOM     37  N   UNL A   1      40.249  28.735  29.828  1.00  0.00    -0.248 NA
ATOM     38  C   UNL A   1      38.936  28.772  27.895  1.00  0.00     0.031 C 
ATOM     39  C   UNL A   1      37.449  31.680  31.701  1.00  0.00     0.029 A 
ATOM     40  N   UNL A   1      39.366  30.556  31.965  1.00  0.00    -0.354 N 
ATOM     41  C   UNL A   1      40.819  27.908  28.872  1.00  0.00     0.074 A 
ATOM     42  C   UNL A   1      39.959  27.948  27.708  1.00  0.00     0.031 C 
ATOM     43  C   UNL A   1      37.951  32.014  32.900  1.00  0.00     0.029 A 
ATOM     44  C   UNL A   1      39.176  31.254  33.132  1.00  0.00     0.049 A 
ATOM     45  H   UNL A   1      40.155  29.992  31.795  1.00  0.00     0.167 HD
ATOM     46  C   UNL A   1      41.958  27.181  28.964  1.00  0.00     0.037 A 
ATOM     47  C   UNL A   1      39.889  31.249  34.274  1.00  0.00     0.037 A 
ATOM     48  C   UNL A   1      42.816  27.158  30.121  1.00  0.00     0.049 A 
ATOM     49  C   UNL A   1      41.110  30.378  34.374  1.00  0.00     0.074 A 
ATOM     50  C   UNL A   1      44.008  26.475  30.298  1.00  0.00     0.029 A 
ATOM     51  N   UNL A   1      42.572  27.847  31.299  1.00  0.00    -0.354 N 
ATOM     52  N   UNL A   1      41.643  29.594  33.469  1.00  0.00    -0.248 NA
ATOM     53  C   UNL A   1      41.823  30.381  35.660  1.00  0.00     0.031 C 
ATOM     54  C   UNL A   1      44.462  26.717  31.600  1.00  0.00     0.029 A 
ATOM     55  C   UNL A   1      43.575  27.585  32.219  1.00  0.00     0.049 A 
ATOM     56  H   UNL A   1      41.800  28.436  31.459  1.00  0.00     0.167 HD
ATOM     57  C   UNL A   1      42.757  29.022  34.068  1.00  0.00     0.074 A 
ATOM     58  C   UNL A   1      42.835  29.562  35.409  1.00  0.00     0.031 C 
ATOM     59  C   UNL A   1      43.634  28.128  33.552  1.00  0.00     0.037 A 
BRANCH  46  60
ATOM     60  C   UNL A   1      42.329  26.323  27.792  1.00  0.00     0.064 A 
ATOM     61  C   UNL A   1      43.248  26.754  26.825  1.00  0.00     0.173 A 
ATOM     62  C   UNL A   1      41.789  25.035  27.661  1.00  0.00     0.173 A 
ATOM     63  F   UNL A   1      43.785  27.980  26.903  1.00  0.00    -0.203 F 
ATOM     64  C   UNL A   1      43.599  25.932  25.757  1.00  0.00     0.198 A 
ATOM     65  C   UNL A   1      42.160  24.207  26.605  1.00  0.00     0.198 A 
ATOM     66  F   UNL A   1      40.912  24.573  28.565  1.00  0.00    -0.203 F 
ATOM     67  F   UNL A   1      44.455  26.374  24.825  1.00  0.00    -0.200 F 
ATOM     68  C   UNL A   1      43.060  24.658  25.652  1.00  0.00     0.200 A 
ATOM     69  F   UNL A   1      41.650  22.971  26.512  1.00  0.00    -0.200 F 
ATOM     70  F   UNL A   1      43.406  23.864  24.628  1.00  0.00    -0.200 F 
ENDBRANCH  46  60
BRANCH  47  71
ATOM     71  C   UNL A   1      39.441  32.072  35.426  1.00  0.00     0.064 A 
ATOM     72  C   UNL A   1      38.584  31.544  36.401  1.00  0.00     0.173 A 
ATOM     73  C   UNL A   1      39.861  33.402  35.576  1.00  0.00     0.173 A 
ATOM     74  F   UNL A   1      38.134  30.286  36.285  1.00  0.00    -0.203 F 
ATOM     75  C   UNL A   1      38.156  32.320  37.476  1.00  0.00     0.198 A 
ATOM     76  C   UNL A   1      39.454  34.168  36.666  1.00  0.00     0.198 A 
ATOM     77  F   UNL A   1      40.678  33.955  34.667  1.00  0.00    -0.203 F 
ATOM     78  F   UNL A   1      37.305  31.804  38.374  1.00  0.00    -0.200 F 
ATOM     79  C   UNL A   1      38.597  33.628  37.612  1.00  0.00     0.200 A 
ATOM     80  F   UNL A   1      39.890  35.427  36.797  1.00  0.00    -0.200 F 
ATOM     81  F   UNL A   1      38.190  34.370  38.650  1.00  0.00    -0.200 F 
ENDBRANCH  47  71
BRANCH  59  82
ATOM     82  C   UNL A   1      44.763  27.689  34.436  1.00  0.00     0.064 A 
ATOM     83  C   UNL A   1      45.968  28.403  34.493  1.00  0.00     0.173 A 
ATOM     84  C   UNL A   1      44.625  26.562  35.261  1.00  0.00     0.173 A 
ATOM     85  F   UNL A   1      46.154  29.477  33.710  1.00  0.00    -0.203 F 
ATOM     86  C   UNL A   1      47.002  27.995  35.331  1.00  0.00     0.198 A 
ATOM     87  C   UNL A   1      45.652  26.172  36.116  1.00  0.00     0.198 A 
ATOM     88  F   UNL A   1      43.491  25.848  35.245  1.00  0.00    -0.203 F 
ATOM     89  F   UNL A   1      48.161  28.668  35.340  1.00  0.00    -0.200 F 
ATOM     90  C   UNL A   1      46.842  26.885  36.146  1.00  0.00     0.200 A 
ATOM     91  F   UNL A   1      45.491  25.104  36.910  1.00  0.00    -0.200 F 
ATOM     92  F   UNL A   1      47.836  26.496  36.956  1.00  0.00    -0.200 F 
ENDBRANCH  59  82
ENDBRANCH  33  34
ENDBRANCH  26  28
ENDBRANCH  25  26
ENDBRANCH  24  25
ENDBRANCH   1  24
TORSDOF 14
ENDMDL
MODEL 3
REMARK VINA RESULT:     -11.6      1.787      3.004
REMARK SMILES C[C@@H]1C(=O)NC(=O)CN1C(=O)NC1(CC(=O)OCCOC(=O)c2ccc(-c3c4nc(c(-c5c(F)c(F)c(F)c(F)c5F)c5ccc([nH]5)c(-c5c(F)c(F)c(F)c(F)c5F)c5nc(c(-c6c(F)c(F)c(F)c(F)c6F)c6ccc3[nH]6)C=C5)C=C4)cc2)CCC1
REMARK SMILES IDX 18 1 17 2 15 3 16 4 14 5 13 6 86 7 88 8 87 9 12 10 10 11
REMARK SMILES IDX 11 12 9 14 1 15 2 16 3 17 4 18 5 19 8 20 6 21 7 23 19 24
REMARK SMILES IDX 20 25 21 26 22 27 23 28 24 29 85 30 25 31 84 32 26 33 27 34
REMARK SMILES IDX 28 35 78 36 29 37 83 38 77 39 79 40 30 41 82 42 76 43 75 44
REMARK SMILES IDX 31 46 63 47 43 48 62 49 44 50 47 51 61 52 80 53 45 54 46 55
REMARK SMILES IDX 60 57 81 58 48 59 32 60 33 61 41 62 34 63 35 64 39 65 42 66
REMARK SMILES IDX 36 67 37 68 40 69 38 70 64 71 65 72 73 73 66 74 67 75 71 76
REMARK SMILES IDX 74 77 68 78 69 79 72 80 70 81 49 82 50 83 58 84 51 85 52 86
REMARK SMILES IDX 56 87 59 88 53 89 54 90 57 91 55 92
REMARK H PARENT 12 13 5 22 79 45 47 56
REMARK Flexibility Score: inf
ROOT
ATOM      1  C   UNL A   1      31.798  28.371  27.296  1.00  0.00     0.274 C 
ENDROOT
BRANCH   1   2
ATOM      2  O   UNL A   1      31.663  27.247  26.400  1.00  0.00    -0.462 OA
BRANCH   2   3
ATOM      3  C   UNL A   1      32.781  26.552  26.089  1.00  0.00     0.308 C 
ATOM      4  O   UNL A   1      33.921  26.946  26.313  1.00  0.00    -0.252 OA
BRANCH   3   5
ATOM      5  C   UNL A   1      32.521  25.256  25.351  1.00  0.00     0.151 C 
BRANCH   5   6
ATOM      6  C   UNL A   1      31.138  24.577  25.439  1.00  0.00     0.052 C 
ATOM      7  C   UNL A   1      30.870  23.945  26.840  1.00  0.00     0.029 C 
ATOM      8  C   UNL A   1      31.028  23.074  24.938  1.00  0.00     0.029 C 
ATOM      9  C   UNL A   1      31.501  22.641  26.330  1.00  0.00     0.005 C 
BRANCH   6  10
ATOM     10  N   UNL A   1      30.103  25.412  24.776  1.00  0.00    -0.332 N 
ATOM     11  C   UNL A   1      29.880  26.361  23.848  1.00  0.00     0.318 C 
ATOM     12  O   UNL A   1      28.694  26.704  23.763  1.00  0.00    -0.249 OA
ATOM     13  H   UNL A   1      29.233  25.176  25.172  1.00  0.00     0.165 HD
BRANCH  11  14
ATOM     14  N   UNL A   1      30.796  26.952  23.037  1.00  0.00    -0.304 N 
ATOM     15  C   UNL A   1      30.660  29.183  22.010  1.00  0.00     0.042 C 
ATOM     16  C   UNL A   1      31.326  28.311  23.079  1.00  0.00     0.174 C 
ATOM     17  C   UNL A   1      32.841  28.354  22.833  1.00  0.00     0.249 C 
ATOM     18  O   UNL A   1      33.526  29.328  23.143  1.00  0.00    -0.272 OA
ATOM     19  N   UNL A   1      33.377  27.354  22.064  1.00  0.00    -0.293 N 
ATOM     20  C   UNL A   1      31.226  26.164  21.866  1.00  0.00     0.222 C 
ATOM     21  C   UNL A   1      32.697  26.308  21.499  1.00  0.00     0.246 C 
ATOM     22  H   UNL A   1      34.346  27.392  21.900  1.00  0.00     0.173 HD
ATOM     23  O   UNL A   1      33.240  25.596  20.656  1.00  0.00    -0.273 OA
ENDBRANCH  11  14
ENDBRANCH   6  10
ENDBRANCH   5   6
ENDBRANCH   3   5
ENDBRANCH   2   3
ENDBRANCH   1   2
BRANCH   1  24
ATOM     24  C   UNL A   1      31.778  29.706  26.546  1.00  0.00     0.275 C 
BRANCH  24  25
ATOM     25  O   UNL A   1      33.108  30.191  26.296  1.00  0.00    -0.458 OA
BRANCH  25  26
ATOM     26  C   UNL A   1      33.467  31.244  27.067  1.00  0.00     0.338 C 
ATOM     27  O   UNL A   1      32.821  32.260  27.251  1.00  0.00    -0.246 OA
BRANCH  26  28
ATOM     28  C   UNL A   1      34.689  30.902  27.811  1.00  0.00     0.060 A 
ATOM     29  C   UNL A   1      35.652  31.896  28.001  1.00  0.00     0.016 A 
ATOM     30  C   UNL A   1      34.894  29.611  28.296  1.00  0.00     0.016 A 
ATOM     31  C   UNL A   1      36.822  31.612  28.699  1.00  0.00     0.010 A 
ATOM     32  C   UNL A   1      36.069  29.328  29.000  1.00  0.00     0.010 A 
ATOM     33  C   UNL A   1      37.035  30.328  29.211  1.00  0.00    -0.014 A 
BRANCH  33  34
ATOM     34  C   UNL A   1      38.268  30.031  29.976  1.00  0.00     0.031 A 
ATOM     35  C   UNL A   1      39.304  29.110  29.408  1.00  0.00     0.074 A 
ATOM     36  C   UNL A   1      38.446  30.590  31.187  1.00  0.00     0.049 A 
ATOM     37  N   UNL A   1      40.384  28.632  29.970  1.00  0.00    -0.248 NA
ATOM     38  C   UNL A   1      39.096  28.664  28.021  1.00  0.00     0.031 C 
ATOM     39  C   UNL A   1      37.529  31.537  31.822  1.00  0.00     0.029 A 
ATOM     40  N   UNL A   1      39.454  30.433  32.105  1.00  0.00    -0.354 N 
ATOM     41  C   UNL A   1      40.975  27.816  29.018  1.00  0.00     0.074 A 
ATOM     42  C   UNL A   1      40.130  27.852  27.843  1.00  0.00     0.031 C 
ATOM     43  C   UNL A   1      38.013  31.871  33.029  1.00  0.00     0.029 A 
ATOM     44  C   UNL A   1      39.242  31.122  33.273  1.00  0.00     0.049 A 
ATOM     45  H   UNL A   1      40.252  29.878  31.942  1.00  0.00     0.167 HD
ATOM     46  C   UNL A   1      42.121  27.101  29.120  1.00  0.00     0.037 A 
ATOM     47  C   UNL A   1      39.941  31.119  34.424  1.00  0.00     0.037 A 
ATOM     48  C   UNL A   1      42.965  27.081  30.288  1.00  0.00     0.049 A 
ATOM     49  C   UNL A   1      41.170  30.261  34.534  1.00  0.00     0.074 A 
ATOM     50  C   UNL A   1      44.161  26.410  30.477  1.00  0.00     0.029 A 
ATOM     51  N   UNL A   1      42.698  27.762  31.466  1.00  0.00    -0.354 N 
ATOM     52  N   UNL A   1      41.723  29.488  33.633  1.00  0.00    -0.248 NA
ATOM     53  C   UNL A   1      41.866  30.266  35.829  1.00  0.00     0.031 C 
ATOM     54  C   UNL A   1      44.596  26.650  31.785  1.00  0.00     0.029 A 
ATOM     55  C   UNL A   1      43.693  27.506  32.397  1.00  0.00     0.049 A 
ATOM     56  H   UNL A   1      41.918  28.341  31.619  1.00  0.00     0.167 HD
ATOM     57  C   UNL A   1      42.835  28.925  34.242  1.00  0.00     0.074 A 
ATOM     58  C   UNL A   1      42.891  29.459  35.587  1.00  0.00     0.031 C 
ATOM     59  C   UNL A   1      43.729  28.043  33.733  1.00  0.00     0.037 A 
BRANCH  46  60
ATOM     60  C   UNL A   1      42.516  26.253  27.949  1.00  0.00     0.064 A 
ATOM     61  C   UNL A   1      43.421  26.710  26.980  1.00  0.00     0.173 A 
ATOM     62  C   UNL A   1      42.015  24.949  27.820  1.00  0.00     0.173 A 
ATOM     63  F   UNL A   1      43.920  27.952  27.056  1.00  0.00    -0.203 F 
ATOM     64  C   UNL A   1      43.795  25.897  25.912  1.00  0.00     0.198 A 
ATOM     65  C   UNL A   1      42.409  24.131  26.765  1.00  0.00     0.198 A 
ATOM     66  F   UNL A   1      41.152  24.463  28.726  1.00  0.00    -0.203 F 
ATOM     67  F   UNL A   1      44.635  26.363  24.979  1.00  0.00    -0.200 F 
ATOM     68  C   UNL A   1      43.294  24.607  25.810  1.00  0.00     0.200 A 
ATOM     69  F   UNL A   1      41.935  22.880  26.674  1.00  0.00    -0.200 F 
ATOM     70  F   UNL A   1      43.662  23.823  24.787  1.00  0.00    -0.200 F 
ENDBRANCH  46  60
BRANCH  47  71
ATOM     71  C   UNL A   1      39.470  31.932  35.574  1.00  0.00     0.064 A 
ATOM     72  C   UNL A   1      39.930  33.241  35.770  1.00  0.00     0.173 A 
ATOM     73  C   UNL A   1      38.550  31.417  36.500  1.00  0.00     0.173 A 
ATOM     74  F   UNL A   1      40.831  33.766  34.926  1.00  0.00    -0.203 F 
ATOM     75  C   UNL A   1      39.495  34.000  36.854  1.00  0.00     0.198 A 
ATOM     76  C   UNL A   1      38.096  32.187  37.568  1.00  0.00     0.198 A 
ATOM     77  F   UNL A   1      38.083  30.168  36.358  1.00  0.00    -0.203 F 
ATOM     78  F   UNL A   1      39.980  35.235  37.040  1.00  0.00    -0.200 F 
ATOM     79  C   UNL A   1      38.574  33.476  37.747  1.00  0.00     0.200 A 
ATOM     80  F   UNL A   1      37.198  31.679  38.423  1.00  0.00    -0.200 F 
ATOM     81  F   UNL A   1      38.151  34.209  38.786  1.00  0.00    -0.200 F 
ENDBRANCH  47  71
BRANCH  59  82
ATOM     82  C   UNL A   1      44.851  27.612  34.630  1.00  0.00     0.064 A 
ATOM     83  C   UNL A   1      46.046  28.341  34.708  1.00  0.00     0.173 A 
ATOM     84  C   UNL A   1      44.717  26.477  35.444  1.00  0.00     0.173 A 
ATOM     85  F   UNL A   1      46.228  29.423  33.936  1.00  0.00    -0.203 F 
ATOM     86  C   UNL A   1      47.074  27.940  35.558  1.00  0.00     0.198 A 
ATOM     87  C   UNL A   1      45.737  26.093  36.310  1.00  0.00     0.198 A 
ATOM     88  F   UNL A   1      43.592  25.748  35.407  1.00  0.00    -0.203 F 
ATOM     89  F   UNL A   1      48.223  28.628  35.587  1.00  0.00    -0.200 F 
ATOM     90  C   UNL A   1      46.916  26.821  36.362  1.00  0.00     0.200 A 
ATOM     91  F   UNL A   1      45.579  25.017  37.094  1.00  0.00    -0.200 F 
ATOM     92  F   UNL A   1      47.904  26.439  37.183  1.00  0.00    -0.200 F 
ENDBRANCH  59  82
ENDBRANCH  33  34
ENDBRANCH  26  28
ENDBRANCH  25  26
ENDBRANCH  24  25
ENDBRANCH   1  24
TORSDOF 14
ENDMDL
