MODEL 1
REMARK VINA RESULT:     -10.8      0.000      0.000
REMARK SMILES COc1cc(S(=O)(=O)CCO)cc(C(=O)OCCOC(=O)c2ccc(-c3c4nc(c(-c5c(F)c(F)c(F)c(F)c5F)c5ccc([nH]5)c(-c5c(F)c(F)c(F)c(F)c5F)c5nc(c(-c6c(F)c(F)c(F)c(F)c6F)c6ccc3[nH]6)C=C5)C=C4)cc2)c1OC
REMARK SMILES IDX 17 1 16 2 14 3 15 4 13 5 3 6 4 7 85 8 5 9 12 10 2 11 1 12
REMARK SMILES IDX 86 13 87 14 6 15 7 16 8 17 9 18 10 19 11 20 18 22 19 23
REMARK SMILES IDX 20 24 21 25 22 26 23 27 84 28 24 29 83 30 25 31 26 32 27 33
REMARK SMILES IDX 77 34 28 35 82 36 76 37 78 38 29 39 81 40 75 41 74 42 30 44
REMARK SMILES IDX 62 45 42 46 61 47 43 48 46 49 60 50 79 51 44 52 45 53 59 55
REMARK SMILES IDX 80 56 47 57 31 58 32 59 40 60 33 61 34 62 38 63 41 64 35 65
REMARK SMILES IDX 36 66 39 67 37 68 63 69 64 70 72 71 65 72 66 73 70 74 73 75
REMARK SMILES IDX 67 76 68 77 71 78 69 79 48 80 49 81 57 82 50 83 51 84 55 85
REMARK SMILES IDX 58 86 52 87 53 88 56 89 54 90
REMARK H PARENT 11 21 78 43 46 54
REMARK Flexibility Score: inf
ROOT
ATOM      1  C   UNL A   1      35.071  20.879  25.244  1.00  0.00     0.275 C 
ENDROOT
BRANCH   1   2
ATOM      2  O   UNL A   1      34.862  22.240  25.674  1.00  0.00    -0.458 OA
BRANCH   2   3
ATOM      3  C   UNL A   1      33.591  22.707  25.615  1.00  0.00     0.342 C 
ATOM      4  O   UNL A   1      32.596  22.203  26.111  1.00  0.00    -0.246 OA
BRANCH   3   5
ATOM      5  C   UNL A   1      33.574  24.031  24.963  1.00  0.00     0.107 A 
ATOM      6  C   UNL A   1      33.610  25.431  23.007  1.00  0.00     0.162 A 
ATOM      7  C   UNL A   1      33.443  26.564  23.809  1.00  0.00     0.070 A 
ATOM      8  C   UNL A   1      33.695  24.152  23.574  1.00  0.00     0.175 A 
ATOM      9  C   UNL A   1      33.296  26.428  25.192  1.00  0.00     0.072 A 
ATOM     10  C   UNL A   1      33.371  25.165  25.771  1.00  0.00     0.040 A 
BRANCH   6  11
ATOM     11  O   UNL A   1      33.702  25.645  21.657  1.00  0.00    -0.493 OA
ATOM     12  C   UNL A   1      32.415  25.912  21.100  1.00  0.00     0.278 C 
ENDBRANCH   6  11
BRANCH   8  13
ATOM     13  O   UNL A   1      33.740  23.006  22.827  1.00  0.00    -0.492 OA
ATOM     14  C   UNL A   1      32.460  22.471  22.493  1.00  0.00     0.278 C 
ENDBRANCH   8  13
BRANCH   9  15
ATOM     15  S   UNL A   1      32.992  27.919  26.118  1.00  0.00     0.180 S 
ATOM     16  O   UNL A   1      32.480  28.868  25.145  1.00  0.00    -0.224 OA
ATOM     17  O   UNL A   1      32.179  27.529  27.255  1.00  0.00    -0.224 OA
BRANCH  15  18
ATOM     18  C   UNL A   1      34.506  28.598  26.735  1.00  0.00     0.170 C 
BRANCH  18  19
ATOM     19  C   UNL A   1      34.381  30.030  27.213  1.00  0.00     0.172 C 
BRANCH  19  20
ATOM     20  O   UNL A   1      33.052  30.296  27.638  1.00  0.00    -0.395 OA
ATOM     21  H   UNL A   1      32.933  29.975  28.546  1.00  0.00     0.210 HD
ENDBRANCH  19  20
ENDBRANCH  18  19
ENDBRANCH  15  18
ENDBRANCH   9  15
ENDBRANCH   3   5
ENDBRANCH   2   3
ENDBRANCH   1   2
BRANCH   1  22
ATOM     22  C   UNL A   1      36.553  20.634  24.973  1.00  0.00     0.275 C 
BRANCH  22  23
ATOM     23  O   UNL A   1      37.322  21.604  25.704  1.00  0.00    -0.458 OA
BRANCH  23  24
ATOM     24  C   UNL A   1      38.614  21.293  25.949  1.00  0.00     0.338 C 
ATOM     25  O   UNL A   1      39.190  20.243  25.728  1.00  0.00    -0.246 OA
BRANCH  24  26
ATOM     26  C   UNL A   1      39.283  22.484  26.499  1.00  0.00     0.060 A 
ATOM     27  C   UNL A   1      38.802  23.741  26.152  1.00  0.00     0.016 A 
ATOM     28  C   UNL A   1      40.440  22.371  27.267  1.00  0.00     0.016 A 
ATOM     29  C   UNL A   1      39.520  24.881  26.494  1.00  0.00     0.010 A 
ATOM     30  C   UNL A   1      41.096  23.532  27.707  1.00  0.00     0.010 A 
ATOM     31  C   UNL A   1      40.663  24.808  27.303  1.00  0.00    -0.014 A 
BRANCH  31  32
ATOM     32  C   UNL A   1      41.387  26.055  27.706  1.00  0.00     0.031 A 
ATOM     33  C   UNL A   1      40.700  27.113  28.536  1.00  0.00     0.074 A 
ATOM     34  C   UNL A   1      42.678  26.250  27.356  1.00  0.00     0.049 A 
ATOM     35  N   UNL A   1      41.081  28.340  28.793  1.00  0.00    -0.248 NA
ATOM     36  C   UNL A   1      39.417  26.748  29.160  1.00  0.00     0.031 C 
ATOM     37  C   UNL A   1      43.512  25.303  26.611  1.00  0.00     0.029 A 
ATOM     38  N   UNL A   1      43.526  27.310  27.588  1.00  0.00    -0.354 N 
ATOM     39  C   UNL A   1      40.054  28.915  29.534  1.00  0.00     0.074 A 
ATOM     40  C   UNL A   1      39.044  27.895  29.714  1.00  0.00     0.031 C 
ATOM     41  C   UNL A   1      44.754  25.791  26.501  1.00  0.00     0.029 A 
ATOM     42  C   UNL A   1      44.774  27.146  27.034  1.00  0.00     0.049 A 
ATOM     43  H   UNL A   1      43.264  28.108  28.100  1.00  0.00     0.167 HD
ATOM     44  C   UNL A   1      39.962  30.181  30.008  1.00  0.00     0.037 A 
ATOM     45  C   UNL A   1      45.803  28.005  26.891  1.00  0.00     0.037 A 
ATOM     46  C   UNL A   1      41.002  31.171  29.903  1.00  0.00     0.049 A 
ATOM     47  C   UNL A   1      45.645  29.423  27.363  1.00  0.00     0.074 A 
ATOM     48  C   UNL A   1      41.015  32.463  30.406  1.00  0.00     0.029 A 
ATOM     49  N   UNL A   1      42.217  30.981  29.264  1.00  0.00    -0.354 N 
ATOM     50  N   UNL A   1      44.648  29.972  28.010  1.00  0.00    -0.248 NA
ATOM     51  C   UNL A   1      46.741  30.351  27.047  1.00  0.00     0.031 C 
ATOM     52  C   UNL A   1      42.217  33.070  30.027  1.00  0.00     0.029 A 
ATOM     53  C   UNL A   1      42.970  32.142  29.326  1.00  0.00     0.049 A 
ATOM     54  H   UNL A   1      42.501  30.145  28.830  1.00  0.00     0.167 HD
ATOM     55  C   UNL A   1      44.990  31.307  28.172  1.00  0.00     0.074 A 
ATOM     56  C   UNL A   1      46.305  31.479  27.590  1.00  0.00     0.031 C 
ATOM     57  C   UNL A   1      44.272  32.304  28.739  1.00  0.00     0.037 A 
BRANCH  44  58
ATOM     58  C   UNL A   1      38.676  30.609  30.652  1.00  0.00     0.064 A 
ATOM     59  C   UNL A   1      38.515  30.655  32.043  1.00  0.00     0.173 A 
ATOM     60  C   UNL A   1      37.626  31.085  29.851  1.00  0.00     0.173 A 
ATOM     61  F   UNL A   1      39.487  30.207  32.850  1.00  0.00    -0.203 F 
ATOM     62  C   UNL A   1      37.346  31.161  32.609  1.00  0.00     0.198 A 
ATOM     63  C   UNL A   1      36.469  31.611  30.420  1.00  0.00     0.198 A 
ATOM     64  F   UNL A   1      37.736  31.071  28.514  1.00  0.00    -0.203 F 
ATOM     65  F   UNL A   1      37.205  31.185  33.942  1.00  0.00    -0.200 F 
ATOM     66  C   UNL A   1      36.331  31.648  31.798  1.00  0.00     0.200 A 
ATOM     67  F   UNL A   1      35.498  32.096  29.634  1.00  0.00    -0.200 F 
ATOM     68  F   UNL A   1      35.218  32.157  32.346  1.00  0.00    -0.200 F 
ENDBRANCH  44  58
BRANCH  45  69
ATOM     69  C   UNL A   1      47.035  27.584  26.168  1.00  0.00     0.064 A 
ATOM     70  C   UNL A   1      47.131  27.690  24.775  1.00  0.00     0.173 A 
ATOM     71  C   UNL A   1      48.132  27.038  26.856  1.00  0.00     0.173 A 
ATOM     72  F   UNL A   1      46.099  28.172  24.067  1.00  0.00    -0.203 F 
ATOM     73  C   UNL A   1      48.270  27.254  24.097  1.00  0.00     0.198 A 
ATOM     74  C   UNL A   1      49.283  26.642  26.183  1.00  0.00     0.198 A 
ATOM     75  F   UNL A   1      48.089  26.903  28.191  1.00  0.00    -0.203 F 
ATOM     76  F   UNL A   1      48.314  27.315  22.759  1.00  0.00    -0.200 F 
ATOM     77  C   UNL A   1      49.348  26.740  24.803  1.00  0.00     0.200 A 
ATOM     78  F   UNL A   1      50.327  26.162  26.872  1.00  0.00    -0.200 F 
ATOM     79  F   UNL A   1      50.444  26.329  24.150  1.00  0.00    -0.200 F 
ENDBRANCH  45  69
BRANCH  57  80
ATOM     80  C   UNL A   1      44.891  33.669  28.761  1.00  0.00     0.064 A 
ATOM     81  C   UNL A   1      44.634  34.600  27.745  1.00  0.00     0.173 A 
ATOM     82  C   UNL A   1      45.721  34.062  29.821  1.00  0.00     0.173 A 
ATOM     83  F   UNL A   1      43.863  34.264  26.700  1.00  0.00    -0.203 F 
ATOM     84  C   UNL A   1      45.199  35.872  27.781  1.00  0.00     0.198 A 
ATOM     85  C   UNL A   1      46.263  35.343  29.868  1.00  0.00     0.198 A 
ATOM     86  F   UNL A   1      45.996  33.207  30.817  1.00  0.00    -0.203 F 
ATOM     87  F   UNL A   1      44.973  36.733  26.779  1.00  0.00    -0.200 F 
ATOM     88  C   UNL A   1      46.006  36.245  28.846  1.00  0.00     0.200 A 
ATOM     89  F   UNL A   1      47.035  35.705  30.901  1.00  0.00    -0.200 F 
ATOM     90  F   UNL A   1      46.544  37.472  28.883  1.00  0.00    -0.200 F 
ENDBRANCH  57  80
ENDBRANCH  31  32
ENDBRANCH  24  26
ENDBRANCH  23  24
ENDBRANCH  22  23
ENDBRANCH   1  22
TORSDOF 17
ENDMDL
MODEL 2
REMARK VINA RESULT:     -10.8      4.210      9.706
REMARK SMILES COc1cc(S(=O)(=O)CCO)cc(C(=O)OCCOC(=O)c2ccc(-c3c4nc(c(-c5c(F)c(F)c(F)c(F)c5F)c5ccc([nH]5)c(-c5c(F)c(F)c(F)c(F)c5F)c5nc(c(-c6c(F)c(F)c(F)c(F)c6F)c6ccc3[nH]6)C=C5)C=C4)cc2)c1OC
REMARK SMILES IDX 17 1 16 2 14 3 15 4 13 5 3 6 4 7 85 8 5 9 12 10 2 11 1 12
REMARK SMILES IDX 86 13 87 14 6 15 7 16 8 17 9 18 10 19 11 20 18 22 19 23
REMARK SMILES IDX 20 24 21 25 22 26 23 27 84 28 24 29 83 30 25 31 26 32 27 33
REMARK SMILES IDX 77 34 28 35 82 36 76 37 78 38 29 39 81 40 75 41 74 42 30 44
REMARK SMILES IDX 62 45 42 46 61 47 43 48 46 49 60 50 79 51 44 52 45 53 59 55
REMARK SMILES IDX 80 56 47 57 31 58 32 59 40 60 33 61 34 62 38 63 41 64 35 65
REMARK SMILES IDX 36 66 39 67 37 68 63 69 64 70 72 71 65 72 66 73 70 74 73 75
REMARK SMILES IDX 67 76 68 77 71 78 69 79 48 80 49 81 57 82 50 83 51 84 55 85
REMARK SMILES IDX 58 86 52 87 53 88 56 89 54 90
REMARK H PARENT 11 21 78 43 46 54
REMARK Flexibility Score: inf
ROOT
ATOM      1  C   UNL A   1      31.711  28.794  27.223  1.00  0.00     0.275 C 
ENDROOT
BRANCH   1   2
ATOM      2  O   UNL A   1      32.499  27.674  26.770  1.00  0.00    -0.458 OA
BRANCH   2   3
ATOM      3  C   UNL A   1      31.818  26.624  26.249  1.00  0.00     0.342 C 
ATOM      4  O   UNL A   1      30.663  26.305  26.482  1.00  0.00    -0.246 OA
BRANCH   3   5
ATOM      5  C   UNL A   1      32.637  25.959  25.216  1.00  0.00     0.107 A 
ATOM      6  C   UNL A   1      33.492  25.789  22.974  1.00  0.00     0.162 A 
ATOM      7  C   UNL A   1      34.279  24.696  23.352  1.00  0.00     0.070 A 
ATOM      8  C   UNL A   1      32.648  26.423  23.896  1.00  0.00     0.175 A 
ATOM      9  C   UNL A   1      34.279  24.259  24.679  1.00  0.00     0.072 A 
ATOM     10  C   UNL A   1      33.453  24.882  25.610  1.00  0.00     0.040 A 
BRANCH   6  11
ATOM     11  O   UNL A   1      33.581  26.183  21.666  1.00  0.00    -0.493 OA
ATOM     12  C   UNL A   1      32.899  25.261  20.814  1.00  0.00     0.278 C 
ENDBRANCH   6  11
BRANCH   8  13
ATOM     13  O   UNL A   1      31.951  27.565  23.607  1.00  0.00    -0.492 OA
ATOM     14  C   UNL A   1      30.681  27.339  22.997  1.00  0.00     0.278 C 
ENDBRANCH   8  13
BRANCH   9  15
ATOM     15  S   UNL A   1      35.386  22.923  25.084  1.00  0.00     0.180 S 
ATOM     16  O   UNL A   1      35.385  22.861  26.534  1.00  0.00    -0.224 OA
ATOM     17  O   UNL A   1      34.943  21.782  24.303  1.00  0.00    -0.224 OA
BRANCH  15  18
ATOM     18  C   UNL A   1      37.044  23.308  24.598  1.00  0.00     0.170 C 
BRANCH  18  19
ATOM     19  C   UNL A   1      38.010  23.414  25.759  1.00  0.00     0.172 C 
BRANCH  19  20
ATOM     20  O   UNL A   1      38.044  22.196  26.487  1.00  0.00    -0.395 OA
ATOM     21  H   UNL A   1      38.711  21.606  26.100  1.00  0.00     0.210 HD
ENDBRANCH  19  20
ENDBRANCH  18  19
ENDBRANCH  15  18
ENDBRANCH   9  15
ENDBRANCH   3   5
ENDBRANCH   2   3
ENDBRANCH   1   2
BRANCH   1  22
ATOM     22  C   UNL A   1      31.799  29.940  26.219  1.00  0.00     0.275 C 
BRANCH  22  23
ATOM     23  O   UNL A   1      33.153  30.423  26.186  1.00  0.00    -0.458 OA
BRANCH  23  24
ATOM     24  C   UNL A   1      33.450  31.452  27.010  1.00  0.00     0.338 C 
ATOM     25  O   UNL A   1      32.782  32.442  27.248  1.00  0.00    -0.246 OA
BRANCH  24  26
ATOM     26  C   UNL A   1      34.739  31.168  27.664  1.00  0.00     0.060 A 
ATOM     27  C   UNL A   1      35.030  29.858  28.028  1.00  0.00     0.016 A 
ATOM     28  C   UNL A   1      35.612  32.195  28.012  1.00  0.00     0.016 A 
ATOM     29  C   UNL A   1      36.143  29.583  28.814  1.00  0.00     0.010 A 
ATOM     30  C   UNL A   1      36.796  31.894  28.706  1.00  0.00     0.010 A 
ATOM     31  C   UNL A   1      37.067  30.585  29.144  1.00  0.00    -0.014 A 
BRANCH  31  32
ATOM     32  C   UNL A   1      38.289  30.254  29.943  1.00  0.00     0.031 A 
ATOM     33  C   UNL A   1      39.365  29.358  29.374  1.00  0.00     0.074 A 
ATOM     34  C   UNL A   1      38.468  30.768  31.180  1.00  0.00     0.049 A 
ATOM     35  N   UNL A   1      40.373  28.786  29.984  1.00  0.00    -0.248 NA
ATOM     36  C   UNL A   1      39.301  29.066  27.932  1.00  0.00     0.031 C 
ATOM     37  C   UNL A   1      37.561  31.699  31.856  1.00  0.00     0.029 A 
ATOM     38  N   UNL A   1      39.482  30.588  32.094  1.00  0.00    -0.354 N 
ATOM     39  C   UNL A   1      41.011  28.007  29.026  1.00  0.00     0.074 A 
ATOM     40  C   UNL A   1      40.296  28.201  27.783  1.00  0.00     0.031 C 
ATOM     41  C   UNL A   1      38.082  32.053  33.037  1.00  0.00     0.029 A 
ATOM     42  C   UNL A   1      39.285  31.267  33.274  1.00  0.00     0.049 A 
ATOM     43  H   UNL A   1      40.272  30.027  31.920  1.00  0.00     0.167 HD
ATOM     44  C   UNL A   1      42.087  27.198  29.175  1.00  0.00     0.037 A 
ATOM     45  C   UNL A   1      39.940  31.213  34.451  1.00  0.00     0.037 A 
ATOM     46  C   UNL A   1      42.851  27.069  30.390  1.00  0.00     0.049 A 
ATOM     47  C   UNL A   1      41.085  30.253  34.609  1.00  0.00     0.074 A 
ATOM     48  C   UNL A   1      43.991  26.313  30.613  1.00  0.00     0.029 A 
ATOM     49  N   UNL A   1      42.563  27.717  31.580  1.00  0.00    -0.354 N 
ATOM     50  N   UNL A   1      41.643  29.479  33.714  1.00  0.00    -0.248 NA
ATOM     51  C   UNL A   1      41.664  30.131  35.955  1.00  0.00     0.031 C 
ATOM     52  C   UNL A   1      44.363  26.465  31.953  1.00  0.00     0.029 A 
ATOM     53  C   UNL A   1      43.480  27.349  32.551  1.00  0.00     0.049 A 
ATOM     54  H   UNL A   1      41.818  28.345  31.715  1.00  0.00     0.167 HD
ATOM     55  C   UNL A   1      42.631  28.773  34.386  1.00  0.00     0.074 A 
ATOM     56  C   UNL A   1      42.623  29.238  35.756  1.00  0.00     0.031 C 
ATOM     57  C   UNL A   1      43.460  27.813  33.911  1.00  0.00     0.037 A 
BRANCH  44  58
ATOM     58  C   UNL A   1      42.498  26.336  28.017  1.00  0.00     0.064 A 
ATOM     59  C   UNL A   1      41.931  25.077  27.783  1.00  0.00     0.173 A 
ATOM     60  C   UNL A   1      43.401  26.839  27.066  1.00  0.00     0.173 A 
ATOM     61  F   UNL A   1      41.068  24.551  28.665  1.00  0.00    -0.203 F 
ATOM     62  C   UNL A   1      42.255  24.351  26.639  1.00  0.00     0.198 A 
ATOM     63  C   UNL A   1      43.705  26.121  25.913  1.00  0.00     0.198 A 
ATOM     64  F   UNL A   1      43.963  28.046  27.241  1.00  0.00    -0.203 F 
ATOM     65  F   UNL A   1      41.713  23.141  26.439  1.00  0.00    -0.200 F 
ATOM     66  C   UNL A   1      43.132  24.878  25.701  1.00  0.00     0.200 A 
ATOM     67  F   UNL A   1      44.539  26.641  25.002  1.00  0.00    -0.200 F 
ATOM     68  F   UNL A   1      43.423  24.187  24.589  1.00  0.00    -0.200 F 
ENDBRANCH  44  58
BRANCH  45  69
ATOM     69  C   UNL A   1      39.459  32.010  35.613  1.00  0.00     0.064 A 
ATOM     70  C   UNL A   1      39.976  33.284  35.884  1.00  0.00     0.173 A 
ATOM     71  C   UNL A   1      38.492  31.500  36.496  1.00  0.00     0.173 A 
ATOM     72  F   UNL A   1      40.926  33.803  35.093  1.00  0.00    -0.203 F 
ATOM     73  C   UNL A   1      39.554  34.009  36.998  1.00  0.00     0.198 A 
ATOM     74  C   UNL A   1      38.042  32.241  37.583  1.00  0.00     0.198 A 
ATOM     75  F   UNL A   1      37.971  30.280  36.290  1.00  0.00    -0.203 F 
ATOM     76  F   UNL A   1      40.105  35.201  37.265  1.00  0.00    -0.200 F 
ATOM     77  C   UNL A   1      38.581  33.492  37.840  1.00  0.00     0.200 A 
ATOM     78  F   UNL A   1      37.090  31.743  38.383  1.00  0.00    -0.200 F 
ATOM     79  F   UNL A   1      38.172  34.194  38.906  1.00  0.00    -0.200 F 
ENDBRANCH  45  69
BRANCH  57  80
ATOM     80  C   UNL A   1      44.429  27.204  34.879  1.00  0.00     0.064 A 
ATOM     81  C   UNL A   1      45.652  27.824  35.171  1.00  0.00     0.173 A 
ATOM     82  C   UNL A   1      44.119  26.010  35.547  1.00  0.00     0.173 A 
ATOM     83  F   UNL A   1      46.002  28.956  34.543  1.00  0.00    -0.203 F 
ATOM     84  C   UNL A   1      46.539  27.261  36.085  1.00  0.00     0.198 A 
ATOM     85  C   UNL A   1      44.995  25.463  36.479  1.00  0.00     0.198 A 
ATOM     86  F   UNL A   1      42.960  25.380  35.303  1.00  0.00    -0.203 F 
ATOM     87  F   UNL A   1      47.721  27.847  36.318  1.00  0.00    -0.200 F 
ATOM     88  C   UNL A   1      46.207  26.086  36.743  1.00  0.00     0.200 A 
ATOM     89  F   UNL A   1      44.669  24.334  37.122  1.00  0.00    -0.200 F 
ATOM     90  F   UNL A   1      47.058  25.549  37.628  1.00  0.00    -0.200 F 
ENDBRANCH  57  80
ENDBRANCH  31  32
ENDBRANCH  24  26
ENDBRANCH  23  24
ENDBRANCH  22  23
ENDBRANCH   1  22
TORSDOF 17
ENDMDL
MODEL 3
REMARK VINA RESULT:     -10.7      4.113      9.675
REMARK SMILES COc1cc(S(=O)(=O)CCO)cc(C(=O)OCCOC(=O)c2ccc(-c3c4nc(c(-c5c(F)c(F)c(F)c(F)c5F)c5ccc([nH]5)c(-c5c(F)c(F)c(F)c(F)c5F)c5nc(c(-c6c(F)c(F)c(F)c(F)c6F)c6ccc3[nH]6)C=C5)C=C4)cc2)c1OC
REMARK SMILES IDX 17 1 16 2 14 3 15 4 13 5 3 6 4 7 85 8 5 9 12 10 2 11 1 12
REMARK SMILES IDX 86 13 87 14 6 15 7 16 8 17 9 18 10 19 11 20 18 22 19 23
REMARK SMILES IDX 20 24 21 25 22 26 23 27 84 28 24 29 83 30 25 31 26 32 27 33
REMARK SMILES IDX 77 34 28 35 82 36 76 37 78 38 29 39 81 40 75 41 74 42 30 44
REMARK SMILES IDX 62 45 42 46 61 47 43 48 46 49 60 50 79 51 44 52 45 53 59 55
REMARK SMILES IDX 80 56 47 57 31 58 32 59 40 60 33 61 34 62 38 63 41 64 35 65
REMARK SMILES IDX 36 66 39 67 37 68 63 69 64 70 72 71 65 72 66 73 70 74 73 75
REMARK SMILES IDX 67 76 68 77 71 78 69 79 48 80 49 81 57 82 50 83 51 84 55 85
REMARK SMILES IDX 58 86 52 87 53 88 56 89 54 90
REMARK H PARENT 11 21 78 43 46 54
REMARK Flexibility Score: inf
ROOT
ATOM      1  C   UNL A   1      31.572  28.753  24.891  1.00  0.00     0.275 C 
ENDROOT
BRANCH   1   2
ATOM      2  O   UNL A   1      32.655  27.855  25.212  1.00  0.00    -0.458 OA
BRANCH   2   3
ATOM      3  C   UNL A   1      33.392  27.397  24.172  1.00  0.00     0.342 C 
ATOM      4  O   UNL A   1      34.039  28.059  23.377  1.00  0.00    -0.246 OA
BRANCH   3   5
ATOM      5  C   UNL A   1      33.430  25.921  24.197  1.00  0.00     0.107 A 
ATOM      6  C   UNL A   1      32.592  23.767  23.529  1.00  0.00     0.162 A 
ATOM      7  C   UNL A   1      33.630  23.142  24.227  1.00  0.00     0.070 A 
ATOM      8  C   UNL A   1      32.468  25.164  23.520  1.00  0.00     0.175 A 
ATOM      9  C   UNL A   1      34.600  23.910  24.877  1.00  0.00     0.072 A 
ATOM     10  C   UNL A   1      34.496  25.297  24.871  1.00  0.00     0.040 A 
BRANCH   6  11
ATOM     11  O   UNL A   1      31.708  22.946  22.882  1.00  0.00    -0.493 OA
ATOM     12  C   UNL A   1      32.231  21.620  22.784  1.00  0.00     0.278 C 
ENDBRANCH   6  11
BRANCH   8  13
ATOM     13  O   UNL A   1      31.543  25.825  22.759  1.00  0.00    -0.492 OA
ATOM     14  C   UNL A   1      31.884  25.929  21.377  1.00  0.00     0.278 C 
ENDBRANCH   8  13
BRANCH   9  15
ATOM     15  S   UNL A   1      35.935  23.025  25.656  1.00  0.00     0.180 S 
ATOM     16  O   UNL A   1      36.820  24.055  26.169  1.00  0.00    -0.224 OA
ATOM     17  O   UNL A   1      35.316  22.076  26.563  1.00  0.00    -0.224 OA
BRANCH  15  18
ATOM     18  C   UNL A   1      36.867  22.110  24.461  1.00  0.00     0.170 C 
BRANCH  18  19
ATOM     19  C   UNL A   1      37.898  21.184  25.072  1.00  0.00     0.172 C 
BRANCH  19  20
ATOM     20  O   UNL A   1      38.451  21.764  26.245  1.00  0.00    -0.395 OA
ATOM     21  H   UNL A   1      37.922  21.501  27.015  1.00  0.00     0.210 HD
ENDBRANCH  19  20
ENDBRANCH  18  19
ENDBRANCH  15  18
ENDBRANCH   9  15
ENDBRANCH   3   5
ENDBRANCH   2   3
ENDBRANCH   1   2
BRANCH   1  22
ATOM     22  C   UNL A   1      31.689  30.034  25.713  1.00  0.00     0.275 C 
BRANCH  22  23
ATOM     23  O   UNL A   1      33.062  30.209  26.101  1.00  0.00    -0.458 OA
BRANCH  23  24
ATOM     24  C   UNL A   1      33.327  31.235  26.940  1.00  0.00     0.338 C 
ATOM     25  O   UNL A   1      32.624  32.192  27.205  1.00  0.00    -0.246 OA
BRANCH  24  26
ATOM     26  C   UNL A   1      34.636  30.992  27.572  1.00  0.00     0.060 A 
ATOM     27  C   UNL A   1      34.974  29.693  27.931  1.00  0.00     0.016 A 
ATOM     28  C   UNL A   1      35.483  32.048  27.903  1.00  0.00     0.016 A 
ATOM     29  C   UNL A   1      36.109  29.455  28.698  1.00  0.00     0.010 A 
ATOM     30  C   UNL A   1      36.687  31.785  28.577  1.00  0.00     0.010 A 
ATOM     31  C   UNL A   1      37.006  30.485  29.012  1.00  0.00    -0.014 A 
BRANCH  31  32
ATOM     32  C   UNL A   1      38.253  30.194  29.789  1.00  0.00     0.031 A 
ATOM     33  C   UNL A   1      39.333  29.308  29.214  1.00  0.00     0.074 A 
ATOM     34  C   UNL A   1      38.448  30.736  31.012  1.00  0.00     0.049 A 
ATOM     35  N   UNL A   1      40.365  28.768  29.812  1.00  0.00    -0.248 NA
ATOM     36  C   UNL A   1      39.243  28.986  27.780  1.00  0.00     0.031 C 
ATOM     37  C   UNL A   1      37.538  31.663  31.689  1.00  0.00     0.029 A 
ATOM     38  N   UNL A   1      39.486  30.594  31.906  1.00  0.00    -0.354 N 
ATOM     39  C   UNL A   1      40.998  27.983  28.856  1.00  0.00     0.074 A 
ATOM     40  C   UNL A   1      40.252  28.137  27.625  1.00  0.00     0.031 C 
ATOM     41  C   UNL A   1      38.078  32.050  32.852  1.00  0.00     0.029 A 
ATOM     42  C   UNL A   1      39.301  31.292  33.077  1.00  0.00     0.049 A 
ATOM     43  H   UNL A   1      40.282  30.045  31.726  1.00  0.00     0.167 HD
ATOM     44  C   UNL A   1      42.092  27.198  28.997  1.00  0.00     0.037 A 
ATOM     45  C   UNL A   1      39.982  31.275  34.240  1.00  0.00     0.037 A 
ATOM     46  C   UNL A   1      42.885  27.107  30.196  1.00  0.00     0.049 A 
ATOM     47  C   UNL A   1      41.150  30.341  34.391  1.00  0.00     0.074 A 
ATOM     48  C   UNL A   1      44.044  26.379  30.409  1.00  0.00     0.029 A 
ATOM     49  N   UNL A   1      42.610  27.774  31.379  1.00  0.00    -0.354 N 
ATOM     50  N   UNL A   1      41.703  29.559  33.499  1.00  0.00    -0.248 NA
ATOM     51  C   UNL A   1      41.760  30.256  35.726  1.00  0.00     0.031 C 
ATOM     52  C   UNL A   1      44.443  26.564  31.737  1.00  0.00     0.029 A 
ATOM     53  C   UNL A   1      43.556  27.443  32.337  1.00  0.00     0.049 A 
ATOM     54  H   UNL A   1      41.856  28.389  31.519  1.00  0.00     0.167 HD
ATOM     55  C   UNL A   1      42.719  28.886  34.162  1.00  0.00     0.074 A 
ATOM     56  C   UNL A   1      42.732  29.379  35.523  1.00  0.00     0.031 C 
ATOM     57  C   UNL A   1      43.556  27.934  33.688  1.00  0.00     0.037 A 
BRANCH  44  58
ATOM     58  C   UNL A   1      42.495  26.321  27.847  1.00  0.00     0.064 A 
ATOM     59  C   UNL A   1      41.875  25.091  27.591  1.00  0.00     0.173 A 
ATOM     60  C   UNL A   1      43.448  26.783  26.925  1.00  0.00     0.173 A 
ATOM     61  F   UNL A   1      40.963  24.605  28.445  1.00  0.00    -0.203 F 
ATOM     62  C   UNL A   1      42.197  24.354  26.453  1.00  0.00     0.198 A 
ATOM     63  C   UNL A   1      43.750  26.055  25.777  1.00  0.00     0.198 A 
ATOM     64  F   UNL A   1      44.062  27.960  27.121  1.00  0.00    -0.203 F 
ATOM     65  F   UNL A   1      41.604  23.173  26.232  1.00  0.00    -0.200 F 
ATOM     66  C   UNL A   1      43.124  24.841  25.543  1.00  0.00     0.200 A 
ATOM     67  F   UNL A   1      44.634  26.537  24.893  1.00  0.00    -0.200 F 
ATOM     68  F   UNL A   1      43.414  24.142  24.437  1.00  0.00    -0.200 F 
ENDBRANCH  44  58
BRANCH  45  69
ATOM     69  C   UNL A   1      39.511  32.086  35.397  1.00  0.00     0.064 A 
ATOM     70  C   UNL A   1      38.603  31.564  36.327  1.00  0.00     0.173 A 
ATOM     71  C   UNL A   1      39.937  33.412  35.577  1.00  0.00     0.173 A 
ATOM     72  F   UNL A   1      38.138  30.315  36.181  1.00  0.00    -0.203 F 
ATOM     73  C   UNL A   1      38.131  32.341  37.384  1.00  0.00     0.198 A 
ATOM     74  C   UNL A   1      39.497  34.173  36.655  1.00  0.00     0.198 A 
ATOM     75  F   UNL A   1      40.798  33.967  34.709  1.00  0.00    -0.203 F 
ATOM     76  F   UNL A   1      37.220  31.836  38.228  1.00  0.00    -0.200 F 
ATOM     77  C   UNL A   1      38.585  33.641  37.553  1.00  0.00     0.200 A 
ATOM     78  F   UNL A   1      39.953  35.421  36.822  1.00  0.00    -0.200 F 
ATOM     79  F   UNL A   1      38.135  34.383  38.574  1.00  0.00    -0.200 F 
ENDBRANCH  45  69
BRANCH  57  80
ATOM     80  C   UNL A   1      44.558  27.363  34.646  1.00  0.00     0.064 A 
ATOM     81  C   UNL A   1      44.286  26.194  35.372  1.00  0.00     0.173 A 
ATOM     82  C   UNL A   1      45.812  27.968  34.815  1.00  0.00     0.173 A 
ATOM     83  F   UNL A   1      43.093  25.592  35.259  1.00  0.00    -0.203 F 
ATOM     84  C   UNL A   1      45.229  25.660  36.247  1.00  0.00     0.198 A 
ATOM     85  C   UNL A   1      46.762  27.417  35.670  1.00  0.00     0.198 A 
ATOM     86  F   UNL A   1      46.120  29.086  34.142  1.00  0.00    -0.203 F 
ATOM     87  F   UNL A   1      44.933  24.567  36.962  1.00  0.00    -0.200 F 
ATOM     88  C   UNL A   1      46.468  26.268  36.389  1.00  0.00     0.200 A 
ATOM     89  F   UNL A   1      47.962  27.998  35.800  1.00  0.00    -0.200 F 
ATOM     90  F   UNL A   1      47.377  25.749  37.226  1.00  0.00    -0.200 F 
ENDBRANCH  57  80
ENDBRANCH  31  32
ENDBRANCH  24  26
ENDBRANCH  23  24
ENDBRANCH  22  23
ENDBRANCH   1  22
TORSDOF 17
ENDMDL
