MODEL 1
REMARK VINA RESULT:     -12.8      0.000      0.000
REMARK SMILES COc1cc(/C=C2/C(=O)NN(c3ccc(Cl)c(Cl)c3)C2=O)ccc1OCC(=O)OCCOC(=O)c1ccc(-c2c3nc(c(-c4c(F)c(F)c(F)c(F)c4F)c4ccc([nH]4)c(-c4c(F)c(F)c(F)c(F)c4F)c4nc(c(-c5c(F)c(F)c(F)c(F)c5F)c5ccc2[nH]5)C=C4)C=C3)cc1
REMARK SMILES IDX 30 1 29 2 27 3 28 4 26 5 25 6 24 7 3 8 4 9 5 10 23 11 22 12
REMARK SMILES IDX 2 13 1 14 6 15 7 16 8 17 20 18 9 19 10 20 11 21 21 22 12 24
REMARK SMILES IDX 13 25 19 26 14 27 17 28 15 29 18 30 16 31 31 32 32 33 33 34
REMARK SMILES IDX 34 35 35 36 36 37 97 38 37 39 96 40 38 41 39 42 40 43 90 44
REMARK SMILES IDX 41 45 95 46 89 47 91 48 42 49 94 50 88 51 87 52 43 54 75 55
REMARK SMILES IDX 55 56 74 57 56 58 59 59 73 60 92 61 57 62 58 63 72 65 93 66
REMARK SMILES IDX 60 67 44 68 45 69 53 70 46 71 47 72 51 73 54 74 48 75 49 76
REMARK SMILES IDX 52 77 50 78 76 79 77 80 85 81 78 82 79 83 83 84 86 85 80 86
REMARK SMILES IDX 81 87 84 88 82 89 61 90 62 91 70 92 63 93 64 94 68 95 71 96
REMARK SMILES IDX 65 97 66 98 69 99 67 100
REMARK H PARENT 10 23 91 53 59 64
REMARK Flexibility Score: inf
ROOT
ATOM      1  C   UNL A   1      31.620  29.528  24.093  1.00  0.00     0.274 C 
ENDROOT
BRANCH   1   2
ATOM      2  O   UNL A   1      30.183  29.480  23.929  1.00  0.00    -0.460 OA
BRANCH   2   3
ATOM      3  C   UNL A   1      29.707  28.724  22.905  1.00  0.00     0.344 C 
ATOM      4  O   UNL A   1      29.939  28.937  21.720  1.00  0.00    -0.248 OA
BRANCH   3   5
ATOM      5  C   UNL A   1      28.888  27.513  23.385  1.00  0.00     0.352 C 
BRANCH   5   6
ATOM      6  O   UNL A   1      29.455  26.436  24.086  1.00  0.00    -0.478 OA
BRANCH   6   7
ATOM      7  C   UNL A   1      30.768  26.086  24.063  1.00  0.00     0.162 A 
ATOM      8  C   UNL A   1      31.694  25.942  23.022  1.00  0.00     0.161 A 
ATOM      9  C   UNL A   1      33.025  25.541  23.316  1.00  0.00     0.058 A 
ATOM     10  C   UNL A   1      33.416  25.210  24.622  1.00  0.00    -0.021 A 
ATOM     11  C   UNL A   1      31.173  25.721  25.357  1.00  0.00     0.051 A 
ATOM     12  C   UNL A   1      32.464  25.279  25.638  1.00  0.00     0.012 A 
BRANCH   8  13
ATOM     13  O   UNL A   1      31.352  25.834  21.698  1.00  0.00    -0.493 OA
ATOM     14  C   UNL A   1      32.423  25.699  20.787  1.00  0.00     0.278 C 
ENDBRANCH   8  13
BRANCH  10  15
ATOM     15  C   UNL A   1      34.732  24.657  24.979  1.00  0.00     0.028 C 
ATOM     16  C   UNL A   1      34.962  23.342  25.115  1.00  0.00     0.109 C 
ATOM     17  C   UNL A   1      36.154  22.774  25.791  1.00  0.00     0.275 C 
ATOM     18  C   UNL A   1      34.052  22.221  24.770  1.00  0.00     0.282 C 
ATOM     19  O   UNL A   1      37.168  23.359  26.125  1.00  0.00    -0.267 OA
ATOM     20  N   UNL A   1      35.857  21.437  25.966  1.00  0.00    -0.256 N 
ATOM     21  N   UNL A   1      34.664  21.097  25.334  1.00  0.00    -0.217 N 
ATOM     22  O   UNL A   1      33.007  22.296  24.151  1.00  0.00    -0.267 OA
ATOM     23  H   UNL A   1      36.417  20.804  26.472  1.00  0.00     0.192 HD
BRANCH  21  24
ATOM     24  C   UNL A   1      34.127  19.798  25.305  1.00  0.00     0.068 A 
ATOM     25  C   UNL A   1      33.155  19.403  26.229  1.00  0.00     0.030 A 
ATOM     26  C   UNL A   1      34.528  18.902  24.307  1.00  0.00     0.050 A 
ATOM     27  C   UNL A   1      32.550  18.146  26.110  1.00  0.00     0.024 A 
ATOM     28  C   UNL A   1      33.961  17.629  24.216  1.00  0.00     0.061 A 
ATOM     29  C   UNL A   1      32.951  17.257  25.107  1.00  0.00     0.059 A 
ATOM     30  Cl  UNL A   1      34.556  16.571  22.987  1.00  0.00    -0.083 Cl
ATOM     31  Cl  UNL A   1      32.155  15.728  25.015  1.00  0.00    -0.083 Cl
ENDBRANCH  21  24
ENDBRANCH  10  15
ENDBRANCH   6   7
ENDBRANCH   5   6
ENDBRANCH   3   5
ENDBRANCH   2   3
ENDBRANCH   1   2
BRANCH   1  32
ATOM     32  C   UNL A   1      31.959  29.354  25.579  1.00  0.00     0.275 C 
BRANCH  32  33
ATOM     33  O   UNL A   1      33.274  29.883  25.854  1.00  0.00    -0.458 OA
BRANCH  33  34
ATOM     34  C   UNL A   1      33.308  30.873  26.789  1.00  0.00     0.338 C 
ATOM     35  O   UNL A   1      32.429  31.697  26.982  1.00  0.00    -0.246 OA
BRANCH  34  36
ATOM     36  C   UNL A   1      34.533  30.776  27.636  1.00  0.00     0.060 A 
ATOM     37  C   UNL A   1      35.305  31.891  27.939  1.00  0.00     0.016 A 
ATOM     38  C   UNL A   1      34.981  29.523  28.066  1.00  0.00     0.016 A 
ATOM     39  C   UNL A   1      36.591  31.740  28.471  1.00  0.00     0.010 A 
ATOM     40  C   UNL A   1      36.196  29.402  28.762  1.00  0.00     0.010 A 
ATOM     41  C   UNL A   1      37.048  30.506  28.946  1.00  0.00    -0.014 A 
BRANCH  41  42
ATOM     42  C   UNL A   1      38.360  30.354  29.664  1.00  0.00     0.031 A 
ATOM     43  C   UNL A   1      39.442  29.465  29.092  1.00  0.00     0.074 A 
ATOM     44  C   UNL A   1      38.576  30.936  30.865  1.00  0.00     0.049 A 
ATOM     45  N   UNL A   1      40.434  28.859  29.697  1.00  0.00    -0.248 NA
ATOM     46  C   UNL A   1      39.381  29.205  27.644  1.00  0.00     0.031 C 
ATOM     47  C   UNL A   1      37.691  31.894  31.532  1.00  0.00     0.029 A 
ATOM     48  N   UNL A   1      39.609  30.780  31.765  1.00  0.00    -0.354 N 
ATOM     49  C   UNL A   1      41.056  28.078  28.728  1.00  0.00     0.074 A 
ATOM     50  C   UNL A   1      40.338  28.299  27.490  1.00  0.00     0.031 C 
ATOM     51  C   UNL A   1      38.216  32.250  32.710  1.00  0.00     0.029 A 
ATOM     52  C   UNL A   1      39.395  31.437  32.957  1.00  0.00     0.049 A 
ATOM     53  H   UNL A   1      40.419  30.252  31.576  1.00  0.00     0.167 HD
ATOM     54  C   UNL A   1      42.116  27.242  28.871  1.00  0.00     0.037 A 
ATOM     55  C   UNL A   1      40.001  31.334  34.155  1.00  0.00     0.037 A 
ATOM     56  C   UNL A   1      42.855  27.087  30.102  1.00  0.00     0.049 A 
ATOM     57  C   UNL A   1      41.123  30.354  34.319  1.00  0.00     0.074 A 
ATOM     58  C   UNL A   1      43.948  26.277  30.361  1.00  0.00     0.029 A 
ATOM     59  N   UNL A   1      42.583  27.774  31.277  1.00  0.00    -0.354 N 
ATOM     60  N   UNL A   1      41.645  29.542  33.434  1.00  0.00    -0.248 NA
ATOM     61  C   UNL A   1      41.729  30.261  35.653  1.00  0.00     0.031 C 
ATOM     62  C   UNL A   1      44.304  26.436  31.704  1.00  0.00     0.029 A 
ATOM     63  C   UNL A   1      43.477  27.395  32.266  1.00  0.00     0.049 A 
ATOM     64  H   UNL A   1      41.862  28.434  31.391  1.00  0.00     0.167 HD
ATOM     65  C   UNL A   1      42.662  28.867  34.090  1.00  0.00     0.074 A 
ATOM     66  C   UNL A   1      42.685  29.366  35.450  1.00  0.00     0.031 C 
ATOM     67  C   UNL A   1      43.504  27.923  33.607  1.00  0.00     0.037 A 
BRANCH  54  68
ATOM     68  C   UNL A   1      42.513  26.384  27.697  1.00  0.00     0.064 A 
ATOM     69  C   UNL A   1      43.525  26.755  26.800  1.00  0.00     0.173 A 
ATOM     70  C   UNL A   1      41.888  25.142  27.493  1.00  0.00     0.173 A 
ATOM     71  F   UNL A   1      44.153  27.932  26.937  1.00  0.00    -0.203 F 
ATOM     72  C   UNL A   1      43.870  25.934  25.726  1.00  0.00     0.198 A 
ATOM     73  C   UNL A   1      42.261  24.308  26.441  1.00  0.00     0.198 A 
ATOM     74  F   UNL A   1      40.921  24.726  28.325  1.00  0.00    -0.203 F 
ATOM     75  F   UNL A   1      44.797  26.340  24.846  1.00  0.00    -0.200 F 
ATOM     76  C   UNL A   1      43.244  24.709  25.551  1.00  0.00     0.200 A 
ATOM     77  F   UNL A   1      41.665  23.117  26.287  1.00  0.00    -0.200 F 
ATOM     78  F   UNL A   1      43.581  23.923  24.521  1.00  0.00    -0.200 F 
ENDBRANCH  54  68
BRANCH  55  79
ATOM     79  C   UNL A   1      39.499  32.133  35.308  1.00  0.00     0.064 A 
ATOM     80  C   UNL A   1      38.606  31.578  36.233  1.00  0.00     0.173 A 
ATOM     81  C   UNL A   1      39.919  33.457  35.523  1.00  0.00     0.173 A 
ATOM     82  F   UNL A   1      38.155  30.327  36.059  1.00  0.00    -0.203 F 
ATOM     83  C   UNL A   1      38.146  32.316  37.322  1.00  0.00     0.198 A 
ATOM     84  C   UNL A   1      39.488  34.180  36.633  1.00  0.00     0.198 A 
ATOM     85  F   UNL A   1      40.778  34.037  34.672  1.00  0.00    -0.203 F 
ATOM     86  F   UNL A   1      37.260  31.774  38.169  1.00  0.00    -0.200 F 
ATOM     87  C   UNL A   1      38.596  33.612  37.528  1.00  0.00     0.200 A 
ATOM     88  F   UNL A   1      39.947  35.423  36.840  1.00  0.00    -0.200 F 
ATOM     89  F   UNL A   1      38.166  34.314  38.585  1.00  0.00    -0.200 F 
ENDBRANCH  55  79
BRANCH  67  90
ATOM     90  C   UNL A   1      44.578  27.426  34.527  1.00  0.00     0.064 A 
ATOM     91  C   UNL A   1      45.814  28.076  34.647  1.00  0.00     0.173 A 
ATOM     92  C   UNL A   1      44.341  26.302  35.335  1.00  0.00     0.173 A 
ATOM     93  F   UNL A   1      46.095  29.140  33.880  1.00  0.00    -0.203 F 
ATOM     94  C   UNL A   1      46.782  27.608  35.531  1.00  0.00     0.198 A 
ATOM     95  C   UNL A   1      45.299  25.857  36.240  1.00  0.00     0.198 A 
ATOM     96  F   UNL A   1      43.173  25.647  35.257  1.00  0.00    -0.203 F 
ATOM     97  F   UNL A   1      47.974  28.216  35.601  1.00  0.00    -0.200 F 
ATOM     98  C   UNL A   1      46.520  26.507  36.334  1.00  0.00     0.200 A 
ATOM     99  F   UNL A   1      45.038  24.802  37.024  1.00  0.00    -0.200 F 
ATOM    100  F   UNL A   1      47.448  26.068  37.196  1.00  0.00    -0.200 F 
ENDBRANCH  67  90
ENDBRANCH  41  42
ENDBRANCH  34  36
ENDBRANCH  33  34
ENDBRANCH  32  33
ENDBRANCH   1  32
TORSDOF 16
ENDMDL
MODEL 2
REMARK VINA RESULT:     -12.2      1.813      3.084
REMARK SMILES COc1cc(/C=C2/C(=O)NN(c3ccc(Cl)c(Cl)c3)C2=O)ccc1OCC(=O)OCCOC(=O)c1ccc(-c2c3nc(c(-c4c(F)c(F)c(F)c(F)c4F)c4ccc([nH]4)c(-c4c(F)c(F)c(F)c(F)c4F)c4nc(c(-c5c(F)c(F)c(F)c(F)c5F)c5ccc2[nH]5)C=C4)C=C3)cc1
REMARK SMILES IDX 30 1 29 2 27 3 28 4 26 5 25 6 24 7 3 8 4 9 5 10 23 11 22 12
REMARK SMILES IDX 2 13 1 14 6 15 7 16 8 17 20 18 9 19 10 20 11 21 21 22 12 24
REMARK SMILES IDX 13 25 19 26 14 27 17 28 15 29 18 30 16 31 31 32 32 33 33 34
REMARK SMILES IDX 34 35 35 36 36 37 97 38 37 39 96 40 38 41 39 42 40 43 90 44
REMARK SMILES IDX 41 45 95 46 89 47 91 48 42 49 94 50 88 51 87 52 43 54 75 55
REMARK SMILES IDX 55 56 74 57 56 58 59 59 73 60 92 61 57 62 58 63 72 65 93 66
REMARK SMILES IDX 60 67 44 68 45 69 53 70 46 71 47 72 51 73 54 74 48 75 49 76
REMARK SMILES IDX 52 77 50 78 76 79 77 80 85 81 78 82 79 83 83 84 86 85 80 86
REMARK SMILES IDX 81 87 84 88 82 89 61 90 62 91 70 92 63 93 64 94 68 95 71 96
REMARK SMILES IDX 65 97 66 98 69 99 67 100
REMARK H PARENT 10 23 91 53 59 64
REMARK Flexibility Score: inf
ROOT
ATOM      1  C   UNL A   1      31.614  29.093  24.942  1.00  0.00     0.274 C 
ENDROOT
BRANCH   1   2
ATOM      2  O   UNL A   1      32.920  28.565  24.615  1.00  0.00    -0.460 OA
BRANCH   2   3
ATOM      3  C   UNL A   1      33.220  28.441  23.295  1.00  0.00     0.344 C 
ATOM      4  O   UNL A   1      34.266  28.825  22.782  1.00  0.00    -0.248 OA
BRANCH   3   5
ATOM      5  C   UNL A   1      32.129  27.701  22.500  1.00  0.00     0.352 C 
BRANCH   5   6
ATOM      6  O   UNL A   1      32.338  26.449  21.900  1.00  0.00    -0.478 OA
BRANCH   6   7
ATOM      7  C   UNL A   1      32.075  25.246  22.477  1.00  0.00     0.162 A 
ATOM      8  C   UNL A   1      31.277  24.869  23.565  1.00  0.00     0.161 A 
ATOM      9  C   UNL A   1      31.211  23.502  23.948  1.00  0.00     0.058 A 
ATOM     10  C   UNL A   1      31.991  22.527  23.309  1.00  0.00    -0.021 A 
ATOM     11  C   UNL A   1      32.869  24.259  21.872  1.00  0.00     0.051 A 
ATOM     12  C   UNL A   1      32.843  22.927  22.281  1.00  0.00     0.012 A 
BRANCH   8  13
ATOM     13  O   UNL A   1      30.800  25.743  24.509  1.00  0.00    -0.493 OA
ATOM     14  C   UNL A   1      31.286  25.567  25.823  1.00  0.00     0.278 C 
ENDBRANCH   8  13
BRANCH  10  15
ATOM     15  C   UNL A   1      32.078  21.123  23.739  1.00  0.00     0.028 C 
ATOM     16  C   UNL A   1      33.195  20.582  24.251  1.00  0.00     0.109 C 
ATOM     17  C   UNL A   1      33.426  19.122  24.376  1.00  0.00     0.275 C 
ATOM     18  C   UNL A   1      34.441  21.281  24.649  1.00  0.00     0.282 C 
ATOM     19  O   UNL A   1      32.613  18.226  24.245  1.00  0.00    -0.267 OA
ATOM     20  N   UNL A   1      34.772  19.001  24.664  1.00  0.00    -0.256 N 
ATOM     21  N   UNL A   1      35.357  20.247  24.873  1.00  0.00    -0.217 N 
ATOM     22  O   UNL A   1      34.607  22.483  24.735  1.00  0.00    -0.267 OA
ATOM     23  H   UNL A   1      35.255  18.145  24.715  1.00  0.00     0.192 HD
BRANCH  21  24
ATOM     24  C   UNL A   1      36.705  20.438  25.224  1.00  0.00     0.068 A 
ATOM     25  C   UNL A   1      37.633  19.400  25.096  1.00  0.00     0.030 A 
ATOM     26  C   UNL A   1      37.140  21.697  25.656  1.00  0.00     0.050 A 
ATOM     27  C   UNL A   1      38.990  19.645  25.339  1.00  0.00     0.024 A 
ATOM     28  C   UNL A   1      38.486  21.929  25.947  1.00  0.00     0.061 A 
ATOM     29  C   UNL A   1      39.419  20.906  25.765  1.00  0.00     0.059 A 
ATOM     30  Cl  UNL A   1      38.922  23.497  26.526  1.00  0.00    -0.083 Cl
ATOM     31  Cl  UNL A   1      41.108  21.137  26.037  1.00  0.00    -0.083 Cl
ENDBRANCH  21  24
ENDBRANCH  10  15
ENDBRANCH   6   7
ENDBRANCH   5   6
ENDBRANCH   3   5
ENDBRANCH   2   3
ENDBRANCH   1   2
BRANCH   1  32
ATOM     32  C   UNL A   1      31.786  30.373  25.770  1.00  0.00     0.275 C 
BRANCH  32  33
ATOM     33  O   UNL A   1      32.821  30.189  26.759  1.00  0.00    -0.458 OA
BRANCH  33  34
ATOM     34  C   UNL A   1      33.349  31.342  27.256  1.00  0.00     0.338 C 
ATOM     35  O   UNL A   1      32.780  32.421  27.299  1.00  0.00    -0.246 OA
BRANCH  34  36
ATOM     36  C   UNL A   1      34.702  31.111  27.840  1.00  0.00     0.060 A 
ATOM     37  C   UNL A   1      35.108  29.855  28.276  1.00  0.00     0.016 A 
ATOM     38  C   UNL A   1      35.562  32.193  28.049  1.00  0.00     0.016 A 
ATOM     39  C   UNL A   1      36.243  29.716  29.083  1.00  0.00     0.010 A 
ATOM     40  C   UNL A   1      36.790  32.011  28.708  1.00  0.00     0.010 A 
ATOM     41  C   UNL A   1      37.140  30.773  29.274  1.00  0.00    -0.014 A 
BRANCH  41  42
ATOM     42  C   UNL A   1      38.443  30.602  30.004  1.00  0.00     0.031 A 
ATOM     43  C   UNL A   1      39.549  29.765  29.400  1.00  0.00     0.074 A 
ATOM     44  C   UNL A   1      38.631  31.118  31.239  1.00  0.00     0.049 A 
ATOM     45  N   UNL A   1      40.542  29.141  29.987  1.00  0.00    -0.248 NA
ATOM     46  C   UNL A   1      39.515  29.586  27.940  1.00  0.00     0.031 C 
ATOM     47  C   UNL A   1      37.719  32.022  31.945  1.00  0.00     0.029 A 
ATOM     48  N   UNL A   1      39.652  30.928  32.146  1.00  0.00    -0.354 N 
ATOM     49  C   UNL A   1      41.193  28.427  28.986  1.00  0.00     0.074 A 
ATOM     50  C   UNL A   1      40.490  28.706  27.751  1.00  0.00     0.031 C 
ATOM     51  C   UNL A   1      38.219  32.319  33.150  1.00  0.00     0.029 A 
ATOM     52  C   UNL A   1      39.407  31.513  33.370  1.00  0.00     0.049 A 
ATOM     53  H   UNL A   1      40.473  30.425  31.941  1.00  0.00     0.167 HD
ATOM     54  C   UNL A   1      42.264  27.601  29.099  1.00  0.00     0.037 A 
ATOM     55  C   UNL A   1      39.996  31.351  34.570  1.00  0.00     0.037 A 
ATOM     56  C   UNL A   1      42.986  27.388  30.331  1.00  0.00     0.049 A 
ATOM     57  C   UNL A   1      41.132  30.382  34.697  1.00  0.00     0.074 A 
ATOM     58  C   UNL A   1      44.089  26.583  30.562  1.00  0.00     0.029 A 
ATOM     59  N   UNL A   1      42.684  28.003  31.539  1.00  0.00    -0.354 N 
ATOM     60  N   UNL A   1      41.681  29.630  33.776  1.00  0.00    -0.248 NA
ATOM     61  C   UNL A   1      41.718  30.222  36.034  1.00  0.00     0.031 C 
ATOM     62  C   UNL A   1      44.421  26.671  31.918  1.00  0.00     0.029 A 
ATOM     63  C   UNL A   1      43.569  27.583  32.520  1.00  0.00     0.049 A 
ATOM     64  H   UNL A   1      41.950  28.643  31.678  1.00  0.00     0.167 HD
ATOM     65  C   UNL A   1      42.699  28.936  34.410  1.00  0.00     0.074 A 
ATOM     66  C   UNL A   1      42.693  29.356  35.796  1.00  0.00     0.031 C 
ATOM     67  C   UNL A   1      43.565  28.034  33.889  1.00  0.00     0.037 A 
BRANCH  54  68
ATOM     68  C   UNL A   1      42.694  26.819  27.885  1.00  0.00     0.064 A 
ATOM     69  C   UNL A   1      42.173  25.553  27.580  1.00  0.00     0.173 A 
ATOM     70  C   UNL A   1      43.621  27.373  26.986  1.00  0.00     0.173 A 
ATOM     71  F   UNL A   1      41.291  24.968  28.403  1.00  0.00    -0.203 F 
ATOM     72  C   UNL A   1      42.590  24.858  26.444  1.00  0.00     0.198 A 
ATOM     73  C   UNL A   1      44.007  26.692  25.833  1.00  0.00     0.198 A 
ATOM     74  F   UNL A   1      44.146  28.585  27.216  1.00  0.00    -0.203 F 
ATOM     75  F   UNL A   1      42.124  23.623  26.208  1.00  0.00    -0.200 F 
ATOM     76  C   UNL A   1      43.500  25.430  25.568  1.00  0.00     0.200 A 
ATOM     77  F   UNL A   1      44.874  27.257  24.980  1.00  0.00    -0.200 F 
ATOM     78  F   UNL A   1      43.895  24.761  24.477  1.00  0.00    -0.200 F 
ENDBRANCH  54  68
BRANCH  55  79
ATOM     79  C   UNL A   1      39.462  32.075  35.758  1.00  0.00     0.064 A 
ATOM     80  C   UNL A   1      39.879  33.380  36.052  1.00  0.00     0.173 A 
ATOM     81  C   UNL A   1      38.509  31.490  36.608  1.00  0.00     0.173 A 
ATOM     82  F   UNL A   1      40.806  33.974  35.286  1.00  0.00    -0.203 F 
ATOM     83  C   UNL A   1      39.372  34.067  37.153  1.00  0.00     0.198 A 
ATOM     84  C   UNL A   1      37.974  32.193  37.686  1.00  0.00     0.198 A 
ATOM     85  F   UNL A   1      38.070  30.245  36.371  1.00  0.00    -0.203 F 
ATOM     86  F   UNL A   1      39.819  35.298  37.435  1.00  0.00    -0.200 F 
ATOM     87  C   UNL A   1      38.411  33.478  37.962  1.00  0.00     0.200 A 
ATOM     88  F   UNL A   1      37.028  31.626  38.450  1.00  0.00    -0.200 F 
ATOM     89  F   UNL A   1      37.912  34.147  39.011  1.00  0.00    -0.200 F 
ENDBRANCH  55  79
BRANCH  67  90
ATOM     90  C   UNL A   1      44.633  27.503  34.797  1.00  0.00     0.064 A 
ATOM     91  C   UNL A   1      45.866  28.151  34.954  1.00  0.00     0.173 A 
ATOM     92  C   UNL A   1      44.393  26.347  35.556  1.00  0.00     0.173 A 
ATOM     93  F   UNL A   1      46.150  29.246  34.233  1.00  0.00    -0.203 F 
ATOM     94  C   UNL A   1      46.828  27.650  35.826  1.00  0.00     0.198 A 
ATOM     95  C   UNL A   1      45.344  25.867  36.450  1.00  0.00     0.198 A 
ATOM     96  F   UNL A   1      43.227  25.692  35.442  1.00  0.00    -0.203 F 
ATOM     97  F   UNL A   1      48.018  28.258  35.931  1.00  0.00    -0.200 F 
ATOM     98  C   UNL A   1      46.562  26.516  36.582  1.00  0.00     0.200 A 
ATOM     99  F   UNL A   1      45.080  24.780  37.188  1.00  0.00    -0.200 F 
ATOM    100  F   UNL A   1      47.484  26.045  37.432  1.00  0.00    -0.200 F 
ENDBRANCH  67  90
ENDBRANCH  41  42
ENDBRANCH  34  36
ENDBRANCH  33  34
ENDBRANCH  32  33
ENDBRANCH   1  32
TORSDOF 16
ENDMDL
MODEL 3
REMARK VINA RESULT:     -12.1      3.511      8.705
REMARK SMILES COc1cc(/C=C2/C(=O)NN(c3ccc(Cl)c(Cl)c3)C2=O)ccc1OCC(=O)OCCOC(=O)c1ccc(-c2c3nc(c(-c4c(F)c(F)c(F)c(F)c4F)c4ccc([nH]4)c(-c4c(F)c(F)c(F)c(F)c4F)c4nc(c(-c5c(F)c(F)c(F)c(F)c5F)c5ccc2[nH]5)C=C4)C=C3)cc1
REMARK SMILES IDX 30 1 29 2 27 3 28 4 26 5 25 6 24 7 3 8 4 9 5 10 23 11 22 12
REMARK SMILES IDX 2 13 1 14 6 15 7 16 8 17 20 18 9 19 10 20 11 21 21 22 12 24
REMARK SMILES IDX 13 25 19 26 14 27 17 28 15 29 18 30 16 31 31 32 32 33 33 34
REMARK SMILES IDX 34 35 35 36 36 37 97 38 37 39 96 40 38 41 39 42 40 43 90 44
REMARK SMILES IDX 41 45 95 46 89 47 91 48 42 49 94 50 88 51 87 52 43 54 75 55
REMARK SMILES IDX 55 56 74 57 56 58 59 59 73 60 92 61 57 62 58 63 72 65 93 66
REMARK SMILES IDX 60 67 44 68 45 69 53 70 46 71 47 72 51 73 54 74 48 75 49 76
REMARK SMILES IDX 52 77 50 78 76 79 77 80 85 81 78 82 79 83 83 84 86 85 80 86
REMARK SMILES IDX 81 87 84 88 82 89 61 90 62 91 70 92 63 93 64 94 68 95 71 96
REMARK SMILES IDX 65 97 66 98 69 99 67 100
REMARK H PARENT 10 23 91 53 59 64
REMARK Flexibility Score: inf
ROOT
ATOM      1  C   UNL A   1      40.798  20.345  26.717  1.00  0.00     0.274 C 
ENDROOT
BRANCH   1   2
ATOM      2  O   UNL A   1      40.024  19.708  25.674  1.00  0.00    -0.460 OA
BRANCH   2   3
ATOM      3  C   UNL A   1      38.762  20.171  25.476  1.00  0.00     0.344 C 
ATOM      4  O   UNL A   1      37.866  19.533  24.932  1.00  0.00    -0.248 OA
BRANCH   3   5
ATOM      5  C   UNL A   1      38.538  21.574  26.067  1.00  0.00     0.352 C 
BRANCH   5   6
ATOM      6  O   UNL A   1      37.591  22.477  25.556  1.00  0.00    -0.478 OA
BRANCH   6   7
ATOM      7  C   UNL A   1      36.242  22.313  25.602  1.00  0.00     0.162 A 
ATOM      8  C   UNL A   1      35.290  21.996  24.625  1.00  0.00     0.161 A 
ATOM      9  C   UNL A   1      33.918  21.905  24.984  1.00  0.00     0.058 A 
ATOM     10  C   UNL A   1      33.483  22.203  26.284  1.00  0.00    -0.021 A 
ATOM     11  C   UNL A   1      35.781  22.635  26.888  1.00  0.00     0.051 A 
ATOM     12  C   UNL A   1      34.430  22.597  27.228  1.00  0.00     0.012 A 
BRANCH   8  13
ATOM     13  O   UNL A   1      35.516  22.083  23.275  1.00  0.00    -0.493 OA
ATOM     14  C   UNL A   1      35.525  23.385  22.727  1.00  0.00     0.278 C 
ENDBRANCH   8  13
BRANCH  10  15
ATOM     15  C   UNL A   1      32.070  22.265  26.691  1.00  0.00     0.028 C 
ATOM     16  C   UNL A   1      31.247  23.261  26.329  1.00  0.00     0.109 C 
ATOM     17  C   UNL A   1      29.943  23.536  26.981  1.00  0.00     0.275 C 
ATOM     18  C   UNL A   1      31.507  24.343  25.348  1.00  0.00     0.282 C 
ATOM     19  O   UNL A   1      29.335  22.824  27.759  1.00  0.00    -0.267 OA
ATOM     20  N   UNL A   1      29.573  24.783  26.517  1.00  0.00    -0.256 N 
ATOM     21  N   UNL A   1      30.448  25.236  25.533  1.00  0.00    -0.217 N 
ATOM     22  O   UNL A   1      32.449  24.419  24.580  1.00  0.00    -0.267 OA
ATOM     23  H   UNL A   1      28.791  25.287  26.840  1.00  0.00     0.192 HD
BRANCH  21  24
ATOM     24  C   UNL A   1      30.303  26.455  24.847  1.00  0.00     0.068 A 
ATOM     25  C   UNL A   1      29.363  26.593  23.822  1.00  0.00     0.030 A 
ATOM     26  C   UNL A   1      31.069  27.564  25.228  1.00  0.00     0.050 A 
ATOM     27  C   UNL A   1      29.153  27.846  23.233  1.00  0.00     0.024 A 
ATOM     28  C   UNL A   1      30.896  28.802  24.607  1.00  0.00     0.061 A 
ATOM     29  C   UNL A   1      29.918  28.950  23.621  1.00  0.00     0.059 A 
ATOM     30  Cl  UNL A   1      31.924  30.099  25.103  1.00  0.00    -0.083 Cl
ATOM     31  Cl  UNL A   1      29.598  30.465  22.857  1.00  0.00    -0.083 Cl
ENDBRANCH  21  24
ENDBRANCH  10  15
ENDBRANCH   6   7
ENDBRANCH   5   6
ENDBRANCH   3   5
ENDBRANCH   2   3
ENDBRANCH   1   2
BRANCH   1  32
ATOM     32  C   UNL A   1      42.071  20.940  26.102  1.00  0.00     0.275 C 
BRANCH  32  33
ATOM     33  O   UNL A   1      41.755  22.149  25.378  1.00  0.00    -0.458 OA
BRANCH  33  34
ATOM     34  C   UNL A   1      42.744  23.085  25.367  1.00  0.00     0.338 C 
ATOM     35  O   UNL A   1      43.760  23.035  24.692  1.00  0.00    -0.246 OA
BRANCH  34  36
ATOM     36  C   UNL A   1      42.395  24.253  26.227  1.00  0.00     0.060 A 
ATOM     37  C   UNL A   1      42.840  25.537  25.936  1.00  0.00     0.016 A 
ATOM     38  C   UNL A   1      41.679  24.054  27.411  1.00  0.00     0.016 A 
ATOM     39  C   UNL A   1      42.758  26.552  26.897  1.00  0.00     0.010 A 
ATOM     40  C   UNL A   1      41.445  25.124  28.291  1.00  0.00     0.010 A 
ATOM     41  C   UNL A   1      42.014  26.391  28.071  1.00  0.00    -0.014 A 
BRANCH  41  42
ATOM     42  C   UNL A   1      41.782  27.517  29.038  1.00  0.00     0.031 A 
ATOM     43  C   UNL A   1      42.651  27.655  30.269  1.00  0.00     0.074 A 
ATOM     44  C   UNL A   1      40.754  28.381  28.880  1.00  0.00     0.049 A 
ATOM     45  N   UNL A   1      42.396  28.243  31.412  1.00  0.00    -0.248 NA
ATOM     46  C   UNL A   1      43.978  27.021  30.210  1.00  0.00     0.031 C 
ATOM     47  C   UNL A   1      39.866  28.461  27.718  1.00  0.00     0.029 A 
ATOM     48  N   UNL A   1      40.255  29.348  29.727  1.00  0.00    -0.354 N 
ATOM     49  C   UNL A   1      43.485  27.973  32.235  1.00  0.00     0.074 A 
ATOM     50  C   UNL A   1      44.412  27.180  31.454  1.00  0.00     0.031 C 
ATOM     51  C   UNL A   1      38.954  29.421  27.910  1.00  0.00     0.029 A 
ATOM     52  C   UNL A   1      39.091  29.924  29.267  1.00  0.00     0.049 A 
ATOM     53  H   UNL A   1      40.686  29.602  30.574  1.00  0.00     0.167 HD
ATOM     54  C   UNL A   1      43.677  28.341  33.528  1.00  0.00     0.037 A 
ATOM     55  C   UNL A   1      38.168  30.688  29.883  1.00  0.00     0.037 A 
ATOM     56  C   UNL A   1      42.768  29.185  34.265  1.00  0.00     0.049 A 
ATOM     57  C   UNL A   1      38.356  31.026  31.331  1.00  0.00     0.074 A 
ATOM     58  C   UNL A   1      42.864  29.629  35.573  1.00  0.00     0.029 A 
ATOM     59  N   UNL A   1      41.601  29.731  33.747  1.00  0.00    -0.354 N 
ATOM     60  N   UNL A   1      39.331  30.687  32.138  1.00  0.00    -0.248 NA
ATOM     61  C   UNL A   1      37.307  31.836  31.962  1.00  0.00     0.031 C 
ATOM     62  C   UNL A   1      41.731  30.397  35.862  1.00  0.00     0.029 A 
ATOM     63  C   UNL A   1      40.962  30.491  34.713  1.00  0.00     0.049 A 
ATOM     64  H   UNL A   1      41.275  29.596  32.827  1.00  0.00     0.167 HD
ATOM     65  C   UNL A   1      39.033  31.270  33.359  1.00  0.00     0.074 A 
ATOM     66  C   UNL A   1      37.786  31.986  33.188  1.00  0.00     0.031 C 
ATOM     67  C   UNL A   1      39.734  31.221  34.517  1.00  0.00     0.037 A 
BRANCH  54  68
ATOM     68  C   UNL A   1      44.878  27.793  34.255  1.00  0.00     0.064 A 
ATOM     69  C   UNL A   1      44.838  26.598  34.986  1.00  0.00     0.173 A 
ATOM     70  C   UNL A   1      46.111  28.466  34.179  1.00  0.00     0.173 A 
ATOM     71  F   UNL A   1      43.690  25.914  35.102  1.00  0.00    -0.203 F 
ATOM     72  C   UNL A   1      45.971  26.117  35.643  1.00  0.00     0.198 A 
ATOM     73  C   UNL A   1      47.250  27.964  34.805  1.00  0.00     0.198 A 
ATOM     74  F   UNL A   1      46.216  29.608  33.484  1.00  0.00    -0.203 F 
ATOM     75  F   UNL A   1      45.890  25.006  36.388  1.00  0.00    -0.200 F 
ATOM     76  C   UNL A   1      47.177  26.796  35.546  1.00  0.00     0.200 A 
ATOM     77  F   UNL A   1      48.416  28.614  34.694  1.00  0.00    -0.200 F 
ATOM     78  F   UNL A   1      48.263  26.329  36.175  1.00  0.00    -0.200 F 
ENDBRANCH  54  68
BRANCH  55  79
ATOM     79  C   UNL A   1      36.949  31.115  29.142  1.00  0.00     0.064 A 
ATOM     80  C   UNL A   1      36.816  32.428  28.671  1.00  0.00     0.173 A 
ATOM     81  C   UNL A   1      35.903  30.218  28.869  1.00  0.00     0.173 A 
ATOM     82  F   UNL A   1      37.775  33.330  28.928  1.00  0.00    -0.203 F 
ATOM     83  C   UNL A   1      35.684  32.829  27.965  1.00  0.00     0.198 A 
ATOM     84  C   UNL A   1      34.789  30.610  28.128  1.00  0.00     0.198 A 
ATOM     85  F   UNL A   1      35.978  28.947  29.290  1.00  0.00    -0.203 F 
ATOM     86  F   UNL A   1      35.565  34.101  27.561  1.00  0.00    -0.200 F 
ATOM     87  C   UNL A   1      34.677  31.917  27.683  1.00  0.00     0.200 A 
ATOM     88  F   UNL A   1      33.831  29.718  27.839  1.00  0.00    -0.200 F 
ATOM     89  F   UNL A   1      33.597  32.300  26.989  1.00  0.00    -0.200 F 
ENDBRANCH  55  79
BRANCH  67  90
ATOM     90  C   UNL A   1      39.216  32.029  35.668  1.00  0.00     0.064 A 
ATOM     91  C   UNL A   1      38.370  31.479  36.641  1.00  0.00     0.173 A 
ATOM     92  C   UNL A   1      39.614  33.366  35.818  1.00  0.00     0.173 A 
ATOM     93  F   UNL A   1      37.944  30.212  36.528  1.00  0.00    -0.203 F 
ATOM     94  C   UNL A   1      37.927  32.246  37.715  1.00  0.00     0.198 A 
ATOM     95  C   UNL A   1      39.195  34.120  36.910  1.00  0.00     0.198 A 
ATOM     96  F   UNL A   1      40.424  33.937  34.914  1.00  0.00    -0.203 F 
ATOM     97  F   UNL A   1      37.084  31.716  38.612  1.00  0.00    -0.200 F 
ATOM     98  C   UNL A   1      38.349  33.561  37.855  1.00  0.00     0.200 A 
ATOM     99  F   UNL A   1      39.614  35.385  37.049  1.00  0.00    -0.200 F 
ATOM    100  F   UNL A   1      37.933  34.292  38.898  1.00  0.00    -0.200 F 
ENDBRANCH  67  90
ENDBRANCH  41  42
ENDBRANCH  34  36
ENDBRANCH  33  34
ENDBRANCH  32  33
ENDBRANCH   1  32
TORSDOF 16
ENDMDL
