MODEL 1
REMARK VINA RESULT:     -11.5      0.000      0.000
REMARK SMILES CC[C@](C)(NC(=O)NC[C@H]1COCCO1)C(=O)OCCOC(=O)c1ccc(-c2c3nc(c(-c4c(F)c(F)c(F)c(F)c4F)c4ccc([nH]4)c(-c4c(F)c(F)c(F)c(F)c4F)c4nc(c(-c5c(F)c(F)c(F)c(F)c5F)c5ccc2[nH]5)C=C4)C=C3)cc1
REMARK SMILES IDX 19 1 18 2 16 3 17 4 3 5 4 6 2 7 1 8 5 9 6 10 7 12 8 13 9 15
REMARK SMILES IDX 10 16 11 17 15 18 12 19 14 20 13 21 20 22 21 23 22 24 23 25
REMARK SMILES IDX 24 26 25 27 86 28 26 29 85 30 27 31 28 32 29 33 79 34 30 35
REMARK SMILES IDX 84 36 78 37 80 38 31 39 83 40 77 41 76 42 32 44 64 45 44 46
REMARK SMILES IDX 63 47 45 48 48 49 62 50 81 51 46 52 47 53 61 55 82 56 49 57
REMARK SMILES IDX 33 58 34 59 42 60 35 61 36 62 40 63 43 64 37 65 38 66 41 67
REMARK SMILES IDX 39 68 65 69 66 70 74 71 67 72 68 73 72 74 75 75 69 76 70 77
REMARK SMILES IDX 73 78 71 79 50 80 51 81 59 82 52 83 53 84 57 85 60 86 54 87
REMARK SMILES IDX 55 88 58 89 56 90
REMARK H PARENT 5 11 8 14 80 43 48 54
REMARK Flexibility Score: inf
ROOT
ATOM      1  C   UNL A   1      31.786  28.349  26.886  1.00  0.00     0.274 C 
ENDROOT
BRANCH   1   2
ATOM      2  O   UNL A   1      31.455  27.715  25.626  1.00  0.00    -0.460 OA
BRANCH   2   3
ATOM      3  C   UNL A   1      32.504  27.360  24.827  1.00  0.00     0.331 C 
ATOM      4  O   UNL A   1      33.493  26.776  25.255  1.00  0.00    -0.249 OA
BRANCH   3   5
ATOM      5  C   UNL A   1      32.255  27.679  23.309  1.00  0.00     0.136 C 
ATOM      6  C   UNL A   1      32.947  29.068  23.098  1.00  0.00     0.047 C 
BRANCH   5   7
ATOM      7  C   UNL A   1      30.755  27.991  23.032  1.00  0.00     0.037 C 
ATOM      8  C   UNL A   1      30.423  29.315  22.386  1.00  0.00     0.007 C 
ENDBRANCH   5   7
BRANCH   5   9
ATOM      9  N   UNL A   1      32.874  26.788  22.283  1.00  0.00    -0.322 N 
ATOM     10  C   UNL A   1      32.606  25.659  21.620  1.00  0.00     0.315 C 
ATOM     11  H   UNL A   1      33.751  27.143  22.010  1.00  0.00     0.166 HD
ATOM     12  O   UNL A   1      33.198  25.493  20.550  1.00  0.00    -0.249 OA
ATOM     13  N   UNL A   1      31.767  24.699  22.019  1.00  0.00    -0.335 N 
ATOM     14  H   UNL A   1      31.498  24.074  21.308  1.00  0.00     0.165 HD
BRANCH  13  15
ATOM     15  C   UNL A   1      31.187  24.419  23.305  1.00  0.00     0.152 C 
BRANCH  15  16
ATOM     16  C   UNL A   1      31.332  22.996  23.875  1.00  0.00     0.163 C 
ATOM     17  C   UNL A   1      32.150  22.127  22.903  1.00  0.00     0.194 C 
ATOM     18  O   UNL A   1      31.893  22.946  25.195  1.00  0.00    -0.372 OA
ATOM     19  O   UNL A   1      33.520  22.551  22.877  1.00  0.00    -0.376 OA
ATOM     20  C   UNL A   1      33.285  23.281  25.209  1.00  0.00     0.189 C 
ATOM     21  C   UNL A   1      34.087  22.469  24.191  1.00  0.00     0.188 C 
ENDBRANCH  15  16
ENDBRANCH  13  15
ENDBRANCH   5   9
ENDBRANCH   3   5
ENDBRANCH   2   3
ENDBRANCH   1   2
BRANCH   1  22
ATOM     22  C   UNL A   1      31.856  29.876  26.707  1.00  0.00     0.275 C 
BRANCH  22  23
ATOM     23  O   UNL A   1      33.224  30.261  26.495  1.00  0.00    -0.458 OA
BRANCH  23  24
ATOM     24  C   UNL A   1      33.619  31.357  27.191  1.00  0.00     0.338 C 
ATOM     25  O   UNL A   1      32.945  32.290  27.574  1.00  0.00    -0.246 OA
BRANCH  24  26
ATOM     26  C   UNL A   1      34.921  30.977  27.750  1.00  0.00     0.060 A 
ATOM     27  C   UNL A   1      35.821  32.024  27.931  1.00  0.00     0.016 A 
ATOM     28  C   UNL A   1      35.217  29.703  28.205  1.00  0.00     0.016 A 
ATOM     29  C   UNL A   1      37.022  31.843  28.587  1.00  0.00     0.010 A 
ATOM     30  C   UNL A   1      36.422  29.510  28.885  1.00  0.00     0.010 A 
ATOM     31  C   UNL A   1      37.314  30.585  29.095  1.00  0.00    -0.014 A 
BRANCH  31  32
ATOM     32  C   UNL A   1      38.578  30.373  29.821  1.00  0.00     0.031 A 
ATOM     33  C   UNL A   1      39.587  29.462  29.211  1.00  0.00     0.074 A 
ATOM     34  C   UNL A   1      38.786  30.966  31.010  1.00  0.00     0.049 A 
ATOM     35  N   UNL A   1      40.579  28.832  29.774  1.00  0.00    -0.248 NA
ATOM     36  C   UNL A   1      39.443  29.207  27.767  1.00  0.00     0.031 C 
ATOM     37  C   UNL A   1      37.911  31.965  31.629  1.00  0.00     0.029 A 
ATOM     38  N   UNL A   1      39.789  30.789  31.929  1.00  0.00    -0.354 N 
ATOM     39  C   UNL A   1      41.127  28.043  28.775  1.00  0.00     0.074 A 
ATOM     40  C   UNL A   1      40.383  28.297  27.562  1.00  0.00     0.031 C 
ATOM     41  C   UNL A   1      38.398  32.289  32.838  1.00  0.00     0.029 A 
ATOM     42  C   UNL A   1      39.559  31.451  33.111  1.00  0.00     0.049 A 
ATOM     43  H   UNL A   1      40.591  30.245  31.758  1.00  0.00     0.167 HD
ATOM     44  C   UNL A   1      42.148  27.166  28.895  1.00  0.00     0.037 A 
ATOM     45  C   UNL A   1      40.167  31.320  34.305  1.00  0.00     0.037 A 
ATOM     46  C   UNL A   1      42.886  26.984  30.115  1.00  0.00     0.049 A 
ATOM     47  C   UNL A   1      41.270  30.299  34.425  1.00  0.00     0.074 A 
ATOM     48  C   UNL A   1      43.955  26.146  30.365  1.00  0.00     0.029 A 
ATOM     49  N   UNL A   1      42.625  27.671  31.295  1.00  0.00    -0.354 N 
ATOM     50  N   UNL A   1      41.757  29.499  33.506  1.00  0.00    -0.248 NA
ATOM     51  C   UNL A   1      41.884  30.140  35.749  1.00  0.00     0.031 C 
ATOM     52  C   UNL A   1      44.317  26.298  31.708  1.00  0.00     0.029 A 
ATOM     53  C   UNL A   1      43.500  27.260  32.283  1.00  0.00     0.049 A 
ATOM     54  H   UNL A   1      41.921  28.350  31.409  1.00  0.00     0.167 HD
ATOM     55  C   UNL A   1      42.737  28.745  34.136  1.00  0.00     0.074 A 
ATOM     56  C   UNL A   1      42.792  29.206  35.510  1.00  0.00     0.031 C 
ATOM     57  C   UNL A   1      43.516  27.755  33.636  1.00  0.00     0.037 A 
BRANCH  44  58
ATOM     58  C   UNL A   1      42.475  26.306  27.714  1.00  0.00     0.064 A 
ATOM     59  C   UNL A   1      43.487  26.638  26.803  1.00  0.00     0.173 A 
ATOM     60  C   UNL A   1      41.771  25.109  27.506  1.00  0.00     0.173 A 
ATOM     61  F   UNL A   1      44.171  27.784  26.942  1.00  0.00    -0.203 F 
ATOM     62  C   UNL A   1      43.777  25.808  25.722  1.00  0.00     0.198 A 
ATOM     63  C   UNL A   1      42.079  24.270  26.441  1.00  0.00     0.198 A 
ATOM     64  F   UNL A   1      40.785  24.751  28.343  1.00  0.00    -0.203 F 
ATOM     65  F   UNL A   1      44.725  26.162  24.844  1.00  0.00    -0.200 F 
ATOM     66  C   UNL A   1      43.081  24.621  25.547  1.00  0.00     0.200 A 
ATOM     67  F   UNL A   1      41.408  23.122  26.277  1.00  0.00    -0.200 F 
ATOM     68  F   UNL A   1      43.368  23.818  24.513  1.00  0.00    -0.200 F 
ENDBRANCH  44  58
BRANCH  45  69
ATOM     69  C   UNL A   1      39.689  32.085  35.488  1.00  0.00     0.064 A 
ATOM     70  C   UNL A   1      38.701  31.569  36.336  1.00  0.00     0.173 A 
ATOM     71  C   UNL A   1      40.198  33.360  35.788  1.00  0.00     0.173 A 
ATOM     72  F   UNL A   1      38.162  30.367  36.080  1.00  0.00    -0.203 F 
ATOM     73  C   UNL A   1      38.226  32.301  37.423  1.00  0.00     0.198 A 
ATOM     74  C   UNL A   1      39.748  34.078  36.895  1.00  0.00     0.198 A 
ATOM     75  F   UNL A   1      41.142  33.908  35.009  1.00  0.00    -0.203 F 
ATOM     76  F   UNL A   1      37.243  31.803  38.185  1.00  0.00    -0.200 F 
ATOM     77  C   UNL A   1      38.755  33.552  37.706  1.00  0.00     0.200 A 
ATOM     78  F   UNL A   1      40.272  35.279  37.171  1.00  0.00    -0.200 F 
ATOM     79  F   UNL A   1      38.300  34.253  38.753  1.00  0.00    -0.200 F 
ENDBRANCH  45  69
BRANCH  57  80
ATOM     80  C   UNL A   1      44.496  27.128  34.578  1.00  0.00     0.064 A 
ATOM     81  C   UNL A   1      45.758  27.698  34.799  1.00  0.00     0.173 A 
ATOM     82  C   UNL A   1      44.149  25.979  35.302  1.00  0.00     0.173 A 
ATOM     83  F   UNL A   1      46.138  28.786  34.114  1.00  0.00    -0.203 F 
ATOM     84  C   UNL A   1      46.646  27.126  35.703  1.00  0.00     0.198 A 
ATOM     85  C   UNL A   1      45.029  25.427  36.226  1.00  0.00     0.198 A 
ATOM     86  F   UNL A   1      42.949  25.405  35.125  1.00  0.00    -0.203 F 
ATOM     87  F   UNL A   1      47.863  27.660  35.873  1.00  0.00    -0.200 F 
ATOM     88  C   UNL A   1      46.278  25.997  36.422  1.00  0.00     0.200 A 
ATOM     89  F   UNL A   1      44.667  24.346  36.929  1.00  0.00    -0.200 F 
ATOM     90  F   UNL A   1      47.131  25.455  37.301  1.00  0.00    -0.200 F 
ENDBRANCH  57  80
ENDBRANCH  31  32
ENDBRANCH  24  26
ENDBRANCH  23  24
ENDBRANCH  22  23
ENDBRANCH   1  22
TORSDOF 15
ENDMDL
MODEL 2
REMARK VINA RESULT:     -11.4      0.137      1.988
REMARK SMILES CC[C@](C)(NC(=O)NC[C@H]1COCCO1)C(=O)OCCOC(=O)c1ccc(-c2c3nc(c(-c4c(F)c(F)c(F)c(F)c4F)c4ccc([nH]4)c(-c4c(F)c(F)c(F)c(F)c4F)c4nc(c(-c5c(F)c(F)c(F)c(F)c5F)c5ccc2[nH]5)C=C4)C=C3)cc1
REMARK SMILES IDX 19 1 18 2 16 3 17 4 3 5 4 6 2 7 1 8 5 9 6 10 7 12 8 13 9 15
REMARK SMILES IDX 10 16 11 17 15 18 12 19 14 20 13 21 20 22 21 23 22 24 23 25
REMARK SMILES IDX 24 26 25 27 86 28 26 29 85 30 27 31 28 32 29 33 79 34 30 35
REMARK SMILES IDX 84 36 78 37 80 38 31 39 83 40 77 41 76 42 32 44 64 45 44 46
REMARK SMILES IDX 63 47 45 48 48 49 62 50 81 51 46 52 47 53 61 55 82 56 49 57
REMARK SMILES IDX 33 58 34 59 42 60 35 61 36 62 40 63 43 64 37 65 38 66 41 67
REMARK SMILES IDX 39 68 65 69 66 70 74 71 67 72 68 73 72 74 75 75 69 76 70 77
REMARK SMILES IDX 73 78 71 79 50 80 51 81 59 82 52 83 53 84 57 85 60 86 54 87
REMARK SMILES IDX 55 88 58 89 56 90
REMARK H PARENT 5 11 8 14 80 43 48 54
REMARK Flexibility Score: inf
ROOT
ATOM      1  C   UNL A   1      31.766  28.318  26.825  1.00  0.00     0.274 C 
ENDROOT
BRANCH   1   2
ATOM      2  O   UNL A   1      31.458  27.689  25.556  1.00  0.00    -0.460 OA
BRANCH   2   3
ATOM      3  C   UNL A   1      32.519  27.379  24.754  1.00  0.00     0.331 C 
ATOM      4  O   UNL A   1      33.544  26.863  25.185  1.00  0.00    -0.249 OA
BRANCH   3   5
ATOM      5  C   UNL A   1      32.239  27.650  23.232  1.00  0.00     0.136 C 
ATOM      6  C   UNL A   1      32.919  29.035  22.967  1.00  0.00     0.047 C 
BRANCH   5   7
ATOM      7  C   UNL A   1      30.733  27.947  22.976  1.00  0.00     0.037 C 
ATOM      8  C   UNL A   1      30.331  29.385  22.750  1.00  0.00     0.007 C 
ENDBRANCH   5   7
BRANCH   5   9
ATOM      9  N   UNL A   1      32.843  26.732  22.222  1.00  0.00    -0.322 N 
ATOM     10  C   UNL A   1      32.568  25.581  21.600  1.00  0.00     0.315 C 
ATOM     11  H   UNL A   1      33.712  27.083  21.920  1.00  0.00     0.166 HD
ATOM     12  O   UNL A   1      33.140  25.386  20.524  1.00  0.00    -0.249 OA
ATOM     13  N   UNL A   1      31.743  24.630  22.045  1.00  0.00    -0.335 N 
ATOM     14  H   UNL A   1      31.463  23.981  21.359  1.00  0.00     0.165 HD
BRANCH  13  15
ATOM     15  C   UNL A   1      31.191  24.387  23.351  1.00  0.00     0.152 C 
BRANCH  15  16
ATOM     16  C   UNL A   1      31.391  22.995  23.979  1.00  0.00     0.163 C 
ATOM     17  C   UNL A   1      32.159  22.088  23.000  1.00  0.00     0.194 C 
ATOM     18  O   UNL A   1      32.034  23.016  25.261  1.00  0.00    -0.372 OA
ATOM     19  O   UNL A   1      33.518  22.525  22.867  1.00  0.00    -0.376 OA
ATOM     20  C   UNL A   1      33.420  23.367  25.171  1.00  0.00     0.189 C 
ATOM     21  C   UNL A   1      34.167  22.514  24.145  1.00  0.00     0.188 C 
ENDBRANCH  15  16
ENDBRANCH  13  15
ENDBRANCH   5   9
ENDBRANCH   3   5
ENDBRANCH   2   3
ENDBRANCH   1   2
BRANCH   1  22
ATOM     22  C   UNL A   1      31.848  29.844  26.653  1.00  0.00     0.275 C 
BRANCH  22  23
ATOM     23  O   UNL A   1      33.220  30.221  26.457  1.00  0.00    -0.458 OA
BRANCH  23  24
ATOM     24  C   UNL A   1      33.608  31.329  27.136  1.00  0.00     0.338 C 
ATOM     25  O   UNL A   1      32.927  32.267  27.500  1.00  0.00    -0.246 OA
BRANCH  24  26
ATOM     26  C   UNL A   1      34.907  30.963  27.711  1.00  0.00     0.060 A 
ATOM     27  C   UNL A   1      35.785  32.024  27.924  1.00  0.00     0.016 A 
ATOM     28  C   UNL A   1      35.219  29.687  28.148  1.00  0.00     0.016 A 
ATOM     29  C   UNL A   1      36.978  31.853  28.596  1.00  0.00     0.010 A 
ATOM     30  C   UNL A   1      36.416  29.504  28.845  1.00  0.00     0.010 A 
ATOM     31  C   UNL A   1      37.284  30.591  29.088  1.00  0.00    -0.014 A 
BRANCH  31  32
ATOM     32  C   UNL A   1      38.541  30.389  29.831  1.00  0.00     0.031 A 
ATOM     33  C   UNL A   1      39.569  29.494  29.229  1.00  0.00     0.074 A 
ATOM     34  C   UNL A   1      38.724  30.976  31.027  1.00  0.00     0.049 A 
ATOM     35  N   UNL A   1      40.560  28.872  29.803  1.00  0.00    -0.248 NA
ATOM     36  C   UNL A   1      39.449  29.247  27.782  1.00  0.00     0.031 C 
ATOM     37  C   UNL A   1      37.828  31.961  31.639  1.00  0.00     0.029 A 
ATOM     38  N   UNL A   1      39.716  30.805  31.958  1.00  0.00    -0.354 N 
ATOM     39  C   UNL A   1      41.132  28.096  28.806  1.00  0.00     0.074 A 
ATOM     40  C   UNL A   1      40.403  28.350  27.584  1.00  0.00     0.031 C 
ATOM     41  C   UNL A   1      38.294  32.282  32.857  1.00  0.00     0.029 A 
ATOM     42  C   UNL A   1      39.461  31.456  33.142  1.00  0.00     0.049 A 
ATOM     43  H   UNL A   1      40.527  30.272  31.796  1.00  0.00     0.167 HD
ATOM     44  C   UNL A   1      42.162  27.231  28.935  1.00  0.00     0.037 A 
ATOM     45  C   UNL A   1      40.053  31.323  34.343  1.00  0.00     0.037 A 
ATOM     46  C   UNL A   1      42.884  27.049  30.165  1.00  0.00     0.049 A 
ATOM     47  C   UNL A   1      41.166  30.315  34.473  1.00  0.00     0.074 A 
ATOM     48  C   UNL A   1      43.959  26.223  30.424  1.00  0.00     0.029 A 
ATOM     49  N   UNL A   1      42.598  27.725  31.345  1.00  0.00    -0.354 N 
ATOM     50  N   UNL A   1      41.676  29.527  33.556  1.00  0.00    -0.248 NA
ATOM     51  C   UNL A   1      41.762  30.155  35.804  1.00  0.00     0.031 C 
ATOM     52  C   UNL A   1      44.300  26.369  31.773  1.00  0.00     0.029 A 
ATOM     53  C   UNL A   1      43.463  27.318  32.343  1.00  0.00     0.049 A 
ATOM     54  H   UNL A   1      41.884  28.395  31.453  1.00  0.00     0.167 HD
ATOM     55  C   UNL A   1      42.655  28.781  34.195  1.00  0.00     0.074 A 
ATOM     56  C   UNL A   1      42.685  29.232  35.572  1.00  0.00     0.031 C 
ATOM     57  C   UNL A   1      43.453  27.803  33.700  1.00  0.00     0.037 A 
BRANCH  44  58
ATOM     58  C   UNL A   1      42.515  26.383  27.753  1.00  0.00     0.064 A 
ATOM     59  C   UNL A   1      41.869  25.170  27.482  1.00  0.00     0.173 A 
ATOM     60  C   UNL A   1      43.509  26.813  26.859  1.00  0.00     0.173 A 
ATOM     61  F   UNL A   1      40.931  24.702  28.319  1.00  0.00    -0.203 F 
ATOM     62  C   UNL A   1      42.212  24.412  26.363  1.00  0.00     0.198 A 
ATOM     63  C   UNL A   1      43.832  26.067  25.730  1.00  0.00     0.198 A 
ATOM     64  F   UNL A   1      44.166  27.962  27.080  1.00  0.00    -0.203 F 
ATOM     65  F   UNL A   1      41.606  23.237  26.142  1.00  0.00    -0.200 F 
ATOM     66  C   UNL A   1      43.185  24.864  25.485  1.00  0.00     0.200 A 
ATOM     67  F   UNL A   1      44.769  26.509  24.880  1.00  0.00    -0.200 F 
ATOM     68  F   UNL A   1      43.505  24.140  24.404  1.00  0.00    -0.200 F 
ENDBRANCH  44  58
BRANCH  45  69
ATOM     69  C   UNL A   1      39.548  32.075  35.524  1.00  0.00     0.064 A 
ATOM     70  C   UNL A   1      40.037  33.351  35.835  1.00  0.00     0.173 A 
ATOM     71  C   UNL A   1      38.577  31.528  36.379  1.00  0.00     0.173 A 
ATOM     72  F   UNL A   1      40.985  33.909  35.067  1.00  0.00    -0.203 F 
ATOM     73  C   UNL A   1      39.592  34.041  36.963  1.00  0.00     0.198 A 
ATOM     74  C   UNL A   1      38.107  32.232  37.486  1.00  0.00     0.198 A 
ATOM     75  F   UNL A   1      38.075  30.309  36.135  1.00  0.00    -0.203 F 
ATOM     76  F   UNL A   1      40.117  35.236  37.264  1.00  0.00    -0.200 F 
ATOM     77  C   UNL A   1      38.622  33.484  37.783  1.00  0.00     0.200 A 
ATOM     78  F   UNL A   1      37.160  31.695  38.267  1.00  0.00    -0.200 F 
ATOM     79  F   UNL A   1      38.192  34.150  38.863  1.00  0.00    -0.200 F 
ENDBRANCH  45  69
BRANCH  57  80
ATOM     80  C   UNL A   1      44.427  27.182  34.652  1.00  0.00     0.064 A 
ATOM     81  C   UNL A   1      44.117  26.003  35.344  1.00  0.00     0.173 A 
ATOM     82  C   UNL A   1      45.699  27.744  34.831  1.00  0.00     0.173 A 
ATOM     83  F   UNL A   1      42.905  25.443  35.215  1.00  0.00    -0.203 F 
ATOM     84  C   UNL A   1      45.044  25.417  36.198  1.00  0.00     0.198 A 
ATOM     85  C   UNL A   1      46.633  27.138  35.665  1.00  0.00     0.198 A 
ATOM     86  F   UNL A   1      46.040  28.868  34.184  1.00  0.00    -0.203 F 
ATOM     87  F   UNL A   1      44.717  24.312  36.882  1.00  0.00    -0.200 F 
ATOM     88  C   UNL A   1      46.304  25.979  36.350  1.00  0.00     0.200 A 
ATOM     89  F   UNL A   1      47.853  27.675  35.800  1.00  0.00    -0.200 F 
ATOM     90  F   UNL A   1      47.199  25.405  37.165  1.00  0.00    -0.200 F 
ENDBRANCH  57  80
ENDBRANCH  31  32
ENDBRANCH  24  26
ENDBRANCH  23  24
ENDBRANCH  22  23
ENDBRANCH   1  22
TORSDOF 15
ENDMDL
MODEL 3
REMARK VINA RESULT:     -11.3      0.962      1.841
REMARK SMILES CC[C@](C)(NC(=O)NC[C@H]1COCCO1)C(=O)OCCOC(=O)c1ccc(-c2c3nc(c(-c4c(F)c(F)c(F)c(F)c4F)c4ccc([nH]4)c(-c4c(F)c(F)c(F)c(F)c4F)c4nc(c(-c5c(F)c(F)c(F)c(F)c5F)c5ccc2[nH]5)C=C4)C=C3)cc1
REMARK SMILES IDX 19 1 18 2 16 3 17 4 3 5 4 6 2 7 1 8 5 9 6 10 7 12 8 13 9 15
REMARK SMILES IDX 10 16 11 17 15 18 12 19 14 20 13 21 20 22 21 23 22 24 23 25
REMARK SMILES IDX 24 26 25 27 86 28 26 29 85 30 27 31 28 32 29 33 79 34 30 35
REMARK SMILES IDX 84 36 78 37 80 38 31 39 83 40 77 41 76 42 32 44 64 45 44 46
REMARK SMILES IDX 63 47 45 48 48 49 62 50 81 51 46 52 47 53 61 55 82 56 49 57
REMARK SMILES IDX 33 58 34 59 42 60 35 61 36 62 40 63 43 64 37 65 38 66 41 67
REMARK SMILES IDX 39 68 65 69 66 70 74 71 67 72 68 73 72 74 75 75 69 76 70 77
REMARK SMILES IDX 73 78 71 79 50 80 51 81 59 82 52 83 53 84 57 85 60 86 54 87
REMARK SMILES IDX 55 88 58 89 56 90
REMARK H PARENT 5 11 8 14 80 43 48 54
REMARK Flexibility Score: inf
ROOT
ATOM      1  C   UNL A   1      31.947  28.501  27.067  1.00  0.00     0.274 C 
ENDROOT
BRANCH   1   2
ATOM      2  O   UNL A   1      31.832  27.845  25.780  1.00  0.00    -0.460 OA
BRANCH   2   3
ATOM      3  C   UNL A   1      31.162  26.655  25.758  1.00  0.00     0.331 C 
ATOM      4  O   UNL A   1      30.571  26.211  26.737  1.00  0.00    -0.249 OA
BRANCH   3   5
ATOM      5  C   UNL A   1      31.139  25.988  24.336  1.00  0.00     0.136 C 
ATOM      6  C   UNL A   1      29.843  26.564  23.672  1.00  0.00     0.047 C 
BRANCH   5   7
ATOM      7  C   UNL A   1      30.835  24.464  24.428  1.00  0.00     0.037 C 
ATOM      8  C   UNL A   1      30.562  23.725  23.140  1.00  0.00     0.007 C 
ENDBRANCH   5   7
BRANCH   5   9
ATOM      9  N   UNL A   1      32.235  26.317  23.377  1.00  0.00    -0.322 N 
ATOM     10  C   UNL A   1      33.411  25.830  22.970  1.00  0.00     0.315 C 
ATOM     11  H   UNL A   1      32.026  27.150  22.895  1.00  0.00     0.166 HD
ATOM     12  O   UNL A   1      33.798  26.185  21.853  1.00  0.00    -0.249 OA
ATOM     13  N   UNL A   1      34.200  25.009  23.667  1.00  0.00    -0.335 N 
ATOM     14  H   UNL A   1      34.888  24.553  23.129  1.00  0.00     0.165 HD
BRANCH  13  15
ATOM     15  C   UNL A   1      34.221  24.671  25.065  1.00  0.00     0.152 C 
BRANCH  15  16
ATOM     16  C   UNL A   1      34.630  23.240  25.461  1.00  0.00     0.163 C 
ATOM     17  C   UNL A   1      34.712  22.355  24.205  1.00  0.00     0.194 C 
ATOM     18  O   UNL A   1      35.848  23.165  26.215  1.00  0.00    -0.372 OA
ATOM     19  O   UNL A   1      35.826  22.739  23.388  1.00  0.00    -0.376 OA
ATOM     20  C   UNL A   1      37.001  23.460  25.419  1.00  0.00     0.189 C 
ATOM     21  C   UNL A   1      37.045  22.632  24.135  1.00  0.00     0.188 C 
ENDBRANCH  15  16
ENDBRANCH  13  15
ENDBRANCH   5   9
ENDBRANCH   3   5
ENDBRANCH   2   3
ENDBRANCH   1   2
BRANCH   1  22
ATOM     22  C   UNL A   1      31.897  30.028  26.888  1.00  0.00     0.275 C 
BRANCH  22  23
ATOM     23  O   UNL A   1      33.206  30.502  26.536  1.00  0.00    -0.458 OA
BRANCH  23  24
ATOM     24  C   UNL A   1      33.623  31.589  27.233  1.00  0.00     0.338 C 
ATOM     25  O   UNL A   1      32.968  32.539  27.612  1.00  0.00    -0.246 OA
BRANCH  24  26
ATOM     26  C   UNL A   1      34.911  31.179  27.801  1.00  0.00     0.060 A 
ATOM     27  C   UNL A   1      35.839  32.203  27.977  1.00  0.00     0.016 A 
ATOM     28  C   UNL A   1      35.172  29.901  28.267  1.00  0.00     0.016 A 
ATOM     29  C   UNL A   1      37.032  31.995  28.639  1.00  0.00     0.010 A 
ATOM     30  C   UNL A   1      36.368  29.682  28.954  1.00  0.00     0.010 A 
ATOM     31  C   UNL A   1      37.288  30.734  29.159  1.00  0.00    -0.014 A 
BRANCH  31  32
ATOM     32  C   UNL A   1      38.543  30.494  29.892  1.00  0.00     0.031 A 
ATOM     33  C   UNL A   1      39.545  29.579  29.276  1.00  0.00     0.074 A 
ATOM     34  C   UNL A   1      38.749  31.066  31.092  1.00  0.00     0.049 A 
ATOM     35  N   UNL A   1      40.523  28.927  29.838  1.00  0.00    -0.248 NA
ATOM     36  C   UNL A   1      39.409  29.347  27.828  1.00  0.00     0.031 C 
ATOM     37  C   UNL A   1      37.882  32.067  31.718  1.00  0.00     0.029 A 
ATOM     38  N   UNL A   1      39.742  30.862  32.015  1.00  0.00    -0.354 N 
ATOM     39  C   UNL A   1      41.069  28.145  28.831  1.00  0.00     0.074 A 
ATOM     40  C   UNL A   1      40.339  28.428  27.616  1.00  0.00     0.031 C 
ATOM     41  C   UNL A   1      38.364  32.367  32.936  1.00  0.00     0.029 A 
ATOM     42  C   UNL A   1      39.511  31.509  33.206  1.00  0.00     0.049 A 
ATOM     43  H   UNL A   1      40.538  30.310  31.843  1.00  0.00     0.167 HD
ATOM     44  C   UNL A   1      42.077  27.253  28.946  1.00  0.00     0.037 A 
ATOM     45  C   UNL A   1      40.107  31.351  34.402  1.00  0.00     0.037 A 
ATOM     46  C   UNL A   1      42.802  27.043  30.170  1.00  0.00     0.049 A 
ATOM     47  C   UNL A   1      41.195  30.314  34.516  1.00  0.00     0.074 A 
ATOM     48  C   UNL A   1      43.858  26.187  30.415  1.00  0.00     0.029 A 
ATOM     49  N   UNL A   1      42.541  27.716  31.357  1.00  0.00    -0.354 N 
ATOM     50  N   UNL A   1      41.679  29.521  33.589  1.00  0.00    -0.248 NA
ATOM     51  C   UNL A   1      41.796  30.127  35.842  1.00  0.00     0.031 C 
ATOM     52  C   UNL A   1      44.211  26.313  31.763  1.00  0.00     0.029 A 
ATOM     53  C   UNL A   1      43.402  27.278  32.346  1.00  0.00     0.049 A 
ATOM     54  H   UNL A   1      41.846  28.402  31.476  1.00  0.00     0.167 HD
ATOM     55  C   UNL A   1      42.643  28.745  34.215  1.00  0.00     0.074 A 
ATOM     56  C   UNL A   1      42.693  29.184  35.596  1.00  0.00     0.031 C 
ATOM     57  C   UNL A   1      43.413  27.752  33.707  1.00  0.00     0.037 A 
BRANCH  44  58
ATOM     58  C   UNL A   1      42.402  26.407  27.755  1.00  0.00     0.064 A 
ATOM     59  C   UNL A   1      43.414  26.749  26.847  1.00  0.00     0.173 A 
ATOM     60  C   UNL A   1      41.698  25.213  27.534  1.00  0.00     0.173 A 
ATOM     61  F   UNL A   1      44.098  27.894  26.998  1.00  0.00    -0.203 F 
ATOM     62  C   UNL A   1      43.702  25.931  25.756  1.00  0.00     0.198 A 
ATOM     63  C   UNL A   1      42.005  24.386  26.459  1.00  0.00     0.198 A 
ATOM     64  F   UNL A   1      40.713  24.845  28.368  1.00  0.00    -0.203 F 
ATOM     65  F   UNL A   1      44.649  26.295  24.881  1.00  0.00    -0.200 F 
ATOM     66  C   UNL A   1      43.005  24.747  25.568  1.00  0.00     0.200 A 
ATOM     67  F   UNL A   1      41.333  23.240  26.283  1.00  0.00    -0.200 F 
ATOM     68  F   UNL A   1      43.291  23.956  24.525  1.00  0.00    -0.200 F 
ENDBRANCH  44  58
BRANCH  45  69
ATOM     69  C   UNL A   1      39.629  32.106  35.593  1.00  0.00     0.064 A 
ATOM     70  C   UNL A   1      38.633  31.586  36.430  1.00  0.00     0.173 A 
ATOM     71  C   UNL A   1      40.147  33.372  35.911  1.00  0.00     0.173 A 
ATOM     72  F   UNL A   1      38.087  30.392  36.156  1.00  0.00    -0.203 F 
ATOM     73  C   UNL A   1      38.159  32.308  37.524  1.00  0.00     0.198 A 
ATOM     74  C   UNL A   1      39.697  34.079  37.026  1.00  0.00     0.198 A 
ATOM     75  F   UNL A   1      41.098  33.923  35.145  1.00  0.00    -0.203 F 
ATOM     76  F   UNL A   1      37.169  31.808  38.275  1.00  0.00    -0.200 F 
ATOM     77  C   UNL A   1      38.696  33.551  37.825  1.00  0.00     0.200 A 
ATOM     78  F   UNL A   1      40.229  35.273  37.320  1.00  0.00    -0.200 F 
ATOM     79  F   UNL A   1      38.242  34.242  38.880  1.00  0.00    -0.200 F 
ENDBRANCH  45  69
BRANCH  57  80
ATOM     80  C   UNL A   1      44.377  27.098  34.647  1.00  0.00     0.064 A 
ATOM     81  C   UNL A   1      44.046  25.914  35.321  1.00  0.00     0.173 A 
ATOM     82  C   UNL A   1      45.659  27.634  34.833  1.00  0.00     0.173 A 
ATOM     83  F   UNL A   1      42.825  25.379  35.186  1.00  0.00    -0.203 F 
ATOM     84  C   UNL A   1      44.964  25.298  36.165  1.00  0.00     0.198 A 
ATOM     85  C   UNL A   1      46.584  26.998  35.655  1.00  0.00     0.198 A 
ATOM     86  F   UNL A   1      46.019  28.762  34.203  1.00  0.00    -0.203 F 
ATOM     87  F   UNL A   1      44.617  24.189  36.832  1.00  0.00    -0.200 F 
ATOM     88  C   UNL A   1      46.234  25.834  36.323  1.00  0.00     0.200 A 
ATOM     89  F   UNL A   1      47.813  27.510  35.797  1.00  0.00    -0.200 F 
ATOM     90  F   UNL A   1      47.120  25.232  37.127  1.00  0.00    -0.200 F 
ENDBRANCH  57  80
ENDBRANCH  31  32
ENDBRANCH  24  26
ENDBRANCH  23  24
ENDBRANCH  22  23
ENDBRANCH   1  22
TORSDOF 15
ENDMDL
