MODEL 1
REMARK VINA RESULT:     -12.9      0.000      0.000
REMARK SMILES C[C@]1(Cn2c(=O)[nH]c3cc(C(=O)OCCOC(=O)c4ccc(-c5c6nc(c(-c7c(F)c(F)c(F)c(F)c7F)c7ccc([nH]7)c(-c7c(F)c(F)c(F)c(F)c7F)c7nc(c(-c8c(F)c(F)c(F)c(F)c8F)c8ccc5[nH]8)C=C7)C=C6)cc4)ccc32)CCCO1
REMARK SMILES IDX 14 1 13 2 11 3 12 4 10 5 4 6 5 7 84 8 6 9 7 10 8 11 83 12
REMARK SMILES IDX 9 14 82 15 3 16 2 17 1 18 85 19 88 20 86 21 87 22 15 23
REMARK SMILES IDX 16 24 17 25 18 26 19 27 20 28 81 29 21 30 80 31 22 32 23 33
REMARK SMILES IDX 24 34 74 35 25 36 79 37 73 38 75 39 26 40 78 41 72 42 71 43
REMARK SMILES IDX 27 45 59 46 39 47 58 48 40 49 43 50 57 51 76 52 41 53 42 54
REMARK SMILES IDX 56 56 77 57 44 58 28 59 29 60 37 61 30 62 31 63 35 64 38 65
REMARK SMILES IDX 32 66 33 67 36 68 34 69 60 70 61 71 69 72 62 73 63 74 67 75
REMARK SMILES IDX 70 76 64 77 65 78 68 79 66 80 45 81 46 82 54 83 47 84 48 85
REMARK SMILES IDX 52 86 55 87 49 88 50 89 53 90 51 91
REMARK H PARENT 7 13 75 44 43 55
REMARK Flexibility Score: inf
ROOT
ATOM      1  C   UNL A   1      42.725  18.528  26.354  1.00  0.00     0.275 C 
ENDROOT
BRANCH   1   2
ATOM      2  O   UNL A   1      41.629  19.224  25.713  1.00  0.00    -0.458 OA
BRANCH   2   3
ATOM      3  C   UNL A   1      41.281  20.417  26.251  1.00  0.00     0.338 C 
ATOM      4  O   UNL A   1      42.023  21.226  26.780  1.00  0.00    -0.246 OA
BRANCH   3   5
ATOM      5  C   UNL A   1      39.871  20.725  25.915  1.00  0.00     0.062 A 
ATOM      6  N   UNL A   1      36.028  22.207  25.470  1.00  0.00    -0.289 N 
ATOM      7  C   UNL A   1      36.277  23.602  25.629  1.00  0.00     0.326 A 
ATOM      8  C   UNL A   1      37.271  21.539  25.409  1.00  0.00     0.069 A 
ATOM      9  O   UNL A   1      35.497  24.512  25.695  1.00  0.00    -0.248 OA
ATOM     10  N   UNL A   1      37.639  23.693  25.935  1.00  0.00    -0.306 N 
ATOM     11  C   UNL A   1      38.221  22.440  25.849  1.00  0.00     0.067 A 
ATOM     12  C   UNL A   1      37.616  20.227  25.133  1.00  0.00     0.029 A 
ATOM     13  H   UNL A   1      38.112  24.521  26.176  1.00  0.00     0.171 HD
ATOM     14  C   UNL A   1      39.460  22.012  26.234  1.00  0.00     0.044 A 
ATOM     15  C   UNL A   1      38.960  19.834  25.329  1.00  0.00     0.018 A 
BRANCH   6  16
ATOM     16  C   UNL A   1      34.922  21.672  26.247  1.00  0.00     0.162 C 
BRANCH  16  17
ATOM     17  C   UNL A   1      33.600  21.481  25.419  1.00  0.00     0.083 C 
ATOM     18  C   UNL A   1      32.381  22.114  26.127  1.00  0.00     0.044 C 
ATOM     19  C   UNL A   1      33.679  21.914  23.945  1.00  0.00     0.039 C 
ATOM     20  O   UNL A   1      33.330  20.065  25.300  1.00  0.00    -0.373 OA
ATOM     21  C   UNL A   1      32.561  21.142  23.305  1.00  0.00     0.031 C 
ATOM     22  C   UNL A   1      32.509  19.872  24.134  1.00  0.00     0.161 C 
ENDBRANCH  16  17
ENDBRANCH   6  16
ENDBRANCH   3   5
ENDBRANCH   2   3
ENDBRANCH   1   2
BRANCH   1  23
ATOM     23  C   UNL A   1      43.906  18.396  25.386  1.00  0.00     0.275 C 
BRANCH  23  24
ATOM     24  O   UNL A   1      44.694  19.595  25.472  1.00  0.00    -0.458 OA
BRANCH  24  25
ATOM     25  C   UNL A   1      44.807  20.335  24.346  1.00  0.00     0.338 C 
ATOM     26  O   UNL A   1      44.565  19.979  23.206  1.00  0.00    -0.246 OA
BRANCH  25  27
ATOM     27  C   UNL A   1      44.932  21.749  24.776  1.00  0.00     0.060 A 
ATOM     28  C   UNL A   1      45.613  22.125  25.945  1.00  0.00     0.016 A 
ATOM     29  C   UNL A   1      44.117  22.669  24.140  1.00  0.00     0.016 A 
ATOM     30  C   UNL A   1      45.237  23.285  26.636  1.00  0.00     0.010 A 
ATOM     31  C   UNL A   1      43.832  23.859  24.796  1.00  0.00     0.010 A 
ATOM     32  C   UNL A   1      44.220  24.089  26.131  1.00  0.00    -0.014 A 
BRANCH  32  33
ATOM     33  C   UNL A   1      43.687  25.274  26.860  1.00  0.00     0.031 A 
ATOM     34  C   UNL A   1      44.549  26.436  26.567  1.00  0.00     0.074 A 
ATOM     35  C   UNL A   1      42.556  25.492  27.593  1.00  0.00     0.049 A 
ATOM     36  N   UNL A   1      45.664  26.704  27.161  1.00  0.00    -0.248 NA
ATOM     37  C   UNL A   1      44.323  27.204  25.331  1.00  0.00     0.031 C 
ATOM     38  C   UNL A   1      41.373  24.646  27.779  1.00  0.00     0.029 A 
ATOM     39  N   UNL A   1      42.209  26.612  28.337  1.00  0.00    -0.354 N 
ATOM     40  C   UNL A   1      46.131  27.832  26.511  1.00  0.00     0.074 A 
ATOM     41  C   UNL A   1      45.485  27.854  25.229  1.00  0.00     0.031 C 
ATOM     42  C   UNL A   1      40.388  25.334  28.420  1.00  0.00     0.029 A 
ATOM     43  C   UNL A   1      40.897  26.625  28.858  1.00  0.00     0.049 A 
ATOM     44  H   UNL A   1      42.839  27.352  28.492  1.00  0.00     0.167 HD
ATOM     45  C   UNL A   1      46.639  28.871  27.226  1.00  0.00     0.037 A 
ATOM     46  C   UNL A   1      40.308  27.611  29.611  1.00  0.00     0.037 A 
ATOM     47  C   UNL A   1      46.806  28.508  28.609  1.00  0.00     0.049 A 
ATOM     48  C   UNL A   1      41.433  28.348  30.230  1.00  0.00     0.074 A 
ATOM     49  C   UNL A   1      47.668  27.740  29.360  1.00  0.00     0.029 A 
ATOM     50  N   UNL A   1      45.670  28.679  29.352  1.00  0.00    -0.354 N 
ATOM     51  N   UNL A   1      42.141  27.874  31.214  1.00  0.00    -0.248 NA
ATOM     52  C   UNL A   1      41.933  29.579  29.622  1.00  0.00     0.031 C 
ATOM     53  C   UNL A   1      46.972  27.393  30.557  1.00  0.00     0.029 A 
ATOM     54  C   UNL A   1      45.709  27.975  30.523  1.00  0.00     0.049 A 
ATOM     55  H   UNL A   1      44.912  29.244  29.075  1.00  0.00     0.167 HD
ATOM     56  C   UNL A   1      43.363  28.480  31.056  1.00  0.00     0.074 A 
ATOM     57  C   UNL A   1      43.122  29.649  30.223  1.00  0.00     0.031 C 
ATOM     58  C   UNL A   1      44.503  27.776  31.287  1.00  0.00     0.037 A 
BRANCH  45  59
ATOM     59  C   UNL A   1      46.505  30.321  26.826  1.00  0.00     0.064 A 
ATOM     60  C   UNL A   1      47.658  31.127  26.831  1.00  0.00     0.173 A 
ATOM     61  C   UNL A   1      45.281  31.015  26.695  1.00  0.00     0.173 A 
ATOM     62  F   UNL A   1      48.869  30.579  27.010  1.00  0.00    -0.203 F 
ATOM     63  C   UNL A   1      47.584  32.519  26.726  1.00  0.00     0.198 A 
ATOM     64  C   UNL A   1      45.215  32.394  26.521  1.00  0.00     0.198 A 
ATOM     65  F   UNL A   1      44.095  30.417  26.853  1.00  0.00    -0.203 F 
ATOM     66  F   UNL A   1      48.698  33.253  26.841  1.00  0.00    -0.200 F 
ATOM     67  C   UNL A   1      46.364  33.150  26.560  1.00  0.00     0.200 A 
ATOM     68  F   UNL A   1      44.018  32.985  26.399  1.00  0.00    -0.200 F 
ATOM     69  F   UNL A   1      46.288  34.484  26.491  1.00  0.00    -0.200 F 
ENDBRANCH  45  59
BRANCH  46  70
ATOM     70  C   UNL A   1      38.916  28.093  29.944  1.00  0.00     0.064 A 
ATOM     71  C   UNL A   1      38.468  28.086  31.292  1.00  0.00     0.173 A 
ATOM     72  C   UNL A   1      38.125  28.851  29.074  1.00  0.00     0.173 A 
ATOM     73  F   UNL A   1      39.064  27.313  32.211  1.00  0.00    -0.203 F 
ATOM     74  C   UNL A   1      37.449  28.924  31.760  1.00  0.00     0.198 A 
ATOM     75  C   UNL A   1      37.101  29.696  29.546  1.00  0.00     0.198 A 
ATOM     76  F   UNL A   1      38.368  28.851  27.758  1.00  0.00    -0.203 F 
ATOM     77  F   UNL A   1      37.152  28.950  33.068  1.00  0.00    -0.200 F 
ATOM     78  C   UNL A   1      36.802  29.773  30.893  1.00  0.00     0.200 A 
ATOM     79  F   UNL A   1      36.447  30.497  28.692  1.00  0.00    -0.200 F 
ATOM     80  F   UNL A   1      35.914  30.667  31.348  1.00  0.00    -0.200 F 
ENDBRANCH  46  70
BRANCH  58  81
ATOM     81  C   UNL A   1      44.432  26.643  32.258  1.00  0.00     0.064 A 
ATOM     82  C   UNL A   1      44.383  26.784  33.654  1.00  0.00     0.173 A 
ATOM     83  C   UNL A   1      44.347  25.348  31.730  1.00  0.00     0.173 A 
ATOM     84  F   UNL A   1      44.406  27.995  34.229  1.00  0.00    -0.203 F 
ATOM     85  C   UNL A   1      44.270  25.666  34.482  1.00  0.00     0.198 A 
ATOM     86  C   UNL A   1      44.197  24.241  32.555  1.00  0.00     0.198 A 
ATOM     87  F   UNL A   1      44.376  25.163  30.401  1.00  0.00    -0.203 F 
ATOM     88  F   UNL A   1      44.239  25.816  35.814  1.00  0.00    -0.200 F 
ATOM     89  C   UNL A   1      44.164  24.398  33.930  1.00  0.00     0.200 A 
ATOM     90  F   UNL A   1      44.062  23.022  32.014  1.00  0.00    -0.200 F 
ATOM     91  F   UNL A   1      44.010  23.329  34.724  1.00  0.00    -0.200 F 
ENDBRANCH  58  81
ENDBRANCH  32  33
ENDBRANCH  25  27
ENDBRANCH  24  25
ENDBRANCH  23  24
ENDBRANCH   1  23
TORSDOF 13
ENDMDL
MODEL 2
REMARK VINA RESULT:     -12.4      4.995     10.919
REMARK SMILES C[C@]1(Cn2c(=O)[nH]c3cc(C(=O)OCCOC(=O)c4ccc(-c5c6nc(c(-c7c(F)c(F)c(F)c(F)c7F)c7ccc([nH]7)c(-c7c(F)c(F)c(F)c(F)c7F)c7nc(c(-c8c(F)c(F)c(F)c(F)c8F)c8ccc5[nH]8)C=C7)C=C6)cc4)ccc32)CCCO1
REMARK SMILES IDX 14 1 13 2 11 3 12 4 10 5 4 6 5 7 84 8 6 9 7 10 8 11 83 12
REMARK SMILES IDX 9 14 82 15 3 16 2 17 1 18 85 19 88 20 86 21 87 22 15 23
REMARK SMILES IDX 16 24 17 25 18 26 19 27 20 28 81 29 21 30 80 31 22 32 23 33
REMARK SMILES IDX 24 34 74 35 25 36 79 37 73 38 75 39 26 40 78 41 72 42 71 43
REMARK SMILES IDX 27 45 59 46 39 47 58 48 40 49 43 50 57 51 76 52 41 53 42 54
REMARK SMILES IDX 56 56 77 57 44 58 28 59 29 60 37 61 30 62 31 63 35 64 38 65
REMARK SMILES IDX 32 66 33 67 36 68 34 69 60 70 61 71 69 72 62 73 63 74 67 75
REMARK SMILES IDX 70 76 64 77 65 78 68 79 66 80 45 81 46 82 54 83 47 84 48 85
REMARK SMILES IDX 52 86 55 87 49 88 50 89 53 90 51 91
REMARK H PARENT 7 13 75 44 43 55
REMARK Flexibility Score: inf
ROOT
ATOM      1  C   UNL A   1      33.290  36.417  29.194  1.00  0.00     0.275 C 
ENDROOT
BRANCH   1   2
ATOM      2  O   UNL A   1      32.892  35.048  28.943  1.00  0.00    -0.458 OA
BRANCH   2   3
ATOM      3  C   UNL A   1      33.892  34.169  28.703  1.00  0.00     0.338 C 
ATOM      4  O   UNL A   1      35.033  34.222  29.131  1.00  0.00    -0.246 OA
BRANCH   3   5
ATOM      5  C   UNL A   1      33.354  32.976  28.007  1.00  0.00     0.062 A 
ATOM      6  N   UNL A   1      32.603  29.377  26.098  1.00  0.00    -0.289 N 
ATOM      7  C   UNL A   1      33.561  28.544  26.748  1.00  0.00     0.326 A 
ATOM      8  C   UNL A   1      32.583  30.626  26.757  1.00  0.00     0.069 A 
ATOM      9  O   UNL A   1      33.860  27.404  26.516  1.00  0.00    -0.248 OA
ATOM     10  N   UNL A   1      34.277  29.404  27.587  1.00  0.00    -0.306 N 
ATOM     11  C   UNL A   1      33.713  30.667  27.550  1.00  0.00     0.067 A 
ATOM     12  C   UNL A   1      31.766  31.737  26.634  1.00  0.00     0.029 A 
ATOM     13  H   UNL A   1      35.063  29.150  28.122  1.00  0.00     0.171 HD
ATOM     14  C   UNL A   1      34.171  31.855  28.048  1.00  0.00     0.044 A 
ATOM     15  C   UNL A   1      32.128  32.913  27.329  1.00  0.00     0.018 A 
BRANCH   6  16
ATOM     16  C   UNL A   1      32.570  29.288  24.649  1.00  0.00     0.162 C 
BRANCH  16  17
ATOM     17  C   UNL A   1      31.372  28.434  24.093  1.00  0.00     0.083 C 
ATOM     18  C   UNL A   1      30.238  29.325  23.538  1.00  0.00     0.044 C 
ATOM     19  C   UNL A   1      31.760  27.332  23.092  1.00  0.00     0.039 C 
ATOM     20  O   UNL A   1      30.810  27.665  25.181  1.00  0.00    -0.373 OA
ATOM     21  C   UNL A   1      30.601  26.380  23.172  1.00  0.00     0.031 C 
ATOM     22  C   UNL A   1      30.145  26.523  24.612  1.00  0.00     0.161 C 
ENDBRANCH  16  17
ENDBRANCH   6  16
ENDBRANCH   3   5
ENDBRANCH   2   3
ENDBRANCH   1   2
BRANCH   1  23
ATOM     23  C   UNL A   1      32.911  36.825  30.623  1.00  0.00     0.275 C 
BRANCH  23  24
ATOM     24  O   UNL A   1      33.871  36.249  31.524  1.00  0.00    -0.458 OA
BRANCH  24  25
ATOM     25  C   UNL A   1      33.427  35.272  32.347  1.00  0.00     0.338 C 
ATOM     26  O   UNL A   1      32.269  34.957  32.556  1.00  0.00    -0.246 OA
BRANCH  25  27
ATOM     27  C   UNL A   1      34.600  34.423  32.672  1.00  0.00     0.060 A 
ATOM     28  C   UNL A   1      35.901  34.940  32.772  1.00  0.00     0.016 A 
ATOM     29  C   UNL A   1      34.418  33.053  32.598  1.00  0.00     0.016 A 
ATOM     30  C   UNL A   1      37.006  34.127  32.483  1.00  0.00     0.010 A 
ATOM     31  C   UNL A   1      35.535  32.251  32.408  1.00  0.00     0.010 A 
ATOM     32  C   UNL A   1      36.810  32.792  32.144  1.00  0.00    -0.014 A 
BRANCH  32  33
ATOM     33  C   UNL A   1      37.918  31.895  31.715  1.00  0.00     0.031 A 
ATOM     34  C   UNL A   1      38.661  31.455  32.912  1.00  0.00     0.074 A 
ATOM     35  C   UNL A   1      38.267  31.344  30.514  1.00  0.00     0.049 A 
ATOM     36  N   UNL A   1      39.584  32.136  33.507  1.00  0.00    -0.248 NA
ATOM     37  C   UNL A   1      38.155  30.313  33.692  1.00  0.00     0.031 C 
ATOM     38  C   UNL A   1      37.546  31.328  29.239  1.00  0.00     0.029 A 
ATOM     39  N   UNL A   1      39.400  30.607  30.196  1.00  0.00    -0.354 N 
ATOM     40  C   UNL A   1      39.929  31.358  34.597  1.00  0.00     0.074 A 
ATOM     41  C   UNL A   1      38.811  30.489  34.841  1.00  0.00     0.031 C 
ATOM     42  C   UNL A   1      38.156  30.491  28.354  1.00  0.00     0.029 A 
ATOM     43  C   UNL A   1      39.415  30.019  28.913  1.00  0.00     0.049 A 
ATOM     44  H   UNL A   1      40.148  30.501  30.828  1.00  0.00     0.167 HD
ATOM     45  C   UNL A   1      41.237  31.170  34.916  1.00  0.00     0.037 A 
ATOM     46  C   UNL A   1      40.403  29.241  28.363  1.00  0.00     0.037 A 
ATOM     47  C   UNL A   1      42.083  32.040  34.140  1.00  0.00     0.049 A 
ATOM     48  C   UNL A   1      41.633  29.599  29.105  1.00  0.00     0.074 A 
ATOM     49  C   UNL A   1      42.414  33.377  34.117  1.00  0.00     0.029 A 
ATOM     50  N   UNL A   1      42.408  31.524  32.916  1.00  0.00    -0.354 N 
ATOM     51  N   UNL A   1      42.273  30.719  28.928  1.00  0.00    -0.248 NA
ATOM     52  C   UNL A   1      42.082  28.781  30.230  1.00  0.00     0.031 C 
ATOM     53  C   UNL A   1      42.884  33.660  32.798  1.00  0.00     0.029 A 
ATOM     54  C   UNL A   1      42.851  32.487  32.052  1.00  0.00     0.049 A 
ATOM     55  H   UNL A   1      42.331  30.570  32.683  1.00  0.00     0.167 HD
ATOM     56  C   UNL A   1      42.879  30.942  30.140  1.00  0.00     0.074 A 
ATOM     57  C   UNL A   1      42.910  29.650  30.811  1.00  0.00     0.031 C 
ATOM     58  C   UNL A   1      42.947  32.203  30.642  1.00  0.00     0.037 A 
BRANCH  45  59
ATOM     59  C   UNL A   1      41.791  29.899  35.515  1.00  0.00     0.064 A 
ATOM     60  C   UNL A   1      42.731  30.003  36.555  1.00  0.00     0.173 A 
ATOM     61  C   UNL A   1      41.647  28.610  34.953  1.00  0.00     0.173 A 
ATOM     62  F   UNL A   1      42.992  31.191  37.119  1.00  0.00    -0.203 F 
ATOM     63  C   UNL A   1      43.477  28.902  36.986  1.00  0.00     0.198 A 
ATOM     64  C   UNL A   1      42.340  27.502  35.430  1.00  0.00     0.198 A 
ATOM     65  F   UNL A   1      40.932  28.384  33.845  1.00  0.00    -0.203 F 
ATOM     66  F   UNL A   1      44.435  29.069  37.906  1.00  0.00    -0.200 F 
ATOM     67  C   UNL A   1      43.272  27.651  36.431  1.00  0.00     0.200 A 
ATOM     68  F   UNL A   1      42.150  26.309  34.851  1.00  0.00    -0.200 F 
ATOM     69  F   UNL A   1      44.008  26.602  36.820  1.00  0.00    -0.200 F 
ENDBRANCH  45  59
BRANCH  46  70
ATOM     70  C   UNL A   1      40.543  28.200  27.279  1.00  0.00     0.064 A 
ATOM     71  C   UNL A   1      41.491  28.385  26.237  1.00  0.00     0.173 A 
ATOM     72  C   UNL A   1      40.037  26.899  27.377  1.00  0.00     0.173 A 
ATOM     73  F   UNL A   1      41.973  29.603  25.955  1.00  0.00    -0.203 F 
ATOM     74  C   UNL A   1      42.032  27.323  25.502  1.00  0.00     0.198 A 
ATOM     75  C   UNL A   1      40.584  25.830  26.640  1.00  0.00     0.198 A 
ATOM     76  F   UNL A   1      39.054  26.615  28.241  1.00  0.00    -0.203 F 
ATOM     77  F   UNL A   1      43.007  27.555  24.611  1.00  0.00    -0.200 F 
ATOM     78  C   UNL A   1      41.617  26.035  25.745  1.00  0.00     0.200 A 
ATOM     79  F   UNL A   1      40.152  24.579  26.853  1.00  0.00    -0.200 F 
ATOM     80  F   UNL A   1      42.214  25.000  25.140  1.00  0.00    -0.200 F 
ENDBRANCH  46  70
BRANCH  58  81
ATOM     81  C   UNL A   1      42.948  33.336  29.669  1.00  0.00     0.064 A 
ATOM     82  C   UNL A   1      44.043  33.708  28.871  1.00  0.00     0.173 A 
ATOM     83  C   UNL A   1      41.749  34.039  29.497  1.00  0.00     0.173 A 
ATOM     84  F   UNL A   1      45.207  33.046  28.942  1.00  0.00    -0.203 F 
ATOM     85  C   UNL A   1      43.937  34.753  27.954  1.00  0.00     0.198 A 
ATOM     86  C   UNL A   1      41.635  35.055  28.556  1.00  0.00     0.198 A 
ATOM     87  F   UNL A   1      40.670  33.712  30.226  1.00  0.00    -0.203 F 
ATOM     88  F   UNL A   1      44.996  35.105  27.209  1.00  0.00    -0.200 F 
ATOM     89  C   UNL A   1      42.730  35.416  27.788  1.00  0.00     0.200 A 
ATOM     90  F   UNL A   1      40.457  35.668  28.379  1.00  0.00    -0.200 F 
ATOM     91  F   UNL A   1      42.615  36.390  26.875  1.00  0.00    -0.200 F 
ENDBRANCH  58  81
ENDBRANCH  32  33
ENDBRANCH  25  27
ENDBRANCH  24  25
ENDBRANCH  23  24
ENDBRANCH   1  23
TORSDOF 13
ENDMDL
MODEL 3
REMARK VINA RESULT:     -12.3      1.057      1.999
REMARK SMILES C[C@]1(Cn2c(=O)[nH]c3cc(C(=O)OCCOC(=O)c4ccc(-c5c6nc(c(-c7c(F)c(F)c(F)c(F)c7F)c7ccc([nH]7)c(-c7c(F)c(F)c(F)c(F)c7F)c7nc(c(-c8c(F)c(F)c(F)c(F)c8F)c8ccc5[nH]8)C=C7)C=C6)cc4)ccc32)CCCO1
REMARK SMILES IDX 14 1 13 2 11 3 12 4 10 5 4 6 5 7 84 8 6 9 7 10 8 11 83 12
REMARK SMILES IDX 9 14 82 15 3 16 2 17 1 18 85 19 88 20 86 21 87 22 15 23
REMARK SMILES IDX 16 24 17 25 18 26 19 27 20 28 81 29 21 30 80 31 22 32 23 33
REMARK SMILES IDX 24 34 74 35 25 36 79 37 73 38 75 39 26 40 78 41 72 42 71 43
REMARK SMILES IDX 27 45 59 46 39 47 58 48 40 49 43 50 57 51 76 52 41 53 42 54
REMARK SMILES IDX 56 56 77 57 44 58 28 59 29 60 37 61 30 62 31 63 35 64 38 65
REMARK SMILES IDX 32 66 33 67 36 68 34 69 60 70 61 71 69 72 62 73 63 74 67 75
REMARK SMILES IDX 70 76 64 77 65 78 68 79 66 80 45 81 46 82 54 83 47 84 48 85
REMARK SMILES IDX 52 86 55 87 49 88 50 89 53 90 51 91
REMARK H PARENT 7 13 75 44 43 55
REMARK Flexibility Score: inf
ROOT
ATOM      1  C   UNL A   1      41.820  19.302  26.511  1.00  0.00     0.275 C 
ENDROOT
BRANCH   1   2
ATOM      2  O   UNL A   1      40.797  20.096  25.864  1.00  0.00    -0.458 OA
BRANCH   2   3
ATOM      3  C   UNL A   1      40.544  21.307  26.412  1.00  0.00     0.338 C 
ATOM      4  O   UNL A   1      41.343  22.041  26.969  1.00  0.00    -0.246 OA
BRANCH   3   5
ATOM      5  C   UNL A   1      39.175  21.743  26.052  1.00  0.00     0.062 A 
ATOM      6  N   UNL A   1      35.297  22.254  24.686  1.00  0.00    -0.289 N 
ATOM      7  C   UNL A   1      34.837  20.904  24.728  1.00  0.00     0.326 A 
ATOM      8  C   UNL A   1      36.568  22.307  25.300  1.00  0.00     0.069 A 
ATOM      9  O   UNL A   1      33.799  20.442  24.340  1.00  0.00    -0.248 OA
ATOM     10  N   UNL A   1      35.954  20.154  25.109  1.00  0.00    -0.306 N 
ATOM     11  C   UNL A   1      37.007  21.002  25.404  1.00  0.00     0.067 A 
ATOM     12  C   UNL A   1      37.396  23.361  25.646  1.00  0.00     0.029 A 
ATOM     13  H   UNL A   1      35.987  19.172  25.159  1.00  0.00     0.171 HD
ATOM     14  C   UNL A   1      38.326  20.728  25.635  1.00  0.00     0.044 A 
ATOM     15  C   UNL A   1      38.703  23.064  26.094  1.00  0.00     0.018 A 
BRANCH   6  16
ATOM     16  C   UNL A   1      35.023  22.975  23.454  1.00  0.00     0.162 C 
BRANCH  16  17
ATOM     17  C   UNL A   1      34.006  24.161  23.627  1.00  0.00     0.083 C 
ATOM     18  C   UNL A   1      32.565  23.654  23.862  1.00  0.00     0.044 C 
ATOM     19  C   UNL A   1      34.405  25.222  24.665  1.00  0.00     0.039 C 
ATOM     20  O   UNL A   1      33.987  24.933  22.403  1.00  0.00    -0.373 OA
ATOM     21  C   UNL A   1      33.618  26.427  24.236  1.00  0.00     0.031 C 
ATOM     22  C   UNL A   1      33.537  26.259  22.731  1.00  0.00     0.161 C 
ENDBRANCH  16  17
ENDBRANCH   6  16
ENDBRANCH   3   5
ENDBRANCH   2   3
ENDBRANCH   1   2
BRANCH   1  23
ATOM     23  C   UNL A   1      42.913  18.923  25.503  1.00  0.00     0.275 C 
BRANCH  23  24
ATOM     24  O   UNL A   1      44.042  19.784  25.720  1.00  0.00    -0.458 OA
BRANCH  24  25
ATOM     25  C   UNL A   1      44.569  20.387  24.630  1.00  0.00     0.338 C 
ATOM     26  O   UNL A   1      44.668  19.921  23.508  1.00  0.00    -0.246 OA
BRANCH  25  27
ATOM     27  C   UNL A   1      44.674  21.832  24.952  1.00  0.00     0.060 A 
ATOM     28  C   UNL A   1      45.481  22.316  25.993  1.00  0.00     0.016 A 
ATOM     29  C   UNL A   1      43.735  22.669  24.376  1.00  0.00     0.016 A 
ATOM     30  C   UNL A   1      45.138  23.503  26.656  1.00  0.00     0.010 A 
ATOM     31  C   UNL A   1      43.475  23.887  24.990  1.00  0.00     0.010 A 
ATOM     32  C   UNL A   1      44.022  24.225  26.244  1.00  0.00    -0.014 A 
BRANCH  32  33
ATOM     33  C   UNL A   1      43.528  25.431  26.964  1.00  0.00     0.031 A 
ATOM     34  C   UNL A   1      44.418  26.566  26.651  1.00  0.00     0.074 A 
ATOM     35  C   UNL A   1      42.409  25.688  27.704  1.00  0.00     0.049 A 
ATOM     36  N   UNL A   1      45.545  26.811  27.234  1.00  0.00    -0.248 NA
ATOM     37  C   UNL A   1      44.203  27.327  25.409  1.00  0.00     0.031 C 
ATOM     38  C   UNL A   1      41.205  24.876  27.908  1.00  0.00     0.029 A 
ATOM     39  N   UNL A   1      42.098  26.825  28.438  1.00  0.00    -0.354 N 
ATOM     40  C   UNL A   1      46.037  27.918  26.567  1.00  0.00     0.074 A 
ATOM     41  C   UNL A   1      45.381  27.944  25.291  1.00  0.00     0.031 C 
ATOM     42  C   UNL A   1      40.245  25.597  28.549  1.00  0.00     0.029 A 
ATOM     43  C   UNL A   1      40.791  26.880  28.969  1.00  0.00     0.049 A 
ATOM     44  H   UNL A   1      42.750  27.550  28.580  1.00  0.00     0.167 HD
ATOM     45  C   UNL A   1      46.579  28.951  27.266  1.00  0.00     0.037 A 
ATOM     46  C   UNL A   1      40.236  27.889  29.715  1.00  0.00     0.037 A 
ATOM     47  C   UNL A   1      46.747  28.599  28.653  1.00  0.00     0.049 A 
ATOM     48  C   UNL A   1      41.385  28.602  30.317  1.00  0.00     0.074 A 
ATOM     49  C   UNL A   1      47.594  27.815  29.405  1.00  0.00     0.029 A 
ATOM     50  N   UNL A   1      45.623  28.809  29.402  1.00  0.00    -0.354 N 
ATOM     51  N   UNL A   1      42.088  28.119  31.301  1.00  0.00    -0.248 NA
ATOM     52  C   UNL A   1      41.913  29.812  29.691  1.00  0.00     0.031 C 
ATOM     53  C   UNL A   1      46.898  27.500  30.611  1.00  0.00     0.029 A 
ATOM     54  C   UNL A   1      45.652  28.116  30.581  1.00  0.00     0.049 A 
ATOM     55  H   UNL A   1      44.878  29.390  29.125  1.00  0.00     0.167 HD
ATOM     56  C   UNL A   1      43.325  28.690  31.127  1.00  0.00     0.074 A 
ATOM     57  C   UNL A   1      43.109  29.856  30.282  1.00  0.00     0.031 C 
ATOM     58  C   UNL A   1      44.447  27.959  31.356  1.00  0.00     0.037 A 
BRANCH  45  59
ATOM     59  C   UNL A   1      46.481  30.400  26.851  1.00  0.00     0.064 A 
ATOM     60  C   UNL A   1      47.653  31.176  26.848  1.00  0.00     0.173 A 
ATOM     61  C   UNL A   1      45.274  31.122  26.713  1.00  0.00     0.173 A 
ATOM     62  F   UNL A   1      48.850  30.601  27.034  1.00  0.00    -0.203 F 
ATOM     63  C   UNL A   1      47.614  32.569  26.729  1.00  0.00     0.198 A 
ATOM     64  C   UNL A   1      45.242  32.500  26.525  1.00  0.00     0.198 A 
ATOM     65  F   UNL A   1      44.074  30.556  26.877  1.00  0.00    -0.203 F 
ATOM     66  F   UNL A   1      48.746  33.276  26.837  1.00  0.00    -0.200 F 
ATOM     67  C   UNL A   1      46.410  33.228  26.556  1.00  0.00     0.200 A 
ATOM     68  F   UNL A   1      44.060  33.119  26.397  1.00  0.00    -0.200 F 
ATOM     69  F   UNL A   1      46.367  34.563  26.474  1.00  0.00    -0.200 F 
ENDBRANCH  45  59
BRANCH  46  70
ATOM     70  C   UNL A   1      38.860  28.412  30.054  1.00  0.00     0.064 A 
ATOM     71  C   UNL A   1      38.374  28.317  31.386  1.00  0.00     0.173 A 
ATOM     72  C   UNL A   1      38.131  29.278  29.232  1.00  0.00     0.173 A 
ATOM     73  F   UNL A   1      38.906  27.442  32.251  1.00  0.00    -0.203 F 
ATOM     74  C   UNL A   1      37.385  29.165  31.897  1.00  0.00     0.198 A 
ATOM     75  C   UNL A   1      37.138  30.133  29.747  1.00  0.00     0.198 A 
ATOM     76  F   UNL A   1      38.411  29.374  27.926  1.00  0.00    -0.203 F 
ATOM     77  F   UNL A   1      37.053  29.099  33.196  1.00  0.00    -0.200 F 
ATOM     78  C   UNL A   1      36.805  30.114  31.088  1.00  0.00     0.200 A 
ATOM     79  F   UNL A   1      36.547  31.033  28.948  1.00  0.00    -0.200 F 
ATOM     80  F   UNL A   1      35.949  31.012  31.595  1.00  0.00    -0.200 F 
ENDBRANCH  46  70
BRANCH  58  81
ATOM     81  C   UNL A   1      44.353  26.839  32.340  1.00  0.00     0.064 A 
ATOM     82  C   UNL A   1      44.256  25.479  32.002  1.00  0.00     0.173 A 
ATOM     83  C   UNL A   1      44.429  27.167  33.700  1.00  0.00     0.173 A 
ATOM     84  F   UNL A   1      44.233  25.084  30.721  1.00  0.00    -0.203 F 
ATOM     85  C   UNL A   1      44.220  24.497  32.992  1.00  0.00     0.198 A 
ATOM     86  C   UNL A   1      44.430  26.185  34.682  1.00  0.00     0.198 A 
ATOM     87  F   UNL A   1      44.536  28.453  34.073  1.00  0.00    -0.203 F 
ATOM     88  F   UNL A   1      44.113  23.203  32.653  1.00  0.00    -0.200 F 
ATOM     89  C   UNL A   1      44.320  24.850  34.329  1.00  0.00     0.200 A 
ATOM     90  F   UNL A   1      44.560  26.532  35.970  1.00  0.00    -0.200 F 
ATOM     91  F   UNL A   1      44.331  23.904  35.278  1.00  0.00    -0.200 F 
ENDBRANCH  58  81
ENDBRANCH  32  33
ENDBRANCH  25  27
ENDBRANCH  24  25
ENDBRANCH  23  24
ENDBRANCH   1  23
TORSDOF 13
ENDMDL
