MODEL 1
REMARK VINA RESULT:     -13.6      0.000      0.000
REMARK SMILES Cc1ccc(C(=O)OCCOC(=O)c2ccc(-c3c4nc(c(-c5c(F)c(F)c(F)c(F)c5F)c5ccc([nH]5)c(-c5c(F)c(F)c(F)c(F)c5F)c5nc(c(-c6c(F)c(F)c(F)c(F)c6F)c6ccc3[nH]6)C=C5)C=C4)cc2)cc1N[C@H]1CCCc2cccnc21
REMARK SMILES IDX 9 1 8 2 6 3 7 4 5 5 1 6 2 7 3 8 78 9 4 10 77 11 79 12 80 14
REMARK SMILES IDX 81 15 89 16 82 17 84 18 88 19 83 20 85 21 87 22 86 23 10 24
REMARK SMILES IDX 11 25 12 26 13 27 14 28 15 29 76 30 16 31 75 32 17 33 18 34
REMARK SMILES IDX 19 35 69 36 20 37 74 38 68 39 70 40 21 41 73 42 67 43 66 44
REMARK SMILES IDX 22 46 54 47 34 48 53 49 35 50 38 51 52 52 71 53 36 54 37 55
REMARK SMILES IDX 51 57 72 58 39 59 23 60 24 61 32 62 25 63 26 64 30 65 33 66
REMARK SMILES IDX 27 67 28 68 31 69 29 70 55 71 56 72 64 73 57 74 58 75 62 76
REMARK SMILES IDX 65 77 59 78 60 79 63 80 61 81 40 82 41 83 49 84 42 85 43 86
REMARK SMILES IDX 47 87 50 88 44 89 45 90 48 91 46 92
REMARK H PARENT 79 13 70 45 38 56
REMARK Flexibility Score: inf
ROOT
ATOM      1  C   UNL A   1      32.794  30.265  27.209  1.00  0.00     0.275 C 
ENDROOT
BRANCH   1   2
ATOM      2  O   UNL A   1      32.986  28.862  27.430  1.00  0.00    -0.458 OA
BRANCH   2   3
ATOM      3  C   UNL A   1      32.005  28.122  26.867  1.00  0.00     0.338 C 
ATOM      4  O   UNL A   1      31.203  27.411  27.464  1.00  0.00    -0.246 OA
BRANCH   3   5
ATOM      5  C   UNL A   1      32.097  28.031  25.406  1.00  0.00     0.062 A 
ATOM      6  C   UNL A   1      31.880  25.915  21.679  1.00  0.00     0.046 C 
ATOM      7  C   UNL A   1      32.041  26.664  22.974  1.00  0.00    -0.028 A 
ATOM      8  C   UNL A   1      31.067  27.642  23.282  1.00  0.00     0.006 A 
ATOM      9  C   UNL A   1      33.063  26.396  23.900  1.00  0.00     0.038 A 
ATOM     10  C   UNL A   1      31.061  28.289  24.521  1.00  0.00     0.016 A 
ATOM     11  C   UNL A   1      33.139  27.202  25.033  1.00  0.00     0.041 A 
BRANCH   9  12
ATOM     12  N   UNL A   1      33.843  25.250  23.863  1.00  0.00    -0.376 N 
ATOM     13  H   UNL A   1      34.434  25.086  23.092  1.00  0.00     0.161 HD
BRANCH  12  14
ATOM     14  C   UNL A   1      33.797  24.276  24.970  1.00  0.00     0.128 C 
ATOM     15  C   UNL A   1      32.501  23.445  24.928  1.00  0.00     0.032 C 
ATOM     16  C   UNL A   1      35.050  23.426  25.001  1.00  0.00     0.066 A 
ATOM     17  C   UNL A   1      32.605  22.323  23.909  1.00  0.00     0.007 C 
ATOM     18  C   UNL A   1      35.012  22.068  24.683  1.00  0.00    -0.024 A 
ATOM     19  N   UNL A   1      36.180  24.060  25.420  1.00  0.00    -0.259 NA
ATOM     20  C   UNL A   1      33.737  21.370  24.285  1.00  0.00     0.037 C 
ATOM     21  C   UNL A   1      36.194  21.340  24.835  1.00  0.00     0.007 A 
ATOM     22  C   UNL A   1      37.299  23.326  25.548  1.00  0.00     0.111 A 
ATOM     23  C   UNL A   1      37.354  21.974  25.275  1.00  0.00     0.020 A 
ENDBRANCH  12  14
ENDBRANCH   9  12
ENDBRANCH   3   5
ENDBRANCH   2   3
ENDBRANCH   1   2
BRANCH   1  24
ATOM     24  C   UNL A   1      33.999  31.111  27.627  1.00  0.00     0.275 C 
BRANCH  24  25
ATOM     25  O   UNL A   1      35.185  30.459  28.164  1.00  0.00    -0.458 OA
BRANCH  25  26
ATOM     26  C   UNL A   1      36.409  30.992  28.369  1.00  0.00     0.338 C 
ATOM     27  O   UNL A   1      36.612  32.203  28.379  1.00  0.00    -0.246 OA
BRANCH  26  28
ATOM     28  C   UNL A   1      37.522  30.059  28.577  1.00  0.00     0.060 A 
ATOM     29  C   UNL A   1      37.399  29.067  29.566  1.00  0.00     0.016 A 
ATOM     30  C   UNL A   1      38.622  30.109  27.728  1.00  0.00     0.016 A 
ATOM     31  C   UNL A   1      38.328  28.045  29.642  1.00  0.00     0.010 A 
ATOM     32  C   UNL A   1      39.473  29.040  27.707  1.00  0.00     0.010 A 
ATOM     33  C   UNL A   1      39.356  28.056  28.706  1.00  0.00    -0.014 A 
BRANCH  33  34
ATOM     34  C   UNL A   1      40.609  27.371  28.934  1.00  0.00     0.031 A 
ATOM     35  C   UNL A   1      40.793  25.993  28.468  1.00  0.00     0.074 A 
ATOM     36  C   UNL A   1      41.522  28.278  29.351  1.00  0.00     0.049 A 
ATOM     37  N   UNL A   1      41.612  25.149  28.988  1.00  0.00    -0.248 NA
ATOM     38  C   UNL A   1      39.993  25.405  27.390  1.00  0.00     0.031 C 
ATOM     39  C   UNL A   1      42.966  28.319  29.311  1.00  0.00     0.029 A 
ATOM     40  N   UNL A   1      41.180  29.478  30.018  1.00  0.00    -0.354 N 
ATOM     41  C   UNL A   1      41.760  24.140  28.054  1.00  0.00     0.074 A 
ATOM     42  C   UNL A   1      40.588  24.218  27.220  1.00  0.00     0.031 C 
ATOM     43  C   UNL A   1      43.388  29.263  30.182  1.00  0.00     0.029 A 
ATOM     44  C   UNL A   1      42.216  29.755  30.903  1.00  0.00     0.049 A 
ATOM     45  H   UNL A   1      40.366  30.014  29.881  1.00  0.00     0.167 HD
ATOM     46  C   UNL A   1      42.996  23.580  27.888  1.00  0.00     0.037 A 
ATOM     47  C   UNL A   1      41.954  29.576  32.232  1.00  0.00     0.037 A 
ATOM     48  C   UNL A   1      43.945  24.270  28.762  1.00  0.00     0.049 A 
ATOM     49  C   UNL A   1      42.742  28.395  32.735  1.00  0.00     0.074 A 
ATOM     50  C   UNL A   1      44.793  25.336  28.496  1.00  0.00     0.029 A 
ATOM     51  N   UNL A   1      43.799  24.213  30.142  1.00  0.00    -0.354 N 
ATOM     52  N   UNL A   1      42.956  27.306  32.043  1.00  0.00    -0.248 NA
ATOM     53  C   UNL A   1      43.447  28.423  34.007  1.00  0.00     0.031 C 
ATOM     54  C   UNL A   1      45.120  25.950  29.728  1.00  0.00     0.029 A 
ATOM     55  C   UNL A   1      44.445  25.283  30.736  1.00  0.00     0.049 A 
ATOM     56  H   UNL A   1      43.308  23.512  30.628  1.00  0.00     0.167 HD
ATOM     57  C   UNL A   1      43.895  26.556  32.699  1.00  0.00     0.074 A 
ATOM     58  C   UNL A   1      44.141  27.277  33.938  1.00  0.00     0.031 C 
ATOM     59  C   UNL A   1      44.469  25.431  32.177  1.00  0.00     0.037 A 
BRANCH  46  60
ATOM     60  C   UNL A   1      43.436  22.767  26.684  1.00  0.00     0.064 A 
ATOM     61  C   UNL A   1      43.136  21.386  26.601  1.00  0.00     0.173 A 
ATOM     62  C   UNL A   1      44.161  23.273  25.589  1.00  0.00     0.173 A 
ATOM     63  F   UNL A   1      42.352  20.780  27.502  1.00  0.00    -0.203 F 
ATOM     64  C   UNL A   1      43.620  20.564  25.581  1.00  0.00     0.198 A 
ATOM     65  C   UNL A   1      44.668  22.444  24.577  1.00  0.00     0.198 A 
ATOM     66  F   UNL A   1      44.362  24.589  25.436  1.00  0.00    -0.203 F 
ATOM     67  F   UNL A   1      43.315  19.258  25.581  1.00  0.00    -0.200 F 
ATOM     68  C   UNL A   1      44.409  21.087  24.581  1.00  0.00     0.200 A 
ATOM     69  F   UNL A   1      45.407  22.971  23.590  1.00  0.00    -0.200 F 
ATOM     70  F   UNL A   1      44.890  20.295  23.614  1.00  0.00    -0.200 F 
ENDBRANCH  46  60
BRANCH  47  71
ATOM     71  C   UNL A   1      40.546  29.923  32.636  1.00  0.00     0.064 A 
ATOM     72  C   UNL A   1      40.134  31.276  32.571  1.00  0.00     0.173 A 
ATOM     73  C   UNL A   1      39.534  28.972  32.818  1.00  0.00     0.173 A 
ATOM     74  F   UNL A   1      41.047  32.247  32.402  1.00  0.00    -0.203 F 
ATOM     75  C   UNL A   1      38.787  31.645  32.583  1.00  0.00     0.198 A 
ATOM     76  C   UNL A   1      38.182  29.347  32.849  1.00  0.00     0.198 A 
ATOM     77  F   UNL A   1      39.830  27.668  32.893  1.00  0.00    -0.203 F 
ATOM     78  F   UNL A   1      38.443  32.930  32.408  1.00  0.00    -0.200 F 
ATOM     79  C   UNL A   1      37.810  30.677  32.710  1.00  0.00     0.200 A 
ATOM     80  F   UNL A   1      37.229  28.408  32.933  1.00  0.00    -0.200 F 
ATOM     81  F   UNL A   1      36.512  31.011  32.645  1.00  0.00    -0.200 F 
ENDBRANCH  47  71
BRANCH  59  82
ATOM     82  C   UNL A   1      45.238  24.414  32.972  1.00  0.00     0.064 A 
ATOM     83  C   UNL A   1      46.525  24.654  33.474  1.00  0.00     0.173 A 
ATOM     84  C   UNL A   1      44.615  23.220  33.412  1.00  0.00     0.173 A 
ATOM     85  F   UNL A   1      47.164  25.808  33.237  1.00  0.00    -0.203 F 
ATOM     86  C   UNL A   1      47.173  23.734  34.294  1.00  0.00     0.198 A 
ATOM     87  C   UNL A   1      45.236  22.344  34.294  1.00  0.00     0.198 A 
ATOM     88  F   UNL A   1      43.374  22.884  33.032  1.00  0.00    -0.203 F 
ATOM     89  F   UNL A   1      48.426  23.981  34.700  1.00  0.00    -0.200 F 
ATOM     90  C   UNL A   1      46.525  22.589  34.716  1.00  0.00     0.200 A 
ATOM     91  F   UNL A   1      44.566  21.275  34.748  1.00  0.00    -0.200 F 
ATOM     92  F   UNL A   1      47.133  21.735  35.549  1.00  0.00    -0.200 F 
ENDBRANCH  59  82
ENDBRANCH  33  34
ENDBRANCH  26  28
ENDBRANCH  25  26
ENDBRANCH  24  25
ENDBRANCH   1  24
TORSDOF 13
ENDMDL
MODEL 2
REMARK VINA RESULT:     -13.3      3.755      9.977
REMARK SMILES Cc1ccc(C(=O)OCCOC(=O)c2ccc(-c3c4nc(c(-c5c(F)c(F)c(F)c(F)c5F)c5ccc([nH]5)c(-c5c(F)c(F)c(F)c(F)c5F)c5nc(c(-c6c(F)c(F)c(F)c(F)c6F)c6ccc3[nH]6)C=C5)C=C4)cc2)cc1N[C@H]1CCCc2cccnc21
REMARK SMILES IDX 9 1 8 2 6 3 7 4 5 5 1 6 2 7 3 8 78 9 4 10 77 11 79 12 80 14
REMARK SMILES IDX 81 15 89 16 82 17 84 18 88 19 83 20 85 21 87 22 86 23 10 24
REMARK SMILES IDX 11 25 12 26 13 27 14 28 15 29 76 30 16 31 75 32 17 33 18 34
REMARK SMILES IDX 19 35 69 36 20 37 74 38 68 39 70 40 21 41 73 42 67 43 66 44
REMARK SMILES IDX 22 46 54 47 34 48 53 49 35 50 38 51 52 52 71 53 36 54 37 55
REMARK SMILES IDX 51 57 72 58 39 59 23 60 24 61 32 62 25 63 26 64 30 65 33 66
REMARK SMILES IDX 27 67 28 68 31 69 29 70 55 71 56 72 64 73 57 74 58 75 62 76
REMARK SMILES IDX 65 77 59 78 60 79 63 80 61 81 40 82 41 83 49 84 42 85 43 86
REMARK SMILES IDX 47 87 50 88 44 89 45 90 48 91 46 92
REMARK H PARENT 79 13 70 45 38 56
REMARK Flexibility Score: inf
ROOT
ATOM      1  C   UNL A   1      37.454  21.695  25.123  1.00  0.00     0.275 C 
ENDROOT
BRANCH   1   2
ATOM      2  O   UNL A   1      36.244  22.048  25.808  1.00  0.00    -0.458 OA
BRANCH   2   3
ATOM      3  C   UNL A   1      35.628  23.104  25.231  1.00  0.00     0.338 C 
ATOM      4  O   UNL A   1      36.099  24.228  25.091  1.00  0.00    -0.246 OA
BRANCH   3   5
ATOM      5  C   UNL A   1      34.201  22.886  24.971  1.00  0.00     0.062 A 
ATOM      6  C   UNL A   1      30.425  23.927  23.217  1.00  0.00     0.046 C 
ATOM      7  C   UNL A   1      31.714  23.579  23.910  1.00  0.00    -0.028 A 
ATOM      8  C   UNL A   1      32.414  22.442  23.444  1.00  0.00     0.006 A 
ATOM      9  C   UNL A   1      32.273  24.356  24.938  1.00  0.00     0.038 A 
ATOM     10  C   UNL A   1      33.683  22.124  23.935  1.00  0.00     0.016 A 
ATOM     11  C   UNL A   1      33.442  23.893  25.539  1.00  0.00     0.041 A 
BRANCH   9  12
ATOM     12  N   UNL A   1      31.863  25.650  25.225  1.00  0.00    -0.376 N 
ATOM     13  H   UNL A   1      31.147  25.799  25.885  1.00  0.00     0.161 HD
BRANCH  12  14
ATOM     14  C   UNL A   1      32.490  26.802  24.552  1.00  0.00     0.128 C 
ATOM     15  C   UNL A   1      31.719  27.192  23.278  1.00  0.00     0.032 C 
ATOM     16  C   UNL A   1      32.678  27.958  25.512  1.00  0.00     0.066 A 
ATOM     17  C   UNL A   1      30.492  28.022  23.615  1.00  0.00     0.007 C 
ATOM     18  C   UNL A   1      31.936  29.133  25.387  1.00  0.00    -0.024 A 
ATOM     19  N   UNL A   1      33.656  27.794  26.447  1.00  0.00    -0.259 NA
ATOM     20  C   UNL A   1      30.905  29.321  24.304  1.00  0.00     0.037 C 
ATOM     21  C   UNL A   1      32.246  30.184  26.252  1.00  0.00     0.007 A 
ATOM     22  C   UNL A   1      33.920  28.826  27.266  1.00  0.00     0.111 A 
ATOM     23  C   UNL A   1      33.251  30.032  27.205  1.00  0.00     0.020 A 
ENDBRANCH  12  14
ENDBRANCH   9  12
ENDBRANCH   3   5
ENDBRANCH   2   3
ENDBRANCH   1   2
BRANCH   1  24
ATOM     24  C   UNL A   1      38.714  21.967  25.949  1.00  0.00     0.275 C 
BRANCH  24  25
ATOM     25  O   UNL A   1      38.968  23.310  26.453  1.00  0.00    -0.458 OA
BRANCH  25  26
ATOM     26  C   UNL A   1      40.110  23.798  26.986  1.00  0.00     0.338 C 
ATOM     27  O   UNL A   1      41.136  23.131  27.078  1.00  0.00    -0.246 OA
BRANCH  26  28
ATOM     28  C   UNL A   1      40.084  25.182  27.474  1.00  0.00     0.060 A 
ATOM     29  C   UNL A   1      40.395  26.222  26.580  1.00  0.00     0.016 A 
ATOM     30  C   UNL A   1      39.656  25.439  28.771  1.00  0.00     0.016 A 
ATOM     31  C   UNL A   1      40.173  27.538  26.943  1.00  0.00     0.010 A 
ATOM     32  C   UNL A   1      39.311  26.722  29.096  1.00  0.00     0.010 A 
ATOM     33  C   UNL A   1      39.636  27.761  28.206  1.00  0.00    -0.014 A 
BRANCH  33  34
ATOM     34  C   UNL A   1      39.783  29.027  28.889  1.00  0.00     0.031 A 
ATOM     35  C   UNL A   1      38.712  30.027  28.831  1.00  0.00     0.074 A 
ATOM     36  C   UNL A   1      40.856  28.946  29.709  1.00  0.00     0.049 A 
ATOM     37  N   UNL A   1      38.887  31.294  28.969  1.00  0.00    -0.248 NA
ATOM     38  C   UNL A   1      37.320  29.683  28.531  1.00  0.00     0.031 C 
ATOM     39  C   UNL A   1      41.239  29.654  30.911  1.00  0.00     0.029 A 
ATOM     40  N   UNL A   1      41.946  28.074  29.483  1.00  0.00    -0.354 N 
ATOM     41  C   UNL A   1      37.636  31.822  29.231  1.00  0.00     0.074 A 
ATOM     42  C   UNL A   1      36.699  30.855  28.720  1.00  0.00     0.031 C 
ATOM     43  C   UNL A   1      42.559  29.451  31.121  1.00  0.00     0.029 A 
ATOM     44  C   UNL A   1      43.081  28.713  29.971  1.00  0.00     0.049 A 
ATOM     45  H   UNL A   1      41.910  27.185  29.062  1.00  0.00     0.167 HD
ATOM     46  C   UNL A   1      37.535  32.842  30.136  1.00  0.00     0.037 A 
ATOM     47  C   UNL A   1      43.967  29.187  29.045  1.00  0.00     0.037 A 
ATOM     48  C   UNL A   1      38.862  33.111  30.690  1.00  0.00     0.049 A 
ATOM     49  C   UNL A   1      43.935  30.693  29.059  1.00  0.00     0.074 A 
ATOM     50  C   UNL A   1      39.462  32.632  31.845  1.00  0.00     0.029 A 
ATOM     51  N   UNL A   1      39.886  33.569  29.871  1.00  0.00    -0.354 N 
ATOM     52  N   UNL A   1      42.851  31.404  29.229  1.00  0.00    -0.248 NA
ATOM     53  C   UNL A   1      45.151  31.490  29.008  1.00  0.00     0.031 C 
ATOM     54  C   UNL A   1      40.863  32.763  31.695  1.00  0.00     0.029 A 
ATOM     55  C   UNL A   1      41.116  33.286  30.439  1.00  0.00     0.049 A 
ATOM     56  H   UNL A   1      39.756  34.030  29.010  1.00  0.00     0.167 HD
ATOM     57  C   UNL A   1      43.218  32.709  29.426  1.00  0.00     0.074 A 
ATOM     58  C   UNL A   1      44.660  32.717  29.241  1.00  0.00     0.031 C 
ATOM     59  C   UNL A   1      42.346  33.696  29.793  1.00  0.00     0.037 A 
BRANCH  46  60
ATOM     60  C   UNL A   1      36.256  33.275  30.829  1.00  0.00     0.064 A 
ATOM     61  C   UNL A   1      35.358  34.165  30.192  1.00  0.00     0.173 A 
ATOM     62  C   UNL A   1      35.858  32.868  32.117  1.00  0.00     0.173 A 
ATOM     63  F   UNL A   1      35.532  34.549  28.921  1.00  0.00    -0.203 F 
ATOM     64  C   UNL A   1      34.232  34.692  30.828  1.00  0.00     0.198 A 
ATOM     65  C   UNL A   1      34.741  33.417  32.765  1.00  0.00     0.198 A 
ATOM     66  F   UNL A   1      36.507  31.895  32.770  1.00  0.00    -0.203 F 
ATOM     67  F   UNL A   1      33.440  35.550  30.169  1.00  0.00    -0.200 F 
ATOM     68  C   UNL A   1      33.936  34.339  32.125  1.00  0.00     0.200 A 
ATOM     69  F   UNL A   1      34.445  33.039  34.017  1.00  0.00    -0.200 F 
ATOM     70  F   UNL A   1      32.868  34.862  32.742  1.00  0.00    -0.200 F 
ENDBRANCH  46  60
BRANCH  47  71
ATOM     71  C   UNL A   1      44.094  28.328  27.816  1.00  0.00     0.064 A 
ATOM     72  C   UNL A   1      44.680  27.045  27.942  1.00  0.00     0.173 A 
ATOM     73  C   UNL A   1      43.435  28.595  26.609  1.00  0.00     0.173 A 
ATOM     74  F   UNL A   1      45.334  26.715  29.068  1.00  0.00    -0.203 F 
ATOM     75  C   UNL A   1      44.529  26.058  26.965  1.00  0.00     0.198 A 
ATOM     76  C   UNL A   1      43.300  27.608  25.621  1.00  0.00     0.198 A 
ATOM     77  F   UNL A   1      42.852  29.783  26.401  1.00  0.00    -0.203 F 
ATOM     78  F   UNL A   1      45.010  24.825  27.179  1.00  0.00    -0.200 F 
ATOM     79  C   UNL A   1      43.827  26.337  25.808  1.00  0.00     0.200 A 
ATOM     80  F   UNL A   1      42.586  27.862  24.515  1.00  0.00    -0.200 F 
ATOM     81  F   UNL A   1      43.608  25.376  24.899  1.00  0.00    -0.200 F 
ENDBRANCH  47  71
BRANCH  59  82
ATOM     82  C   UNL A   1      42.631  35.168  29.699  1.00  0.00     0.064 A 
ATOM     83  C   UNL A   1      43.413  35.854  30.637  1.00  0.00     0.173 A 
ATOM     84  C   UNL A   1      42.269  35.901  28.541  1.00  0.00     0.173 A 
ATOM     85  F   UNL A   1      43.928  35.231  31.707  1.00  0.00    -0.203 F 
ATOM     86  C   UNL A   1      43.747  37.196  30.471  1.00  0.00     0.198 A 
ATOM     87  C   UNL A   1      42.671  37.216  28.344  1.00  0.00     0.198 A 
ATOM     88  F   UNL A   1      41.547  35.356  27.551  1.00  0.00    -0.203 F 
ATOM     89  F   UNL A   1      44.447  37.824  31.425  1.00  0.00    -0.200 F 
ATOM     90  C   UNL A   1      43.391  37.872  29.320  1.00  0.00     0.200 A 
ATOM     91  F   UNL A   1      42.377  37.834  27.190  1.00  0.00    -0.200 F 
ATOM     92  F   UNL A   1      43.761  39.145  29.141  1.00  0.00    -0.200 F 
ENDBRANCH  59  82
ENDBRANCH  33  34
ENDBRANCH  26  28
ENDBRANCH  25  26
ENDBRANCH  24  25
ENDBRANCH   1  24
TORSDOF 13
ENDMDL
MODEL 3
REMARK VINA RESULT:     -13.3      0.244      1.153
REMARK SMILES Cc1ccc(C(=O)OCCOC(=O)c2ccc(-c3c4nc(c(-c5c(F)c(F)c(F)c(F)c5F)c5ccc([nH]5)c(-c5c(F)c(F)c(F)c(F)c5F)c5nc(c(-c6c(F)c(F)c(F)c(F)c6F)c6ccc3[nH]6)C=C5)C=C4)cc2)cc1N[C@H]1CCCc2cccnc21
REMARK SMILES IDX 9 1 8 2 6 3 7 4 5 5 1 6 2 7 3 8 78 9 4 10 77 11 79 12 80 14
REMARK SMILES IDX 81 15 89 16 82 17 84 18 88 19 83 20 85 21 87 22 86 23 10 24
REMARK SMILES IDX 11 25 12 26 13 27 14 28 15 29 76 30 16 31 75 32 17 33 18 34
REMARK SMILES IDX 19 35 69 36 20 37 74 38 68 39 70 40 21 41 73 42 67 43 66 44
REMARK SMILES IDX 22 46 54 47 34 48 53 49 35 50 38 51 52 52 71 53 36 54 37 55
REMARK SMILES IDX 51 57 72 58 39 59 23 60 24 61 32 62 25 63 26 64 30 65 33 66
REMARK SMILES IDX 27 67 28 68 31 69 29 70 55 71 56 72 64 73 57 74 58 75 62 76
REMARK SMILES IDX 65 77 59 78 60 79 63 80 61 81 40 82 41 83 49 84 42 85 43 86
REMARK SMILES IDX 47 87 50 88 44 89 45 90 48 91 46 92
REMARK H PARENT 79 13 70 45 38 56
REMARK Flexibility Score: inf
ROOT
ATOM      1  C   UNL A   1      32.693  30.333  27.242  1.00  0.00     0.275 C 
ENDROOT
BRANCH   1   2
ATOM      2  O   UNL A   1      32.874  28.926  27.453  1.00  0.00    -0.458 OA
BRANCH   2   3
ATOM      3  C   UNL A   1      31.874  28.200  26.905  1.00  0.00     0.338 C 
ATOM      4  O   UNL A   1      31.032  27.552  27.518  1.00  0.00    -0.246 OA
BRANCH   3   5
ATOM      5  C   UNL A   1      31.992  28.033  25.453  1.00  0.00     0.062 A 
ATOM      6  C   UNL A   1      32.082  25.685  21.862  1.00  0.00     0.046 C 
ATOM      7  C   UNL A   1      32.134  26.526  23.109  1.00  0.00    -0.028 A 
ATOM      8  C   UNL A   1      31.041  27.389  23.354  1.00  0.00     0.006 A 
ATOM      9  C   UNL A   1      33.172  26.445  24.052  1.00  0.00     0.038 A 
ATOM     10  C   UNL A   1      30.942  28.104  24.551  1.00  0.00     0.016 A 
ATOM     11  C   UNL A   1      33.134  27.321  25.134  1.00  0.00     0.041 A 
BRANCH   9  12
ATOM     12  N   UNL A   1      34.090  25.406  24.088  1.00  0.00    -0.376 N 
ATOM     13  H   UNL A   1      34.808  25.366  23.414  1.00  0.00     0.161 HD
BRANCH  12  14
ATOM     14  C   UNL A   1      34.003  24.363  25.127  1.00  0.00     0.128 C 
ATOM     15  C   UNL A   1      32.675  23.589  25.030  1.00  0.00     0.032 C 
ATOM     16  C   UNL A   1      35.221  23.465  25.101  1.00  0.00     0.066 A 
ATOM     17  C   UNL A   1      32.737  22.534  23.939  1.00  0.00     0.007 C 
ATOM     18  C   UNL A   1      35.131  22.133  24.694  1.00  0.00    -0.024 A 
ATOM     19  N   UNL A   1      36.375  24.023  25.561  1.00  0.00    -0.259 NA
ATOM     20  C   UNL A   1      33.830  21.514  24.251  1.00  0.00     0.037 C 
ATOM     21  C   UNL A   1      36.282  21.350  24.797  1.00  0.00     0.007 A 
ATOM     22  C   UNL A   1      37.464  23.239  25.640  1.00  0.00     0.111 A 
ATOM     23  C   UNL A   1      37.466  21.907  25.277  1.00  0.00     0.020 A 
ENDBRANCH  12  14
ENDBRANCH   9  12
ENDBRANCH   3   5
ENDBRANCH   2   3
ENDBRANCH   1   2
BRANCH   1  24
ATOM     24  C   UNL A   1      33.915  31.163  27.641  1.00  0.00     0.275 C 
BRANCH  24  25
ATOM     25  O   UNL A   1      35.155  30.491  28.005  1.00  0.00    -0.458 OA
BRANCH  25  26
ATOM     26  C   UNL A   1      36.354  31.048  28.286  1.00  0.00     0.338 C 
ATOM     27  O   UNL A   1      36.528  32.263  28.326  1.00  0.00    -0.246 OA
BRANCH  26  28
ATOM     28  C   UNL A   1      37.474  30.136  28.541  1.00  0.00     0.060 A 
ATOM     29  C   UNL A   1      37.378  29.226  29.610  1.00  0.00     0.016 A 
ATOM     30  C   UNL A   1      38.553  30.119  27.665  1.00  0.00     0.016 A 
ATOM     31  C   UNL A   1      38.312  28.215  29.745  1.00  0.00     0.010 A 
ATOM     32  C   UNL A   1      39.407  29.053  27.710  1.00  0.00     0.010 A 
ATOM     33  C   UNL A   1      39.317  28.153  28.786  1.00  0.00    -0.014 A 
BRANCH  33  34
ATOM     34  C   UNL A   1      40.578  27.489  29.039  1.00  0.00     0.031 A 
ATOM     35  C   UNL A   1      40.795  26.116  28.575  1.00  0.00     0.074 A 
ATOM     36  C   UNL A   1      41.465  28.413  29.474  1.00  0.00     0.049 A 
ATOM     37  N   UNL A   1      41.619  25.286  29.111  1.00  0.00    -0.248 NA
ATOM     38  C   UNL A   1      40.027  25.515  27.481  1.00  0.00     0.031 C 
ATOM     39  C   UNL A   1      42.910  28.480  29.463  1.00  0.00     0.029 A 
ATOM     40  N   UNL A   1      41.089  29.605  30.135  1.00  0.00    -0.354 N 
ATOM     41  C   UNL A   1      41.804  24.281  28.179  1.00  0.00     0.074 A 
ATOM     42  C   UNL A   1      40.647  24.338  27.322  1.00  0.00     0.031 C 
ATOM     43  C   UNL A   1      43.298  29.430  30.342  1.00  0.00     0.029 A 
ATOM     44  C   UNL A   1      42.103  29.900  31.041  1.00  0.00     0.049 A 
ATOM     45  H   UNL A   1      40.269  30.127  29.983  1.00  0.00     0.167 HD
ATOM     46  C   UNL A   1      43.053  23.744  28.037  1.00  0.00     0.037 A 
ATOM     47  C   UNL A   1      41.817  29.715  32.364  1.00  0.00     0.037 A 
ATOM     48  C   UNL A   1      43.972  24.450  28.929  1.00  0.00     0.049 A 
ATOM     49  C   UNL A   1      42.616  28.548  32.881  1.00  0.00     0.074 A 
ATOM     50  C   UNL A   1      44.805  25.530  28.681  1.00  0.00     0.029 A 
ATOM     51  N   UNL A   1      43.800  24.389  30.307  1.00  0.00    -0.354 N 
ATOM     52  N   UNL A   1      42.864  27.464  32.193  1.00  0.00    -0.248 NA
ATOM     53  C   UNL A   1      43.296  28.587  34.168  1.00  0.00     0.031 C 
ATOM     54  C   UNL A   1      45.097  26.149  29.920  1.00  0.00     0.029 A 
ATOM     55  C   UNL A   1      44.414  25.469  30.914  1.00  0.00     0.049 A 
ATOM     56  H   UNL A   1      43.312  23.678  30.783  1.00  0.00     0.167 HD
ATOM     57  C   UNL A   1      43.804  26.730  32.867  1.00  0.00     0.074 A 
ATOM     58  C   UNL A   1      44.012  27.453  34.111  1.00  0.00     0.031 C 
ATOM     59  C   UNL A   1      44.408  25.616  32.355  1.00  0.00     0.037 A 
BRANCH  46  60
ATOM     60  C   UNL A   1      43.531  22.940  26.841  1.00  0.00     0.064 A 
ATOM     61  C   UNL A   1      43.186  21.573  26.709  1.00  0.00     0.173 A 
ATOM     62  C   UNL A   1      44.335  23.442  25.800  1.00  0.00     0.173 A 
ATOM     63  F   UNL A   1      42.331  20.979  27.550  1.00  0.00    -0.203 F 
ATOM     64  C   UNL A   1      43.698  20.755  25.699  1.00  0.00     0.198 A 
ATOM     65  C   UNL A   1      44.868  22.615  24.800  1.00  0.00     0.198 A 
ATOM     66  F   UNL A   1      44.592  24.752  25.689  1.00  0.00    -0.203 F 
ATOM     67  F   UNL A   1      43.346  19.462  25.652  1.00  0.00    -0.200 F 
ATOM     68  C   UNL A   1      44.560  21.269  24.757  1.00  0.00     0.200 A 
ATOM     69  F   UNL A   1      45.681  23.135  23.868  1.00  0.00    -0.200 F 
ATOM     70  F   UNL A   1      45.067  20.479  23.801  1.00  0.00    -0.200 F 
ENDBRANCH  46  60
BRANCH  47  71
ATOM     71  C   UNL A   1      40.396  30.036  32.741  1.00  0.00     0.064 A 
ATOM     72  C   UNL A   1      39.970  31.386  32.700  1.00  0.00     0.173 A 
ATOM     73  C   UNL A   1      39.390  29.070  32.872  1.00  0.00     0.173 A 
ATOM     74  F   UNL A   1      40.877  32.371  32.581  1.00  0.00    -0.203 F 
ATOM     75  C   UNL A   1      38.620  31.740  32.688  1.00  0.00     0.198 A 
ATOM     76  C   UNL A   1      38.034  29.430  32.878  1.00  0.00     0.198 A 
ATOM     77  F   UNL A   1      39.699  27.767  32.920  1.00  0.00    -0.203 F 
ATOM     78  F   UNL A   1      38.266  33.025  32.538  1.00  0.00    -0.200 F 
ATOM     79  C   UNL A   1      37.650  30.759  32.764  1.00  0.00     0.200 A 
ATOM     80  F   UNL A   1      37.089  28.478  32.912  1.00  0.00    -0.200 F 
ATOM     81  F   UNL A   1      36.352  31.081  32.674  1.00  0.00    -0.200 F 
ENDBRANCH  47  71
BRANCH  59  82
ATOM     82  C   UNL A   1      45.179  24.612  33.164  1.00  0.00     0.064 A 
ATOM     83  C   UNL A   1      44.665  23.354  33.507  1.00  0.00     0.173 A 
ATOM     84  C   UNL A   1      46.548  24.823  33.462  1.00  0.00     0.173 A 
ATOM     85  F   UNL A   1      43.425  22.987  33.158  1.00  0.00    -0.203 F 
ATOM     86  C   UNL A   1      45.439  22.403  34.169  1.00  0.00     0.198 A 
ATOM     87  C   UNL A   1      47.336  23.842  34.051  1.00  0.00     0.198 A 
ATOM     88  F   UNL A   1      47.173  25.971  33.160  1.00  0.00    -0.203 F 
ATOM     89  F   UNL A   1      44.885  21.238  34.528  1.00  0.00    -0.200 F 
ATOM     90  C   UNL A   1      46.776  22.640  34.426  1.00  0.00     0.200 A 
ATOM     91  F   UNL A   1      48.647  24.062  34.229  1.00  0.00    -0.200 F 
ATOM     92  F   UNL A   1      47.529  21.701  35.013  1.00  0.00    -0.200 F 
ENDBRANCH  59  82
ENDBRANCH  33  34
ENDBRANCH  26  28
ENDBRANCH  25  26
ENDBRANCH  24  25
ENDBRANCH   1  24
TORSDOF 13
ENDMDL
