MODEL 1
REMARK VINA RESULT:     -13.0      0.000      0.000
REMARK SMILES Cc1ccccc1-n1nc(Cl)c(C(=O)OCCOC(=O)c2ccc(-c3c4nc(c(-c5c(F)c(F)c(F)c(F)c5F)c5ccc([nH]5)c(-c5c(F)c(F)c(F)c(F)c5F)c5nc(c(-c6c(F)c(F)c(F)c(F)c6F)c6ccc3[nH]6)C=C5)C=C4)cc2)n1
REMARK SMILES IDX 17 1 16 2 15 3 13 4 14 5 12 6 8 7 9 8 84 9 10 10 11 11 7 12
REMARK SMILES IDX 1 13 2 14 3 15 4 16 6 17 5 18 18 19 19 20 20 21 21 22 22 23
REMARK SMILES IDX 83 24 23 25 82 26 24 27 25 28 26 29 76 30 27 31 81 32 75 33
REMARK SMILES IDX 77 34 28 35 80 36 74 37 73 38 29 40 61 41 41 42 60 43 42 44
REMARK SMILES IDX 45 45 59 46 78 47 43 48 44 49 58 51 79 52 46 53 30 54 31 55
REMARK SMILES IDX 39 56 32 57 33 58 37 59 40 60 34 61 35 62 38 63 36 64 62 65
REMARK SMILES IDX 63 66 71 67 64 68 65 69 69 70 72 71 66 72 67 73 70 74 68 75
REMARK SMILES IDX 47 76 48 77 56 78 49 79 50 80 54 81 57 82 51 83 52 84 55 85
REMARK SMILES IDX 53 86
REMARK H PARENT 77 39 45 50
REMARK Flexibility Score: inf
ROOT
ATOM      1  C   UNL A   1      38.512  22.199  25.866  1.00  0.00     0.275 C 
ENDROOT
BRANCH   1   2
ATOM      2  C   UNL A   1      37.088  21.675  25.536  1.00  0.00     0.275 C 
BRANCH   2   3
ATOM      3  O   UNL A   1      36.350  22.203  24.424  1.00  0.00    -0.457 OA
BRANCH   3   4
ATOM      4  C   UNL A   1      35.017  22.401  24.579  1.00  0.00     0.362 C 
ATOM      5  O   UNL A   1      34.223  21.494  24.789  1.00  0.00    -0.244 OA
BRANCH   4   6
ATOM      6  C   UNL A   1      34.619  23.791  24.434  1.00  0.00     0.209 A 
ATOM      7  N   UNL A   1      34.027  25.753  24.907  1.00  0.00    -0.149 N 
ATOM      8  N   UNL A   1      33.488  25.578  23.675  1.00  0.00    -0.135 NA
ATOM      9  N   UNL A   1      34.897  24.778  25.319  1.00  0.00    -0.139 NA
ATOM     10  C   UNL A   1      33.837  24.325  23.398  1.00  0.00     0.186 A 
ATOM     11  Cl  UNL A   1      33.328  23.589  21.965  1.00  0.00    -0.057 Cl
BRANCH   7  12
ATOM     12  C   UNL A   1      33.419  26.631  25.844  1.00  0.00     0.089 A 
ATOM     13  C   UNL A   1      31.370  25.129  26.216  1.00  0.00     0.047 C 
ATOM     14  C   UNL A   1      32.131  26.417  26.364  1.00  0.00    -0.023 A 
ATOM     15  C   UNL A   1      31.538  27.452  27.110  1.00  0.00     0.006 A 
ATOM     16  C   UNL A   1      32.217  28.650  27.354  1.00  0.00     0.000 A 
ATOM     17  C   UNL A   1      34.123  27.813  26.148  1.00  0.00     0.030 A 
ATOM     18  C   UNL A   1      33.515  28.824  26.885  1.00  0.00     0.002 A 
ENDBRANCH   7  12
ENDBRANCH   4   6
ENDBRANCH   3   4
ENDBRANCH   2   3
ENDBRANCH   1   2
BRANCH   1  19
ATOM     19  O   UNL A   1      38.857  23.440  26.567  1.00  0.00    -0.458 OA
BRANCH  19  20
ATOM     20  C   UNL A   1      40.041  23.929  26.992  1.00  0.00     0.338 C 
ATOM     21  O   UNL A   1      41.047  23.248  27.130  1.00  0.00    -0.246 OA
BRANCH  20  22
ATOM     22  C   UNL A   1      40.027  25.333  27.396  1.00  0.00     0.060 A 
ATOM     23  C   UNL A   1      40.436  26.354  26.518  1.00  0.00     0.016 A 
ATOM     24  C   UNL A   1      39.508  25.614  28.650  1.00  0.00     0.016 A 
ATOM     25  C   UNL A   1      40.267  27.678  26.898  1.00  0.00     0.010 A 
ATOM     26  C   UNL A   1      39.098  26.885  28.905  1.00  0.00     0.010 A 
ATOM     27  C   UNL A   1      39.596  27.913  28.096  1.00  0.00    -0.014 A 
BRANCH  27  28
ATOM     28  C   UNL A   1      39.705  29.134  28.869  1.00  0.00     0.031 A 
ATOM     29  C   UNL A   1      38.597  30.083  28.921  1.00  0.00     0.074 A 
ATOM     30  C   UNL A   1      40.767  29.063  29.708  1.00  0.00     0.049 A 
ATOM     31  N   UNL A   1      38.741  31.347  29.094  1.00  0.00    -0.248 NA
ATOM     32  C   UNL A   1      37.204  29.678  28.743  1.00  0.00     0.031 C 
ATOM     33  C   UNL A   1      41.076  29.745  30.948  1.00  0.00     0.029 A 
ATOM     34  N   UNL A   1      41.879  28.216  29.512  1.00  0.00    -0.354 N 
ATOM     35  C   UNL A   1      37.498  31.834  29.439  1.00  0.00     0.074 A 
ATOM     36  C   UNL A   1      36.558  30.818  29.024  1.00  0.00     0.031 C 
ATOM     37  C   UNL A   1      42.384  29.544  31.225  1.00  0.00     0.029 A 
ATOM     38  C   UNL A   1      42.980  28.833  30.094  1.00  0.00     0.049 A 
ATOM     39  H   UNL A   1      41.874  27.348  29.049  1.00  0.00     0.167 HD
ATOM     40  C   UNL A   1      37.423  32.906  30.282  1.00  0.00     0.037 A 
ATOM     41  C   UNL A   1      43.929  29.312  29.235  1.00  0.00     0.037 A 
ATOM     42  C   UNL A   1      38.769  33.226  30.768  1.00  0.00     0.049 A 
ATOM     43  C   UNL A   1      43.884  30.816  29.221  1.00  0.00     0.074 A 
ATOM     44  C   UNL A   1      39.423  32.812  31.918  1.00  0.00     0.029 A 
ATOM     45  N   UNL A   1      39.754  33.676  29.894  1.00  0.00    -0.354 N 
ATOM     46  N   UNL A   1      42.808  31.514  29.455  1.00  0.00    -0.248 NA
ATOM     47  C   UNL A   1      45.061  31.638  28.975  1.00  0.00     0.031 C 
ATOM     48  C   UNL A   1      40.816  32.947  31.703  1.00  0.00     0.029 A 
ATOM     49  C   UNL A   1      41.013  33.443  30.425  1.00  0.00     0.049 A 
ATOM     50  H   UNL A   1      39.580  34.098  29.022  1.00  0.00     0.167 HD
ATOM     51  C   UNL A   1      43.127  32.839  29.445  1.00  0.00     0.074 A 
ATOM     52  C   UNL A   1      44.546  32.868  29.130  1.00  0.00     0.031 C 
ATOM     53  C   UNL A   1      42.215  33.820  29.701  1.00  0.00     0.037 A 
BRANCH  40  54
ATOM     54  C   UNL A   1      36.164  33.385  30.978  1.00  0.00     0.064 A 
ATOM     55  C   UNL A   1      35.239  34.215  30.303  1.00  0.00     0.173 A 
ATOM     56  C   UNL A   1      35.807  33.064  32.302  1.00  0.00     0.173 A 
ATOM     57  F   UNL A   1      35.385  34.521  29.007  1.00  0.00    -0.203 F 
ATOM     58  C   UNL A   1      34.115  34.760  30.929  1.00  0.00     0.198 A 
ATOM     59  C   UNL A   1      34.697  33.637  32.939  1.00  0.00     0.198 A 
ATOM     60  F   UNL A   1      36.489  32.149  33.003  1.00  0.00    -0.203 F 
ATOM     61  F   UNL A   1      33.285  35.550  30.232  1.00  0.00    -0.200 F 
ATOM     62  C   UNL A   1      33.857  34.494  32.256  1.00  0.00     0.200 A 
ATOM     63  F   UNL A   1      34.444  33.347  34.224  1.00  0.00    -0.200 F 
ATOM     64  F   UNL A   1      32.792  35.033  32.861  1.00  0.00    -0.200 F 
ENDBRANCH  40  54
BRANCH  41  65
ATOM     65  C   UNL A   1      44.121  28.454  28.013  1.00  0.00     0.064 A 
ATOM     66  C   UNL A   1      44.696  27.171  28.165  1.00  0.00     0.173 A 
ATOM     67  C   UNL A   1      43.493  28.717  26.788  1.00  0.00     0.173 A 
ATOM     68  F   UNL A   1      45.305  26.843  29.317  1.00  0.00    -0.203 F 
ATOM     69  C   UNL A   1      44.567  26.182  27.188  1.00  0.00     0.198 A 
ATOM     70  C   UNL A   1      43.379  27.728  25.803  1.00  0.00     0.198 A 
ATOM     71  F   UNL A   1      42.913  29.904  26.563  1.00  0.00    -0.203 F 
ATOM     72  F   UNL A   1      45.038  24.948  27.420  1.00  0.00    -0.200 F 
ATOM     73  C   UNL A   1      43.894  26.457  26.012  1.00  0.00     0.200 A 
ATOM     74  F   UNL A   1      42.701  27.984  24.674  1.00  0.00    -0.200 F 
ATOM     75  F   UNL A   1      43.710  25.495  25.097  1.00  0.00    -0.200 F 
ENDBRANCH  41  65
BRANCH  53  76
ATOM     76  C   UNL A   1      42.450  35.265  29.385  1.00  0.00     0.064 A 
ATOM     77  C   UNL A   1      43.307  36.076  30.144  1.00  0.00     0.173 A 
ATOM     78  C   UNL A   1      41.925  35.840  28.207  1.00  0.00     0.173 A 
ATOM     79  F   UNL A   1      43.975  35.590  31.199  1.00  0.00    -0.203 F 
ATOM     80  C   UNL A   1      43.542  37.405  29.805  1.00  0.00     0.198 A 
ATOM     81  C   UNL A   1      42.223  37.145  27.832  1.00  0.00     0.198 A 
ATOM     82  F   UNL A   1      41.137  35.144  27.374  1.00  0.00    -0.203 F 
ATOM     83  F   UNL A   1      44.310  38.163  30.600  1.00  0.00    -0.200 F 
ATOM     84  C   UNL A   1      43.007  37.937  28.647  1.00  0.00     0.200 A 
ATOM     85  F   UNL A   1      41.758  37.625  26.672  1.00  0.00    -0.200 F 
ATOM     86  F   UNL A   1      43.266  39.204  28.305  1.00  0.00    -0.200 F 
ENDBRANCH  53  76
ENDBRANCH  27  28
ENDBRANCH  20  22
ENDBRANCH  19  20
ENDBRANCH   1  19
TORSDOF 12
ENDMDL
MODEL 2
REMARK VINA RESULT:     -12.9      3.850     10.148
REMARK SMILES Cc1ccccc1-n1nc(Cl)c(C(=O)OCCOC(=O)c2ccc(-c3c4nc(c(-c5c(F)c(F)c(F)c(F)c5F)c5ccc([nH]5)c(-c5c(F)c(F)c(F)c(F)c5F)c5nc(c(-c6c(F)c(F)c(F)c(F)c6F)c6ccc3[nH]6)C=C5)C=C4)cc2)n1
REMARK SMILES IDX 17 1 16 2 15 3 13 4 14 5 12 6 8 7 9 8 84 9 10 10 11 11 7 12
REMARK SMILES IDX 1 13 2 14 3 15 4 16 6 17 5 18 18 19 19 20 20 21 21 22 22 23
REMARK SMILES IDX 83 24 23 25 82 26 24 27 25 28 26 29 76 30 27 31 81 32 75 33
REMARK SMILES IDX 77 34 28 35 80 36 74 37 73 38 29 40 61 41 41 42 60 43 42 44
REMARK SMILES IDX 45 45 59 46 78 47 43 48 44 49 58 51 79 52 46 53 30 54 31 55
REMARK SMILES IDX 39 56 32 57 33 58 37 59 40 60 34 61 35 62 38 63 36 64 62 65
REMARK SMILES IDX 63 66 71 67 64 68 65 69 69 70 72 71 66 72 67 73 70 74 68 75
REMARK SMILES IDX 47 76 48 77 56 78 49 79 50 80 54 81 57 82 51 83 52 84 55 85
REMARK SMILES IDX 53 86
REMARK H PARENT 77 39 45 50
REMARK Flexibility Score: inf
ROOT
ATOM      1  C   UNL A   1      33.962  30.612  27.409  1.00  0.00     0.275 C 
ENDROOT
BRANCH   1   2
ATOM      2  C   UNL A   1      33.514  29.574  26.343  1.00  0.00     0.275 C 
BRANCH   2   3
ATOM      3  O   UNL A   1      33.977  28.217  26.398  1.00  0.00    -0.457 OA
BRANCH   3   4
ATOM      4  C   UNL A   1      33.051  27.226  26.362  1.00  0.00     0.362 C 
ATOM      5  O   UNL A   1      32.028  27.236  27.034  1.00  0.00    -0.244 OA
BRANCH   4   6
ATOM      6  C   UNL A   1      33.412  26.132  25.476  1.00  0.00     0.209 A 
ATOM      7  N   UNL A   1      34.264  24.347  24.761  1.00  0.00    -0.149 N 
ATOM      8  N   UNL A   1      34.158  25.089  23.632  1.00  0.00    -0.135 NA
ATOM      9  N   UNL A   1      33.632  24.854  25.866  1.00  0.00    -0.139 NA
ATOM     10  C   UNL A   1      33.652  26.227  24.097  1.00  0.00     0.186 A 
ATOM     11  Cl  UNL A   1      33.396  27.539  23.063  1.00  0.00    -0.057 Cl
BRANCH   7  12
ATOM     12  C   UNL A   1      35.285  23.368  24.890  1.00  0.00     0.089 A 
ATOM     13  C   UNL A   1      33.741  21.400  24.309  1.00  0.00     0.047 C 
ATOM     14  C   UNL A   1      35.032  21.987  24.807  1.00  0.00    -0.023 A 
ATOM     15  C   UNL A   1      36.067  21.103  25.165  1.00  0.00     0.006 A 
ATOM     16  C   UNL A   1      37.319  21.577  25.566  1.00  0.00     0.000 A 
ATOM     17  C   UNL A   1      36.569  23.838  25.231  1.00  0.00     0.030 A 
ATOM     18  C   UNL A   1      37.575  22.943  25.584  1.00  0.00     0.002 A 
ENDBRANCH   7  12
ENDBRANCH   4   6
ENDBRANCH   3   4
ENDBRANCH   2   3
ENDBRANCH   1   2
BRANCH   1  19
ATOM     19  O   UNL A   1      35.029  30.452  28.402  1.00  0.00    -0.458 OA
BRANCH  19  20
ATOM     20  C   UNL A   1      36.263  30.994  28.485  1.00  0.00     0.338 C 
ATOM     21  O   UNL A   1      36.501  32.175  28.280  1.00  0.00    -0.246 OA
BRANCH  20  22
ATOM     22  C   UNL A   1      37.346  30.044  28.728  1.00  0.00     0.060 A 
ATOM     23  C   UNL A   1      37.276  29.103  29.772  1.00  0.00     0.016 A 
ATOM     24  C   UNL A   1      38.398  30.056  27.826  1.00  0.00     0.016 A 
ATOM     25  C   UNL A   1      38.262  28.130  29.870  1.00  0.00     0.010 A 
ATOM     26  C   UNL A   1      39.199  28.960  27.759  1.00  0.00     0.010 A 
ATOM     27  C   UNL A   1      39.211  28.083  28.850  1.00  0.00    -0.014 A 
BRANCH  27  28
ATOM     28  C   UNL A   1      40.520  27.479  28.979  1.00  0.00     0.031 A 
ATOM     29  C   UNL A   1      40.784  26.149  28.437  1.00  0.00     0.074 A 
ATOM     30  C   UNL A   1      41.432  28.413  29.344  1.00  0.00     0.049 A 
ATOM     31  N   UNL A   1      41.652  25.336  28.919  1.00  0.00    -0.248 NA
ATOM     32  C   UNL A   1      40.045  25.601  27.301  1.00  0.00     0.031 C 
ATOM     33  C   UNL A   1      42.871  28.481  29.192  1.00  0.00     0.029 A 
ATOM     34  N   UNL A   1      41.113  29.621  30.000  1.00  0.00    -0.354 N 
ATOM     35  C   UNL A   1      41.857  24.372  27.953  1.00  0.00     0.074 A 
ATOM     36  C   UNL A   1      40.718  24.467  27.069  1.00  0.00     0.031 C 
ATOM     37  C   UNL A   1      43.334  29.469  29.990  1.00  0.00     0.029 A 
ATOM     38  C   UNL A   1      42.210  29.974  30.778  1.00  0.00     0.049 A 
ATOM     39  H   UNL A   1      40.269  30.121  29.921  1.00  0.00     0.167 HD
ATOM     40  C   UNL A   1      43.092  23.799  27.849  1.00  0.00     0.037 A 
ATOM     41  C   UNL A   1      42.048  29.874  32.131  1.00  0.00     0.037 A 
ATOM     42  C   UNL A   1      44.015  24.484  28.758  1.00  0.00     0.049 A 
ATOM     43  C   UNL A   1      42.850  28.710  32.651  1.00  0.00     0.074 A 
ATOM     44  C   UNL A   1      44.875  25.546  28.522  1.00  0.00     0.029 A 
ATOM     45  N   UNL A   1      43.836  24.421  30.137  1.00  0.00    -0.354 N 
ATOM     46  N   UNL A   1      43.128  27.647  31.948  1.00  0.00    -0.248 NA
ATOM     47  C   UNL A   1      43.424  28.682  33.989  1.00  0.00     0.031 C 
ATOM     48  C   UNL A   1      45.155  26.168  29.763  1.00  0.00     0.029 A 
ATOM     49  C   UNL A   1      44.469  25.488  30.755  1.00  0.00     0.049 A 
ATOM     50  H   UNL A   1      43.330  23.718  30.606  1.00  0.00     0.167 HD
ATOM     51  C   UNL A   1      43.933  26.827  32.682  1.00  0.00     0.074 A 
ATOM     52  C   UNL A   1      44.082  27.512  33.956  1.00  0.00     0.031 C 
ATOM     53  C   UNL A   1      44.427  25.652  32.198  1.00  0.00     0.037 A 
BRANCH  40  54
ATOM     54  C   UNL A   1      43.566  22.948  26.687  1.00  0.00     0.064 A 
ATOM     55  C   UNL A   1      43.225  21.577  26.611  1.00  0.00     0.173 A 
ATOM     56  C   UNL A   1      44.353  23.416  25.617  1.00  0.00     0.173 A 
ATOM     57  F   UNL A   1      42.394  21.010  27.496  1.00  0.00    -0.203 F 
ATOM     58  C   UNL A   1      43.714  20.730  25.614  1.00  0.00     0.198 A 
ATOM     59  C   UNL A   1      44.871  22.559  24.636  1.00  0.00     0.198 A 
ATOM     60  F   UNL A   1      44.604  24.722  25.459  1.00  0.00    -0.203 F 
ATOM     61  F   UNL A   1      43.359  19.437  25.609  1.00  0.00    -0.200 F 
ATOM     62  C   UNL A   1      44.560  21.214  24.640  1.00  0.00     0.200 A 
ATOM     63  F   UNL A   1      45.672  23.050  23.678  1.00  0.00    -0.200 F 
ATOM     64  F   UNL A   1      45.046  20.397  23.697  1.00  0.00    -0.200 F 
ENDBRANCH  40  54
BRANCH  41  65
ATOM     65  C   UNL A   1      40.662  30.229  32.600  1.00  0.00     0.064 A 
ATOM     66  C   UNL A   1      40.205  31.557  32.430  1.00  0.00     0.173 A 
ATOM     67  C   UNL A   1      39.691  29.268  32.912  1.00  0.00     0.173 A 
ATOM     68  F   UNL A   1      41.078  32.530  32.118  1.00  0.00    -0.203 F 
ATOM     69  C   UNL A   1      38.849  31.884  32.475  1.00  0.00     0.198 A 
ATOM     70  C   UNL A   1      38.333  29.602  32.974  1.00  0.00     0.198 A 
ATOM     71  F   UNL A   1      40.035  27.984  33.081  1.00  0.00    -0.203 F 
ATOM     72  F   UNL A   1      38.454  33.137  32.204  1.00  0.00    -0.200 F 
ATOM     73  C   UNL A   1      37.910  30.902  32.733  1.00  0.00     0.200 A 
ATOM     74  F   UNL A   1      37.418  28.646  33.193  1.00  0.00    -0.200 F 
ATOM     75  F   UNL A   1      36.602  31.195  32.714  1.00  0.00    -0.200 F 
ENDBRANCH  41  65
BRANCH  53  76
ATOM     76  C   UNL A   1      45.032  24.595  33.068  1.00  0.00     0.064 A 
ATOM     77  C   UNL A   1      44.360  23.408  33.395  1.00  0.00     0.173 A 
ATOM     78  C   UNL A   1      46.381  24.684  33.478  1.00  0.00     0.173 A 
ATOM     79  F   UNL A   1      43.128  23.153  32.934  1.00  0.00    -0.203 F 
ATOM     80  C   UNL A   1      44.960  22.420  34.172  1.00  0.00     0.198 A 
ATOM     81  C   UNL A   1      47.000  23.662  34.188  1.00  0.00     0.198 A 
ATOM     82  F   UNL A   1      47.140  25.747  33.176  1.00  0.00    -0.203 F 
ATOM     83  F   UNL A   1      44.255  21.337  34.522  1.00  0.00    -0.200 F 
ATOM     84  C   UNL A   1      46.281  22.543  34.560  1.00  0.00     0.200 A 
ATOM     85  F   UNL A   1      48.299  23.761  34.496  1.00  0.00    -0.200 F 
ATOM     86  F   UNL A   1      46.867  21.575  35.274  1.00  0.00    -0.200 F 
ENDBRANCH  53  76
ENDBRANCH  27  28
ENDBRANCH  20  22
ENDBRANCH  19  20
ENDBRANCH   1  19
TORSDOF 12
ENDMDL
MODEL 3
REMARK VINA RESULT:     -12.8      3.825      9.991
REMARK SMILES Cc1ccccc1-n1nc(Cl)c(C(=O)OCCOC(=O)c2ccc(-c3c4nc(c(-c5c(F)c(F)c(F)c(F)c5F)c5ccc([nH]5)c(-c5c(F)c(F)c(F)c(F)c5F)c5nc(c(-c6c(F)c(F)c(F)c(F)c6F)c6ccc3[nH]6)C=C5)C=C4)cc2)n1
REMARK SMILES IDX 17 1 16 2 15 3 13 4 14 5 12 6 8 7 9 8 84 9 10 10 11 11 7 12
REMARK SMILES IDX 1 13 2 14 3 15 4 16 6 17 5 18 18 19 19 20 20 21 21 22 22 23
REMARK SMILES IDX 83 24 23 25 82 26 24 27 25 28 26 29 76 30 27 31 81 32 75 33
REMARK SMILES IDX 77 34 28 35 80 36 74 37 73 38 29 40 61 41 41 42 60 43 42 44
REMARK SMILES IDX 45 45 59 46 78 47 43 48 44 49 58 51 79 52 46 53 30 54 31 55
REMARK SMILES IDX 39 56 32 57 33 58 37 59 40 60 34 61 35 62 38 63 36 64 62 65
REMARK SMILES IDX 63 66 71 67 64 68 65 69 69 70 72 71 66 72 67 73 70 74 68 75
REMARK SMILES IDX 47 76 48 77 56 78 49 79 50 80 54 81 57 82 51 83 52 84 55 85
REMARK SMILES IDX 53 86
REMARK H PARENT 77 39 45 50
REMARK Flexibility Score: inf
ROOT
ATOM      1  C   UNL A   1      33.977  29.884  27.289  1.00  0.00     0.275 C 
ENDROOT
BRANCH   1   2
ATOM      2  C   UNL A   1      32.973  29.964  26.107  1.00  0.00     0.275 C 
BRANCH   2   3
ATOM      3  O   UNL A   1      33.004  28.995  25.050  1.00  0.00    -0.457 OA
BRANCH   3   4
ATOM      4  C   UNL A   1      32.126  27.961  25.107  1.00  0.00     0.362 C 
ATOM      5  O   UNL A   1      30.932  28.078  24.870  1.00  0.00    -0.244 OA
BRANCH   4   6
ATOM      6  C   UNL A   1      32.738  26.708  25.516  1.00  0.00     0.209 A 
ATOM      7  N   UNL A   1      34.085  25.097  25.643  1.00  0.00    -0.149 N 
ATOM      8  N   UNL A   1      32.911  24.520  25.999  1.00  0.00    -0.135 NA
ATOM      9  N   UNL A   1      34.070  26.463  25.546  1.00  0.00    -0.139 NA
ATOM     10  C   UNL A   1      32.059  25.535  25.884  1.00  0.00     0.186 A 
ATOM     11  Cl  UNL A   1      30.408  25.305  26.154  1.00  0.00    -0.057 Cl
BRANCH   7  12
ATOM     12  C   UNL A   1      35.105  24.333  25.016  1.00  0.00     0.089 A 
ATOM     13  C   UNL A   1      33.869  24.163  22.771  1.00  0.00     0.047 C 
ATOM     14  C   UNL A   1      34.965  23.786  23.728  1.00  0.00    -0.023 A 
ATOM     15  C   UNL A   1      35.938  22.868  23.291  1.00  0.00     0.006 A 
ATOM     16  C   UNL A   1      37.028  22.528  24.097  1.00  0.00     0.000 A 
ATOM     17  C   UNL A   1      36.240  24.035  25.797  1.00  0.00     0.030 A 
ATOM     18  C   UNL A   1      37.186  23.122  25.344  1.00  0.00     0.002 A 
ENDBRANCH   7  12
ENDBRANCH   4   6
ENDBRANCH   3   4
ENDBRANCH   2   3
ENDBRANCH   1   2
BRANCH   1  19
ATOM     19  O   UNL A   1      35.194  30.681  27.470  1.00  0.00    -0.458 OA
BRANCH  19  20
ATOM     20  C   UNL A   1      35.932  30.953  28.567  1.00  0.00     0.338 C 
ATOM     21  O   UNL A   1      35.756  31.931  29.279  1.00  0.00    -0.246 OA
BRANCH  20  22
ATOM     22  C   UNL A   1      37.057  30.051  28.801  1.00  0.00     0.060 A 
ATOM     23  C   UNL A   1      37.065  29.152  29.885  1.00  0.00     0.016 A 
ATOM     24  C   UNL A   1      38.070  30.061  27.855  1.00  0.00     0.016 A 
ATOM     25  C   UNL A   1      38.087  28.218  29.978  1.00  0.00     0.010 A 
ATOM     26  C   UNL A   1      38.906  28.990  27.798  1.00  0.00     0.010 A 
ATOM     27  C   UNL A   1      38.994  28.161  28.922  1.00  0.00    -0.014 A 
BRANCH  27  28
ATOM     28  C   UNL A   1      40.328  27.607  29.018  1.00  0.00     0.031 A 
ATOM     29  C   UNL A   1      40.622  26.276  28.495  1.00  0.00     0.074 A 
ATOM     30  C   UNL A   1      41.217  28.581  29.332  1.00  0.00     0.049 A 
ATOM     31  N   UNL A   1      41.535  25.505  28.963  1.00  0.00    -0.248 NA
ATOM     32  C   UNL A   1      39.866  25.677  27.396  1.00  0.00     0.031 C 
ATOM     33  C   UNL A   1      42.647  28.697  29.129  1.00  0.00     0.029 A 
ATOM     34  N   UNL A   1      40.876  29.790  29.974  1.00  0.00    -0.354 N 
ATOM     35  C   UNL A   1      41.743  24.529  28.012  1.00  0.00     0.074 A 
ATOM     36  C   UNL A   1      40.572  24.563  27.165  1.00  0.00     0.031 C 
ATOM     37  C   UNL A   1      43.099  29.719  29.891  1.00  0.00     0.029 A 
ATOM     38  C   UNL A   1      41.985  30.200  30.706  1.00  0.00     0.049 A 
ATOM     39  H   UNL A   1      40.012  30.258  29.913  1.00  0.00     0.167 HD
ATOM     40  C   UNL A   1      42.994  23.998  27.876  1.00  0.00     0.037 A 
ATOM     41  C   UNL A   1      41.872  30.124  32.066  1.00  0.00     0.037 A 
ATOM     42  C   UNL A   1      43.921  24.736  28.740  1.00  0.00     0.049 A 
ATOM     43  C   UNL A   1      42.733  29.002  32.581  1.00  0.00     0.074 A 
ATOM     44  C   UNL A   1      44.733  25.822  28.452  1.00  0.00     0.029 A 
ATOM     45  N   UNL A   1      43.791  24.696  30.124  1.00  0.00    -0.354 N 
ATOM     46  N   UNL A   1      43.026  27.934  31.892  1.00  0.00    -0.248 NA
ATOM     47  C   UNL A   1      43.352  29.023  33.899  1.00  0.00     0.031 C 
ATOM     48  C   UNL A   1      45.031  26.481  29.669  1.00  0.00     0.029 A 
ATOM     49  C   UNL A   1      44.404  25.798  30.698  1.00  0.00     0.049 A 
ATOM     50  H   UNL A   1      43.327  23.986  30.625  1.00  0.00     0.167 HD
ATOM     51  C   UNL A   1      43.884  27.160  32.614  1.00  0.00     0.074 A 
ATOM     52  C   UNL A   1      44.051  27.877  33.868  1.00  0.00     0.031 C 
ATOM     53  C   UNL A   1      44.405  25.993  32.138  1.00  0.00     0.037 A 
BRANCH  40  54
ATOM     54  C   UNL A   1      43.460  23.139  26.717  1.00  0.00     0.064 A 
ATOM     55  C   UNL A   1      43.142  21.762  26.668  1.00  0.00     0.173 A 
ATOM     56  C   UNL A   1      44.215  23.606  25.624  1.00  0.00     0.173 A 
ATOM     57  F   UNL A   1      42.341  21.192  27.577  1.00  0.00    -0.203 F 
ATOM     58  C   UNL A   1      43.626  20.909  25.672  1.00  0.00     0.198 A 
ATOM     59  C   UNL A   1      44.728  22.745  24.645  1.00  0.00     0.198 A 
ATOM     60  F   UNL A   1      44.438  24.915  25.443  1.00  0.00    -0.203 F 
ATOM     61  F   UNL A   1      43.296  19.610  25.693  1.00  0.00    -0.200 F 
ATOM     62  C   UNL A   1      44.443  21.394  24.674  1.00  0.00     0.200 A 
ATOM     63  F   UNL A   1      45.500  23.237  23.664  1.00  0.00    -0.200 F 
ATOM     64  F   UNL A   1      44.925  20.573  23.733  1.00  0.00    -0.200 F 
ENDBRANCH  40  54
BRANCH  41  65
ATOM     65  C   UNL A   1      40.490  30.439  32.574  1.00  0.00     0.064 A 
ATOM     66  C   UNL A   1      39.991  31.753  32.419  1.00  0.00     0.173 A 
ATOM     67  C   UNL A   1      39.556  29.451  32.913  1.00  0.00     0.173 A 
ATOM     68  F   UNL A   1      40.827  32.751  32.083  1.00  0.00    -0.203 F 
ATOM     69  C   UNL A   1      38.628  32.042  32.503  1.00  0.00     0.198 A 
ATOM     70  C   UNL A   1      38.191  29.746  33.013  1.00  0.00     0.198 A 
ATOM     71  F   UNL A   1      39.941  28.177  33.070  1.00  0.00    -0.203 F 
ATOM     72  F   UNL A   1      38.191  33.283  32.245  1.00  0.00    -0.200 F 
ATOM     73  C   UNL A   1      37.726  31.033  32.786  1.00  0.00     0.200 A 
ATOM     74  F   UNL A   1      37.311  28.764  33.258  1.00  0.00    -0.200 F 
ATOM     75  F   UNL A   1      36.410  31.289  32.805  1.00  0.00    -0.200 F 
ENDBRANCH  41  65
BRANCH  53  76
ATOM     76  C   UNL A   1      45.077  24.977  33.008  1.00  0.00     0.064 A 
ATOM     77  C   UNL A   1      46.466  24.953  33.209  1.00  0.00     0.173 A 
ATOM     78  C   UNL A   1      44.317  24.080  33.790  1.00  0.00     0.173 A 
ATOM     79  F   UNL A   1      47.270  25.855  32.631  1.00  0.00    -0.203 F 
ATOM     80  C   UNL A   1      47.064  24.024  34.056  1.00  0.00     0.198 A 
ATOM     81  C   UNL A   1      44.912  23.206  34.691  1.00  0.00     0.198 A 
ATOM     82  F   UNL A   1      42.977  24.049  33.723  1.00  0.00    -0.203 F 
ATOM     83  F   UNL A   1      48.399  23.990  34.160  1.00  0.00    -0.200 F 
ATOM     84  C   UNL A   1      46.288  23.157  34.803  1.00  0.00     0.200 A 
ATOM     85  F   UNL A   1      44.147  22.422  35.461  1.00  0.00    -0.200 F 
ATOM     86  F   UNL A   1      46.864  22.292  35.644  1.00  0.00    -0.200 F 
ENDBRANCH  53  76
ENDBRANCH  27  28
ENDBRANCH  20  22
ENDBRANCH  19  20
ENDBRANCH   1  19
TORSDOF 12
ENDMDL
