MODEL 1
REMARK VINA RESULT:     -10.5      0.000      0.000
REMARK SMILES O=C(OCCOC(=O)c1nnn(-c2ccccc2C(F)(F)F)c1-c1cccc(Cl)c1)c1ccc(-c2c3nc(c(-c4c(F)c(F)c(F)c(F)c4F)c4ccc([nH]4)c(-c4c(F)c(F)c(F)c(F)c4F)c4nc(c(-c5c(F)c(F)c(F)c(F)c5F)c5ccc2[nH]5)C=C4)C=C3)cc1
REMARK SMILES IDX 4 1 3 2 2 3 1 4 31 5 32 6 93 7 33 8 92 9 34 10 35 11 36 12
REMARK SMILES IDX 86 13 37 14 91 15 85 16 87 17 38 18 90 19 84 20 83 21 39 23
REMARK SMILES IDX 71 24 51 25 70 26 52 27 55 28 69 29 88 30 53 31 54 32 68 34
REMARK SMILES IDX 89 35 56 36 40 37 41 38 49 39 42 40 43 41 47 42 50 43 44 44
REMARK SMILES IDX 45 45 48 46 46 47 72 48 73 49 81 50 74 51 75 52 79 53 82 54
REMARK SMILES IDX 76 55 77 56 80 57 78 58 57 59 58 60 66 61 59 62 60 63 64 64
REMARK SMILES IDX 67 65 61 66 62 67 65 68 63 69 5 70 6 71 7 72 8 73 9 74 10 75
REMARK SMILES IDX 23 76 11 77 12 78 24 79 25 80 30 81 26 82 28 83 27 84 29 85
REMARK SMILES IDX 13 86 14 87 18 88 15 89 17 90 16 91 19 92 20 93 21 94 22 95
REMARK H PARENT 87 22 55 33
REMARK Flexibility Score: inf
ROOT
ATOM      1  C   UNL A   1      42.751  22.384  25.698  1.00  0.00     0.275 C 
ENDROOT
BRANCH   1   2
ATOM      2  O   UNL A   1      41.346  22.078  25.565  1.00  0.00    -0.458 OA
BRANCH   2   3
ATOM      3  C   UNL A   1      40.485  22.471  26.530  1.00  0.00     0.338 C 
ATOM      4  O   UNL A   1      39.662  21.733  27.044  1.00  0.00    -0.246 OA
BRANCH   3   5
ATOM      5  C   UNL A   1      40.771  23.841  27.026  1.00  0.00     0.060 A 
ATOM      6  C   UNL A   1      41.678  24.083  28.065  1.00  0.00     0.016 A 
ATOM      7  C   UNL A   1      40.097  24.912  26.424  1.00  0.00     0.016 A 
ATOM      8  C   UNL A   1      41.852  25.368  28.555  1.00  0.00     0.010 A 
ATOM      9  C   UNL A   1      40.275  26.202  26.910  1.00  0.00     0.010 A 
ATOM     10  C   UNL A   1      41.109  26.416  28.010  1.00  0.00    -0.014 A 
BRANCH  10  11
ATOM     11  C   UNL A   1      41.208  27.720  28.659  1.00  0.00     0.031 A 
ATOM     12  C   UNL A   1      42.398  28.561  28.331  1.00  0.00     0.074 A 
ATOM     13  C   UNL A   1      40.205  28.177  29.435  1.00  0.00     0.049 A 
ATOM     14  N   UNL A   1      43.223  29.155  29.137  1.00  0.00    -0.248 NA
ATOM     15  C   UNL A   1      42.730  28.736  26.910  1.00  0.00     0.031 C 
ATOM     16  C   UNL A   1      38.876  27.586  29.627  1.00  0.00     0.029 A 
ATOM     17  N   UNL A   1      40.124  29.343  30.134  1.00  0.00    -0.354 N 
ATOM     18  C   UNL A   1      44.088  29.903  28.333  1.00  0.00     0.074 A 
ATOM     19  C   UNL A   1      43.797  29.531  26.973  1.00  0.00     0.031 C 
ATOM     20  C   UNL A   1      38.057  28.503  30.183  1.00  0.00     0.029 A 
ATOM     21  C   UNL A   1      38.834  29.685  30.508  1.00  0.00     0.049 A 
ATOM     22  H   UNL A   1      40.911  29.893  30.354  1.00  0.00     0.167 HD
ATOM     23  C   UNL A   1      44.856  30.910  28.835  1.00  0.00     0.037 A 
ATOM     24  C   UNL A   1      38.416  30.887  30.970  1.00  0.00     0.037 A 
ATOM     25  C   UNL A   1      45.087  30.746  30.245  1.00  0.00     0.049 A 
ATOM     26  C   UNL A   1      39.605  31.626  31.457  1.00  0.00     0.074 A 
ATOM     27  C   UNL A   1      45.696  29.781  31.024  1.00  0.00     0.029 A 
ATOM     28  N   UNL A   1      44.407  31.543  31.131  1.00  0.00    -0.354 N 
ATOM     29  N   UNL A   1      40.294  31.292  32.512  1.00  0.00    -0.248 NA
ATOM     30  C   UNL A   1      40.286  32.503  30.517  1.00  0.00     0.031 C 
ATOM     31  C   UNL A   1      44.934  29.746  32.230  1.00  0.00     0.029 A 
ATOM     32  C   UNL A   1      43.940  30.717  32.117  1.00  0.00     0.049 A 
ATOM     33  H   UNL A   1      44.280  32.517  31.068  1.00  0.00     0.167 HD
ATOM     34  C   UNL A   1      41.611  31.563  32.174  1.00  0.00     0.074 A 
ATOM     35  C   UNL A   1      41.534  32.396  30.976  1.00  0.00     0.031 C 
ATOM     36  C   UNL A   1      42.643  30.862  32.728  1.00  0.00     0.037 A 
BRANCH  23  37
ATOM     37  C   UNL A   1      45.114  32.226  28.126  1.00  0.00     0.064 A 
ATOM     38  C   UNL A   1      44.023  33.067  27.815  1.00  0.00     0.173 A 
ATOM     39  C   UNL A   1      46.320  32.538  27.462  1.00  0.00     0.173 A 
ATOM     40  F   UNL A   1      42.826  32.881  28.393  1.00  0.00    -0.203 F 
ATOM     41  C   UNL A   1      44.104  34.055  26.829  1.00  0.00     0.198 A 
ATOM     42  C   UNL A   1      46.410  33.557  26.513  1.00  0.00     0.198 A 
ATOM     43  F   UNL A   1      47.432  31.812  27.623  1.00  0.00    -0.203 F 
ATOM     44  F   UNL A   1      43.004  34.731  26.472  1.00  0.00    -0.200 F 
ATOM     45  C   UNL A   1      45.294  34.288  26.167  1.00  0.00     0.200 A 
ATOM     46  F   UNL A   1      47.573  33.766  25.881  1.00  0.00    -0.200 F 
ATOM     47  F   UNL A   1      45.357  35.180  25.170  1.00  0.00    -0.200 F 
ENDBRANCH  23  37
BRANCH  24  48
ATOM     48  C   UNL A   1      37.116  31.542  30.704  1.00  0.00     0.064 A 
ATOM     49  C   UNL A   1      36.172  31.731  31.724  1.00  0.00     0.173 A 
ATOM     50  C   UNL A   1      36.877  32.222  29.492  1.00  0.00     0.173 A 
ATOM     51  F   UNL A   1      36.355  31.164  32.925  1.00  0.00    -0.203 F 
ATOM     52  C   UNL A   1      35.059  32.560  31.544  1.00  0.00     0.198 A 
ATOM     53  C   UNL A   1      35.761  33.038  29.310  1.00  0.00     0.198 A 
ATOM     54  F   UNL A   1      37.768  32.183  28.492  1.00  0.00    -0.203 F 
ATOM     55  F   UNL A   1      34.206  32.763  32.558  1.00  0.00    -0.200 F 
ATOM     56  C   UNL A   1      34.857  33.216  30.339  1.00  0.00     0.200 A 
ATOM     57  F   UNL A   1      35.599  33.695  28.153  1.00  0.00    -0.200 F 
ATOM     58  F   UNL A   1      33.820  34.049  30.186  1.00  0.00    -0.200 F 
ENDBRANCH  24  48
BRANCH  36  59
ATOM     59  C   UNL A   1      42.335  29.958  33.885  1.00  0.00     0.064 A 
ATOM     60  C   UNL A   1      41.847  28.647  33.734  1.00  0.00     0.173 A 
ATOM     61  C   UNL A   1      42.692  30.368  35.175  1.00  0.00     0.173 A 
ATOM     62  F   UNL A   1      41.592  28.143  32.522  1.00  0.00    -0.203 F 
ATOM     63  C   UNL A   1      41.679  27.808  34.833  1.00  0.00     0.198 A 
ATOM     64  C   UNL A   1      42.558  29.515  36.267  1.00  0.00     0.198 A 
ATOM     65  F   UNL A   1      43.226  31.584  35.370  1.00  0.00    -0.203 F 
ATOM     66  F   UNL A   1      41.204  26.565  34.663  1.00  0.00    -0.200 F 
ATOM     67  C   UNL A   1      42.040  28.240  36.098  1.00  0.00     0.200 A 
ATOM     68  F   UNL A   1      42.960  29.916  37.480  1.00  0.00    -0.200 F 
ATOM     69  F   UNL A   1      41.923  27.416  37.149  1.00  0.00    -0.200 F 
ENDBRANCH  36  59
ENDBRANCH  10  11
ENDBRANCH   3   5
ENDBRANCH   2   3
ENDBRANCH   1   2
BRANCH   1  70
ATOM     70  C   UNL A   1      43.408  23.171  24.566  1.00  0.00     0.275 C 
BRANCH  70  71
ATOM     71  O   UNL A   1      44.383  24.079  25.104  1.00  0.00    -0.457 OA
BRANCH  71  72
ATOM     72  C   UNL A   1      44.021  25.394  25.136  1.00  0.00     0.361 C 
ATOM     73  O   UNL A   1      42.935  25.837  24.783  1.00  0.00    -0.244 OA
BRANCH  72  74
ATOM     74  C   UNL A   1      45.126  26.246  25.502  1.00  0.00     0.198 A 
ATOM     75  N   UNL A   1      45.664  27.219  24.704  1.00  0.00    -0.122 NA
ATOM     76  C   UNL A   1      45.757  26.253  26.734  1.00  0.00     0.109 A 
ATOM     77  N   UNL A   1      46.635  27.817  25.384  1.00  0.00    -0.061 NA
ATOM     78  N   UNL A   1      46.807  27.135  26.538  1.00  0.00    -0.211 N 
BRANCH  76  79
ATOM     79  C   UNL A   1      45.425  25.559  27.971  1.00  0.00     0.004 A 
ATOM     80  C   UNL A   1      45.457  24.159  28.032  1.00  0.00     0.010 A 
ATOM     81  C   UNL A   1      45.084  26.287  29.117  1.00  0.00     0.031 A 
ATOM     82  C   UNL A   1      45.107  23.494  29.207  1.00  0.00     0.002 A 
ATOM     83  C   UNL A   1      44.730  25.618  30.286  1.00  0.00     0.041 A 
ATOM     84  C   UNL A   1      44.733  24.226  30.334  1.00  0.00     0.020 A 
ATOM     85  Cl  UNL A   1      44.270  26.521  31.675  1.00  0.00    -0.084 Cl
ENDBRANCH  76  79
BRANCH  78  86
ATOM     86  C   UNL A   1      47.866  27.432  27.422  1.00  0.00     0.079 A 
ATOM     87  C   UNL A   1      47.753  28.604  28.187  1.00  0.00     0.029 A 
ATOM     88  C   UNL A   1      48.949  26.549  27.605  1.00  0.00     0.081 A 
ATOM     89  C   UNL A   1      48.662  28.848  29.215  1.00  0.00     0.002 A 
ATOM     90  C   UNL A   1      49.843  26.814  28.658  1.00  0.00     0.015 A 
ATOM     91  C   UNL A   1      49.691  27.943  29.465  1.00  0.00     0.001 A 
BRANCH  88  92
ATOM     92  C   UNL A   1      49.282  25.390  26.688  1.00  0.00     0.418 C 
ATOM     93  F   UNL A   1      50.510  24.865  26.959  1.00  0.00    -0.166 F 
ATOM     94  F   UNL A   1      48.408  24.356  26.820  1.00  0.00    -0.166 F 
ATOM     95  F   UNL A   1      49.314  25.700  25.365  1.00  0.00    -0.166 F 
ENDBRANCH  88  92
ENDBRANCH  78  86
ENDBRANCH  72  74
ENDBRANCH  71  72
ENDBRANCH  70  71
ENDBRANCH   1  70
TORSDOF 14
ENDMDL
MODEL 2
REMARK VINA RESULT:     -10.4      4.978     10.896
REMARK SMILES O=C(OCCOC(=O)c1nnn(-c2ccccc2C(F)(F)F)c1-c1cccc(Cl)c1)c1ccc(-c2c3nc(c(-c4c(F)c(F)c(F)c(F)c4F)c4ccc([nH]4)c(-c4c(F)c(F)c(F)c(F)c4F)c4nc(c(-c5c(F)c(F)c(F)c(F)c5F)c5ccc2[nH]5)C=C4)C=C3)cc1
REMARK SMILES IDX 4 1 3 2 2 3 1 4 31 5 32 6 93 7 33 8 92 9 34 10 35 11 36 12
REMARK SMILES IDX 86 13 37 14 91 15 85 16 87 17 38 18 90 19 84 20 83 21 39 23
REMARK SMILES IDX 71 24 51 25 70 26 52 27 55 28 69 29 88 30 53 31 54 32 68 34
REMARK SMILES IDX 89 35 56 36 40 37 41 38 49 39 42 40 43 41 47 42 50 43 44 44
REMARK SMILES IDX 45 45 48 46 46 47 72 48 73 49 81 50 74 51 75 52 79 53 82 54
REMARK SMILES IDX 76 55 77 56 80 57 78 58 57 59 58 60 66 61 59 62 60 63 64 64
REMARK SMILES IDX 67 65 61 66 62 67 65 68 63 69 5 70 6 71 7 72 8 73 9 74 10 75
REMARK SMILES IDX 23 76 11 77 12 78 24 79 25 80 30 81 26 82 28 83 27 84 29 85
REMARK SMILES IDX 13 86 14 87 18 88 15 89 17 90 16 91 19 92 20 93 21 94 22 95
REMARK H PARENT 87 22 55 33
REMARK Flexibility Score: inf
ROOT
ATOM      1  C   UNL A   1      33.293  29.984  26.246  1.00  0.00     0.275 C 
ENDROOT
BRANCH   1   2
ATOM      2  O   UNL A   1      33.775  30.359  27.556  1.00  0.00    -0.458 OA
BRANCH   2   3
ATOM      3  C   UNL A   1      34.735  31.303  27.666  1.00  0.00     0.338 C 
ATOM      4  O   UNL A   1      34.536  32.494  27.494  1.00  0.00    -0.246 OA
BRANCH   3   5
ATOM      5  C   UNL A   1      36.012  30.759  28.195  1.00  0.00     0.060 A 
ATOM      6  C   UNL A   1      37.137  31.568  28.401  1.00  0.00     0.016 A 
ATOM      7  C   UNL A   1      36.073  29.390  28.488  1.00  0.00     0.016 A 
ATOM      8  C   UNL A   1      38.334  31.006  28.816  1.00  0.00     0.010 A 
ATOM      9  C   UNL A   1      37.271  28.826  28.909  1.00  0.00     0.010 A 
ATOM     10  C   UNL A   1      38.410  29.628  29.018  1.00  0.00    -0.014 A 
BRANCH  10  11
ATOM     11  C   UNL A   1      39.726  29.061  29.301  1.00  0.00     0.031 A 
ATOM     12  C   UNL A   1      40.138  28.967  30.734  1.00  0.00     0.074 A 
ATOM     13  C   UNL A   1      40.480  28.549  28.307  1.00  0.00     0.049 A 
ATOM     14  N   UNL A   1      41.239  29.367  31.292  1.00  0.00    -0.248 NA
ATOM     15  C   UNL A   1      39.178  28.375  31.675  1.00  0.00     0.031 C 
ATOM     16  C   UNL A   1      40.094  28.329  26.909  1.00  0.00     0.029 A 
ATOM     17  N   UNL A   1      41.727  28.004  28.370  1.00  0.00    -0.354 N 
ATOM     18  C   UNL A   1      41.180  28.944  32.623  1.00  0.00     0.074 A 
ATOM     19  C   UNL A   1      39.852  28.425  32.823  1.00  0.00     0.031 C 
ATOM     20  C   UNL A   1      40.981  27.492  26.330  1.00  0.00     0.029 A 
ATOM     21  C   UNL A   1      42.058  27.233  27.267  1.00  0.00     0.049 A 
ATOM     22  H   UNL A   1      42.337  28.146  29.129  1.00  0.00     0.167 HD
ATOM     23  C   UNL A   1      42.288  28.883  33.414  1.00  0.00     0.037 A 
ATOM     24  C   UNL A   1      43.097  26.371  27.164  1.00  0.00     0.037 A 
ATOM     25  C   UNL A   1      43.320  29.769  32.948  1.00  0.00     0.049 A 
ATOM     26  C   UNL A   1      44.084  26.722  28.213  1.00  0.00     0.074 A 
ATOM     27  C   UNL A   1      43.420  31.136  32.770  1.00  0.00     0.029 A 
ATOM     28  N   UNL A   1      44.409  29.243  32.300  1.00  0.00    -0.354 N 
ATOM     29  N   UNL A   1      44.796  27.814  28.214  1.00  0.00    -0.248 NA
ATOM     30  C   UNL A   1      43.974  26.044  29.496  1.00  0.00     0.031 C 
ATOM     31  C   UNL A   1      44.242  31.297  31.614  1.00  0.00     0.029 A 
ATOM     32  C   UNL A   1      44.615  30.022  31.193  1.00  0.00     0.049 A 
ATOM     33  H   UNL A   1      44.937  28.460  32.577  1.00  0.00     0.167 HD
ATOM     34  C   UNL A   1      44.870  28.184  29.548  1.00  0.00     0.074 A 
ATOM     35  C   UNL A   1      44.432  27.009  30.297  1.00  0.00     0.031 C 
ATOM     36  C   UNL A   1      45.011  29.492  29.912  1.00  0.00     0.037 A 
BRANCH  23  37
ATOM     37  C   UNL A   1      42.570  27.774  34.409  1.00  0.00     0.064 A 
ATOM     38  C   UNL A   1      43.179  26.582  33.960  1.00  0.00     0.173 A 
ATOM     39  C   UNL A   1      41.983  27.701  35.692  1.00  0.00     0.173 A 
ATOM     40  F   UNL A   1      43.782  26.530  32.762  1.00  0.00    -0.203 F 
ATOM     41  C   UNL A   1      43.096  25.387  34.680  1.00  0.00     0.198 A 
ATOM     42  C   UNL A   1      41.945  26.517  36.431  1.00  0.00     0.198 A 
ATOM     43  F   UNL A   1      41.336  28.734  36.241  1.00  0.00    -0.203 F 
ATOM     44  F   UNL A   1      43.567  24.253  34.146  1.00  0.00    -0.200 F 
ATOM     45  C   UNL A   1      42.464  25.352  35.909  1.00  0.00     0.200 A 
ATOM     46  F   UNL A   1      41.327  26.504  37.619  1.00  0.00    -0.200 F 
ATOM     47  F   UNL A   1      42.316  24.195  36.567  1.00  0.00    -0.200 F 
ENDBRANCH  23  37
BRANCH  24  48
ATOM     48  C   UNL A   1      43.118  25.081  26.439  1.00  0.00     0.064 A 
ATOM     49  C   UNL A   1      43.990  24.863  25.363  1.00  0.00     0.173 A 
ATOM     50  C   UNL A   1      42.455  23.947  26.951  1.00  0.00     0.173 A 
ATOM     51  F   UNL A   1      44.701  25.880  24.854  1.00  0.00    -0.203 F 
ATOM     52  C   UNL A   1      44.193  23.583  24.836  1.00  0.00     0.198 A 
ATOM     53  C   UNL A   1      42.649  22.673  26.416  1.00  0.00     0.198 A 
ATOM     54  F   UNL A   1      41.676  24.035  28.038  1.00  0.00    -0.203 F 
ATOM     55  F   UNL A   1      45.076  23.401  23.843  1.00  0.00    -0.200 F 
ATOM     56  C   UNL A   1      43.527  22.490  25.366  1.00  0.00     0.200 A 
ATOM     57  F   UNL A   1      42.026  21.620  26.964  1.00  0.00    -0.200 F 
ATOM     58  F   UNL A   1      43.761  21.257  24.895  1.00  0.00    -0.200 F 
ENDBRANCH  24  48
BRANCH  36  59
ATOM     59  C   UNL A   1      45.324  30.490  28.836  1.00  0.00     0.064 A 
ATOM     60  C   UNL A   1      44.340  31.097  28.034  1.00  0.00     0.173 A 
ATOM     61  C   UNL A   1      46.635  30.966  28.717  1.00  0.00     0.173 A 
ATOM     62  F   UNL A   1      43.048  30.779  28.170  1.00  0.00    -0.203 F 
ATOM     63  C   UNL A   1      44.668  32.097  27.121  1.00  0.00     0.198 A 
ATOM     64  C   UNL A   1      46.953  31.991  27.832  1.00  0.00     0.198 A 
ATOM     65  F   UNL A   1      47.603  30.471  29.505  1.00  0.00    -0.203 F 
ATOM     66  F   UNL A   1      43.711  32.654  26.362  1.00  0.00    -0.200 F 
ATOM     67  C   UNL A   1      45.973  32.548  27.025  1.00  0.00     0.200 A 
ATOM     68  F   UNL A   1      48.206  32.463  27.781  1.00  0.00    -0.200 F 
ATOM     69  F   UNL A   1      46.280  33.544  26.181  1.00  0.00    -0.200 F 
ENDBRANCH  36  59
ENDBRANCH  10  11
ENDBRANCH   3   5
ENDBRANCH   2   3
ENDBRANCH   1   2
BRANCH   1  70
ATOM     70  C   UNL A   1      32.697  28.587  26.092  1.00  0.00     0.275 C 
BRANCH  70  71
ATOM     71  O   UNL A   1      33.739  27.639  25.806  1.00  0.00    -0.457 OA
BRANCH  71  72
ATOM     72  C   UNL A   1      33.709  27.074  24.565  1.00  0.00     0.361 C 
ATOM     73  O   UNL A   1      34.135  27.595  23.540  1.00  0.00    -0.244 OA
BRANCH  72  74
ATOM     74  C   UNL A   1      32.977  25.832  24.559  1.00  0.00     0.198 A 
ATOM     75  N   UNL A   1      31.617  25.723  24.436  1.00  0.00    -0.122 NA
ATOM     76  C   UNL A   1      33.541  24.569  24.605  1.00  0.00     0.109 A 
ATOM     77  N   UNL A   1      31.307  24.432  24.437  1.00  0.00    -0.061 NA
ATOM     78  N   UNL A   1      32.437  23.739  24.704  1.00  0.00    -0.211 N 
BRANCH  76  79
ATOM     79  C   UNL A   1      34.936  24.154  24.534  1.00  0.00     0.004 A 
ATOM     80  C   UNL A   1      35.420  23.477  23.405  1.00  0.00     0.010 A 
ATOM     81  C   UNL A   1      35.811  24.440  25.588  1.00  0.00     0.031 A 
ATOM     82  C   UNL A   1      36.747  23.051  23.351  1.00  0.00     0.002 A 
ATOM     83  C   UNL A   1      37.133  24.008  25.531  1.00  0.00     0.041 A 
ATOM     84  C   UNL A   1      37.603  23.308  24.422  1.00  0.00     0.020 A 
ATOM     85  Cl  UNL A   1      38.189  24.327  26.851  1.00  0.00    -0.084 Cl
ENDBRANCH  76  79
BRANCH  78  86
ATOM     86  C   UNL A   1      32.417  22.344  24.917  1.00  0.00     0.079 A 
ATOM     87  C   UNL A   1      32.107  21.532  23.814  1.00  0.00     0.029 A 
ATOM     88  C   UNL A   1      32.782  21.778  26.154  1.00  0.00     0.081 A 
ATOM     89  C   UNL A   1      32.265  20.151  23.908  1.00  0.00     0.002 A 
ATOM     90  C   UNL A   1      32.946  20.382  26.216  1.00  0.00     0.015 A 
ATOM     91  C   UNL A   1      32.706  19.579  25.099  1.00  0.00     0.001 A 
BRANCH  88  92
ATOM     92  C   UNL A   1      32.913  22.549  27.451  1.00  0.00     0.418 C 
ATOM     93  F   UNL A   1      32.528  21.803  28.526  1.00  0.00    -0.166 F 
ATOM     94  F   UNL A   1      34.196  22.921  27.707  1.00  0.00    -0.166 F 
ATOM     95  F   UNL A   1      32.163  23.680  27.520  1.00  0.00    -0.166 F 
ENDBRANCH  88  92
ENDBRANCH  78  86
ENDBRANCH  72  74
ENDBRANCH  71  72
ENDBRANCH  70  71
ENDBRANCH   1  70
TORSDOF 14
ENDMDL
MODEL 3
REMARK VINA RESULT:     -10.4      4.446      8.002
REMARK SMILES O=C(OCCOC(=O)c1nnn(-c2ccccc2C(F)(F)F)c1-c1cccc(Cl)c1)c1ccc(-c2c3nc(c(-c4c(F)c(F)c(F)c(F)c4F)c4ccc([nH]4)c(-c4c(F)c(F)c(F)c(F)c4F)c4nc(c(-c5c(F)c(F)c(F)c(F)c5F)c5ccc2[nH]5)C=C4)C=C3)cc1
REMARK SMILES IDX 4 1 3 2 2 3 1 4 31 5 32 6 93 7 33 8 92 9 34 10 35 11 36 12
REMARK SMILES IDX 86 13 37 14 91 15 85 16 87 17 38 18 90 19 84 20 83 21 39 23
REMARK SMILES IDX 71 24 51 25 70 26 52 27 55 28 69 29 88 30 53 31 54 32 68 34
REMARK SMILES IDX 89 35 56 36 40 37 41 38 49 39 42 40 43 41 47 42 50 43 44 44
REMARK SMILES IDX 45 45 48 46 46 47 72 48 73 49 81 50 74 51 75 52 79 53 82 54
REMARK SMILES IDX 76 55 77 56 80 57 78 58 57 59 58 60 66 61 59 62 60 63 64 64
REMARK SMILES IDX 67 65 61 66 62 67 65 68 63 69 5 70 6 71 7 72 8 73 9 74 10 75
REMARK SMILES IDX 23 76 11 77 12 78 24 79 25 80 30 81 26 82 28 83 27 84 29 85
REMARK SMILES IDX 13 86 14 87 18 88 15 89 17 90 16 91 19 92 20 93 21 94 22 95
REMARK H PARENT 87 22 55 33
REMARK Flexibility Score: inf
ROOT
ATOM      1  C   UNL A   1      37.403  22.048  24.487  1.00  0.00     0.275 C 
ENDROOT
BRANCH   1   2
ATOM      2  O   UNL A   1      37.820  22.040  25.871  1.00  0.00    -0.458 OA
BRANCH   2   3
ATOM      3  C   UNL A   1      39.135  22.127  26.169  1.00  0.00     0.338 C 
ATOM      4  O   UNL A   1      39.978  21.354  25.745  1.00  0.00    -0.246 OA
BRANCH   3   5
ATOM      5  C   UNL A   1      39.469  23.365  26.918  1.00  0.00     0.060 A 
ATOM      6  C   UNL A   1      38.653  24.503  26.877  1.00  0.00     0.016 A 
ATOM      7  C   UNL A   1      40.646  23.376  27.680  1.00  0.00     0.016 A 
ATOM      8  C   UNL A   1      39.045  25.666  27.521  1.00  0.00     0.010 A 
ATOM      9  C   UNL A   1      41.036  24.539  28.331  1.00  0.00     0.010 A 
ATOM     10  C   UNL A   1      40.262  25.695  28.202  1.00  0.00    -0.014 A 
BRANCH  10  11
ATOM     11  C   UNL A   1      40.707  26.982  28.731  1.00  0.00     0.031 A 
ATOM     12  C   UNL A   1      41.963  27.559  28.165  1.00  0.00     0.074 A 
ATOM     13  C   UNL A   1      39.947  27.660  29.615  1.00  0.00     0.049 A 
ATOM     14  N   UNL A   1      43.005  28.014  28.791  1.00  0.00    -0.248 NA
ATOM     15  C   UNL A   1      42.085  27.604  26.701  1.00  0.00     0.031 C 
ATOM     16  C   UNL A   1      38.580  27.349  30.049  1.00  0.00     0.029 A 
ATOM     17  N   UNL A   1      40.200  28.848  30.230  1.00  0.00    -0.354 N 
ATOM     18  C   UNL A   1      43.850  28.543  27.812  1.00  0.00     0.074 A 
ATOM     19  C   UNL A   1      43.278  28.177  26.543  1.00  0.00     0.031 C 
ATOM     20  C   UNL A   1      38.049  28.432  30.654  1.00  0.00     0.029 A 
ATOM     21  C   UNL A   1      39.075  29.452  30.770  1.00  0.00     0.049 A 
ATOM     22  H   UNL A   1      41.100  29.242  30.288  1.00  0.00     0.167 HD
ATOM     23  C   UNL A   1      44.864  29.401  28.117  1.00  0.00     0.037 A 
ATOM     24  C   UNL A   1      38.969  30.731  31.200  1.00  0.00     0.037 A 
ATOM     25  C   UNL A   1      45.288  29.256  29.483  1.00  0.00     0.049 A 
ATOM     26  C   UNL A   1      40.339  31.242  31.446  1.00  0.00     0.074 A 
ATOM     27  C   UNL A   1      45.825  28.224  30.230  1.00  0.00     0.029 A 
ATOM     28  N   UNL A   1      44.922  30.207  30.401  1.00  0.00    -0.354 N 
ATOM     29  N   UNL A   1      41.116  30.826  32.406  1.00  0.00    -0.248 NA
ATOM     30  C   UNL A   1      41.008  31.929  30.351  1.00  0.00     0.031 C 
ATOM     31  C   UNL A   1      45.277  28.391  31.537  1.00  0.00     0.029 A 
ATOM     32  C   UNL A   1      44.477  29.532  31.505  1.00  0.00     0.049 A 
ATOM     33  H   UNL A   1      44.970  31.184  30.287  1.00  0.00     0.167 HD
ATOM     34  C   UNL A   1      42.387  30.820  31.852  1.00  0.00     0.074 A 
ATOM     35  C   UNL A   1      42.273  31.599  30.622  1.00  0.00     0.031 C 
ATOM     36  C   UNL A   1      43.346  29.955  32.293  1.00  0.00     0.037 A 
BRANCH  23  37
ATOM     37  C   UNL A   1      45.244  30.609  27.282  1.00  0.00     0.064 A 
ATOM     38  C   UNL A   1      46.606  30.854  27.003  1.00  0.00     0.173 A 
ATOM     39  C   UNL A   1      44.375  31.692  27.027  1.00  0.00     0.173 A 
ATOM     40  F   UNL A   1      47.528  29.897  27.191  1.00  0.00    -0.203 F 
ATOM     41  C   UNL A   1      47.071  32.116  26.621  1.00  0.00     0.198 A 
ATOM     42  C   UNL A   1      44.838  32.938  26.599  1.00  0.00     0.198 A 
ATOM     43  F   UNL A   1      43.063  31.629  27.276  1.00  0.00    -0.203 F 
ATOM     44  F   UNL A   1      48.388  32.333  26.506  1.00  0.00    -0.200 F 
ATOM     45  C   UNL A   1      46.187  33.162  26.436  1.00  0.00     0.200 A 
ATOM     46  F   UNL A   1      43.965  33.940  26.426  1.00  0.00    -0.200 F 
ATOM     47  F   UNL A   1      46.635  34.390  26.145  1.00  0.00    -0.200 F 
ENDBRANCH  23  37
BRANCH  24  48
ATOM     48  C   UNL A   1      37.788  31.616  31.087  1.00  0.00     0.064 A 
ATOM     49  C   UNL A   1      37.335  32.071  29.840  1.00  0.00     0.173 A 
ATOM     50  C   UNL A   1      36.929  31.828  32.184  1.00  0.00     0.173 A 
ATOM     51  F   UNL A   1      38.068  31.858  28.738  1.00  0.00    -0.203 F 
ATOM     52  C   UNL A   1      36.090  32.694  29.700  1.00  0.00     0.198 A 
ATOM     53  C   UNL A   1      35.694  32.461  32.045  1.00  0.00     0.198 A 
ATOM     54  F   UNL A   1      37.227  31.344  33.399  1.00  0.00    -0.203 F 
ATOM     55  F   UNL A   1      35.664  33.068  28.485  1.00  0.00    -0.200 F 
ATOM     56  C   UNL A   1      35.270  32.884  30.800  1.00  0.00     0.200 A 
ATOM     57  F   UNL A   1      34.895  32.603  33.111  1.00  0.00    -0.200 F 
ATOM     58  F   UNL A   1      34.056  33.434  30.656  1.00  0.00    -0.200 F 
ENDBRANCH  24  48
BRANCH  36  59
ATOM     59  C   UNL A   1      43.068  29.179  33.547  1.00  0.00     0.064 A 
ATOM     60  C   UNL A   1      43.392  29.646  34.834  1.00  0.00     0.173 A 
ATOM     61  C   UNL A   1      42.312  28.004  33.460  1.00  0.00     0.173 A 
ATOM     62  F   UNL A   1      44.012  30.819  35.005  1.00  0.00    -0.203 F 
ATOM     63  C   UNL A   1      43.017  28.940  35.975  1.00  0.00     0.198 A 
ATOM     64  C   UNL A   1      41.907  27.319  34.602  1.00  0.00     0.198 A 
ATOM     65  F   UNL A   1      41.917  27.546  32.261  1.00  0.00    -0.203 F 
ATOM     66  F   UNL A   1      43.346  29.404  37.190  1.00  0.00    -0.200 F 
ATOM     67  C   UNL A   1      42.270  27.781  35.859  1.00  0.00     0.200 A 
ATOM     68  F   UNL A   1      41.137  26.229  34.489  1.00  0.00    -0.200 F 
ATOM     69  F   UNL A   1      41.868  27.126  36.958  1.00  0.00    -0.200 F 
ENDBRANCH  36  59
ENDBRANCH  10  11
ENDBRANCH   3   5
ENDBRANCH   2   3
ENDBRANCH   1   2
BRANCH   1  70
ATOM     70  C   UNL A   1      35.907  22.165  24.206  1.00  0.00     0.275 C 
BRANCH  70  71
ATOM     71  O   UNL A   1      35.685  23.058  23.102  1.00  0.00    -0.457 OA
BRANCH  71  72
ATOM     72  C   UNL A   1      34.382  23.307  22.788  1.00  0.00     0.361 C 
ATOM     73  O   UNL A   1      33.640  22.537  22.188  1.00  0.00    -0.244 OA
BRANCH  72  74
ATOM     74  C   UNL A   1      33.999  24.659  23.114  1.00  0.00     0.198 A 
ATOM     75  N   UNL A   1      34.031  25.715  22.242  1.00  0.00    -0.122 NA
ATOM     76  C   UNL A   1      33.482  25.073  24.328  1.00  0.00     0.109 A 
ATOM     77  N   UNL A   1      33.578  26.787  22.881  1.00  0.00    -0.061 NA
ATOM     78  N   UNL A   1      33.403  26.448  24.178  1.00  0.00    -0.211 N 
BRANCH  76  79
ATOM     79  C   UNL A   1      33.068  24.302  25.493  1.00  0.00     0.004 A 
ATOM     80  C   UNL A   1      34.022  23.807  26.394  1.00  0.00     0.010 A 
ATOM     81  C   UNL A   1      31.711  24.060  25.732  1.00  0.00     0.031 A 
ATOM     82  C   UNL A   1      33.628  23.041  27.491  1.00  0.00     0.002 A 
ATOM     83  C   UNL A   1      31.323  23.291  26.825  1.00  0.00     0.041 A 
ATOM     84  C   UNL A   1      32.275  22.773  27.701  1.00  0.00     0.020 A 
ATOM     85  Cl  UNL A   1      29.655  22.962  27.085  1.00  0.00    -0.084 Cl
ENDBRANCH  76  79
BRANCH  78  86
ATOM     86  C   UNL A   1      33.066  27.409  25.155  1.00  0.00     0.079 A 
ATOM     87  C   UNL A   1      34.028  27.687  26.140  1.00  0.00     0.029 A 
ATOM     88  C   UNL A   1      31.858  28.132  25.098  1.00  0.00     0.081 A 
ATOM     89  C   UNL A   1      33.837  28.760  27.007  1.00  0.00     0.002 A 
ATOM     90  C   UNL A   1      31.699  29.218  25.978  1.00  0.00     0.015 A 
ATOM     91  C   UNL A   1      32.686  29.539  26.911  1.00  0.00     0.001 A 
BRANCH  88  92
ATOM     92  C   UNL A   1      30.672  27.764  24.230  1.00  0.00     0.418 C 
ATOM     93  F   UNL A   1      29.968  26.718  24.749  1.00  0.00    -0.166 F 
ATOM     94  F   UNL A   1      29.778  28.782  24.113  1.00  0.00    -0.166 F 
ATOM     95  F   UNL A   1      30.989  27.382  22.964  1.00  0.00    -0.166 F 
ENDBRANCH  88  92
ENDBRANCH  78  86
ENDBRANCH  72  74
ENDBRANCH  71  72
ENDBRANCH  70  71
ENDBRANCH   1  70
TORSDOF 14
ENDMDL
