MODEL 1
REMARK VINA RESULT:     -10.9      0.000      0.000
REMARK SMILES CCC(CC)N(CC(C)C)C(=O)N1CC[C@@H](C(=O)OCCOC(=O)c2ccc(-c3c4nc(c(-c5c(F)c(F)c(F)c(F)c5F)c5ccc([nH]5)c(-c5c(F)c(F)c(F)c(F)c5F)c5nc(c(-c6c(F)c(F)c(F)c(F)c6F)c6ccc3[nH]6)C=C5)C=C4)cc2)[C@@H]1C
REMARK SMILES IDX 20 1 19 2 17 3 18 4 16 5 13 6 14 7 88 8 15 9 89 10 11 11
REMARK SMILES IDX 12 12 6 13 3 14 2 15 1 16 4 17 5 18 7 19 8 20 9 21 10 22
REMARK SMILES IDX 21 23 22 24 23 25 24 26 25 27 26 28 87 29 27 30 86 31 28 32
REMARK SMILES IDX 29 33 30 34 80 35 31 36 85 37 79 38 81 39 32 40 84 41 78 42
REMARK SMILES IDX 77 43 33 45 65 46 45 47 64 48 46 49 49 50 63 51 82 52 47 53
REMARK SMILES IDX 48 54 62 56 83 57 50 58 34 59 35 60 43 61 36 62 37 63 41 64
REMARK SMILES IDX 44 65 38 66 39 67 42 68 40 69 66 70 67 71 75 72 68 73 69 74
REMARK SMILES IDX 73 75 76 76 70 77 71 78 74 79 72 80 51 81 52 82 60 83 53 84
REMARK SMILES IDX 54 85 58 86 61 87 55 88 56 89 59 90 57 91
REMARK H PARENT 81 44 49 55
REMARK Flexibility Score: inf
ROOT
ATOM      1  C   UNL A   1      31.499  28.672  25.240  1.00  0.00     0.274 C 
ENDROOT
BRANCH   1   2
ATOM      2  O   UNL A   1      31.432  27.649  26.254  1.00  0.00    -0.462 OA
BRANCH   2   3
ATOM      3  C   UNL A   1      30.844  26.481  25.888  1.00  0.00     0.311 C 
ATOM      4  O   UNL A   1      30.025  25.872  26.568  1.00  0.00    -0.252 OA
BRANCH   3   5
ATOM      5  C   UNL A   1      31.338  25.936  24.563  1.00  0.00     0.123 C 
ATOM      6  N   UNL A   1      32.153  23.761  24.051  1.00  0.00    -0.321 N 
ATOM      7  C   UNL A   1      31.010  23.998  23.193  1.00  0.00     0.122 C 
ATOM      8  C   UNL A   1      32.593  25.035  24.628  1.00  0.00     0.098 C 
ATOM      9  C   UNL A   1      30.244  25.084  23.914  1.00  0.00     0.039 C 
ATOM     10  C   UNL A   1      33.737  25.619  23.785  1.00  0.00     0.032 C 
BRANCH   6  11
ATOM     11  C   UNL A   1      32.886  22.616  23.852  1.00  0.00     0.320 C 
ATOM     12  O   UNL A   1      33.350  22.419  22.726  1.00  0.00    -0.248 OA
BRANCH  11  13
ATOM     13  N   UNL A   1      33.017  21.688  24.879  1.00  0.00    -0.321 N 
BRANCH  13  14
ATOM     14  C   UNL A   1      34.236  21.731  25.741  1.00  0.00     0.086 C 
BRANCH  14  15
ATOM     15  C   UNL A   1      35.552  21.804  24.927  1.00  0.00     0.022 C 
ATOM     16  C   UNL A   1      36.411  20.553  25.034  1.00  0.00     0.006 C 
ENDBRANCH  14  15
BRANCH  14  17
ATOM     17  C   UNL A   1      34.137  22.716  26.925  1.00  0.00     0.022 C 
ATOM     18  C   UNL A   1      33.127  22.390  28.011  1.00  0.00     0.006 C 
ENDBRANCH  14  17
ENDBRANCH  13  14
BRANCH  13  19
ATOM     19  C   UNL A   1      32.235  20.445  24.974  1.00  0.00     0.124 C 
BRANCH  19  20
ATOM     20  C   UNL A   1      32.939  19.179  24.432  1.00  0.00     0.002 C 
ATOM     21  C   UNL A   1      32.758  17.927  25.288  1.00  0.00     0.009 C 
ATOM     22  C   UNL A   1      32.456  18.899  23.006  1.00  0.00     0.009 C 
ENDBRANCH  19  20
ENDBRANCH  13  19
ENDBRANCH  11  13
ENDBRANCH   6  11
ENDBRANCH   3   5
ENDBRANCH   2   3
ENDBRANCH   1   2
BRANCH   1  23
ATOM     23  C   UNL A   1      31.754  30.063  25.829  1.00  0.00     0.275 C 
BRANCH  23  24
ATOM     24  O   UNL A   1      33.158  30.308  26.031  1.00  0.00    -0.458 OA
BRANCH  24  25
ATOM     25  C   UNL A   1      33.439  31.286  26.919  1.00  0.00     0.338 C 
ATOM     26  O   UNL A   1      32.718  32.213  27.256  1.00  0.00    -0.246 OA
BRANCH  25  27
ATOM     27  C   UNL A   1      34.714  31.012  27.589  1.00  0.00     0.060 A 
ATOM     28  C   UNL A   1      34.931  29.712  28.045  1.00  0.00     0.016 A 
ATOM     29  C   UNL A   1      35.632  32.024  27.865  1.00  0.00     0.016 A 
ATOM     30  C   UNL A   1      36.053  29.412  28.804  1.00  0.00     0.010 A 
ATOM     31  C   UNL A   1      36.780  31.715  28.606  1.00  0.00     0.010 A 
ATOM     32  C   UNL A   1      36.991  30.410  29.087  1.00  0.00    -0.014 A 
BRANCH  32  33
ATOM     33  C   UNL A   1      38.188  30.062  29.885  1.00  0.00     0.031 A 
ATOM     34  C   UNL A   1      39.238  29.153  29.321  1.00  0.00     0.074 A 
ATOM     35  C   UNL A   1      38.338  30.602  31.109  1.00  0.00     0.049 A 
ATOM     36  N   UNL A   1      40.327  28.699  29.887  1.00  0.00    -0.248 NA
ATOM     37  C   UNL A   1      39.041  28.691  27.939  1.00  0.00     0.031 C 
ATOM     38  C   UNL A   1      37.395  31.524  31.744  1.00  0.00     0.029 A 
ATOM     39  N   UNL A   1      39.339  30.458  32.035  1.00  0.00    -0.354 N 
ATOM     40  C   UNL A   1      40.929  27.877  28.946  1.00  0.00     0.074 A 
ATOM     41  C   UNL A   1      40.085  27.890  27.770  1.00  0.00     0.031 C 
ATOM     42  C   UNL A   1      37.862  31.863  32.955  1.00  0.00     0.029 A 
ATOM     43  C   UNL A   1      39.112  31.150  33.198  1.00  0.00     0.049 A 
ATOM     44  H   UNL A   1      40.143  29.909  31.880  1.00  0.00     0.167 HD
ATOM     45  C   UNL A   1      42.082  27.176  29.060  1.00  0.00     0.037 A 
ATOM     46  C   UNL A   1      39.818  31.182  34.343  1.00  0.00     0.037 A 
ATOM     47  C   UNL A   1      42.935  27.196  30.219  1.00  0.00     0.049 A 
ATOM     48  C   UNL A   1      41.086  30.381  34.443  1.00  0.00     0.074 A 
ATOM     49  C   UNL A   1      44.146  26.553  30.410  1.00  0.00     0.029 A 
ATOM     50  N   UNL A   1      42.666  27.896  31.385  1.00  0.00    -0.354 N 
ATOM     51  N   UNL A   1      41.652  29.615  33.543  1.00  0.00    -0.248 NA
ATOM     52  C   UNL A   1      41.811  30.446  35.719  1.00  0.00     0.031 C 
ATOM     53  C   UNL A   1      44.590  26.833  31.708  1.00  0.00     0.029 A 
ATOM     54  C   UNL A   1      43.675  27.682  32.310  1.00  0.00     0.049 A 
ATOM     55  H   UNL A   1      41.874  28.462  31.534  1.00  0.00     0.167 HD
ATOM     56  C   UNL A   1      42.800  29.113  34.138  1.00  0.00     0.074 A 
ATOM     57  C   UNL A   1      42.864  29.682  35.469  1.00  0.00     0.031 C 
ATOM     58  C   UNL A   1      43.716  28.252  33.631  1.00  0.00     0.037 A 
BRANCH  45  59
ATOM     59  C   UNL A   1      42.482  26.300  27.910  1.00  0.00     0.064 A 
ATOM     60  C   UNL A   1      41.926  25.027  27.723  1.00  0.00     0.173 A 
ATOM     61  C   UNL A   1      43.392  26.770  26.952  1.00  0.00     0.173 A 
ATOM     62  F   UNL A   1      41.062  24.529  28.619  1.00  0.00    -0.203 F 
ATOM     63  C   UNL A   1      42.277  24.250  26.621  1.00  0.00     0.198 A 
ATOM     64  C   UNL A   1      43.724  26.000  25.841  1.00  0.00     0.198 A 
ATOM     65  F   UNL A   1      43.948  27.983  27.086  1.00  0.00    -0.203 F 
ATOM     66  F   UNL A   1      41.757  23.024  26.474  1.00  0.00    -0.200 F 
ATOM     67  C   UNL A   1      43.170  24.741  25.678  1.00  0.00     0.200 A 
ATOM     68  F   UNL A   1      44.579  26.479  24.927  1.00  0.00    -0.200 F 
ATOM     69  F   UNL A   1      43.498  23.995  24.614  1.00  0.00    -0.200 F 
ENDBRANCH  45  59
BRANCH  46  70
ATOM     70  C   UNL A   1      39.320  31.975  35.495  1.00  0.00     0.064 A 
ATOM     71  C   UNL A   1      38.459  31.413  36.446  1.00  0.00     0.173 A 
ATOM     72  C   UNL A   1      39.696  33.317  35.663  1.00  0.00     0.173 A 
ATOM     73  F   UNL A   1      38.053  30.142  36.312  1.00  0.00    -0.203 F 
ATOM     74  C   UNL A   1      37.980  32.167  37.515  1.00  0.00     0.198 A 
ATOM     75  C   UNL A   1      39.239  34.061  36.748  1.00  0.00     0.198 A 
ATOM     76  F   UNL A   1      40.518  33.900  34.779  1.00  0.00    -0.203 F 
ATOM     77  F   UNL A   1      37.124  31.619  38.388  1.00  0.00    -0.200 F 
ATOM     78  C   UNL A   1      38.377  33.487  37.668  1.00  0.00     0.200 A 
ATOM     79  F   UNL A   1      39.633  35.333  36.898  1.00  0.00    -0.200 F 
ATOM     80  F   UNL A   1      37.918  34.211  38.700  1.00  0.00    -0.200 F 
ENDBRANCH  46  70
BRANCH  58  81
ATOM     81  C   UNL A   1      44.866  27.884  34.520  1.00  0.00     0.064 A 
ATOM     82  C   UNL A   1      44.811  26.759  35.354  1.00  0.00     0.173 A 
ATOM     83  C   UNL A   1      46.042  28.648  34.516  1.00  0.00     0.173 A 
ATOM     84  F   UNL A   1      43.700  26.009  35.402  1.00  0.00    -0.203 F 
ATOM     85  C   UNL A   1      45.885  26.425  36.173  1.00  0.00     0.198 A 
ATOM     86  C   UNL A   1      47.124  28.296  35.319  1.00  0.00     0.198 A 
ATOM     87  F   UNL A   1      46.144  29.731  33.732  1.00  0.00    -0.203 F 
ATOM     88  F   UNL A   1      45.795  25.371  36.996  1.00  0.00    -0.200 F 
ATOM     89  C   UNL A   1      47.043  27.190  36.151  1.00  0.00     0.200 A 
ATOM     90  F   UNL A   1      48.245  29.031  35.291  1.00  0.00    -0.200 F 
ATOM     91  F   UNL A   1      48.076  26.864  36.939  1.00  0.00    -0.200 F 
ENDBRANCH  58  81
ENDBRANCH  32  33
ENDBRANCH  25  27
ENDBRANCH  24  25
ENDBRANCH  23  24
ENDBRANCH   1  23
TORSDOF 18
ENDMDL
MODEL 2
REMARK VINA RESULT:     -10.9      0.570      1.748
REMARK SMILES CCC(CC)N(CC(C)C)C(=O)N1CC[C@@H](C(=O)OCCOC(=O)c2ccc(-c3c4nc(c(-c5c(F)c(F)c(F)c(F)c5F)c5ccc([nH]5)c(-c5c(F)c(F)c(F)c(F)c5F)c5nc(c(-c6c(F)c(F)c(F)c(F)c6F)c6ccc3[nH]6)C=C5)C=C4)cc2)[C@@H]1C
REMARK SMILES IDX 20 1 19 2 17 3 18 4 16 5 13 6 14 7 88 8 15 9 89 10 11 11
REMARK SMILES IDX 12 12 6 13 3 14 2 15 1 16 4 17 5 18 7 19 8 20 9 21 10 22
REMARK SMILES IDX 21 23 22 24 23 25 24 26 25 27 26 28 87 29 27 30 86 31 28 32
REMARK SMILES IDX 29 33 30 34 80 35 31 36 85 37 79 38 81 39 32 40 84 41 78 42
REMARK SMILES IDX 77 43 33 45 65 46 45 47 64 48 46 49 49 50 63 51 82 52 47 53
REMARK SMILES IDX 48 54 62 56 83 57 50 58 34 59 35 60 43 61 36 62 37 63 41 64
REMARK SMILES IDX 44 65 38 66 39 67 42 68 40 69 66 70 67 71 75 72 68 73 69 74
REMARK SMILES IDX 73 75 76 76 70 77 71 78 74 79 72 80 51 81 52 82 60 83 53 84
REMARK SMILES IDX 54 85 58 86 61 87 55 88 56 89 59 90 57 91
REMARK H PARENT 81 44 49 55
REMARK Flexibility Score: inf
ROOT
ATOM      1  C   UNL A   1      31.393  28.706  25.165  1.00  0.00     0.274 C 
ENDROOT
BRANCH   1   2
ATOM      2  O   UNL A   1      31.416  27.676  26.174  1.00  0.00    -0.462 OA
BRANCH   2   3
ATOM      3  C   UNL A   1      30.918  26.467  25.808  1.00  0.00     0.311 C 
ATOM      4  O   UNL A   1      30.178  25.780  26.504  1.00  0.00    -0.252 OA
BRANCH   3   5
ATOM      5  C   UNL A   1      31.411  25.985  24.459  1.00  0.00     0.123 C 
ATOM      6  N   UNL A   1      32.824  24.139  23.955  1.00  0.00    -0.321 N 
ATOM      7  C   UNL A   1      31.578  23.925  23.248  1.00  0.00     0.122 C 
ATOM      8  C   UNL A   1      32.889  25.535  24.400  1.00  0.00     0.098 C 
ATOM      9  C   UNL A   1      30.587  24.776  24.008  1.00  0.00     0.039 C 
ATOM     10  C   UNL A   1      33.681  26.368  23.382  1.00  0.00     0.032 C 
BRANCH   6  11
ATOM     11  C   UNL A   1      33.861  23.270  23.718  1.00  0.00     0.320 C 
ATOM     12  O   UNL A   1      34.415  23.322  22.617  1.00  0.00    -0.248 OA
BRANCH  11  13
ATOM     13  N   UNL A   1      34.202  22.318  24.673  1.00  0.00    -0.321 N 
BRANCH  13  14
ATOM     14  C   UNL A   1      34.942  22.753  25.895  1.00  0.00     0.086 C 
BRANCH  14  15
ATOM     15  C   UNL A   1      35.939  23.908  25.621  1.00  0.00     0.022 C 
ATOM     16  C   UNL A   1      37.392  23.461  25.552  1.00  0.00     0.006 C 
ENDBRANCH  14  15
BRANCH  14  17
ATOM     17  C   UNL A   1      34.052  22.933  27.142  1.00  0.00     0.022 C 
ATOM     18  C   UNL A   1      32.552  22.792  26.946  1.00  0.00     0.006 C 
ENDBRANCH  14  17
ENDBRANCH  13  14
BRANCH  13  19
ATOM     19  C   UNL A   1      34.210  20.867  24.427  1.00  0.00     0.124 C 
BRANCH  19  20
ATOM     20  C   UNL A   1      32.831  20.174  24.520  1.00  0.00     0.002 C 
ATOM     21  C   UNL A   1      32.405  19.420  23.262  1.00  0.00     0.009 C 
ATOM     22  C   UNL A   1      32.820  19.220  25.718  1.00  0.00     0.009 C 
ENDBRANCH  19  20
ENDBRANCH  13  19
ENDBRANCH  11  13
ENDBRANCH   6  11
ENDBRANCH   3   5
ENDBRANCH   2   3
ENDBRANCH   1   2
BRANCH   1  23
ATOM     23  C   UNL A   1      31.643  30.100  25.747  1.00  0.00     0.275 C 
BRANCH  23  24
ATOM     24  O   UNL A   1      33.043  30.334  25.988  1.00  0.00    -0.458 OA
BRANCH  24  25
ATOM     25  C   UNL A   1      33.306  31.291  26.904  1.00  0.00     0.338 C 
ATOM     26  O   UNL A   1      32.568  32.193  27.269  1.00  0.00    -0.246 OA
BRANCH  25  27
ATOM     27  C   UNL A   1      34.589  31.024  27.562  1.00  0.00     0.060 A 
ATOM     28  C   UNL A   1      34.832  29.717  27.982  1.00  0.00     0.016 A 
ATOM     29  C   UNL A   1      35.488  32.045  27.862  1.00  0.00     0.016 A 
ATOM     30  C   UNL A   1      35.962  29.418  28.730  1.00  0.00     0.010 A 
ATOM     31  C   UNL A   1      36.644  31.740  28.590  1.00  0.00     0.010 A 
ATOM     32  C   UNL A   1      36.882  30.427  29.037  1.00  0.00    -0.014 A 
BRANCH  32  33
ATOM     33  C   UNL A   1      38.089  30.080  29.821  1.00  0.00     0.031 A 
ATOM     34  C   UNL A   1      39.131  29.168  29.248  1.00  0.00     0.074 A 
ATOM     35  C   UNL A   1      38.254  30.625  31.041  1.00  0.00     0.049 A 
ATOM     36  N   UNL A   1      40.226  28.715  29.803  1.00  0.00    -0.248 NA
ATOM     37  C   UNL A   1      38.916  28.701  27.871  1.00  0.00     0.031 C 
ATOM     38  C   UNL A   1      37.319  31.550  31.683  1.00  0.00     0.029 A 
ATOM     39  N   UNL A   1      39.266  30.483  31.955  1.00  0.00    -0.354 N 
ATOM     40  C   UNL A   1      40.816  27.889  28.857  1.00  0.00     0.074 A 
ATOM     41  C   UNL A   1      39.957  27.898  27.692  1.00  0.00     0.031 C 
ATOM     42  C   UNL A   1      37.802  31.894  32.888  1.00  0.00     0.029 A 
ATOM     43  C   UNL A   1      39.054  31.180  33.119  1.00  0.00     0.049 A 
ATOM     44  H   UNL A   1      40.067  29.934  31.792  1.00  0.00     0.167 HD
ATOM     45  C   UNL A   1      41.970  27.187  28.960  1.00  0.00     0.037 A 
ATOM     46  C   UNL A   1      39.774  31.216  34.254  1.00  0.00     0.037 A 
ATOM     47  C   UNL A   1      42.836  27.210  30.109  1.00  0.00     0.049 A 
ATOM     48  C   UNL A   1      41.042  30.415  34.342  1.00  0.00     0.074 A 
ATOM     49  C   UNL A   1      44.049  26.567  30.288  1.00  0.00     0.029 A 
ATOM     50  N   UNL A   1      42.582  27.916  31.275  1.00  0.00    -0.354 N 
ATOM     51  N   UNL A   1      41.596  29.644  33.439  1.00  0.00    -0.248 NA
ATOM     52  C   UNL A   1      41.783  30.484  35.609  1.00  0.00     0.031 C 
ATOM     53  C   UNL A   1      44.509  26.852  31.579  1.00  0.00     0.029 A 
ATOM     54  C   UNL A   1      43.603  27.705  32.188  1.00  0.00     0.049 A 
ATOM     55  H   UNL A   1      41.792  28.484  31.432  1.00  0.00     0.167 HD
ATOM     56  C   UNL A   1      42.751  29.143  34.021  1.00  0.00     0.074 A 
ATOM     57  C   UNL A   1      42.832  29.717  35.349  1.00  0.00     0.031 C 
ATOM     58  C   UNL A   1      43.660  28.280  33.506  1.00  0.00     0.037 A 
BRANCH  45  59
ATOM     59  C   UNL A   1      42.354  26.306  27.809  1.00  0.00     0.064 A 
ATOM     60  C   UNL A   1      43.271  26.722  26.834  1.00  0.00     0.173 A 
ATOM     61  C   UNL A   1      41.838  25.005  27.718  1.00  0.00     0.173 A 
ATOM     62  F   UNL A   1      43.782  27.961  26.871  1.00  0.00    -0.203 F 
ATOM     63  C   UNL A   1      43.649  25.868  25.800  1.00  0.00     0.198 A 
ATOM     64  C   UNL A   1      42.234  24.147  26.696  1.00  0.00     0.198 A 
ATOM     65  F   UNL A   1      40.959  24.561  28.629  1.00  0.00    -0.203 F 
ATOM     66  F   UNL A   1      44.505  26.293  24.861  1.00  0.00    -0.200 F 
ATOM     67  C   UNL A   1      43.136  24.580  25.737  1.00  0.00     0.200 A 
ATOM     68  F   UNL A   1      41.745  22.901  26.641  1.00  0.00    -0.200 F 
ATOM     69  F   UNL A   1      43.509  23.757  24.746  1.00  0.00    -0.200 F 
ENDBRANCH  45  59
BRANCH  46  70
ATOM     70  C   UNL A   1      39.291  32.015  35.409  1.00  0.00     0.064 A 
ATOM     71  C   UNL A   1      38.476  31.445  36.395  1.00  0.00     0.173 A 
ATOM     72  C   UNL A   1      39.635  33.368  35.545  1.00  0.00     0.173 A 
ATOM     73  F   UNL A   1      38.101  30.162  36.294  1.00  0.00    -0.203 F 
ATOM     74  C   UNL A   1      38.010  32.203  37.467  1.00  0.00     0.198 A 
ATOM     75  C   UNL A   1      39.193  34.118  36.631  1.00  0.00     0.198 A 
ATOM     76  F   UNL A   1      40.413  33.959  34.626  1.00  0.00    -0.203 F 
ATOM     77  F   UNL A   1      37.197  31.648  38.376  1.00  0.00    -0.200 F 
ATOM     78  C   UNL A   1      38.375  33.537  37.588  1.00  0.00     0.200 A 
ATOM     79  F   UNL A   1      39.556  35.402  36.750  1.00  0.00    -0.200 F 
ATOM     80  F   UNL A   1      37.929  34.264  38.622  1.00  0.00    -0.200 F 
ENDBRANCH  46  70
BRANCH  58  81
ATOM     81  C   UNL A   1      44.820  27.914  34.383  1.00  0.00     0.064 A 
ATOM     82  C   UNL A   1      45.990  28.687  34.403  1.00  0.00     0.173 A 
ATOM     83  C   UNL A   1      44.751  26.798  35.229  1.00  0.00     0.173 A 
ATOM     84  F   UNL A   1      46.108  29.754  33.598  1.00  0.00    -0.203 F 
ATOM     85  C   UNL A   1      47.060  28.340  35.223  1.00  0.00     0.198 A 
ATOM     86  C   UNL A   1      45.814  26.469  36.065  1.00  0.00     0.198 A 
ATOM     87  F   UNL A   1      43.651  26.031  35.248  1.00  0.00    -0.203 F 
ATOM     88  F   UNL A   1      48.186  29.067  35.194  1.00  0.00    -0.200 F 
ATOM     89  C   UNL A   1      46.969  27.236  36.057  1.00  0.00     0.200 A 
ATOM     90  F   UNL A   1      45.722  25.406  36.877  1.00  0.00    -0.200 F 
ATOM     91  F   UNL A   1      48.001  26.905  36.846  1.00  0.00    -0.200 F 
ENDBRANCH  58  81
ENDBRANCH  32  33
ENDBRANCH  25  27
ENDBRANCH  24  25
ENDBRANCH  23  24
ENDBRANCH   1  23
TORSDOF 18
ENDMDL
MODEL 3
REMARK VINA RESULT:     -10.8      0.874      7.562
REMARK SMILES CCC(CC)N(CC(C)C)C(=O)N1CC[C@@H](C(=O)OCCOC(=O)c2ccc(-c3c4nc(c(-c5c(F)c(F)c(F)c(F)c5F)c5ccc([nH]5)c(-c5c(F)c(F)c(F)c(F)c5F)c5nc(c(-c6c(F)c(F)c(F)c(F)c6F)c6ccc3[nH]6)C=C5)C=C4)cc2)[C@@H]1C
REMARK SMILES IDX 20 1 19 2 17 3 18 4 16 5 13 6 14 7 88 8 15 9 89 10 11 11
REMARK SMILES IDX 12 12 6 13 3 14 2 15 1 16 4 17 5 18 7 19 8 20 9 21 10 22
REMARK SMILES IDX 21 23 22 24 23 25 24 26 25 27 26 28 87 29 27 30 86 31 28 32
REMARK SMILES IDX 29 33 30 34 80 35 31 36 85 37 79 38 81 39 32 40 84 41 78 42
REMARK SMILES IDX 77 43 33 45 65 46 45 47 64 48 46 49 49 50 63 51 82 52 47 53
REMARK SMILES IDX 48 54 62 56 83 57 50 58 34 59 35 60 43 61 36 62 37 63 41 64
REMARK SMILES IDX 44 65 38 66 39 67 42 68 40 69 66 70 67 71 75 72 68 73 69 74
REMARK SMILES IDX 73 75 76 76 70 77 71 78 74 79 72 80 51 81 52 82 60 83 53 84
REMARK SMILES IDX 54 85 58 86 61 87 55 88 56 89 59 90 57 91
REMARK H PARENT 81 44 49 55
REMARK Flexibility Score: inf
ROOT
ATOM      1  C   UNL A   1      31.740  29.259  24.630  1.00  0.00     0.274 C 
ENDROOT
BRANCH   1   2
ATOM      2  O   UNL A   1      30.629  28.348  24.761  1.00  0.00    -0.462 OA
BRANCH   2   3
ATOM      3  C   UNL A   1      30.945  27.047  24.992  1.00  0.00     0.311 C 
ATOM      4  O   UNL A   1      30.847  26.492  26.081  1.00  0.00    -0.252 OA
BRANCH   3   5
ATOM      5  C   UNL A   1      31.506  26.329  23.782  1.00  0.00     0.123 C 
ATOM      6  N   UNL A   1      33.074  24.543  23.696  1.00  0.00    -0.321 N 
ATOM      7  C   UNL A   1      31.866  24.078  23.046  1.00  0.00     0.122 C 
ATOM      8  C   UNL A   1      33.017  26.002  23.829  1.00  0.00     0.098 C 
ATOM      9  C   UNL A   1      30.793  24.987  23.599  1.00  0.00     0.039 C 
ATOM     10  C   UNL A   1      33.763  26.660  22.659  1.00  0.00     0.032 C 
BRANCH   6  11
ATOM     11  C   UNL A   1      34.184  23.733  23.659  1.00  0.00     0.320 C 
ATOM     12  O   UNL A   1      34.665  23.469  22.554  1.00  0.00    -0.248 OA
BRANCH  11  13
ATOM     13  N   UNL A   1      34.677  23.176  24.833  1.00  0.00    -0.321 N 
BRANCH  13  14
ATOM     14  C   UNL A   1      33.899  22.088  25.498  1.00  0.00     0.086 C 
BRANCH  14  15
ATOM     15  C   UNL A   1      33.894  20.765  24.691  1.00  0.00     0.022 C 
ATOM     16  C   UNL A   1      32.549  20.435  24.061  1.00  0.00     0.006 C 
ENDBRANCH  14  15
BRANCH  14  17
ATOM     17  C   UNL A   1      34.185  21.939  27.007  1.00  0.00     0.022 C 
ATOM     18  C   UNL A   1      33.066  22.315  27.962  1.00  0.00     0.006 C 
ENDBRANCH  14  17
ENDBRANCH  13  14
BRANCH  13  19
ATOM     19  C   UNL A   1      35.714  23.797  25.671  1.00  0.00     0.124 C 
BRANCH  19  20
ATOM     20  C   UNL A   1      37.168  23.589  25.186  1.00  0.00     0.002 C 
ATOM     21  C   UNL A   1      38.245  23.991  26.192  1.00  0.00     0.009 C 
ATOM     22  C   UNL A   1      37.365  22.126  24.781  1.00  0.00     0.009 C 
ENDBRANCH  19  20
ENDBRANCH  13  19
ENDBRANCH  11  13
ENDBRANCH   6  11
ENDBRANCH   3   5
ENDBRANCH   2   3
ENDBRANCH   1   2
BRANCH   1  23
ATOM     23  C   UNL A   1      31.682  30.400  25.649  1.00  0.00     0.275 C 
BRANCH  23  24
ATOM     24  O   UNL A   1      32.618  30.203  26.725  1.00  0.00    -0.458 OA
BRANCH  24  25
ATOM     25  C   UNL A   1      33.224  31.329  27.160  1.00  0.00     0.338 C 
ATOM     26  O   UNL A   1      32.758  32.458  27.193  1.00  0.00    -0.246 OA
BRANCH  25  27
ATOM     27  C   UNL A   1      34.518  31.006  27.767  1.00  0.00     0.060 A 
ATOM     28  C   UNL A   1      34.698  29.706  28.238  1.00  0.00     0.016 A 
ATOM     29  C   UNL A   1      35.497  31.976  27.972  1.00  0.00     0.016 A 
ATOM     30  C   UNL A   1      35.843  29.366  28.943  1.00  0.00     0.010 A 
ATOM     31  C   UNL A   1      36.667  31.627  28.657  1.00  0.00     0.010 A 
ATOM     32  C   UNL A   1      36.841  30.322  29.155  1.00  0.00    -0.014 A 
BRANCH  32  33
ATOM     33  C   UNL A   1      38.062  29.931  29.895  1.00  0.00     0.031 A 
ATOM     34  C   UNL A   1      38.306  30.444  31.282  1.00  0.00     0.074 A 
ATOM     35  C   UNL A   1      38.931  29.079  29.320  1.00  0.00     0.049 A 
ATOM     36  N   UNL A   1      39.337  30.250  32.065  1.00  0.00    -0.248 NA
ATOM     37  C   UNL A   1      37.255  31.288  31.870  1.00  0.00     0.031 C 
ATOM     38  C   UNL A   1      38.778  28.493  27.987  1.00  0.00     0.029 A 
ATOM     39  N   UNL A   1      40.112  28.557  29.782  1.00  0.00    -0.354 N 
ATOM     40  C   UNL A   1      39.074  30.968  33.222  1.00  0.00     0.074 A 
ATOM     41  C   UNL A   1      37.788  31.607  33.042  1.00  0.00     0.031 C 
ATOM     42  C   UNL A   1      39.825  27.691  27.739  1.00  0.00     0.029 A 
ATOM     43  C   UNL A   1      40.742  27.742  28.875  1.00  0.00     0.049 A 
ATOM     44  H   UNL A   1      40.473  28.749  30.678  1.00  0.00     0.167 HD
ATOM     45  C   UNL A   1      39.843  31.082  34.331  1.00  0.00     0.037 A 
ATOM     46  C   UNL A   1      41.937  27.128  28.940  1.00  0.00     0.037 A 
ATOM     47  C   UNL A   1      41.106  30.416  34.517  1.00  0.00     0.049 A 
ATOM     48  C   UNL A   1      42.774  27.285  30.178  1.00  0.00     0.074 A 
ATOM     49  C   UNL A   1      41.936  30.435  35.625  1.00  0.00     0.029 A 
ATOM     50  N   UNL A   1      41.720  29.610  33.571  1.00  0.00    -0.354 N 
ATOM     51  N   UNL A   1      42.512  27.959  31.271  1.00  0.00    -0.248 NA
ATOM     52  C   UNL A   1      44.074  26.602  30.191  1.00  0.00     0.031 C 
ATOM     53  C   UNL A   1      43.072  29.671  35.333  1.00  0.00     0.029 A 
ATOM     54  C   UNL A   1      42.930  29.145  34.059  1.00  0.00     0.049 A 
ATOM     55  H   UNL A   1      41.350  29.399  32.683  1.00  0.00     0.167 HD
ATOM     56  C   UNL A   1      43.606  27.776  32.103  1.00  0.00     0.074 A 
ATOM     57  C   UNL A   1      44.526  26.906  31.399  1.00  0.00     0.031 C 
ATOM     58  C   UNL A   1      43.834  28.287  33.338  1.00  0.00     0.037 A 
BRANCH  45  59
ATOM     59  C   UNL A   1      39.358  31.984  35.426  1.00  0.00     0.064 A 
ATOM     60  C   UNL A   1      38.486  31.531  36.426  1.00  0.00     0.173 A 
ATOM     61  C   UNL A   1      39.822  33.306  35.505  1.00  0.00     0.173 A 
ATOM     62  F   UNL A   1      38.006  30.280  36.387  1.00  0.00    -0.203 F 
ATOM     63  C   UNL A   1      38.088  32.374  37.460  1.00  0.00     0.198 A 
ATOM     64  C   UNL A   1      39.438  34.139  36.550  1.00  0.00     0.198 A 
ATOM     65  F   UNL A   1      40.659  33.784  34.572  1.00  0.00    -0.203 F 
ATOM     66  F   UNL A   1      37.231  31.932  38.392  1.00  0.00    -0.200 F 
ATOM     67  C   UNL A   1      38.569  33.674  37.525  1.00  0.00     0.200 A 
ATOM     68  F   UNL A   1      39.910  35.391  36.617  1.00  0.00    -0.200 F 
ATOM     69  F   UNL A   1      38.191  34.481  38.527  1.00  0.00    -0.200 F 
ENDBRANCH  45  59
BRANCH  46  70
ATOM     70  C   UNL A   1      42.425  26.338  27.781  1.00  0.00     0.064 A 
ATOM     71  C   UNL A   1      43.293  26.897  26.835  1.00  0.00     0.173 A 
ATOM     72  C   UNL A   1      42.026  25.005  27.598  1.00  0.00     0.173 A 
ATOM     73  F   UNL A   1      43.681  28.175  26.955  1.00  0.00    -0.203 F 
ATOM     74  C   UNL A   1      43.734  26.157  25.740  1.00  0.00     0.198 A 
ATOM     75  C   UNL A   1      42.490  24.258  26.519  1.00  0.00     0.198 A 
ATOM     76  F   UNL A   1      41.196  24.426  28.477  1.00  0.00    -0.203 F 
ATOM     77  F   UNL A   1      44.530  26.727  24.825  1.00  0.00    -0.200 F 
ATOM     78  C   UNL A   1      43.337  24.836  25.587  1.00  0.00     0.200 A 
ATOM     79  F   UNL A   1      42.113  22.979  26.381  1.00  0.00    -0.200 F 
ATOM     80  F   UNL A   1      43.765  24.124  24.535  1.00  0.00    -0.200 F 
ENDBRANCH  46  70
BRANCH  58  81
ATOM     81  C   UNL A   1      45.124  27.909  34.002  1.00  0.00     0.064 A 
ATOM     82  C   UNL A   1      46.274  28.697  33.859  1.00  0.00     0.173 A 
ATOM     83  C   UNL A   1      45.202  26.764  34.808  1.00  0.00     0.173 A 
ATOM     84  F   UNL A   1      46.251  29.791  33.083  1.00  0.00    -0.203 F 
ATOM     85  C   UNL A   1      47.466  28.338  34.482  1.00  0.00     0.198 A 
ATOM     86  C   UNL A   1      46.389  26.422  35.449  1.00  0.00     0.198 A 
ATOM     87  F   UNL A   1      44.126  25.981  34.978  1.00  0.00    -0.203 F 
ATOM     88  F   UNL A   1      48.566  29.081  34.296  1.00  0.00    -0.200 F 
ATOM     89  C   UNL A   1      47.522  27.205  35.281  1.00  0.00     0.200 A 
ATOM     90  F   UNL A   1      46.440  25.332  36.227  1.00  0.00    -0.200 F 
ATOM     91  F   UNL A   1      48.670  26.863  35.880  1.00  0.00    -0.200 F 
ENDBRANCH  58  81
ENDBRANCH  32  33
ENDBRANCH  25  27
ENDBRANCH  24  25
ENDBRANCH  23  24
ENDBRANCH   1  23
TORSDOF 18
ENDMDL
