MODEL 1
REMARK VINA RESULT:     -11.2      0.000      0.000
REMARK SMILES CC[C@@H](NC(=O)NC1(CC(=O)OCCOC(=O)c2ccc(-c3c4nc(c(-c5c(F)c(F)c(F)c(F)c5F)c5ccc([nH]5)c(-c5c(F)c(F)c(F)c(F)c5F)c5nc(c(-c6c(F)c(F)c(F)c(F)c6F)c6ccc3[nH]6)C=C5)C=C4)cc2)CCC1)C(C)C
REMARK SMILES IDX 13 1 12 2 10 3 11 4 9 5 8 6 81 7 83 8 82 9 7 10 4 11 5 12
REMARK SMILES IDX 6 14 3 16 2 17 1 18 84 19 85 20 86 21 14 22 15 23 16 24
REMARK SMILES IDX 17 25 18 26 19 27 80 28 20 29 79 30 21 31 22 32 23 33 73 34
REMARK SMILES IDX 24 35 78 36 72 37 74 38 25 39 77 40 71 41 70 42 26 44 58 45
REMARK SMILES IDX 38 46 57 47 39 48 42 49 56 50 75 51 40 52 41 53 55 55 76 56
REMARK SMILES IDX 43 57 27 58 28 59 36 60 29 61 30 62 34 63 37 64 31 65 32 66
REMARK SMILES IDX 35 67 33 68 59 69 60 70 68 71 61 72 62 73 66 74 69 75 63 76
REMARK SMILES IDX 64 77 67 78 65 79 44 80 45 81 53 82 46 83 47 84 51 85 54 86
REMARK SMILES IDX 48 87 49 88 52 89 50 90
REMARK H PARENT 4 13 7 15 74 43 42 54
REMARK Flexibility Score: inf
ROOT
ATOM      1  C   UNL A   1      31.227  29.708  25.544  1.00  0.00     0.274 C 
ENDROOT
BRANCH   1   2
ATOM      2  O   UNL A   1      32.117  28.647  25.941  1.00  0.00    -0.462 OA
BRANCH   2   3
ATOM      3  C   UNL A   1      31.608  27.628  26.671  1.00  0.00     0.308 C 
ATOM      4  O   UNL A   1      31.025  27.765  27.741  1.00  0.00    -0.252 OA
BRANCH   3   5
ATOM      5  C   UNL A   1      31.937  26.271  26.098  1.00  0.00     0.151 C 
BRANCH   5   6
ATOM      6  C   UNL A   1      30.825  25.470  25.409  1.00  0.00     0.052 C 
ATOM      7  C   UNL A   1      31.096  24.985  23.925  1.00  0.00     0.029 C 
ATOM      8  C   UNL A   1      29.667  26.321  24.701  1.00  0.00     0.029 C 
ATOM      9  C   UNL A   1      30.499  26.300  23.418  1.00  0.00     0.005 C 
BRANCH   6  10
ATOM     10  N   UNL A   1      30.215  24.461  26.317  1.00  0.00    -0.332 N 
ATOM     11  N   UNL A   1      31.247  22.275  26.476  1.00  0.00    -0.335 N 
ATOM     12  C   UNL A   1      30.360  23.214  26.771  1.00  0.00     0.315 C 
ATOM     13  H   UNL A   1      31.120  21.535  27.112  1.00  0.00     0.165 HD
ATOM     14  O   UNL A   1      29.536  22.861  27.629  1.00  0.00    -0.249 OA
ATOM     15  H   UNL A   1      29.416  24.856  26.737  1.00  0.00     0.165 HD
BRANCH  11  16
ATOM     16  C   UNL A   1      32.350  21.902  25.570  1.00  0.00     0.086 C 
BRANCH  16  17
ATOM     17  C   UNL A   1      32.154  20.478  25.012  1.00  0.00     0.022 C 
ATOM     18  C   UNL A   1      32.262  20.464  23.483  1.00  0.00     0.006 C 
ENDBRANCH  16  17
BRANCH  16  19
ATOM     19  C   UNL A   1      33.734  22.265  26.103  1.00  0.00     0.005 C 
ATOM     20  C   UNL A   1      34.314  23.598  25.637  1.00  0.00     0.009 C 
ATOM     21  C   UNL A   1      33.727  22.224  27.638  1.00  0.00     0.009 C 
ENDBRANCH  16  19
ENDBRANCH  11  16
ENDBRANCH   6  10
ENDBRANCH   5   6
ENDBRANCH   3   5
ENDBRANCH   2   3
ENDBRANCH   1   2
BRANCH   1  22
ATOM     22  C   UNL A   1      31.676  31.041  26.138  1.00  0.00     0.275 C 
BRANCH  22  23
ATOM     23  O   UNL A   1      33.082  31.006  26.436  1.00  0.00    -0.458 OA
BRANCH  23  24
ATOM     24  C   UNL A   1      33.510  31.967  27.288  1.00  0.00     0.338 C 
ATOM     25  O   UNL A   1      32.937  32.999  27.585  1.00  0.00    -0.246 OA
BRANCH  24  26
ATOM     26  C   UNL A   1      34.799  31.542  27.859  1.00  0.00     0.060 A 
ATOM     27  C   UNL A   1      34.953  30.221  28.274  1.00  0.00     0.016 A 
ATOM     28  C   UNL A   1      35.813  32.473  28.080  1.00  0.00     0.016 A 
ATOM     29  C   UNL A   1      36.094  29.845  28.980  1.00  0.00     0.010 A 
ATOM     30  C   UNL A   1      36.984  32.074  28.737  1.00  0.00     0.010 A 
ATOM     31  C   UNL A   1      37.123  30.763  29.229  1.00  0.00    -0.014 A 
BRANCH  31  32
ATOM     32  C   UNL A   1      38.312  30.370  30.040  1.00  0.00     0.031 A 
ATOM     33  C   UNL A   1      39.356  29.446  29.465  1.00  0.00     0.074 A 
ATOM     34  C   UNL A   1      38.475  30.838  31.293  1.00  0.00     0.049 A 
ATOM     35  N   UNL A   1      40.368  28.863  30.061  1.00  0.00    -0.248 NA
ATOM     36  C   UNL A   1      39.243  29.132  28.033  1.00  0.00     0.031 C 
ATOM     37  C   UNL A   1      37.581  31.777  31.969  1.00  0.00     0.029 A 
ATOM     38  N   UNL A   1      39.454  30.583  32.224  1.00  0.00    -0.354 N 
ATOM     39  C   UNL A   1      40.978  28.074  29.092  1.00  0.00     0.074 A 
ATOM     40  C   UNL A   1      40.219  28.249  27.871  1.00  0.00     0.031 C 
ATOM     41  C   UNL A   1      38.058  32.033  33.196  1.00  0.00     0.029 A 
ATOM     42  C   UNL A   1      39.251  31.222  33.423  1.00  0.00     0.049 A 
ATOM     43  H   UNL A   1      40.225  29.998  32.048  1.00  0.00     0.167 HD
ATOM     44  C   UNL A   1      42.068  27.277  29.211  1.00  0.00     0.037 A 
ATOM     45  C   UNL A   1      39.920  31.137  34.589  1.00  0.00     0.037 A 
ATOM     46  C   UNL A   1      42.860  27.138  30.407  1.00  0.00     0.049 A 
ATOM     47  C   UNL A   1      41.103  30.218  34.707  1.00  0.00     0.074 A 
ATOM     48  C   UNL A   1      43.999  26.377  30.605  1.00  0.00     0.029 A 
ATOM     49  N   UNL A   1      42.600  27.782  31.607  1.00  0.00    -0.354 N 
ATOM     50  N   UNL A   1      41.647  29.448  33.797  1.00  0.00    -0.248 NA
ATOM     51  C   UNL A   1      41.756  30.146  36.022  1.00  0.00     0.031 C 
ATOM     52  C   UNL A   1      44.407  26.531  31.935  1.00  0.00     0.029 A 
ATOM     53  C   UNL A   1      43.550  27.424  32.553  1.00  0.00     0.049 A 
ATOM     54  H   UNL A   1      41.852  28.403  31.764  1.00  0.00     0.167 HD
ATOM     55  C   UNL A   1      42.715  28.819  34.421  1.00  0.00     0.074 A 
ATOM     56  C   UNL A   1      42.752  29.305  35.783  1.00  0.00     0.031 C 
ATOM     57  C   UNL A   1      43.586  27.916  33.906  1.00  0.00     0.037 A 
BRANCH  44  58
ATOM     58  C   UNL A   1      42.465  26.461  28.013  1.00  0.00     0.064 A 
ATOM     59  C   UNL A   1      41.946  25.180  27.781  1.00  0.00     0.173 A 
ATOM     60  C   UNL A   1      43.345  26.997  27.057  1.00  0.00     0.173 A 
ATOM     61  F   UNL A   1      41.107  24.622  28.666  1.00  0.00    -0.203 F 
ATOM     62  C   UNL A   1      42.314  24.452  26.652  1.00  0.00     0.198 A 
ATOM     63  C   UNL A   1      43.687  26.277  25.915  1.00  0.00     0.198 A 
ATOM     64  F   UNL A   1      43.860  28.223  27.223  1.00  0.00    -0.203 F 
ATOM     65  F   UNL A   1      41.838  23.212  26.471  1.00  0.00    -0.200 F 
ATOM     66  C   UNL A   1      43.178  25.003  25.717  1.00  0.00     0.200 A 
ATOM     67  F   UNL A   1      44.509  26.818  25.005  1.00  0.00    -0.200 F 
ATOM     68  F   UNL A   1      43.523  24.305  24.627  1.00  0.00    -0.200 F 
ENDBRANCH  44  58
BRANCH  45  69
ATOM     69  C   UNL A   1      39.466  31.938  35.754  1.00  0.00     0.064 A 
ATOM     70  C   UNL A   1      40.025  33.194  36.025  1.00  0.00     0.173 A 
ATOM     71  C   UNL A   1      38.461  31.469  36.613  1.00  0.00     0.173 A 
ATOM     72  F   UNL A   1      41.009  33.670  35.248  1.00  0.00    -0.203 F 
ATOM     73  C   UNL A   1      39.600  33.948  37.117  1.00  0.00     0.198 A 
ATOM     74  C   UNL A   1      38.017  32.236  37.687  1.00  0.00     0.198 A 
ATOM     75  F   UNL A   1      37.897  30.271  36.396  1.00  0.00    -0.203 F 
ATOM     76  F   UNL A   1      40.177  35.129  37.377  1.00  0.00    -0.200 F 
ATOM     77  C   UNL A   1      38.591  33.473  37.942  1.00  0.00     0.200 A 
ATOM     78  F   UNL A   1      37.033  31.779  38.473  1.00  0.00    -0.200 F 
ATOM     79  F   UNL A   1      38.176  34.204  38.984  1.00  0.00    -0.200 F 
ENDBRANCH  45  69
BRANCH  57  80
ATOM     80  C   UNL A   1      44.679  27.424  34.809  1.00  0.00     0.064 A 
ATOM     81  C   UNL A   1      45.903  28.100  34.923  1.00  0.00     0.173 A 
ATOM     82  C   UNL A   1      44.492  26.270  35.588  1.00  0.00     0.173 A 
ATOM     83  F   UNL A   1      46.138  29.196  34.186  1.00  0.00    -0.203 F 
ATOM     84  C   UNL A   1      46.908  27.626  35.762  1.00  0.00     0.198 A 
ATOM     85  C   UNL A   1      45.488  25.814  36.446  1.00  0.00     0.198 A 
ATOM     86  F   UNL A   1      43.338  25.589  35.520  1.00  0.00    -0.203 F 
ATOM     87  F   UNL A   1      48.087  28.260  35.818  1.00  0.00    -0.200 F 
ATOM     88  C   UNL A   1      46.698  26.487  36.527  1.00  0.00     0.200 A 
ATOM     89  F   UNL A   1      45.280  24.720  37.190  1.00  0.00    -0.200 F 
ATOM     90  F   UNL A   1      47.666  26.033  37.334  1.00  0.00    -0.200 F 
ENDBRANCH  57  80
ENDBRANCH  31  32
ENDBRANCH  24  26
ENDBRANCH  23  24
ENDBRANCH  22  23
ENDBRANCH   1  22
TORSDOF 16
ENDMDL
MODEL 2
REMARK VINA RESULT:     -11.1      4.473      9.737
REMARK SMILES CC[C@@H](NC(=O)NC1(CC(=O)OCCOC(=O)c2ccc(-c3c4nc(c(-c5c(F)c(F)c(F)c(F)c5F)c5ccc([nH]5)c(-c5c(F)c(F)c(F)c(F)c5F)c5nc(c(-c6c(F)c(F)c(F)c(F)c6F)c6ccc3[nH]6)C=C5)C=C4)cc2)CCC1)C(C)C
REMARK SMILES IDX 13 1 12 2 10 3 11 4 9 5 8 6 81 7 83 8 82 9 7 10 4 11 5 12
REMARK SMILES IDX 6 14 3 16 2 17 1 18 84 19 85 20 86 21 14 22 15 23 16 24
REMARK SMILES IDX 17 25 18 26 19 27 80 28 20 29 79 30 21 31 22 32 23 33 73 34
REMARK SMILES IDX 24 35 78 36 72 37 74 38 25 39 77 40 71 41 70 42 26 44 58 45
REMARK SMILES IDX 38 46 57 47 39 48 42 49 56 50 75 51 40 52 41 53 55 55 76 56
REMARK SMILES IDX 43 57 27 58 28 59 36 60 29 61 30 62 34 63 37 64 31 65 32 66
REMARK SMILES IDX 35 67 33 68 59 69 60 70 68 71 61 72 62 73 66 74 69 75 63 76
REMARK SMILES IDX 64 77 67 78 65 79 44 80 45 81 53 82 46 83 47 84 51 85 54 86
REMARK SMILES IDX 48 87 49 88 52 89 50 90
REMARK H PARENT 4 13 7 15 74 43 42 54
REMARK Flexibility Score: inf
ROOT
ATOM      1  C   UNL A   1      35.651  21.281  24.895  1.00  0.00     0.274 C 
ENDROOT
BRANCH   1   2
ATOM      2  O   UNL A   1      35.542  22.502  25.652  1.00  0.00    -0.462 OA
BRANCH   2   3
ATOM      3  C   UNL A   1      34.359  22.779  26.245  1.00  0.00     0.308 C 
ATOM      4  O   UNL A   1      34.074  22.479  27.399  1.00  0.00    -0.252 OA
BRANCH   3   5
ATOM      5  C   UNL A   1      33.356  23.394  25.299  1.00  0.00     0.151 C 
BRANCH   5   6
ATOM      6  C   UNL A   1      32.068  22.622  24.984  1.00  0.00     0.052 C 
ATOM      7  C   UNL A   1      32.226  21.200  24.305  1.00  0.00     0.029 C 
ATOM      8  C   UNL A   1      31.346  22.976  23.599  1.00  0.00     0.029 C 
ATOM      9  C   UNL A   1      32.183  21.882  22.935  1.00  0.00     0.005 C 
BRANCH   6  10
ATOM     10  N   UNL A   1      31.079  22.702  26.094  1.00  0.00    -0.332 N 
ATOM     11  N   UNL A   1      29.990  24.823  26.521  1.00  0.00    -0.335 N 
ATOM     12  C   UNL A   1      30.239  23.535  26.711  1.00  0.00     0.315 C 
ATOM     13  H   UNL A   1      29.210  25.059  27.073  1.00  0.00     0.165 HD
ATOM     14  O   UNL A   1      29.556  23.030  27.615  1.00  0.00    -0.249 OA
ATOM     15  H   UNL A   1      31.023  21.821  26.530  1.00  0.00     0.165 HD
BRANCH  11  16
ATOM     16  C   UNL A   1      30.420  26.041  25.808  1.00  0.00     0.086 C 
BRANCH  16  17
ATOM     17  C   UNL A   1      30.212  25.898  24.287  1.00  0.00     0.022 C 
ATOM     18  C   UNL A   1      29.281  26.993  23.752  1.00  0.00     0.006 C 
ENDBRANCH  16  17
BRANCH  16  19
ATOM     19  C   UNL A   1      31.762  26.593  26.286  1.00  0.00     0.005 C 
ATOM     20  C   UNL A   1      32.758  26.992  25.200  1.00  0.00     0.009 C 
ATOM     21  C   UNL A   1      31.529  27.787  27.223  1.00  0.00     0.009 C 
ENDBRANCH  16  19
ENDBRANCH  11  16
ENDBRANCH   6  10
ENDBRANCH   5   6
ENDBRANCH   3   5
ENDBRANCH   2   3
ENDBRANCH   1   2
BRANCH   1  22
ATOM     22  C   UNL A   1      36.995  20.603  25.152  1.00  0.00     0.275 C 
BRANCH  22  23
ATOM     23  O   UNL A   1      38.036  21.587  25.267  1.00  0.00    -0.458 OA
BRANCH  23  24
ATOM     24  C   UNL A   1      39.044  21.258  26.109  1.00  0.00     0.338 C 
ATOM     25  O   UNL A   1      39.460  20.143  26.363  1.00  0.00    -0.246 OA
BRANCH  24  26
ATOM     26  C   UNL A   1      39.616  22.499  26.658  1.00  0.00     0.060 A 
ATOM     27  C   UNL A   1      39.122  23.725  26.216  1.00  0.00     0.016 A 
ATOM     28  C   UNL A   1      40.705  22.449  27.527  1.00  0.00     0.016 A 
ATOM     29  C   UNL A   1      39.767  24.904  26.583  1.00  0.00     0.010 A 
ATOM     30  C   UNL A   1      41.311  23.643  27.941  1.00  0.00     0.010 A 
ATOM     31  C   UNL A   1      40.873  24.884  27.443  1.00  0.00    -0.014 A 
BRANCH  31  32
ATOM     32  C   UNL A   1      41.597  26.144  27.781  1.00  0.00     0.031 A 
ATOM     33  C   UNL A   1      40.924  27.214  28.603  1.00  0.00     0.074 A 
ATOM     34  C   UNL A   1      42.863  26.343  27.363  1.00  0.00     0.049 A 
ATOM     35  N   UNL A   1      41.322  28.436  28.862  1.00  0.00    -0.248 NA
ATOM     36  C   UNL A   1      39.630  26.865  29.207  1.00  0.00     0.031 C 
ATOM     37  C   UNL A   1      43.665  25.383  26.605  1.00  0.00     0.029 A 
ATOM     38  N   UNL A   1      43.697  27.425  27.517  1.00  0.00    -0.354 N 
ATOM     39  C   UNL A   1      40.306  29.017  29.611  1.00  0.00     0.074 A 
ATOM     40  C   UNL A   1      39.270  28.015  29.761  1.00  0.00     0.031 C 
ATOM     41  C   UNL A   1      44.878  25.909  26.375  1.00  0.00     0.029 A 
ATOM     42  C   UNL A   1      44.916  27.269  26.903  1.00  0.00     0.049 A 
ATOM     43  H   UNL A   1      43.444  28.233  28.018  1.00  0.00     0.167 HD
ATOM     44  C   UNL A   1      40.242  30.270  30.127  1.00  0.00     0.037 A 
ATOM     45  C   UNL A   1      45.938  28.134  26.745  1.00  0.00     0.037 A 
ATOM     46  C   UNL A   1      41.289  31.255  30.027  1.00  0.00     0.049 A 
ATOM     47  C   UNL A   1      45.827  29.529  27.291  1.00  0.00     0.074 A 
ATOM     48  C   UNL A   1      41.320  32.538  30.547  1.00  0.00     0.029 A 
ATOM     49  N   UNL A   1      42.496  31.064  29.371  1.00  0.00    -0.354 N 
ATOM     50  N   UNL A   1      44.848  30.080  27.964  1.00  0.00    -0.248 NA
ATOM     51  C   UNL A   1      46.963  30.428  27.041  1.00  0.00     0.031 C 
ATOM     52  C   UNL A   1      42.529  33.136  30.174  1.00  0.00     0.029 A 
ATOM     53  C   UNL A   1      43.271  32.211  29.461  1.00  0.00     0.049 A 
ATOM     54  H   UNL A   1      42.763  30.235  28.910  1.00  0.00     0.167 HD
ATOM     55  C   UNL A   1      45.256  31.378  28.236  1.00  0.00     0.074 A 
ATOM     56  C   UNL A   1      46.578  31.531  27.668  1.00  0.00     0.031 C 
ATOM     57  C   UNL A   1      44.589  32.356  28.898  1.00  0.00     0.037 A 
BRANCH  44  58
ATOM     58  C   UNL A   1      38.975  30.666  30.831  1.00  0.00     0.064 A 
ATOM     59  C   UNL A   1      38.838  30.571  32.223  1.00  0.00     0.173 A 
ATOM     60  C   UNL A   1      37.899  31.195  30.099  1.00  0.00     0.173 A 
ATOM     61  F   UNL A   1      39.834  30.067  32.966  1.00  0.00    -0.203 F 
ATOM     62  C   UNL A   1      37.660  30.964  32.854  1.00  0.00     0.198 A 
ATOM     63  C   UNL A   1      36.734  31.613  30.737  1.00  0.00     0.198 A 
ATOM     64  F   UNL A   1      37.983  31.319  28.767  1.00  0.00    -0.203 F 
ATOM     65  F   UNL A   1      37.534  30.826  34.181  1.00  0.00    -0.200 F 
ATOM     66  C   UNL A   1      36.612  31.491  32.113  1.00  0.00     0.200 A 
ATOM     67  F   UNL A   1      35.730  32.137  30.020  1.00  0.00    -0.200 F 
ATOM     68  F   UNL A   1      35.484  31.877  32.723  1.00  0.00    -0.200 F 
ENDBRANCH  44  58
BRANCH  45  69
ATOM     69  C   UNL A   1      47.154  27.703  26.009  1.00  0.00     0.064 A 
ATOM     70  C   UNL A   1      48.283  27.239  26.696  1.00  0.00     0.173 A 
ATOM     71  C   UNL A   1      47.209  27.740  24.608  1.00  0.00     0.173 A 
ATOM     72  F   UNL A   1      48.286  27.213  28.037  1.00  0.00    -0.203 F 
ATOM     73  C   UNL A   1      49.424  26.833  26.009  1.00  0.00     0.198 A 
ATOM     74  C   UNL A   1      48.340  27.308  23.921  1.00  0.00     0.198 A 
ATOM     75  F   UNL A   1      46.154  28.180  23.906  1.00  0.00    -0.203 F 
ATOM     76  F   UNL A   1      50.505  26.429  26.691  1.00  0.00    -0.200 F 
ATOM     77  C   UNL A   1      49.450  26.860  24.622  1.00  0.00     0.200 A 
ATOM     78  F   UNL A   1      48.355  27.323  22.581  1.00  0.00    -0.200 F 
ATOM     79  F   UNL A   1      50.544  26.460  23.963  1.00  0.00    -0.200 F 
ENDBRANCH  45  69
BRANCH  57  80
ATOM     80  C   UNL A   1      45.295  33.667  29.079  1.00  0.00     0.064 A 
ATOM     81  C   UNL A   1      46.129  33.911  30.181  1.00  0.00     0.173 A 
ATOM     82  C   UNL A   1      45.152  34.688  28.126  1.00  0.00     0.173 A 
ATOM     83  F   UNL A   1      46.284  32.975  31.129  1.00  0.00    -0.203 F 
ATOM     84  C   UNL A   1      46.772  35.137  30.335  1.00  0.00     0.198 A 
ATOM     85  C   UNL A   1      45.818  35.902  28.269  1.00  0.00     0.198 A 
ATOM     86  F   UNL A   1      44.370  34.505  27.051  1.00  0.00    -0.203 F 
ATOM     87  F   UNL A   1      47.525  35.364  31.420  1.00  0.00    -0.200 F 
ATOM     88  C   UNL A   1      46.621  36.129  29.377  1.00  0.00     0.200 A 
ATOM     89  F   UNL A   1      45.678  36.856  27.338  1.00  0.00    -0.200 F 
ATOM     90  F   UNL A   1      47.242  37.307  29.527  1.00  0.00    -0.200 F 
ENDBRANCH  57  80
ENDBRANCH  31  32
ENDBRANCH  24  26
ENDBRANCH  23  24
ENDBRANCH  22  23
ENDBRANCH   1  22
TORSDOF 16
ENDMDL
MODEL 3
REMARK VINA RESULT:     -11.0      4.612      9.778
REMARK SMILES CC[C@@H](NC(=O)NC1(CC(=O)OCCOC(=O)c2ccc(-c3c4nc(c(-c5c(F)c(F)c(F)c(F)c5F)c5ccc([nH]5)c(-c5c(F)c(F)c(F)c(F)c5F)c5nc(c(-c6c(F)c(F)c(F)c(F)c6F)c6ccc3[nH]6)C=C5)C=C4)cc2)CCC1)C(C)C
REMARK SMILES IDX 13 1 12 2 10 3 11 4 9 5 8 6 81 7 83 8 82 9 7 10 4 11 5 12
REMARK SMILES IDX 6 14 3 16 2 17 1 18 84 19 85 20 86 21 14 22 15 23 16 24
REMARK SMILES IDX 17 25 18 26 19 27 80 28 20 29 79 30 21 31 22 32 23 33 73 34
REMARK SMILES IDX 24 35 78 36 72 37 74 38 25 39 77 40 71 41 70 42 26 44 58 45
REMARK SMILES IDX 38 46 57 47 39 48 42 49 56 50 75 51 40 52 41 53 55 55 76 56
REMARK SMILES IDX 43 57 27 58 28 59 36 60 29 61 30 62 34 63 37 64 31 65 32 66
REMARK SMILES IDX 35 67 33 68 59 69 60 70 68 71 61 72 62 73 66 74 69 75 63 76
REMARK SMILES IDX 64 77 67 78 65 79 44 80 45 81 53 82 46 83 47 84 51 85 54 86
REMARK SMILES IDX 48 87 49 88 52 89 50 90
REMARK H PARENT 4 13 7 15 74 43 42 54
REMARK Flexibility Score: inf
ROOT
ATOM      1  C   UNL A   1      34.989  20.916  25.313  1.00  0.00     0.274 C 
ENDROOT
BRANCH   1   2
ATOM      2  O   UNL A   1      34.256  21.494  24.215  1.00  0.00    -0.462 OA
BRANCH   2   3
ATOM      3  C   UNL A   1      32.911  21.348  24.199  1.00  0.00     0.308 C 
ATOM      4  O   UNL A   1      32.280  20.650  24.985  1.00  0.00    -0.252 OA
BRANCH   3   5
ATOM      5  C   UNL A   1      32.259  22.037  23.026  1.00  0.00     0.151 C 
BRANCH   5   6
ATOM      6  C   UNL A   1      32.073  23.560  23.074  1.00  0.00     0.052 C 
ATOM      7  C   UNL A   1      32.495  24.297  24.411  1.00  0.00     0.029 C 
ATOM      8  C   UNL A   1      30.617  24.088  23.482  1.00  0.00     0.029 C 
ATOM      9  C   UNL A   1      31.075  24.082  24.942  1.00  0.00     0.005 C 
BRANCH   6  10
ATOM     10  N   UNL A   1      32.503  24.218  21.809  1.00  0.00    -0.332 N 
ATOM     11  N   UNL A   1      32.408  26.634  21.674  1.00  0.00    -0.335 N 
ATOM     12  C   UNL A   1      32.663  25.411  21.234  1.00  0.00     0.315 C 
ATOM     13  H   UNL A   1      32.785  27.270  21.023  1.00  0.00     0.165 HD
ATOM     14  O   UNL A   1      33.146  25.390  20.091  1.00  0.00    -0.249 OA
ATOM     15  H   UNL A   1      32.767  23.521  21.165  1.00  0.00     0.165 HD
BRANCH  11  16
ATOM     16  C   UNL A   1      31.781  27.419  22.756  1.00  0.00     0.086 C 
BRANCH  16  17
ATOM     17  C   UNL A   1      30.385  27.924  22.339  1.00  0.00     0.022 C 
ATOM     18  C   UNL A   1      29.371  27.743  23.475  1.00  0.00     0.006 C 
ENDBRANCH  16  17
BRANCH  16  19
ATOM     19  C   UNL A   1      32.725  28.423  23.413  1.00  0.00     0.005 C 
ATOM     20  C   UNL A   1      33.242  28.060  24.803  1.00  0.00     0.009 C 
ATOM     21  C   UNL A   1      33.918  28.700  22.486  1.00  0.00     0.009 C 
ENDBRANCH  16  19
ENDBRANCH  11  16
ENDBRANCH   6  10
ENDBRANCH   5   6
ENDBRANCH   3   5
ENDBRANCH   2   3
ENDBRANCH   1   2
BRANCH   1  22
ATOM     22  C   UNL A   1      36.467  20.773  24.962  1.00  0.00     0.275 C 
BRANCH  22  23
ATOM     23  O   UNL A   1      37.232  21.817  25.589  1.00  0.00    -0.458 OA
BRANCH  23  24
ATOM     24  C   UNL A   1      38.497  21.474  25.929  1.00  0.00     0.338 C 
ATOM     25  O   UNL A   1      39.047  20.403  25.744  1.00  0.00    -0.246 OA
BRANCH  24  26
ATOM     26  C   UNL A   1      39.150  22.645  26.536  1.00  0.00     0.060 A 
ATOM     27  C   UNL A   1      38.622  23.913  26.300  1.00  0.00     0.016 A 
ATOM     28  C   UNL A   1      40.339  22.498  27.249  1.00  0.00     0.016 A 
ATOM     29  C   UNL A   1      39.325  25.044  26.711  1.00  0.00     0.010 A 
ATOM     30  C   UNL A   1      41.009  23.638  27.714  1.00  0.00     0.010 A 
ATOM     31  C   UNL A   1      40.530  24.927  27.417  1.00  0.00    -0.014 A 
BRANCH  31  32
ATOM     32  C   UNL A   1      41.308  26.141  27.799  1.00  0.00     0.031 A 
ATOM     33  C   UNL A   1      40.662  27.238  28.607  1.00  0.00     0.074 A 
ATOM     34  C   UNL A   1      42.598  26.273  27.435  1.00  0.00     0.049 A 
ATOM     35  N   UNL A   1      41.115  28.434  28.897  1.00  0.00    -0.248 NA
ATOM     36  C   UNL A   1      39.327  26.956  29.154  1.00  0.00     0.031 C 
ATOM     37  C   UNL A   1      43.377  25.279  26.697  1.00  0.00     0.029 A 
ATOM     38  N   UNL A   1      43.484  27.306  27.635  1.00  0.00    -0.354 N 
ATOM     39  C   UNL A   1      40.104  29.063  29.612  1.00  0.00     0.074 A 
ATOM     40  C   UNL A   1      39.009  28.119  29.708  1.00  0.00     0.031 C 
ATOM     41  C   UNL A   1      44.625  25.738  26.522  1.00  0.00     0.029 A 
ATOM     42  C   UNL A   1      44.717  27.089  27.069  1.00  0.00     0.049 A 
ATOM     43  H   UNL A   1      43.256  28.122  28.136  1.00  0.00     0.167 HD
ATOM     44  C   UNL A   1      40.088  30.312  30.140  1.00  0.00     0.037 A 
ATOM     45  C   UNL A   1      45.790  27.897  26.962  1.00  0.00     0.037 A 
ATOM     46  C   UNL A   1      41.191  31.238  30.095  1.00  0.00     0.049 A 
ATOM     47  C   UNL A   1      45.734  29.291  27.520  1.00  0.00     0.074 A 
ATOM     48  C   UNL A   1      41.272  32.512  30.632  1.00  0.00     0.029 A 
ATOM     49  N   UNL A   1      42.411  30.987  29.486  1.00  0.00    -0.354 N 
ATOM     50  N   UNL A   1      44.761  29.888  28.161  1.00  0.00    -0.248 NA
ATOM     51  C   UNL A   1      46.927  30.128  27.328  1.00  0.00     0.031 C 
ATOM     52  C   UNL A   1      42.527  33.046  30.314  1.00  0.00     0.029 A 
ATOM     53  C   UNL A   1      43.245  32.088  29.620  1.00  0.00     0.049 A 
ATOM     54  H   UNL A   1      42.650  30.150  29.025  1.00  0.00     0.167 HD
ATOM     55  C   UNL A   1      45.228  31.159  28.465  1.00  0.00     0.074 A 
ATOM     56  C   UNL A   1      46.578  31.244  27.952  1.00  0.00     0.031 C 
ATOM     57  C   UNL A   1      44.590  32.165  29.113  1.00  0.00     0.037 A 
BRANCH  44  58
ATOM     58  C   UNL A   1      38.818  30.771  30.798  1.00  0.00     0.064 A 
ATOM     59  C   UNL A   1      37.734  31.266  30.059  1.00  0.00     0.173 A 
ATOM     60  C   UNL A   1      38.670  30.667  32.192  1.00  0.00     0.173 A 
ATOM     61  F   UNL A   1      37.827  31.390  28.727  1.00  0.00    -0.203 F 
ATOM     62  C   UNL A   1      36.560  31.666  30.693  1.00  0.00     0.198 A 
ATOM     63  C   UNL A   1      37.483  31.041  32.817  1.00  0.00     0.198 A 
ATOM     64  F   UNL A   1      39.671  30.188  32.945  1.00  0.00    -0.203 F 
ATOM     65  F   UNL A   1      35.552  32.175  29.971  1.00  0.00    -0.200 F 
ATOM     66  C   UNL A   1      36.432  31.547  32.069  1.00  0.00     0.200 A 
ATOM     67  F   UNL A   1      37.357  30.910  34.145  1.00  0.00    -0.200 F 
ATOM     68  F   UNL A   1      35.298  31.924  32.674  1.00  0.00    -0.200 F 
ENDBRANCH  44  58
BRANCH  45  69
ATOM     69  C   UNL A   1      47.009  27.407  26.270  1.00  0.00     0.064 A 
ATOM     70  C   UNL A   1      48.042  26.788  26.986  1.00  0.00     0.173 A 
ATOM     71  C   UNL A   1      47.162  27.540  24.882  1.00  0.00     0.173 A 
ATOM     72  F   UNL A   1      47.952  26.665  28.319  1.00  0.00    -0.203 F 
ATOM     73  C   UNL A   1      49.186  26.327  26.340  1.00  0.00     0.198 A 
ATOM     74  C   UNL A   1      48.294  27.053  24.234  1.00  0.00     0.198 A 
ATOM     75  F   UNL A   1      46.202  28.129  24.154  1.00  0.00    -0.203 F 
ATOM     76  F   UNL A   1      50.177  25.772  27.052  1.00  0.00    -0.200 F 
ATOM     77  C   UNL A   1      49.308  26.452  24.963  1.00  0.00     0.200 A 
ATOM     78  F   UNL A   1      48.401  27.164  22.902  1.00  0.00    -0.200 F 
ATOM     79  F   UNL A   1      50.404  25.998  24.343  1.00  0.00    -0.200 F 
ENDBRANCH  45  69
BRANCH  57  80
ATOM     80  C   UNL A   1      45.360  33.433  29.338  1.00  0.00     0.064 A 
ATOM     81  C   UNL A   1      45.382  34.462  28.385  1.00  0.00     0.173 A 
ATOM     82  C   UNL A   1      46.069  33.631  30.534  1.00  0.00     0.173 A 
ATOM     83  F   UNL A   1      44.737  34.315  27.219  1.00  0.00    -0.203 F 
ATOM     84  C   UNL A   1      46.107  35.631  28.609  1.00  0.00     0.198 A 
ATOM     85  C   UNL A   1      46.770  34.810  30.766  1.00  0.00     0.198 A 
ATOM     86  F   UNL A   1      46.076  32.679  31.480  1.00  0.00    -0.203 F 
ATOM     87  F   UNL A   1      46.153  36.580  27.665  1.00  0.00    -0.200 F 
ATOM     88  C   UNL A   1      46.795  35.807  29.801  1.00  0.00     0.200 A 
ATOM     89  F   UNL A   1      47.426  34.982  31.922  1.00  0.00    -0.200 F 
ATOM     90  F   UNL A   1      47.490  36.932  30.016  1.00  0.00    -0.200 F 
ENDBRANCH  57  80
ENDBRANCH  31  32
ENDBRANCH  24  26
ENDBRANCH  23  24
ENDBRANCH  22  23
ENDBRANCH   1  22
TORSDOF 16
ENDMDL
