MODEL 1
REMARK VINA RESULT:     -11.8      0.000      0.000
REMARK SMILES O=C(OCCOC(=O)c1cccc(S(=O)(=O)NC[C@@H]2CCOC2)c1)c1ccc(-c2c3nc(c(-c4c(F)c(F)c(F)c(F)c4F)c4ccc([nH]4)c(-c4c(F)c(F)c(F)c(F)c4F)c4nc(c(-c5c(F)c(F)c(F)c(F)c5F)c5ccc2[nH]5)C=C4)C=C3)cc1
REMARK SMILES IDX 5 1 4 2 3 3 2 4 1 5 25 6 26 7 87 8 27 9 86 10 28 11 29 12
REMARK SMILES IDX 30 13 80 14 31 15 85 16 79 17 81 18 32 19 84 20 78 21 77 22
REMARK SMILES IDX 33 24 65 25 45 26 64 27 46 28 49 29 63 30 82 31 47 32 48 33
REMARK SMILES IDX 62 35 83 36 50 37 34 38 35 39 43 40 36 41 37 42 41 43 44 44
REMARK SMILES IDX 38 45 39 46 42 47 40 48 66 49 67 50 75 51 68 52 69 53 73 54
REMARK SMILES IDX 76 55 70 56 71 57 74 58 72 59 51 60 52 61 60 62 53 63 54 64
REMARK SMILES IDX 58 65 61 66 55 67 56 68 59 69 57 70 6 71 7 72 8 73 9 74
REMARK SMILES IDX 10 75 24 76 11 77 13 78 12 79 14 80 15 81 16 82 17 83 18 85
REMARK SMILES IDX 19 86 20 87 23 88 21 89 22 90
REMARK H PARENT 81 23 49 34 17 84
REMARK Flexibility Score: inf
ROOT
ATOM      1  C   UNL A   1      41.777  20.014  26.843  1.00  0.00     0.275 C 
ENDROOT
BRANCH   1   2
ATOM      2  C   UNL A   1      42.924  20.734  26.127  1.00  0.00     0.275 C 
BRANCH   2   3
ATOM      3  O   UNL A   1      42.528  21.810  25.255  1.00  0.00    -0.458 OA
BRANCH   3   4
ATOM      4  C   UNL A   1      43.107  23.019  25.063  1.00  0.00     0.338 C 
ATOM      5  O   UNL A   1      44.023  23.126  24.249  1.00  0.00    -0.246 OA
BRANCH   4   6
ATOM      6  C   UNL A   1      42.800  24.209  25.913  1.00  0.00     0.060 A 
ATOM      7  C   UNL A   1      43.418  25.460  25.825  1.00  0.00     0.016 A 
ATOM      8  C   UNL A   1      41.818  24.025  26.902  1.00  0.00     0.016 A 
ATOM      9  C   UNL A   1      43.025  26.522  26.649  1.00  0.00     0.010 A 
ATOM     10  C   UNL A   1      41.417  25.082  27.722  1.00  0.00     0.010 A 
ATOM     11  C   UNL A   1      42.031  26.339  27.608  1.00  0.00    -0.014 A 
BRANCH  11  12
ATOM     12  C   UNL A   1      41.783  27.355  28.657  1.00  0.00     0.031 A 
ATOM     13  C   UNL A   1      42.477  27.173  29.975  1.00  0.00     0.074 A 
ATOM     14  C   UNL A   1      40.978  28.417  28.473  1.00  0.00     0.049 A 
ATOM     15  N   UNL A   1      42.320  27.830  31.092  1.00  0.00    -0.248 NA
ATOM     16  C   UNL A   1      43.523  26.135  30.024  1.00  0.00     0.031 C 
ATOM     17  C   UNL A   1      40.356  28.823  27.216  1.00  0.00     0.029 A 
ATOM     18  N   UNL A   1      40.471  29.304  29.399  1.00  0.00    -0.354 N 
ATOM     19  C   UNL A   1      43.303  27.350  31.941  1.00  0.00     0.074 A 
ATOM     20  C   UNL A   1      43.961  26.254  31.266  1.00  0.00     0.031 C 
ATOM     21  C   UNL A   1      39.434  29.768  27.480  1.00  0.00     0.029 A 
ATOM     22  C   UNL A   1      39.362  29.964  28.921  1.00  0.00     0.049 A 
ATOM     23  H   UNL A   1      40.854  29.447  30.294  1.00  0.00     0.167 HD
ATOM     24  C   UNL A   1      43.677  27.842  33.144  1.00  0.00     0.037 A 
ATOM     25  C   UNL A   1      38.349  30.541  29.597  1.00  0.00     0.037 A 
ATOM     26  C   UNL A   1      42.982  28.901  33.817  1.00  0.00     0.049 A 
ATOM     27  C   UNL A   1      38.515  30.786  31.066  1.00  0.00     0.074 A 
ATOM     28  C   UNL A   1      43.296  29.539  35.001  1.00  0.00     0.029 A 
ATOM     29  N   UNL A   1      41.789  29.450  33.367  1.00  0.00    -0.354 N 
ATOM     30  N   UNL A   1      39.494  30.418  31.852  1.00  0.00    -0.248 NA
ATOM     31  C   UNL A   1      37.495  31.619  31.716  1.00  0.00     0.031 C 
ATOM     32  C   UNL A   1      42.260  30.435  35.298  1.00  0.00     0.029 A 
ATOM     33  C   UNL A   1      41.327  30.389  34.273  1.00  0.00     0.049 A 
ATOM     34  H   UNL A   1      41.337  29.208  32.527  1.00  0.00     0.167 HD
ATOM     35  C   UNL A   1      39.274  31.065  33.057  1.00  0.00     0.074 A 
ATOM     36  C   UNL A   1      38.019  31.779  32.925  1.00  0.00     0.031 C 
ATOM     37  C   UNL A   1      40.093  31.120  34.134  1.00  0.00     0.037 A 
BRANCH  24  38
ATOM     38  C   UNL A   1      44.902  27.239  33.758  1.00  0.00     0.064 A 
ATOM     39  C   UNL A   1      44.803  26.162  34.656  1.00  0.00     0.173 A 
ATOM     40  C   UNL A   1      46.171  27.769  33.502  1.00  0.00     0.173 A 
ATOM     41  F   UNL A   1      43.605  25.631  34.949  1.00  0.00    -0.203 F 
ATOM     42  C   UNL A   1      45.927  25.673  35.316  1.00  0.00     0.198 A 
ATOM     43  C   UNL A   1      47.298  27.258  34.143  1.00  0.00     0.198 A 
ATOM     44  F   UNL A   1      46.318  28.797  32.654  1.00  0.00    -0.203 F 
ATOM     45  F   UNL A   1      45.797  24.697  36.225  1.00  0.00    -0.200 F 
ATOM     46  C   UNL A   1      47.173  26.222  35.059  1.00  0.00     0.200 A 
ATOM     47  F   UNL A   1      48.503  27.786  33.893  1.00  0.00    -0.200 F 
ATOM     48  F   UNL A   1      48.253  25.766  35.707  1.00  0.00    -0.200 F 
ENDBRANCH  24  38
BRANCH  25  49
ATOM     49  C   UNL A   1      37.065  30.854  28.922  1.00  0.00     0.064 A 
ATOM     50  C   UNL A   1      36.706  32.158  28.571  1.00  0.00     0.173 A 
ATOM     51  C   UNL A   1      36.150  29.825  28.637  1.00  0.00     0.173 A 
ATOM     52  F   UNL A   1      37.528  33.177  28.855  1.00  0.00    -0.203 F 
ATOM     53  C   UNL A   1      35.488  32.422  27.944  1.00  0.00     0.198 A 
ATOM     54  C   UNL A   1      34.944  30.086  27.992  1.00  0.00     0.198 A 
ATOM     55  F   UNL A   1      36.418  28.567  29.013  1.00  0.00    -0.203 F 
ATOM     56  F   UNL A   1      35.158  33.682  27.629  1.00  0.00    -0.200 F 
ATOM     57  C   UNL A   1      34.613  31.386  27.645  1.00  0.00     0.200 A 
ATOM     58  F   UNL A   1      34.098  29.085  27.714  1.00  0.00    -0.200 F 
ATOM     59  F   UNL A   1      33.451  31.643  27.029  1.00  0.00    -0.200 F 
ENDBRANCH  25  49
BRANCH  37  60
ATOM     60  C   UNL A   1      39.743  32.097  35.213  1.00  0.00     0.064 A 
ATOM     61  C   UNL A   1      40.215  33.413  35.218  1.00  0.00     0.173 A 
ATOM     62  C   UNL A   1      38.863  31.702  36.234  1.00  0.00     0.173 A 
ATOM     63  F   UNL A   1      41.080  33.825  34.280  1.00  0.00    -0.203 F 
ATOM     64  C   UNL A   1      39.819  34.305  36.211  1.00  0.00     0.198 A 
ATOM     65  C   UNL A   1      38.447  32.602  37.207  1.00  0.00     0.198 A 
ATOM     66  F   UNL A   1      38.392  30.447  36.273  1.00  0.00    -0.203 F 
ATOM     67  F   UNL A   1      40.305  35.553  36.221  1.00  0.00    -0.200 F 
ATOM     68  C   UNL A   1      38.926  33.902  37.197  1.00  0.00     0.200 A 
ATOM     69  F   UNL A   1      37.578  32.213  38.151  1.00  0.00    -0.200 F 
ATOM     70  F   UNL A   1      38.532  34.769  38.140  1.00  0.00    -0.200 F 
ENDBRANCH  37  60
ENDBRANCH  11  12
ENDBRANCH   4   6
ENDBRANCH   3   4
ENDBRANCH   2   3
ENDBRANCH   1   2
BRANCH   1  71
ATOM     71  O   UNL A   1      40.568  20.787  26.903  1.00  0.00    -0.458 OA
BRANCH  71  72
ATOM     72  C   UNL A   1      39.633  20.414  25.992  1.00  0.00     0.338 C 
ATOM     73  O   UNL A   1      39.564  19.334  25.428  1.00  0.00    -0.246 OA
BRANCH  72  74
ATOM     74  C   UNL A   1      38.602  21.462  25.823  1.00  0.00     0.061 A 
ATOM     75  C   UNL A   1      38.948  22.766  26.204  1.00  0.00     0.016 A 
ATOM     76  C   UNL A   1      37.315  21.187  25.350  1.00  0.00     0.037 A 
ATOM     77  C   UNL A   1      38.014  23.797  26.117  1.00  0.00     0.002 A 
ATOM     78  C   UNL A   1      36.353  22.202  25.387  1.00  0.00     0.083 A 
ATOM     79  C   UNL A   1      36.709  23.510  25.734  1.00  0.00     0.022 A 
BRANCH  78  80
ATOM     80  S   UNL A   1      34.624  21.901  25.152  1.00  0.00     0.240 S 
ATOM     81  O   UNL A   1      33.879  22.700  26.095  1.00  0.00    -0.207 OA
ATOM     82  O   UNL A   1      34.384  22.037  23.735  1.00  0.00    -0.207 OA
BRANCH  80  83
ATOM     83  N   UNL A   1      34.343  20.302  25.530  1.00  0.00    -0.211 NA
ATOM     84  H   UNL A   1      33.451  20.313  26.023  1.00  0.00     0.141 HD
BRANCH  83  85
ATOM     85  C   UNL A   1      34.252  19.151  24.638  1.00  0.00     0.105 C 
BRANCH  85  86
ATOM     86  C   UNL A   1      32.936  18.384  24.638  1.00  0.00     0.032 C 
ATOM     87  C   UNL A   1      33.030  16.943  25.107  1.00  0.00     0.036 C 
ATOM     88  C   UNL A   1      32.535  18.135  23.184  1.00  0.00     0.165 C 
ATOM     89  C   UNL A   1      33.620  16.214  23.920  1.00  0.00     0.160 C 
ATOM     90  O   UNL A   1      33.268  16.976  22.758  1.00  0.00    -0.381 OA
ENDBRANCH  85  86
ENDBRANCH  83  85
ENDBRANCH  80  83
ENDBRANCH  78  80
ENDBRANCH  72  74
ENDBRANCH  71  72
ENDBRANCH   1  71
TORSDOF 15
ENDMDL
MODEL 2
REMARK VINA RESULT:     -11.8      4.502      9.747
REMARK SMILES O=C(OCCOC(=O)c1cccc(S(=O)(=O)NC[C@@H]2CCOC2)c1)c1ccc(-c2c3nc(c(-c4c(F)c(F)c(F)c(F)c4F)c4ccc([nH]4)c(-c4c(F)c(F)c(F)c(F)c4F)c4nc(c(-c5c(F)c(F)c(F)c(F)c5F)c5ccc2[nH]5)C=C4)C=C3)cc1
REMARK SMILES IDX 5 1 4 2 3 3 2 4 1 5 25 6 26 7 87 8 27 9 86 10 28 11 29 12
REMARK SMILES IDX 30 13 80 14 31 15 85 16 79 17 81 18 32 19 84 20 78 21 77 22
REMARK SMILES IDX 33 24 65 25 45 26 64 27 46 28 49 29 63 30 82 31 47 32 48 33
REMARK SMILES IDX 62 35 83 36 50 37 34 38 35 39 43 40 36 41 37 42 41 43 44 44
REMARK SMILES IDX 38 45 39 46 42 47 40 48 66 49 67 50 75 51 68 52 69 53 73 54
REMARK SMILES IDX 76 55 70 56 71 57 74 58 72 59 51 60 52 61 60 62 53 63 54 64
REMARK SMILES IDX 58 65 61 66 55 67 56 68 59 69 57 70 6 71 7 72 8 73 9 74
REMARK SMILES IDX 10 75 24 76 11 77 13 78 12 79 14 80 15 81 16 82 17 83 18 85
REMARK SMILES IDX 19 86 20 87 23 88 21 89 22 90
REMARK H PARENT 81 23 49 34 17 84
REMARK Flexibility Score: inf
ROOT
ATOM      1  C   UNL A   1      33.225  31.318  27.415  1.00  0.00     0.275 C 
ENDROOT
BRANCH   1   2
ATOM      2  C   UNL A   1      32.157  32.406  27.270  1.00  0.00     0.275 C 
BRANCH   2   3
ATOM      3  O   UNL A   1      32.616  33.754  27.486  1.00  0.00    -0.458 OA
BRANCH   3   4
ATOM      4  C   UNL A   1      33.095  34.330  28.614  1.00  0.00     0.338 C 
ATOM      5  O   UNL A   1      32.492  35.281  29.107  1.00  0.00    -0.246 OA
BRANCH   4   6
ATOM      6  C   UNL A   1      34.421  33.974  29.205  1.00  0.00     0.060 A 
ATOM      7  C   UNL A   1      35.669  34.227  28.629  1.00  0.00     0.016 A 
ATOM      8  C   UNL A   1      34.386  33.300  30.438  1.00  0.00     0.016 A 
ATOM      9  C   UNL A   1      36.855  33.885  29.291  1.00  0.00     0.010 A 
ATOM     10  C   UNL A   1      35.565  32.962  31.106  1.00  0.00     0.010 A 
ATOM     11  C   UNL A   1      36.812  33.241  30.527  1.00  0.00    -0.014 A 
BRANCH  11  12
ATOM     12  C   UNL A   1      38.028  32.638  31.118  1.00  0.00     0.031 A 
ATOM     13  C   UNL A   1      38.532  31.361  30.512  1.00  0.00     0.074 A 
ATOM     14  C   UNL A   1      38.688  33.184  32.156  1.00  0.00     0.049 A 
ATOM     15  N   UNL A   1      39.477  30.563  30.927  1.00  0.00    -0.248 NA
ATOM     16  C   UNL A   1      37.911  30.954  29.239  1.00  0.00     0.031 C 
ATOM     17  C   UNL A   1      38.426  34.489  32.756  1.00  0.00     0.029 A 
ATOM     18  N   UNL A   1      39.674  32.641  32.952  1.00  0.00    -0.354 N 
ATOM     19  C   UNL A   1      39.625  29.618  29.926  1.00  0.00     0.074 A 
ATOM     20  C   UNL A   1      38.586  29.853  28.951  1.00  0.00     0.031 C 
ATOM     21  C   UNL A   1      39.111  34.574  33.912  1.00  0.00     0.029 A 
ATOM     22  C   UNL A   1      39.786  33.307  34.152  1.00  0.00     0.049 A 
ATOM     23  H   UNL A   1      40.230  31.871  32.695  1.00  0.00     0.167 HD
ATOM     24  C   UNL A   1      40.601  28.690  29.796  1.00  0.00     0.037 A 
ATOM     25  C   UNL A   1      40.266  32.870  35.332  1.00  0.00     0.037 A 
ATOM     26  C   UNL A   1      41.598  28.442  30.797  1.00  0.00     0.049 A 
ATOM     27  C   UNL A   1      41.061  31.600  35.358  1.00  0.00     0.074 A 
ATOM     28  C   UNL A   1      42.680  27.584  30.760  1.00  0.00     0.029 A 
ATOM     29  N   UNL A   1      41.598  29.037  32.051  1.00  0.00    -0.354 N 
ATOM     30  N   UNL A   1      41.284  30.754  34.386  1.00  0.00    -0.248 NA
ATOM     31  C   UNL A   1      41.758  31.283  36.611  1.00  0.00     0.031 C 
ATOM     32  C   UNL A   1      43.301  27.618  32.015  1.00  0.00     0.029 A 
ATOM     33  C   UNL A   1      42.635  28.533  32.815  1.00  0.00     0.049 A 
ATOM     34  H   UNL A   1      40.954  29.719  32.352  1.00  0.00     0.167 HD
ATOM     35  C   UNL A   1      42.236  29.870  34.866  1.00  0.00     0.074 A 
ATOM     36  C   UNL A   1      42.481  30.229  36.249  1.00  0.00     0.031 C 
ATOM     37  C   UNL A   1      42.899  28.906  34.182  1.00  0.00     0.037 A 
BRANCH  24  38
ATOM     38  C   UNL A   1      40.621  27.922  28.510  1.00  0.00     0.064 A 
ATOM     39  C   UNL A   1      39.975  26.677  28.403  1.00  0.00     0.173 A 
ATOM     40  C   UNL A   1      41.332  28.392  27.401  1.00  0.00     0.173 A 
ATOM     41  F   UNL A   1      39.296  26.175  29.446  1.00  0.00    -0.203 F 
ATOM     42  C   UNL A   1      40.087  25.909  27.248  1.00  0.00     0.198 A 
ATOM     43  C   UNL A   1      41.417  27.633  26.237  1.00  0.00     0.198 A 
ATOM     44  F   UNL A   1      41.966  29.573  27.454  1.00  0.00    -0.203 F 
ATOM     45  F   UNL A   1      39.527  24.693  27.198  1.00  0.00    -0.200 F 
ATOM     46  C   UNL A   1      40.808  26.388  26.166  1.00  0.00     0.200 A 
ATOM     47  F   UNL A   1      42.112  28.096  25.189  1.00  0.00    -0.200 F 
ATOM     48  F   UNL A   1      40.933  25.641  25.061  1.00  0.00    -0.200 F 
ENDBRANCH  24  38
BRANCH  25  49
ATOM     49  C   UNL A   1      39.950  33.586  36.594  1.00  0.00     0.064 A 
ATOM     50  C   UNL A   1      38.852  33.248  37.388  1.00  0.00     0.173 A 
ATOM     51  C   UNL A   1      40.754  34.661  37.012  1.00  0.00     0.173 A 
ATOM     52  F   UNL A   1      38.035  32.256  37.012  1.00  0.00    -0.203 F 
ATOM     53  C   UNL A   1      38.577  33.946  38.565  1.00  0.00     0.198 A 
ATOM     54  C   UNL A   1      40.491  35.343  38.198  1.00  0.00     0.198 A 
ATOM     55  F   UNL A   1      41.780  35.068  36.252  1.00  0.00    -0.203 F 
ATOM     56  F   UNL A   1      37.510  33.613  39.304  1.00  0.00    -0.200 F 
ATOM     57  C   UNL A   1      39.402  34.985  38.974  1.00  0.00     0.200 A 
ATOM     58  F   UNL A   1      41.284  36.352  38.585  1.00  0.00    -0.200 F 
ATOM     59  F   UNL A   1      39.141  35.641  40.113  1.00  0.00    -0.200 F 
ENDBRANCH  25  49
BRANCH  37  60
ATOM     60  C   UNL A   1      44.062  28.259  34.864  1.00  0.00     0.064 A 
ATOM     61  C   UNL A   1      45.339  28.829  34.878  1.00  0.00     0.173 A 
ATOM     62  C   UNL A   1      43.863  27.058  35.566  1.00  0.00     0.173 A 
ATOM     63  F   UNL A   1      45.583  29.958  34.197  1.00  0.00    -0.203 F 
ATOM     64  C   UNL A   1      46.381  28.220  35.573  1.00  0.00     0.198 A 
ATOM     65  C   UNL A   1      44.897  26.467  36.281  1.00  0.00     0.198 A 
ATOM     66  F   UNL A   1      42.657  26.471  35.572  1.00  0.00    -0.203 F 
ATOM     67  F   UNL A   1      47.605  28.761  35.551  1.00  0.00    -0.200 F 
ATOM     68  C   UNL A   1      46.156  27.047  36.283  1.00  0.00     0.200 A 
ATOM     69  F   UNL A   1      44.674  25.342  36.974  1.00  0.00    -0.200 F 
ATOM     70  F   UNL A   1      47.156  26.474  36.966  1.00  0.00    -0.200 F 
ENDBRANCH  37  60
ENDBRANCH  11  12
ENDBRANCH   4   6
ENDBRANCH   3   4
ENDBRANCH   2   3
ENDBRANCH   1   2
BRANCH   1  71
ATOM     71  O   UNL A   1      33.331  30.465  26.264  1.00  0.00    -0.458 OA
BRANCH  71  72
ATOM     72  C   UNL A   1      33.930  29.274  26.519  1.00  0.00     0.338 C 
ATOM     73  O   UNL A   1      34.875  29.084  27.266  1.00  0.00    -0.246 OA
BRANCH  72  74
ATOM     74  C   UNL A   1      33.220  28.164  25.844  1.00  0.00     0.061 A 
ATOM     75  C   UNL A   1      33.716  26.869  26.050  1.00  0.00     0.016 A 
ATOM     76  C   UNL A   1      32.127  28.370  24.996  1.00  0.00     0.037 A 
ATOM     77  C   UNL A   1      33.128  25.779  25.412  1.00  0.00     0.002 A 
ATOM     78  C   UNL A   1      31.627  27.286  24.267  1.00  0.00     0.083 A 
ATOM     79  C   UNL A   1      32.101  25.990  24.500  1.00  0.00     0.022 A 
BRANCH  78  80
ATOM     80  S   UNL A   1      30.495  27.472  22.918  1.00  0.00     0.240 S 
ATOM     81  O   UNL A   1      31.081  26.893  21.733  1.00  0.00    -0.207 OA
ATOM     82  O   UNL A   1      29.219  27.002  23.400  1.00  0.00    -0.207 OA
BRANCH  80  83
ATOM     83  N   UNL A   1      30.324  29.106  22.635  1.00  0.00    -0.211 NA
ATOM     84  H   UNL A   1      30.006  29.162  21.669  1.00  0.00     0.141 HD
BRANCH  83  85
ATOM     85  C   UNL A   1      29.502  30.079  23.347  1.00  0.00     0.105 C 
BRANCH  85  86
ATOM     86  C   UNL A   1      28.085  30.290  22.831  1.00  0.00     0.032 C 
ATOM     87  C   UNL A   1      27.987  30.791  21.402  1.00  0.00     0.036 C 
ATOM     88  C   UNL A   1      27.498  31.505  23.549  1.00  0.00     0.165 C 
ATOM     89  C   UNL A   1      28.320  32.262  21.510  1.00  0.00     0.160 C 
ATOM     90  O   UNL A   1      27.979  32.660  22.844  1.00  0.00    -0.381 OA
ENDBRANCH  85  86
ENDBRANCH  83  85
ENDBRANCH  80  83
ENDBRANCH  78  80
ENDBRANCH  72  74
ENDBRANCH  71  72
ENDBRANCH   1  71
TORSDOF 15
ENDMDL
MODEL 3
REMARK VINA RESULT:     -11.7      5.494     11.316
REMARK SMILES O=C(OCCOC(=O)c1cccc(S(=O)(=O)NC[C@@H]2CCOC2)c1)c1ccc(-c2c3nc(c(-c4c(F)c(F)c(F)c(F)c4F)c4ccc([nH]4)c(-c4c(F)c(F)c(F)c(F)c4F)c4nc(c(-c5c(F)c(F)c(F)c(F)c5F)c5ccc2[nH]5)C=C4)C=C3)cc1
REMARK SMILES IDX 5 1 4 2 3 3 2 4 1 5 25 6 26 7 87 8 27 9 86 10 28 11 29 12
REMARK SMILES IDX 30 13 80 14 31 15 85 16 79 17 81 18 32 19 84 20 78 21 77 22
REMARK SMILES IDX 33 24 65 25 45 26 64 27 46 28 49 29 63 30 82 31 47 32 48 33
REMARK SMILES IDX 62 35 83 36 50 37 34 38 35 39 43 40 36 41 37 42 41 43 44 44
REMARK SMILES IDX 38 45 39 46 42 47 40 48 66 49 67 50 75 51 68 52 69 53 73 54
REMARK SMILES IDX 76 55 70 56 71 57 74 58 72 59 51 60 52 61 60 62 53 63 54 64
REMARK SMILES IDX 58 65 61 66 55 67 56 68 59 69 57 70 6 71 7 72 8 73 9 74
REMARK SMILES IDX 10 75 24 76 11 77 13 78 12 79 14 80 15 81 16 82 17 83 18 85
REMARK SMILES IDX 19 86 20 87 23 88 21 89 22 90
REMARK H PARENT 81 23 49 34 17 84
REMARK Flexibility Score: inf
ROOT
ATOM      1  C   UNL A   1      33.249  33.923  28.008  1.00  0.00     0.275 C 
ENDROOT
BRANCH   1   2
ATOM      2  C   UNL A   1      34.389  32.953  28.331  1.00  0.00     0.275 C 
BRANCH   2   3
ATOM      3  O   UNL A   1      34.016  31.564  28.404  1.00  0.00    -0.458 OA
BRANCH   3   4
ATOM      4  C   UNL A   1      34.629  30.478  27.876  1.00  0.00     0.338 C 
ATOM      5  O   UNL A   1      34.003  29.744  27.113  1.00  0.00    -0.246 OA
BRANCH   4   6
ATOM      6  C   UNL A   1      35.988  30.028  28.302  1.00  0.00     0.060 A 
ATOM      7  C   UNL A   1      36.331  29.544  29.568  1.00  0.00     0.016 A 
ATOM      8  C   UNL A   1      37.006  30.135  27.338  1.00  0.00     0.016 A 
ATOM      9  C   UNL A   1      37.633  29.110  29.851  1.00  0.00     0.010 A 
ATOM     10  C   UNL A   1      38.303  29.698  27.611  1.00  0.00     0.010 A 
ATOM     11  C   UNL A   1      38.629  29.194  28.879  1.00  0.00    -0.014 A 
BRANCH  11  12
ATOM     12  C   UNL A   1      40.054  28.993  29.227  1.00  0.00     0.031 A 
ATOM     13  C   UNL A   1      40.652  27.646  28.948  1.00  0.00     0.074 A 
ATOM     14  C   UNL A   1      40.819  29.957  29.770  1.00  0.00     0.049 A 
ATOM     15  N   UNL A   1      41.819  27.170  29.287  1.00  0.00    -0.248 NA
ATOM     16  C   UNL A   1      39.835  26.725  28.137  1.00  0.00     0.031 C 
ATOM     17  C   UNL A   1      40.442  31.356  29.960  1.00  0.00     0.029 A 
ATOM     18  N   UNL A   1      42.065  29.865  30.353  1.00  0.00    -0.354 N 
ATOM     19  C   UNL A   1      41.912  25.940  28.658  1.00  0.00     0.074 A 
ATOM     20  C   UNL A   1      40.636  25.677  28.033  1.00  0.00     0.031 C 
ATOM     21  C   UNL A   1      41.359  31.943  30.752  1.00  0.00     0.029 A 
ATOM     22  C   UNL A   1      42.328  30.940  31.172  1.00  0.00     0.049 A 
ATOM     23  H   UNL A   1      42.691  29.120  30.203  1.00  0.00     0.167 HD
ATOM     24  C   UNL A   1      42.999  25.144  28.542  1.00  0.00     0.037 A 
ATOM     25  C   UNL A   1      43.170  31.034  32.219  1.00  0.00     0.037 A 
ATOM     26  C   UNL A   1      44.243  25.401  29.208  1.00  0.00     0.049 A 
ATOM     27  C   UNL A   1      44.198  29.962  32.412  1.00  0.00     0.074 A 
ATOM     28  C   UNL A   1      45.440  24.715  29.121  1.00  0.00     0.029 A 
ATOM     29  N   UNL A   1      44.429  26.419  30.132  1.00  0.00    -0.354 N 
ATOM     30  N   UNL A   1      44.348  28.842  31.752  1.00  0.00    -0.248 NA
ATOM     31  C   UNL A   1      45.238  30.217  33.418  1.00  0.00     0.031 C 
ATOM     32  C   UNL A   1      46.332  25.286  30.038  1.00  0.00     0.029 A 
ATOM     33  C   UNL A   1      45.706  26.356  30.658  1.00  0.00     0.049 A 
ATOM     34  H   UNL A   1      43.750  27.090  30.377  1.00  0.00     0.167 HD
ATOM     35  C   UNL A   1      45.556  28.313  32.175  1.00  0.00     0.074 A 
ATOM     36  C   UNL A   1      46.055  29.190  33.216  1.00  0.00     0.031 C 
ATOM     37  C   UNL A   1      46.217  27.242  31.675  1.00  0.00     0.037 A 
BRANCH  24  38
ATOM     38  C   UNL A   1      42.861  23.957  27.640  1.00  0.00     0.064 A 
ATOM     39  C   UNL A   1      42.473  22.705  28.149  1.00  0.00     0.173 A 
ATOM     40  C   UNL A   1      43.173  24.046  26.279  1.00  0.00     0.173 A 
ATOM     41  F   UNL A   1      42.182  22.564  29.452  1.00  0.00    -0.203 F 
ATOM     42  C   UNL A   1      42.454  21.575  27.337  1.00  0.00     0.198 A 
ATOM     43  C   UNL A   1      43.125  22.919  25.463  1.00  0.00     0.198 A 
ATOM     44  F   UNL A   1      43.550  25.218  25.746  1.00  0.00    -0.203 F 
ATOM     45  F   UNL A   1      42.156  20.379  27.861  1.00  0.00    -0.200 F 
ATOM     46  C   UNL A   1      42.781  21.684  25.994  1.00  0.00     0.200 A 
ATOM     47  F   UNL A   1      43.438  23.022  24.164  1.00  0.00    -0.200 F 
ATOM     48  F   UNL A   1      42.782  20.593  25.215  1.00  0.00    -0.200 F 
ENDBRANCH  24  38
BRANCH  25  49
ATOM     49  C   UNL A   1      43.033  32.132  33.209  1.00  0.00     0.064 A 
ATOM     50  C   UNL A   1      42.251  32.006  34.360  1.00  0.00     0.173 A 
ATOM     51  C   UNL A   1      43.682  33.360  32.990  1.00  0.00     0.173 A 
ATOM     52  F   UNL A   1      41.583  30.868  34.592  1.00  0.00    -0.203 F 
ATOM     53  C   UNL A   1      42.136  33.060  35.267  1.00  0.00     0.198 A 
ATOM     54  C   UNL A   1      43.584  34.404  33.907  1.00  0.00     0.198 A 
ATOM     55  F   UNL A   1      44.389  33.555  31.869  1.00  0.00    -0.203 F 
ATOM     56  F   UNL A   1      41.369  32.921  36.357  1.00  0.00    -0.200 F 
ATOM     57  C   UNL A   1      42.811  34.253  35.046  1.00  0.00     0.200 A 
ATOM     58  F   UNL A   1      44.229  35.558  33.686  1.00  0.00    -0.200 F 
ATOM     59  F   UNL A   1      42.708  35.256  35.929  1.00  0.00    -0.200 F 
ENDBRANCH  25  49
BRANCH  37  60
ATOM     60  C   UNL A   1      47.625  27.029  32.134  1.00  0.00     0.064 A 
ATOM     61  C   UNL A   1      48.709  27.718  31.583  1.00  0.00     0.173 A 
ATOM     62  C   UNL A   1      47.871  26.145  33.198  1.00  0.00     0.173 A 
ATOM     63  F   UNL A   1      48.526  28.549  30.546  1.00  0.00    -0.203 F 
ATOM     64  C   UNL A   1      49.997  27.530  32.080  1.00  0.00     0.198 A 
ATOM     65  C   UNL A   1      49.152  25.981  33.711  1.00  0.00     0.198 A 
ATOM     66  F   UNL A   1      46.862  25.456  33.753  1.00  0.00    -0.203 F 
ATOM     67  F   UNL A   1      51.029  28.173  31.519  1.00  0.00    -0.200 F 
ATOM     68  C   UNL A   1      50.214  26.672  33.150  1.00  0.00     0.200 A 
ATOM     69  F   UNL A   1      49.357  25.160  34.750  1.00  0.00    -0.200 F 
ATOM     70  F   UNL A   1      51.451  26.508  33.638  1.00  0.00    -0.200 F 
ENDBRANCH  37  60
ENDBRANCH  11  12
ENDBRANCH   4   6
ENDBRANCH   3   4
ENDBRANCH   2   3
ENDBRANCH   1   2
BRANCH   1  71
ATOM     71  O   UNL A   1      32.621  34.474  29.177  1.00  0.00    -0.458 OA
BRANCH  71  72
ATOM     72  C   UNL A   1      32.943  35.772  29.411  1.00  0.00     0.338 C 
ATOM     73  O   UNL A   1      32.801  36.703  28.635  1.00  0.00    -0.246 OA
BRANCH  72  74
ATOM     74  C   UNL A   1      33.406  35.966  30.803  1.00  0.00     0.061 A 
ATOM     75  C   UNL A   1      33.213  37.234  31.370  1.00  0.00     0.016 A 
ATOM     76  C   UNL A   1      34.053  34.962  31.531  1.00  0.00     0.037 A 
ATOM     77  C   UNL A   1      33.665  37.505  32.660  1.00  0.00     0.002 A 
ATOM     78  C   UNL A   1      34.611  35.285  32.772  1.00  0.00     0.083 A 
ATOM     79  C   UNL A   1      34.388  36.540  33.351  1.00  0.00     0.022 A 
BRANCH  78  80
ATOM     80  S   UNL A   1      35.741  34.223  33.626  1.00  0.00     0.240 S 
ATOM     81  O   UNL A   1      36.805  35.023  34.183  1.00  0.00    -0.207 OA
ATOM     82  O   UNL A   1      34.934  33.388  34.485  1.00  0.00    -0.207 OA
BRANCH  80  83
ATOM     83  N   UNL A   1      36.427  33.213  32.492  1.00  0.00    -0.211 NA
ATOM     84  H   UNL A   1      37.371  33.578  32.366  1.00  0.00     0.141 HD
BRANCH  83  85
ATOM     85  C   UNL A   1      36.601  31.765  32.537  1.00  0.00     0.105 C 
BRANCH  85  86
ATOM     86  C   UNL A   1      38.025  31.248  32.694  1.00  0.00     0.032 C 
ATOM     87  C   UNL A   1      38.223  30.233  33.806  1.00  0.00     0.036 C 
ATOM     88  C   UNL A   1      38.880  32.384  33.256  1.00  0.00     0.165 C 
ATOM     89  C   UNL A   1      38.235  31.072  35.064  1.00  0.00     0.160 C 
ATOM     90  O   UNL A   1      38.669  32.382  34.676  1.00  0.00    -0.381 OA
ENDBRANCH  85  86
ENDBRANCH  83  85
ENDBRANCH  80  83
ENDBRANCH  78  80
ENDBRANCH  72  74
ENDBRANCH  71  72
ENDBRANCH   1  71
TORSDOF 15
ENDMDL
