MODEL 1
REMARK VINA RESULT:     -11.0      0.000      0.000
REMARK SMILES COc1cc(CC(=O)OCCOC(=O)c2ccc(-c3c4nc(c(-c5c(F)c(F)c(F)c(F)c5F)c5ccc([nH]5)c(-c5c(F)c(F)c(F)c(F)c5F)c5nc(c(-c6c(F)c(F)c(F)c(F)c6F)c6ccc3[nH]6)C=C5)C=C4)cc2)cc(Br)c1O
REMARK SMILES IDX 10 1 9 2 7 3 8 4 6 5 5 6 3 7 4 8 81 9 79 10 78 11 80 12 2 13
REMARK SMILES IDX 1 14 82 15 11 17 12 18 13 19 14 20 15 21 16 22 77 23 17 24
REMARK SMILES IDX 76 25 18 26 19 27 20 28 70 29 21 30 75 31 69 32 71 33 22 34
REMARK SMILES IDX 74 35 68 36 67 37 23 39 55 40 35 41 54 42 36 43 39 44 53 45
REMARK SMILES IDX 72 46 37 47 38 48 52 50 73 51 40 52 24 53 25 54 33 55 26 56
REMARK SMILES IDX 27 57 31 58 34 59 28 60 29 61 32 62 30 63 56 64 57 65 65 66
REMARK SMILES IDX 58 67 59 68 63 69 66 70 60 71 61 72 64 73 62 74 41 75 42 76
REMARK SMILES IDX 50 77 43 78 44 79 48 80 51 81 45 82 46 83 49 84 47 85
REMARK H PARENT 82 16 71 38 39 49
REMARK Flexibility Score: inf
ROOT
ATOM      1  C   UNL A   1      31.486  28.674  25.156  1.00  0.00     0.274 C 
ENDROOT
BRANCH   1   2
ATOM      2  O   UNL A   1      31.120  27.876  26.301  1.00  0.00    -0.462 OA
BRANCH   2   3
ATOM      3  C   UNL A   1      31.787  26.701  26.435  1.00  0.00     0.310 C 
ATOM      4  O   UNL A   1      31.297  25.664  26.872  1.00  0.00    -0.252 OA
BRANCH   3   5
ATOM      5  C   UNL A   1      33.243  26.786  26.053  1.00  0.00     0.158 C 
BRANCH   5   6
ATOM      6  C   UNL A   1      33.819  25.695  25.179  1.00  0.00    -0.032 A 
ATOM      7  C   UNL A   1      34.017  24.675  22.987  1.00  0.00     0.161 A 
ATOM      8  C   UNL A   1      33.417  25.601  23.839  1.00  0.00     0.054 A 
ATOM      9  C   UNL A   1      35.057  23.862  23.436  1.00  0.00     0.172 A 
ATOM     10  C   UNL A   1      35.454  23.929  24.770  1.00  0.00     0.063 A 
ATOM     11  C   UNL A   1      34.839  24.842  25.637  1.00  0.00     0.024 A 
ATOM     12  Br  UNL A   1      36.857  22.847  25.441  1.00  0.00    -0.047 Br
BRANCH   7  13
ATOM     13  O   UNL A   1      33.626  24.645  21.673  1.00  0.00    -0.493 OA
ATOM     14  C   UNL A   1      32.559  25.570  21.449  1.00  0.00     0.278 C 
ENDBRANCH   7  13
BRANCH   9  15
ATOM     15  O   UNL A   1      35.697  23.036  22.553  1.00  0.00    -0.503 OA
ATOM     16  H   UNL A   1      35.540  22.112  22.577  1.00  0.00     0.293 HD
ENDBRANCH   9  15
ENDBRANCH   5   6
ENDBRANCH   3   5
ENDBRANCH   2   3
ENDBRANCH   1   2
BRANCH   1  17
ATOM     17  C   UNL A   1      31.690  30.132  25.559  1.00  0.00     0.275 C 
BRANCH  17  18
ATOM     18  O   UNL A   1      33.065  30.343  25.927  1.00  0.00    -0.458 OA
BRANCH  18  19
ATOM     19  C   UNL A   1      33.275  31.239  26.917  1.00  0.00     0.338 C 
ATOM     20  O   UNL A   1      32.576  32.184  27.228  1.00  0.00    -0.246 OA
BRANCH  19  21
ATOM     21  C   UNL A   1      34.547  30.928  27.590  1.00  0.00     0.060 A 
ATOM     22  C   UNL A   1      34.859  29.620  27.972  1.00  0.00     0.016 A 
ATOM     23  C   UNL A   1      35.402  31.983  27.908  1.00  0.00     0.016 A 
ATOM     24  C   UNL A   1      36.022  29.368  28.699  1.00  0.00     0.010 A 
ATOM     25  C   UNL A   1      36.591  31.721  28.589  1.00  0.00     0.010 A 
ATOM     26  C   UNL A   1      36.904  30.416  29.004  1.00  0.00    -0.014 A 
BRANCH  26  27
ATOM     27  C   UNL A   1      38.157  30.173  29.760  1.00  0.00     0.031 A 
ATOM     28  C   UNL A   1      39.200  29.246  29.205  1.00  0.00     0.074 A 
ATOM     29  C   UNL A   1      38.332  30.738  30.969  1.00  0.00     0.049 A 
ATOM     30  N   UNL A   1      40.264  28.751  29.787  1.00  0.00    -0.248 NA
ATOM     31  C   UNL A   1      39.016  28.810  27.812  1.00  0.00     0.031 C 
ATOM     32  C   UNL A   1      37.407  31.677  31.604  1.00  0.00     0.029 A 
ATOM     33  N   UNL A   1      39.338  30.584  31.889  1.00  0.00    -0.354 N 
ATOM     34  C   UNL A   1      40.857  27.922  28.845  1.00  0.00     0.074 A 
ATOM     35  C   UNL A   1      40.032  27.972  27.657  1.00  0.00     0.031 C 
ATOM     36  C   UNL A   1      37.886  32.011  32.814  1.00  0.00     0.029 A 
ATOM     37  C   UNL A   1      39.117  31.265  33.060  1.00  0.00     0.049 A 
ATOM     38  H   UNL A   1      40.142  30.038  31.725  1.00  0.00     0.167 HD
ATOM     39  C   UNL A   1      41.988  27.186  28.966  1.00  0.00     0.037 A 
ATOM     40  C   UNL A   1      39.804  31.257  34.217  1.00  0.00     0.037 A 
ATOM     41  C   UNL A   1      42.819  27.158  30.142  1.00  0.00     0.049 A 
ATOM     42  C   UNL A   1      41.029  30.394  34.342  1.00  0.00     0.074 A 
ATOM     43  C   UNL A   1      44.000  26.467  30.348  1.00  0.00     0.029 A 
ATOM     44  N   UNL A   1      42.554  27.855  31.310  1.00  0.00    -0.354 N 
ATOM     45  N   UNL A   1      41.578  29.605  33.453  1.00  0.00    -0.248 NA
ATOM     46  C   UNL A   1      41.720  30.410  35.639  1.00  0.00     0.031 C 
ATOM     47  C   UNL A   1      44.433  26.718  31.655  1.00  0.00     0.029 A 
ATOM     48  C   UNL A   1      43.540  27.596  32.249  1.00  0.00     0.049 A 
ATOM     49  H   UNL A   1      41.780  28.446  31.453  1.00  0.00     0.167 HD
ATOM     50  C   UNL A   1      42.685  29.044  34.073  1.00  0.00     0.074 A 
ATOM     51  C   UNL A   1      42.739  29.593  35.412  1.00  0.00     0.031 C 
ATOM     52  C   UNL A   1      43.578  28.152  33.577  1.00  0.00     0.037 A 
BRANCH  39  53
ATOM     53  C   UNL A   1      42.384  26.328  27.802  1.00  0.00     0.064 A 
ATOM     54  C   UNL A   1      41.823  25.061  27.595  1.00  0.00     0.173 A 
ATOM     55  C   UNL A   1      43.308  26.801  26.857  1.00  0.00     0.173 A 
ATOM     56  F   UNL A   1      40.944  24.560  28.477  1.00  0.00    -0.203 F 
ATOM     57  C   UNL A   1      42.184  24.289  26.494  1.00  0.00     0.198 A 
ATOM     58  C   UNL A   1      43.651  26.037  25.745  1.00  0.00     0.198 A 
ATOM     59  F   UNL A   1      43.869  28.011  27.006  1.00  0.00    -0.203 F 
ATOM     60  F   UNL A   1      41.661  23.066  26.333  1.00  0.00    -0.200 F 
ATOM     61  C   UNL A   1      43.093  24.780  25.567  1.00  0.00     0.200 A 
ATOM     62  F   UNL A   1      44.520  26.517  24.846  1.00  0.00    -0.200 F 
ATOM     63  F   UNL A   1      43.435  24.039  24.503  1.00  0.00    -0.200 F 
ENDBRANCH  39  53
BRANCH  40  64
ATOM     64  C   UNL A   1      39.330  32.076  35.360  1.00  0.00     0.064 A 
ATOM     65  C   UNL A   1      39.689  33.426  35.476  1.00  0.00     0.173 A 
ATOM     66  C   UNL A   1      38.504  31.530  36.354  1.00  0.00     0.173 A 
ATOM     67  F   UNL A   1      40.498  33.983  34.563  1.00  0.00    -0.203 F 
ATOM     68  C   UNL A   1      39.245  34.197  36.548  1.00  0.00     0.198 A 
ATOM     69  C   UNL A   1      38.041  32.309  37.412  1.00  0.00     0.198 A 
ATOM     70  F   UNL A   1      38.136  30.242  36.289  1.00  0.00    -0.203 F 
ATOM     71  F   UNL A   1      39.630  35.476  36.655  1.00  0.00    -0.200 F 
ATOM     72  C   UNL A   1      38.416  33.640  37.510  1.00  0.00     0.200 A 
ATOM     73  F   UNL A   1      37.232  31.770  38.334  1.00  0.00    -0.200 F 
ATOM     74  F   UNL A   1      37.985  34.385  38.537  1.00  0.00    -0.200 F 
ENDBRANCH  40  64
BRANCH  52  75
ATOM     75  C   UNL A   1      44.701  27.735  34.477  1.00  0.00     0.064 A 
ATOM     76  C   UNL A   1      45.914  28.439  34.507  1.00  0.00     0.173 A 
ATOM     77  C   UNL A   1      44.549  26.644  35.344  1.00  0.00     0.173 A 
ATOM     78  F   UNL A   1      46.110  29.480  33.683  1.00  0.00    -0.203 F 
ATOM     79  C   UNL A   1      46.941  28.053  35.363  1.00  0.00     0.198 A 
ATOM     80  C   UNL A   1      45.570  26.275  36.215  1.00  0.00     0.198 A 
ATOM     81  F   UNL A   1      43.407  25.941  35.353  1.00  0.00    -0.203 F 
ATOM     82  F   UNL A   1      48.105  28.717  35.351  1.00  0.00    -0.200 F 
ATOM     83  C   UNL A   1      46.766  26.977  36.220  1.00  0.00     0.200 A 
ATOM     84  F   UNL A   1      45.399  25.239  37.047  1.00  0.00    -0.200 F 
ATOM     85  F   UNL A   1      47.756  26.609  37.047  1.00  0.00    -0.200 F 
ENDBRANCH  52  75
ENDBRANCH  26  27
ENDBRANCH  19  21
ENDBRANCH  18  19
ENDBRANCH  17  18
ENDBRANCH   1  17
TORSDOF 14
ENDMDL
MODEL 2
REMARK VINA RESULT:     -10.9      1.063      2.547
REMARK SMILES COc1cc(CC(=O)OCCOC(=O)c2ccc(-c3c4nc(c(-c5c(F)c(F)c(F)c(F)c5F)c5ccc([nH]5)c(-c5c(F)c(F)c(F)c(F)c5F)c5nc(c(-c6c(F)c(F)c(F)c(F)c6F)c6ccc3[nH]6)C=C5)C=C4)cc2)cc(Br)c1O
REMARK SMILES IDX 10 1 9 2 7 3 8 4 6 5 5 6 3 7 4 8 81 9 79 10 78 11 80 12 2 13
REMARK SMILES IDX 1 14 82 15 11 17 12 18 13 19 14 20 15 21 16 22 77 23 17 24
REMARK SMILES IDX 76 25 18 26 19 27 20 28 70 29 21 30 75 31 69 32 71 33 22 34
REMARK SMILES IDX 74 35 68 36 67 37 23 39 55 40 35 41 54 42 36 43 39 44 53 45
REMARK SMILES IDX 72 46 37 47 38 48 52 50 73 51 40 52 24 53 25 54 33 55 26 56
REMARK SMILES IDX 27 57 31 58 34 59 28 60 29 61 32 62 30 63 56 64 57 65 65 66
REMARK SMILES IDX 58 67 59 68 63 69 66 70 60 71 61 72 64 73 62 74 41 75 42 76
REMARK SMILES IDX 50 77 43 78 44 79 48 80 51 81 45 82 46 83 49 84 47 85
REMARK H PARENT 82 16 71 38 39 49
REMARK Flexibility Score: inf
ROOT
ATOM      1  C   UNL A   1      31.758  28.275  25.767  1.00  0.00     0.274 C 
ENDROOT
BRANCH   1   2
ATOM      2  O   UNL A   1      31.623  27.564  24.520  1.00  0.00    -0.462 OA
BRANCH   2   3
ATOM      3  C   UNL A   1      32.733  26.905  24.097  1.00  0.00     0.310 C 
ATOM      4  O   UNL A   1      32.949  26.570  22.936  1.00  0.00    -0.252 OA
BRANCH   3   5
ATOM      5  C   UNL A   1      33.683  26.545  25.212  1.00  0.00     0.158 C 
BRANCH   5   6
ATOM      6  C   UNL A   1      33.654  25.133  25.749  1.00  0.00    -0.032 A 
ATOM      7  C   UNL A   1      32.451  23.375  26.911  1.00  0.00     0.161 A 
ATOM      8  C   UNL A   1      32.550  24.704  26.500  1.00  0.00     0.054 A 
ATOM      9  C   UNL A   1      33.419  22.441  26.544  1.00  0.00     0.172 A 
ATOM     10  C   UNL A   1      34.532  22.856  25.815  1.00  0.00     0.063 A 
ATOM     11  C   UNL A   1      34.648  24.195  25.419  1.00  0.00     0.024 A 
ATOM     12  Br  UNL A   1      35.883  21.636  25.290  1.00  0.00    -0.047 Br
BRANCH   7  13
ATOM     13  O   UNL A   1      31.335  22.985  27.606  1.00  0.00    -0.493 OA
ATOM     14  C   UNL A   1      30.195  22.958  26.742  1.00  0.00     0.278 C 
ENDBRANCH   7  13
BRANCH   9  15
ATOM     15  O   UNL A   1      33.245  21.124  26.873  1.00  0.00    -0.503 OA
ATOM     16  H   UNL A   1      32.540  20.872  27.436  1.00  0.00     0.293 HD
ENDBRANCH   9  15
ENDBRANCH   5   6
ENDBRANCH   3   5
ENDBRANCH   2   3
ENDBRANCH   1   2
BRANCH   1  17
ATOM     17  C   UNL A   1      31.737  29.783  25.533  1.00  0.00     0.275 C 
BRANCH  17  18
ATOM     18  O   UNL A   1      33.049  30.326  25.764  1.00  0.00    -0.458 OA
BRANCH  18  19
ATOM     19  C   UNL A   1      33.171  31.122  26.849  1.00  0.00     0.338 C 
ATOM     20  O   UNL A   1      32.404  31.985  27.231  1.00  0.00    -0.246 OA
BRANCH  19  21
ATOM     21  C   UNL A   1      34.439  30.819  27.533  1.00  0.00     0.060 A 
ATOM     22  C   UNL A   1      34.730  29.523  27.970  1.00  0.00     0.016 A 
ATOM     23  C   UNL A   1      35.312  31.871  27.806  1.00  0.00     0.016 A 
ATOM     24  C   UNL A   1      35.890  29.283  28.706  1.00  0.00     0.010 A 
ATOM     25  C   UNL A   1      36.498  31.619  28.497  1.00  0.00     0.010 A 
ATOM     26  C   UNL A   1      36.789  30.327  28.965  1.00  0.00    -0.014 A 
BRANCH  26  27
ATOM     27  C   UNL A   1      38.040  30.096  29.730  1.00  0.00     0.031 A 
ATOM     28  C   UNL A   1      39.100  29.188  29.177  1.00  0.00     0.074 A 
ATOM     29  C   UNL A   1      38.197  30.654  30.945  1.00  0.00     0.049 A 
ATOM     30  N   UNL A   1      40.165  28.703  29.763  1.00  0.00    -0.248 NA
ATOM     31  C   UNL A   1      38.933  28.760  27.779  1.00  0.00     0.031 C 
ATOM     32  C   UNL A   1      37.254  31.574  31.580  1.00  0.00     0.029 A 
ATOM     33  N   UNL A   1      39.198  30.506  31.872  1.00  0.00    -0.354 N 
ATOM     34  C   UNL A   1      40.778  27.889  28.820  1.00  0.00     0.074 A 
ATOM     35  C   UNL A   1      39.962  27.938  27.625  1.00  0.00     0.031 C 
ATOM     36  C   UNL A   1      37.718  31.905  32.796  1.00  0.00     0.029 A 
ATOM     37  C   UNL A   1      38.957  31.174  33.047  1.00  0.00     0.049 A 
ATOM     38  H   UNL A   1      40.010  29.972  31.710  1.00  0.00     0.167 HD
ATOM     39  C   UNL A   1      41.918  27.168  28.944  1.00  0.00     0.037 A 
ATOM     40  C   UNL A   1      39.636  31.166  34.209  1.00  0.00     0.037 A 
ATOM     41  C   UNL A   1      42.740  27.142  30.126  1.00  0.00     0.049 A 
ATOM     42  C   UNL A   1      40.871  30.319  34.338  1.00  0.00     0.074 A 
ATOM     43  C   UNL A   1      43.929  26.465  30.336  1.00  0.00     0.029 A 
ATOM     44  N   UNL A   1      42.456  27.826  31.298  1.00  0.00    -0.354 N 
ATOM     45  N   UNL A   1      41.438  29.545  33.447  1.00  0.00    -0.248 NA
ATOM     46  C   UNL A   1      41.551  30.334  35.640  1.00  0.00     0.031 C 
ATOM     47  C   UNL A   1      44.347  26.712  31.649  1.00  0.00     0.029 A 
ATOM     48  C   UNL A   1      43.437  27.573  32.243  1.00  0.00     0.049 A 
ATOM     49  H   UNL A   1      41.672  28.405  31.439  1.00  0.00     0.167 HD
ATOM     50  C   UNL A   1      42.548  28.994  34.071  1.00  0.00     0.074 A 
ATOM     51  C   UNL A   1      42.583  29.533  35.415  1.00  0.00     0.031 C 
ATOM     52  C   UNL A   1      43.457  28.119  33.575  1.00  0.00     0.037 A 
BRANCH  39  53
ATOM     53  C   UNL A   1      42.336  26.325  27.776  1.00  0.00     0.064 A 
ATOM     54  C   UNL A   1      43.315  26.756  26.870  1.00  0.00     0.173 A 
ATOM     55  C   UNL A   1      41.777  25.052  27.587  1.00  0.00     0.173 A 
ATOM     56  F   UNL A   1      43.869  27.971  27.002  1.00  0.00    -0.203 F 
ATOM     57  C   UNL A   1      43.708  25.949  25.806  1.00  0.00     0.198 A 
ATOM     58  C   UNL A   1      42.189  24.238  26.535  1.00  0.00     0.198 A 
ATOM     59  F   UNL A   1      40.841  24.592  28.430  1.00  0.00    -0.203 F 
ATOM     60  F   UNL A   1      44.622  26.393  24.931  1.00  0.00    -0.200 F 
ATOM     61  C   UNL A   1      43.150  24.689  25.642  1.00  0.00     0.200 A 
ATOM     62  F   UNL A   1      41.657  23.018  26.386  1.00  0.00    -0.200 F 
ATOM     63  F   UNL A   1      43.536  23.910  24.622  1.00  0.00    -0.200 F 
ENDBRANCH  39  53
BRANCH  40  64
ATOM     64  C   UNL A   1      39.141  31.969  35.355  1.00  0.00     0.064 A 
ATOM     65  C   UNL A   1      38.359  31.384  36.359  1.00  0.00     0.173 A 
ATOM     66  C   UNL A   1      39.445  33.335  35.473  1.00  0.00     0.173 A 
ATOM     67  F   UNL A   1      38.022  30.089  36.274  1.00  0.00    -0.203 F 
ATOM     68  C   UNL A   1      37.893  32.135  37.436  1.00  0.00     0.198 A 
ATOM     69  C   UNL A   1      38.999  34.078  36.562  1.00  0.00     0.198 A 
ATOM     70  F   UNL A   1      40.187  33.941  34.536  1.00  0.00    -0.203 F 
ATOM     71  F   UNL A   1      37.119  31.560  38.366  1.00  0.00    -0.200 F 
ATOM     72  C   UNL A   1      38.220  33.479  37.541  1.00  0.00     0.200 A 
ATOM     73  F   UNL A   1      39.325  35.374  36.666  1.00  0.00    -0.200 F 
ATOM     74  F   UNL A   1      37.777  34.199  38.580  1.00  0.00    -0.200 F 
ENDBRANCH  40  64
BRANCH  52  75
ATOM     75  C   UNL A   1      44.578  27.710  34.481  1.00  0.00     0.064 A 
ATOM     76  C   UNL A   1      44.485  26.570  35.292  1.00  0.00     0.173 A 
ATOM     77  C   UNL A   1      45.772  28.446  34.511  1.00  0.00     0.173 A 
ATOM     78  F   UNL A   1      43.356  25.845  35.309  1.00  0.00    -0.203 F 
ATOM     79  C   UNL A   1      45.543  26.190  36.113  1.00  0.00     0.198 A 
ATOM     80  C   UNL A   1      46.835  28.051  35.317  1.00  0.00     0.198 A 
ATOM     81  F   UNL A   1      45.908  29.543  33.752  1.00  0.00    -0.203 F 
ATOM     82  F   UNL A   1      45.420  25.118  36.907  1.00  0.00    -0.200 F 
ATOM     83  C   UNL A   1      46.718  26.927  36.120  1.00  0.00     0.200 A 
ATOM     84  F   UNL A   1      47.973  28.759  35.318  1.00  0.00    -0.200 F 
ATOM     85  F   UNL A   1      47.738  26.558  36.909  1.00  0.00    -0.200 F 
ENDBRANCH  52  75
ENDBRANCH  26  27
ENDBRANCH  19  21
ENDBRANCH  18  19
ENDBRANCH  17  18
ENDBRANCH   1  17
TORSDOF 14
ENDMDL
MODEL 3
REMARK VINA RESULT:     -10.8      1.534      2.341
REMARK SMILES COc1cc(CC(=O)OCCOC(=O)c2ccc(-c3c4nc(c(-c5c(F)c(F)c(F)c(F)c5F)c5ccc([nH]5)c(-c5c(F)c(F)c(F)c(F)c5F)c5nc(c(-c6c(F)c(F)c(F)c(F)c6F)c6ccc3[nH]6)C=C5)C=C4)cc2)cc(Br)c1O
REMARK SMILES IDX 10 1 9 2 7 3 8 4 6 5 5 6 3 7 4 8 81 9 79 10 78 11 80 12 2 13
REMARK SMILES IDX 1 14 82 15 11 17 12 18 13 19 14 20 15 21 16 22 77 23 17 24
REMARK SMILES IDX 76 25 18 26 19 27 20 28 70 29 21 30 75 31 69 32 71 33 22 34
REMARK SMILES IDX 74 35 68 36 67 37 23 39 55 40 35 41 54 42 36 43 39 44 53 45
REMARK SMILES IDX 72 46 37 47 38 48 52 50 73 51 40 52 24 53 25 54 33 55 26 56
REMARK SMILES IDX 27 57 31 58 34 59 28 60 29 61 32 62 30 63 56 64 57 65 65 66
REMARK SMILES IDX 58 67 59 68 63 69 66 70 60 71 61 72 64 73 62 74 41 75 42 76
REMARK SMILES IDX 50 77 43 78 44 79 48 80 51 81 45 82 46 83 49 84 47 85
REMARK H PARENT 82 16 71 38 39 49
REMARK Flexibility Score: inf
ROOT
ATOM      1  C   UNL A   1      31.428  28.657  25.629  1.00  0.00     0.274 C 
ENDROOT
BRANCH   1   2
ATOM      2  O   UNL A   1      31.831  28.038  24.391  1.00  0.00    -0.462 OA
BRANCH   2   3
ATOM      3  C   UNL A   1      30.821  27.557  23.620  1.00  0.00     0.310 C 
ATOM      4  O   UNL A   1      30.618  27.877  22.453  1.00  0.00    -0.252 OA
BRANCH   3   5
ATOM      5  C   UNL A   1      29.896  26.618  24.353  1.00  0.00     0.158 C 
BRANCH   5   6
ATOM      6  C   UNL A   1      30.420  25.255  24.742  1.00  0.00    -0.032 A 
ATOM      7  C   UNL A   1      30.514  23.447  26.357  1.00  0.00     0.161 A 
ATOM      8  C   UNL A   1      30.136  24.745  26.017  1.00  0.00     0.054 A 
ATOM      9  C   UNL A   1      31.137  22.618  25.425  1.00  0.00     0.172 A 
ATOM     10  C   UNL A   1      31.444  23.116  24.160  1.00  0.00     0.063 A 
ATOM     11  C   UNL A   1      31.086  24.427  23.820  1.00  0.00     0.024 A 
ATOM     12  Br  UNL A   1      32.292  22.040  22.851  1.00  0.00    -0.047 Br
BRANCH   7  13
ATOM     13  O   UNL A   1      30.180  22.970  27.599  1.00  0.00    -0.493 OA
ATOM     14  C   UNL A   1      28.805  22.575  27.626  1.00  0.00     0.278 C 
ENDBRANCH   7  13
BRANCH   9  15
ATOM     15  O   UNL A   1      31.403  21.316  25.751  1.00  0.00    -0.503 OA
ATOM     16  H   UNL A   1      31.479  21.065  26.651  1.00  0.00     0.293 HD
ENDBRANCH   9  15
ENDBRANCH   5   6
ENDBRANCH   3   5
ENDBRANCH   2   3
ENDBRANCH   1   2
BRANCH   1  17
ATOM     17  C   UNL A   1      31.701  30.158  25.594  1.00  0.00     0.275 C 
BRANCH  17  18
ATOM     18  O   UNL A   1      33.075  30.408  25.943  1.00  0.00    -0.458 OA
BRANCH  18  19
ATOM     19  C   UNL A   1      33.273  31.292  26.945  1.00  0.00     0.338 C 
ATOM     20  O   UNL A   1      32.577  32.241  27.251  1.00  0.00    -0.246 OA
BRANCH  19  21
ATOM     21  C   UNL A   1      34.528  30.963  27.641  1.00  0.00     0.060 A 
ATOM     22  C   UNL A   1      34.815  29.650  28.024  1.00  0.00     0.016 A 
ATOM     23  C   UNL A   1      35.391  32.005  27.979  1.00  0.00     0.016 A 
ATOM     24  C   UNL A   1      35.962  29.380  28.773  1.00  0.00     0.010 A 
ATOM     25  C   UNL A   1      36.563  31.726  28.682  1.00  0.00     0.010 A 
ATOM     26  C   UNL A   1      36.851  30.415  29.097  1.00  0.00    -0.014 A 
BRANCH  26  27
ATOM     27  C   UNL A   1      38.087  30.154  29.876  1.00  0.00     0.031 A 
ATOM     28  C   UNL A   1      39.138  29.233  29.327  1.00  0.00     0.074 A 
ATOM     29  C   UNL A   1      38.237  30.696  31.099  1.00  0.00     0.049 A 
ATOM     30  N   UNL A   1      40.187  28.723  29.923  1.00  0.00    -0.248 NA
ATOM     31  C   UNL A   1      38.983  28.822  27.923  1.00  0.00     0.031 C 
ATOM     32  C   UNL A   1      37.302  31.626  31.731  1.00  0.00     0.029 A 
ATOM     33  N   UNL A   1      39.223  30.521  32.037  1.00  0.00    -0.354 N 
ATOM     34  C   UNL A   1      40.798  27.909  28.980  1.00  0.00     0.074 A 
ATOM     35  C   UNL A   1      39.999  27.984  27.775  1.00  0.00     0.031 C 
ATOM     36  C   UNL A   1      37.755  31.937  32.956  1.00  0.00     0.029 A 
ATOM     37  C   UNL A   1      38.978  31.182  33.216  1.00  0.00     0.049 A 
ATOM     38  H   UNL A   1      40.027  29.975  31.881  1.00  0.00     0.167 HD
ATOM     39  C   UNL A   1      41.923  27.166  29.112  1.00  0.00     0.037 A 
ATOM     40  C   UNL A   1      39.640  31.150  34.387  1.00  0.00     0.037 A 
ATOM     41  C   UNL A   1      42.728  27.113  30.304  1.00  0.00     0.049 A 
ATOM     42  C   UNL A   1      40.858  30.280  34.523  1.00  0.00     0.074 A 
ATOM     43  C   UNL A   1      43.902  26.413  30.524  1.00  0.00     0.029 A 
ATOM     44  N   UNL A   1      42.440  27.790  31.479  1.00  0.00    -0.354 N 
ATOM     45  N   UNL A   1      41.424  29.504  33.632  1.00  0.00    -0.248 NA
ATOM     46  C   UNL A   1      41.521  30.269  35.835  1.00  0.00     0.031 C 
ATOM     47  C   UNL A   1      44.306  26.640  31.844  1.00  0.00     0.029 A 
ATOM     48  C   UNL A   1      43.404  27.510  32.435  1.00  0.00     0.049 A 
ATOM     49  H   UNL A   1      41.665  28.381  31.616  1.00  0.00     0.167 HD
ATOM     50  C   UNL A   1      42.515  28.928  34.265  1.00  0.00     0.074 A 
ATOM     51  C   UNL A   1      42.542  29.452  35.615  1.00  0.00     0.031 C 
ATOM     52  C   UNL A   1      43.415  28.042  33.773  1.00  0.00     0.037 A 
BRANCH  39  53
ATOM     53  C   UNL A   1      42.342  26.328  27.941  1.00  0.00     0.064 A 
ATOM     54  C   UNL A   1      41.804  25.052  27.718  1.00  0.00     0.173 A 
ATOM     55  C   UNL A   1      43.262  26.828  27.007  1.00  0.00     0.173 A 
ATOM     56  F   UNL A   1      40.930  24.527  28.589  1.00  0.00    -0.203 F 
ATOM     57  C   UNL A   1      42.186  24.300  26.611  1.00  0.00     0.198 A 
ATOM     58  C   UNL A   1      43.625  26.081  25.889  1.00  0.00     0.198 A 
ATOM     59  F   UNL A   1      43.800  28.045  27.172  1.00  0.00    -0.203 F 
ATOM     60  F   UNL A   1      41.687  23.068  26.434  1.00  0.00    -0.200 F 
ATOM     61  C   UNL A   1      43.091  24.816  25.694  1.00  0.00     0.200 A 
ATOM     62  F   UNL A   1      44.490  26.587  25.000  1.00  0.00    -0.200 F 
ATOM     63  F   UNL A   1      43.452  24.093  24.625  1.00  0.00    -0.200 F 
ENDBRANCH  39  53
BRANCH  40  64
ATOM     64  C   UNL A   1      39.144  31.950  35.534  1.00  0.00     0.064 A 
ATOM     65  C   UNL A   1      38.341  31.367  36.523  1.00  0.00     0.173 A 
ATOM     66  C   UNL A   1      39.468  33.309  35.669  1.00  0.00     0.173 A 
ATOM     67  F   UNL A   1      37.984  30.079  36.422  1.00  0.00    -0.203 F 
ATOM     68  C   UNL A   1      37.874  32.116  37.602  1.00  0.00     0.198 A 
ATOM     69  C   UNL A   1      39.021  34.049  36.760  1.00  0.00     0.198 A 
ATOM     70  F   UNL A   1      40.231  33.912  34.747  1.00  0.00    -0.203 F 
ATOM     71  F   UNL A   1      37.079  31.545  38.516  1.00  0.00    -0.200 F 
ATOM     72  C   UNL A   1      38.220  33.453  37.723  1.00  0.00     0.200 A 
ATOM     73  F   UNL A   1      39.366  35.339  36.880  1.00  0.00    -0.200 F 
ATOM     74  F   UNL A   1      37.776  34.170  38.764  1.00  0.00    -0.200 F 
ENDBRANCH  40  64
BRANCH  52  75
ATOM     75  C   UNL A   1      44.517  27.604  34.690  1.00  0.00     0.064 A 
ATOM     76  C   UNL A   1      45.718  28.322  34.784  1.00  0.00     0.173 A 
ATOM     77  C   UNL A   1      44.354  26.477  35.509  1.00  0.00     0.173 A 
ATOM     78  F   UNL A   1      45.925  29.396  34.007  1.00  0.00    -0.203 F 
ATOM     79  C   UNL A   1      46.725  27.915  35.655  1.00  0.00     0.198 A 
ATOM     80  C   UNL A   1      45.354  26.087  36.395  1.00  0.00     0.198 A 
ATOM     81  F   UNL A   1      43.222  25.761  35.456  1.00  0.00    -0.203 F 
ATOM     82  F   UNL A   1      47.880  28.593  35.703  1.00  0.00    -0.200 F 
ATOM     83  C   UNL A   1      46.540  26.804  36.463  1.00  0.00     0.200 A 
ATOM     84  F   UNL A   1      45.172  25.017  37.181  1.00  0.00    -0.200 F 
ATOM     85  F   UNL A   1      47.509  26.416  37.305  1.00  0.00    -0.200 F 
ENDBRANCH  52  75
ENDBRANCH  26  27
ENDBRANCH  19  21
ENDBRANCH  18  19
ENDBRANCH  17  18
ENDBRANCH   1  17
TORSDOF 14
ENDMDL
