MODEL 1
REMARK VINA RESULT:     -12.0      0.000      0.000
REMARK SMILES C[C@H](c1ccncc1)[N@H+]1[C@@H]2CC[C@H]1C[C@H](CC(=O)OCCOC(=O)c1ccc(-c3c4nc(c(-c5c(F)c(F)c(F)c(F)c5F)c5ccc([nH]5)c(-c5c(F)c(F)c(F)c(F)c5F)c5nc(c(-c6c(F)c(F)c(F)c(F)c6F)c6ccc3[nH]6)C=C5)C=C4)cc1)C2
REMARK SMILES IDX 20 1 19 2 17 3 18 4 16 5 15 6 9 7 10 8 13 9 11 11 88 12
REMARK SMILES IDX 12 13 14 14 2 15 1 16 3 17 4 18 8 19 5 20 7 21 6 22 21 23
REMARK SMILES IDX 22 24 23 25 24 26 25 27 26 28 87 29 27 30 86 31 28 32 29 33
REMARK SMILES IDX 30 34 80 35 31 36 85 37 79 38 81 39 32 40 84 41 78 42 77 43
REMARK SMILES IDX 33 45 65 46 45 47 64 48 46 49 49 50 63 51 82 52 47 53 48 54
REMARK SMILES IDX 62 56 83 57 50 58 34 59 35 60 43 61 36 62 37 63 41 64 44 65
REMARK SMILES IDX 38 66 39 67 42 68 40 69 66 70 67 71 75 72 68 73 69 74 73 75
REMARK SMILES IDX 76 76 70 77 71 78 74 79 72 80 51 81 52 82 60 83 53 84 54 85
REMARK SMILES IDX 58 86 61 87 55 88 56 89 59 90 57 91
REMARK H PARENT 9 10 81 44 49 55
REMARK Flexibility Score: inf
ROOT
ATOM      1  C   UNL A   1      31.278  29.575  24.487  1.00  0.00     0.274 C 
ENDROOT
BRANCH   1   2
ATOM      2  O   UNL A   1      30.513  28.383  24.238  1.00  0.00    -0.462 OA
BRANCH   2   3
ATOM      3  C   UNL A   1      30.830  27.664  23.133  1.00  0.00     0.306 C 
ATOM      4  O   UNL A   1      30.367  27.851  22.015  1.00  0.00    -0.252 OA
BRANCH   3   5
ATOM      5  C   UNL A   1      31.802  26.544  23.440  1.00  0.00     0.126 C 
BRANCH   5   6
ATOM      6  C   UNL A   1      31.470  25.678  24.678  1.00  0.00     0.012 C 
ATOM      7  N   UNL A   1      32.391  22.900  25.036  1.00  0.00    -0.324 N 
ATOM      8  C   UNL A   1      32.846  23.906  26.010  1.00  0.00     0.185 C 
ATOM      9  C   UNL A   1      30.950  23.143  24.970  1.00  0.00     0.185 C 
ATOM     10  H   UNL A   1      32.568  21.935  25.315  1.00  0.00     0.349 HD
ATOM     11  C   UNL A   1      31.835  23.722  27.145  1.00  0.00     0.071 C 
ATOM     12  C   UNL A   1      32.780  25.331  25.432  1.00  0.00     0.069 C 
ATOM     13  C   UNL A   1      30.580  23.198  26.456  1.00  0.00     0.071 C 
ATOM     14  C   UNL A   1      30.611  24.460  24.273  1.00  0.00     0.069 C 
BRANCH   7  15
ATOM     15  C   UNL A   1      33.169  22.829  23.789  1.00  0.00     0.212 C 
ATOM     16  C   UNL A   1      32.547  21.965  22.672  1.00  0.00     0.081 C 
BRANCH  15  17
ATOM     17  C   UNL A   1      34.568  22.297  24.085  1.00  0.00     0.012 A 
ATOM     18  C   UNL A   1      34.750  21.083  24.762  1.00  0.00     0.030 A 
ATOM     19  C   UNL A   1      35.705  23.003  23.685  1.00  0.00     0.030 A 
ATOM     20  C   UNL A   1      36.037  20.615  24.963  1.00  0.00     0.111 A 
ATOM     21  C   UNL A   1      36.954  22.456  23.943  1.00  0.00     0.111 A 
ATOM     22  N   UNL A   1      37.146  21.272  24.563  1.00  0.00    -0.265 NA
ENDBRANCH  15  17
ENDBRANCH   7  15
ENDBRANCH   5   6
ENDBRANCH   3   5
ENDBRANCH   2   3
ENDBRANCH   1   2
BRANCH   1  23
ATOM     23  C   UNL A   1      31.823  29.573  25.916  1.00  0.00     0.275 C 
BRANCH  23  24
ATOM     24  O   UNL A   1      33.129  30.176  25.957  1.00  0.00    -0.458 OA
BRANCH  24  25
ATOM     25  C   UNL A   1      33.300  31.159  26.871  1.00  0.00     0.338 C 
ATOM     26  O   UNL A   1      32.536  32.064  27.150  1.00  0.00    -0.246 OA
BRANCH  25  27
ATOM     27  C   UNL A   1      34.551  30.906  27.599  1.00  0.00     0.060 A 
ATOM     28  C   UNL A   1      34.811  29.613  28.060  1.00  0.00     0.016 A 
ATOM     29  C   UNL A   1      35.440  31.948  27.861  1.00  0.00     0.016 A 
ATOM     30  C   UNL A   1      35.974  29.349  28.778  1.00  0.00     0.010 A 
ATOM     31  C   UNL A   1      36.609  31.681  28.577  1.00  0.00     0.010 A 
ATOM     32  C   UNL A   1      36.882  30.381  29.041  1.00  0.00    -0.014 A 
BRANCH  32  33
ATOM     33  C   UNL A   1      38.108  30.106  29.826  1.00  0.00     0.031 A 
ATOM     34  C   UNL A   1      39.163  29.201  29.267  1.00  0.00     0.074 A 
ATOM     35  C   UNL A   1      38.266  30.671  31.036  1.00  0.00     0.049 A 
ATOM     36  N   UNL A   1      40.252  28.748  29.835  1.00  0.00    -0.248 NA
ATOM     37  C   UNL A   1      38.967  28.741  27.884  1.00  0.00     0.031 C 
ATOM     38  C   UNL A   1      37.327  31.602  31.662  1.00  0.00     0.029 A 
ATOM     39  N   UNL A   1      39.270  30.533  31.960  1.00  0.00    -0.354 N 
ATOM     40  C   UNL A   1      40.860  27.936  28.887  1.00  0.00     0.074 A 
ATOM     41  C   UNL A   1      40.012  27.945  27.714  1.00  0.00     0.031 C 
ATOM     42  C   UNL A   1      37.799  31.950  32.871  1.00  0.00     0.029 A 
ATOM     43  C   UNL A   1      39.044  31.230  33.121  1.00  0.00     0.049 A 
ATOM     44  H   UNL A   1      40.076  29.990  31.805  1.00  0.00     0.167 HD
ATOM     45  C   UNL A   1      42.022  27.248  28.992  1.00  0.00     0.037 A 
ATOM     46  C   UNL A   1      39.745  31.254  34.270  1.00  0.00     0.037 A 
ATOM     47  C   UNL A   1      42.865  27.253  30.160  1.00  0.00     0.049 A 
ATOM     48  C   UNL A   1      40.998  30.429  34.383  1.00  0.00     0.074 A 
ATOM     49  C   UNL A   1      44.070  26.603  30.357  1.00  0.00     0.029 A 
ATOM     50  N   UNL A   1      42.587  27.943  31.331  1.00  0.00    -0.354 N 
ATOM     51  N   UNL A   1      41.566  29.660  33.487  1.00  0.00    -0.248 NA
ATOM     52  C   UNL A   1      41.702  30.467  35.673  1.00  0.00     0.031 C 
ATOM     53  C   UNL A   1      44.501  26.866  31.663  1.00  0.00     0.029 A 
ATOM     54  C   UNL A   1      43.586  27.715  32.263  1.00  0.00     0.049 A 
ATOM     55  H   UNL A   1      41.795  28.512  31.477  1.00  0.00     0.167 HD
ATOM     56  C   UNL A   1      42.700  29.137  34.094  1.00  0.00     0.074 A 
ATOM     57  C   UNL A   1      42.748  29.689  35.432  1.00  0.00     0.031 C 
ATOM     58  C   UNL A   1      43.616  28.275  33.591  1.00  0.00     0.037 A 
BRANCH  45  59
ATOM     59  C   UNL A   1      42.435  26.408  27.822  1.00  0.00     0.064 A 
ATOM     60  C   UNL A   1      41.925  25.116  27.625  1.00  0.00     0.173 A 
ATOM     61  C   UNL A   1      43.330  26.915  26.868  1.00  0.00     0.173 A 
ATOM     62  F   UNL A   1      41.079  24.580  28.517  1.00  0.00    -0.203 F 
ATOM     63  C   UNL A   1      42.315  24.353  26.527  1.00  0.00     0.198 A 
ATOM     64  C   UNL A   1      43.698  26.159  25.758  1.00  0.00     0.198 A 
ATOM     65  F   UNL A   1      43.844  28.145  27.008  1.00  0.00    -0.203 F 
ATOM     66  F   UNL A   1      41.849  23.105  26.380  1.00  0.00    -0.200 F 
ATOM     67  C   UNL A   1      43.196  24.877  25.592  1.00  0.00     0.200 A 
ATOM     68  F   UNL A   1      44.541  26.670  24.850  1.00  0.00    -0.200 F 
ATOM     69  F   UNL A   1      43.567  24.143  24.532  1.00  0.00    -0.200 F 
ENDBRANCH  45  59
BRANCH  46  70
ATOM     70  C   UNL A   1      39.265  32.071  35.413  1.00  0.00     0.064 A 
ATOM     71  C   UNL A   1      39.611  33.423  35.529  1.00  0.00     0.173 A 
ATOM     72  C   UNL A   1      38.453  31.515  36.414  1.00  0.00     0.173 A 
ATOM     73  F   UNL A   1      40.407  33.991  34.612  1.00  0.00    -0.203 F 
ATOM     74  C   UNL A   1      39.174  34.187  36.610  1.00  0.00     0.198 A 
ATOM     75  C   UNL A   1      37.995  32.286  37.479  1.00  0.00     0.198 A 
ATOM     76  F   UNL A   1      38.097  30.224  36.350  1.00  0.00    -0.203 F 
ATOM     77  F   UNL A   1      39.553  35.467  36.719  1.00  0.00    -0.200 F 
ATOM     78  C   UNL A   1      38.360  33.620  37.580  1.00  0.00     0.200 A 
ATOM     79  F   UNL A   1      37.202  31.737  38.409  1.00  0.00    -0.200 F 
ATOM     80  F   UNL A   1      37.937  34.356  38.616  1.00  0.00    -0.200 F 
ENDBRANCH  46  70
BRANCH  58  81
ATOM     81  C   UNL A   1      44.760  27.895  34.483  1.00  0.00     0.064 A 
ATOM     82  C   UNL A   1      45.935  28.659  34.532  1.00  0.00     0.173 A 
ATOM     83  C   UNL A   1      44.667  26.776  35.323  1.00  0.00     0.173 A 
ATOM     84  F   UNL A   1      46.078  29.729  33.736  1.00  0.00    -0.203 F 
ATOM     85  C   UNL A   1      46.985  28.303  35.374  1.00  0.00     0.198 A 
ATOM     86  C   UNL A   1      45.708  26.437  36.183  1.00  0.00     0.198 A 
ATOM     87  F   UNL A   1      43.562  26.015  35.318  1.00  0.00    -0.203 F 
ATOM     88  F   UNL A   1      48.116  29.023  35.373  1.00  0.00    -0.200 F 
ATOM     89  C   UNL A   1      46.868  27.198  36.203  1.00  0.00     0.200 A 
ATOM     90  F   UNL A   1      45.590  25.375  36.992  1.00  0.00    -0.200 F 
ATOM     91  F   UNL A   1      47.878  26.859  37.017  1.00  0.00    -0.200 F 
ENDBRANCH  58  81
ENDBRANCH  32  33
ENDBRANCH  25  27
ENDBRANCH  24  25
ENDBRANCH  23  24
ENDBRANCH   1  23
TORSDOF 14
ENDMDL
MODEL 2
REMARK VINA RESULT:     -12.0      1.086      2.479
REMARK SMILES C[C@H](c1ccncc1)[N@H+]1[C@@H]2CC[C@H]1C[C@H](CC(=O)OCCOC(=O)c1ccc(-c3c4nc(c(-c5c(F)c(F)c(F)c(F)c5F)c5ccc([nH]5)c(-c5c(F)c(F)c(F)c(F)c5F)c5nc(c(-c6c(F)c(F)c(F)c(F)c6F)c6ccc3[nH]6)C=C5)C=C4)cc1)C2
REMARK SMILES IDX 20 1 19 2 17 3 18 4 16 5 15 6 9 7 10 8 13 9 11 11 88 12
REMARK SMILES IDX 12 13 14 14 2 15 1 16 3 17 4 18 8 19 5 20 7 21 6 22 21 23
REMARK SMILES IDX 22 24 23 25 24 26 25 27 26 28 87 29 27 30 86 31 28 32 29 33
REMARK SMILES IDX 30 34 80 35 31 36 85 37 79 38 81 39 32 40 84 41 78 42 77 43
REMARK SMILES IDX 33 45 65 46 45 47 64 48 46 49 49 50 63 51 82 52 47 53 48 54
REMARK SMILES IDX 62 56 83 57 50 58 34 59 35 60 43 61 36 62 37 63 41 64 44 65
REMARK SMILES IDX 38 66 39 67 42 68 40 69 66 70 67 71 75 72 68 73 69 74 73 75
REMARK SMILES IDX 76 76 70 77 71 78 74 79 72 80 51 81 52 82 60 83 53 84 54 85
REMARK SMILES IDX 58 86 61 87 55 88 56 89 59 90 57 91
REMARK H PARENT 9 10 81 44 49 55
REMARK Flexibility Score: inf
ROOT
ATOM      1  C   UNL A   1      31.737  28.291  25.768  1.00  0.00     0.274 C 
ENDROOT
BRANCH   1   2
ATOM      2  O   UNL A   1      32.782  27.688  24.984  1.00  0.00    -0.462 OA
BRANCH   2   3
ATOM      3  C   UNL A   1      32.410  26.765  24.064  1.00  0.00     0.306 C 
ATOM      4  O   UNL A   1      31.846  27.014  23.005  1.00  0.00    -0.252 OA
BRANCH   3   5
ATOM      5  C   UNL A   1      32.724  25.353  24.512  1.00  0.00     0.126 C 
BRANCH   5   6
ATOM      6  C   UNL A   1      34.182  24.882  24.298  1.00  0.00     0.012 C 
ATOM      7  N   UNL A   1      35.134  22.156  24.895  1.00  0.00    -0.324 N 
ATOM      8  C   UNL A   1      35.204  22.618  23.499  1.00  0.00     0.185 C 
ATOM      9  C   UNL A   1      35.730  23.269  25.634  1.00  0.00     0.185 C 
ATOM     10  H   UNL A   1      35.654  21.299  25.081  1.00  0.00     0.349 HD
ATOM     11  C   UNL A   1      36.652  23.108  23.405  1.00  0.00     0.071 C 
ATOM     12  C   UNL A   1      34.212  23.762  23.226  1.00  0.00     0.069 C 
ATOM     13  C   UNL A   1      37.007  23.525  24.827  1.00  0.00     0.071 C 
ATOM     14  C   UNL A   1      34.834  24.508  25.647  1.00  0.00     0.069 C 
BRANCH   7  15
ATOM     15  C   UNL A   1      33.830  21.623  25.321  1.00  0.00     0.212 C 
ATOM     16  C   UNL A   1      33.652  21.456  26.844  1.00  0.00     0.081 C 
BRANCH  15  17
ATOM     17  C   UNL A   1      33.587  20.271  24.658  1.00  0.00     0.012 A 
ATOM     18  C   UNL A   1      32.446  20.044  23.877  1.00  0.00     0.030 A 
ATOM     19  C   UNL A   1      34.500  19.223  24.807  1.00  0.00     0.030 A 
ATOM     20  C   UNL A   1      32.294  18.818  23.252  1.00  0.00     0.111 A 
ATOM     21  C   UNL A   1      34.252  18.025  24.150  1.00  0.00     0.111 A 
ATOM     22  N   UNL A   1      33.176  17.803  23.366  1.00  0.00    -0.265 NA
ENDBRANCH  15  17
ENDBRANCH   7  15
ENDBRANCH   5   6
ENDBRANCH   3   5
ENDBRANCH   2   3
ENDBRANCH   1   2
BRANCH   1  23
ATOM     23  C   UNL A   1      31.806  29.816  25.669  1.00  0.00     0.275 C 
BRANCH  23  24
ATOM     24  O   UNL A   1      33.150  30.274  25.902  1.00  0.00    -0.458 OA
BRANCH  24  25
ATOM     25  C   UNL A   1      33.297  31.217  26.860  1.00  0.00     0.338 C 
ATOM     26  O   UNL A   1      32.516  32.096  27.174  1.00  0.00    -0.246 OA
BRANCH  25  27
ATOM     27  C   UNL A   1      34.548  30.954  27.586  1.00  0.00     0.060 A 
ATOM     28  C   UNL A   1      34.827  29.646  27.991  1.00  0.00     0.016 A 
ATOM     29  C   UNL A   1      35.418  31.998  27.899  1.00  0.00     0.016 A 
ATOM     30  C   UNL A   1      35.990  29.371  28.705  1.00  0.00     0.010 A 
ATOM     31  C   UNL A   1      36.586  31.719  28.612  1.00  0.00     0.010 A 
ATOM     32  C   UNL A   1      36.878  30.405  29.019  1.00  0.00    -0.014 A 
BRANCH  32  33
ATOM     33  C   UNL A   1      38.103  30.117  29.801  1.00  0.00     0.031 A 
ATOM     34  C   UNL A   1      39.146  29.199  29.239  1.00  0.00     0.074 A 
ATOM     35  C   UNL A   1      38.272  30.681  31.010  1.00  0.00     0.049 A 
ATOM     36  N   UNL A   1      40.231  28.733  29.804  1.00  0.00    -0.248 NA
ATOM     37  C   UNL A   1      38.940  28.740  27.857  1.00  0.00     0.031 C 
ATOM     38  C   UNL A   1      37.347  31.623  31.638  1.00  0.00     0.029 A 
ATOM     39  N   UNL A   1      39.278  30.532  31.931  1.00  0.00    -0.354 N 
ATOM     40  C   UNL A   1      40.827  27.913  28.855  1.00  0.00     0.074 A 
ATOM     41  C   UNL A   1      39.975  27.931  27.684  1.00  0.00     0.031 C 
ATOM     42  C   UNL A   1      37.826  31.967  32.845  1.00  0.00     0.029 A 
ATOM     43  C   UNL A   1      39.063  31.233  33.092  1.00  0.00     0.049 A 
ATOM     44  H   UNL A   1      40.077  29.979  31.774  1.00  0.00     0.167 HD
ATOM     45  C   UNL A   1      41.981  27.212  28.957  1.00  0.00     0.037 A 
ATOM     46  C   UNL A   1      39.769  31.250  34.239  1.00  0.00     0.037 A 
ATOM     47  C   UNL A   1      42.828  27.208  30.122  1.00  0.00     0.049 A 
ATOM     48  C   UNL A   1      41.012  30.409  34.348  1.00  0.00     0.074 A 
ATOM     49  C   UNL A   1      44.026  26.544  30.316  1.00  0.00     0.029 A 
ATOM     50  N   UNL A   1      42.561  27.902  31.293  1.00  0.00    -0.354 N 
ATOM     51  N   UNL A   1      41.568  29.633  33.451  1.00  0.00    -0.248 NA
ATOM     52  C   UNL A   1      41.721  30.440  35.636  1.00  0.00     0.031 C 
ATOM     53  C   UNL A   1      44.464  26.803  31.619  1.00  0.00     0.029 A 
ATOM     54  C   UNL A   1      43.561  27.664  32.222  1.00  0.00     0.049 A 
ATOM     55  H   UNL A   1      41.777  28.481  31.441  1.00  0.00     0.167 HD
ATOM     56  C   UNL A   1      42.698  29.097  34.055  1.00  0.00     0.074 A 
ATOM     57  C   UNL A   1      42.757  29.651  35.392  1.00  0.00     0.031 C 
ATOM     58  C   UNL A   1      43.602  28.224  33.550  1.00  0.00     0.037 A 
BRANCH  45  59
ATOM     59  C   UNL A   1      42.380  26.366  27.786  1.00  0.00     0.064 A 
ATOM     60  C   UNL A   1      43.297  26.819  26.826  1.00  0.00     0.173 A 
ATOM     61  C   UNL A   1      41.858  25.072  27.638  1.00  0.00     0.173 A 
ATOM     62  F   UNL A   1      43.811  28.054  26.914  1.00  0.00    -0.203 F 
ATOM     63  C   UNL A   1      43.660  26.014  25.749  1.00  0.00     0.198 A 
ATOM     64  C   UNL A   1      42.243  24.261  26.574  1.00  0.00     0.198 A 
ATOM     65  F   UNL A   1      40.979  24.590  28.530  1.00  0.00    -0.203 F 
ATOM     66  F   UNL A   1      44.506  26.482  24.820  1.00  0.00    -0.200 F 
ATOM     67  C   UNL A   1      43.138  24.735  25.627  1.00  0.00     0.200 A 
ATOM     68  F   UNL A   1      41.745  23.022  26.462  1.00  0.00    -0.200 F 
ATOM     69  F   UNL A   1      43.492  23.960  24.591  1.00  0.00    -0.200 F 
ENDBRANCH  45  59
BRANCH  46  70
ATOM     70  C   UNL A   1      39.302  32.073  35.382  1.00  0.00     0.064 A 
ATOM     71  C   UNL A   1      39.699  33.409  35.519  1.00  0.00     0.173 A 
ATOM     72  C   UNL A   1      38.453  31.539  36.364  1.00  0.00     0.173 A 
ATOM     73  F   UNL A   1      40.532  33.955  34.621  1.00  0.00    -0.203 F 
ATOM     74  C   UNL A   1      39.274  34.179  36.600  1.00  0.00     0.198 A 
ATOM     75  C   UNL A   1      38.007  32.317  37.430  1.00  0.00     0.198 A 
ATOM     76  F   UNL A   1      38.047  30.264  36.280  1.00  0.00    -0.203 F 
ATOM     77  F   UNL A   1      39.702  35.442  36.729  1.00  0.00    -0.200 F 
ATOM     78  C   UNL A   1      38.423  33.634  37.551  1.00  0.00     0.200 A 
ATOM     79  F   UNL A   1      37.177  31.790  38.340  1.00  0.00    -0.200 F 
ATOM     80  F   UNL A   1      38.012  34.376  38.588  1.00  0.00    -0.200 F 
ENDBRANCH  46  70
BRANCH  58  81
ATOM     81  C   UNL A   1      44.745  27.832  34.438  1.00  0.00     0.064 A 
ATOM     82  C   UNL A   1      44.678  26.699  35.261  1.00  0.00     0.173 A 
ATOM     83  C   UNL A   1      45.932  28.578  34.441  1.00  0.00     0.173 A 
ATOM     84  F   UNL A   1      43.557  25.962  35.305  1.00  0.00    -0.203 F 
ATOM     85  C   UNL A   1      45.750  26.339  36.071  1.00  0.00     0.198 A 
ATOM     86  C   UNL A   1      47.013  28.202  35.233  1.00  0.00     0.198 A 
ATOM     87  F   UNL A   1      46.048  29.669  33.668  1.00  0.00    -0.203 F 
ATOM     88  F   UNL A   1      45.649  25.276  36.882  1.00  0.00    -0.200 F 
ATOM     89  C   UNL A   1      46.919  27.085  36.052  1.00  0.00     0.200 A 
ATOM     90  F   UNL A   1      48.146  28.918  35.205  1.00  0.00    -0.200 F 
ATOM     91  F   UNL A   1      47.953  26.735  36.829  1.00  0.00    -0.200 F 
ENDBRANCH  58  81
ENDBRANCH  32  33
ENDBRANCH  25  27
ENDBRANCH  24  25
ENDBRANCH  23  24
ENDBRANCH   1  23
TORSDOF 14
ENDMDL
MODEL 3
REMARK VINA RESULT:     -11.9      1.024      2.210
REMARK SMILES C[C@H](c1ccncc1)[N@H+]1[C@@H]2CC[C@H]1C[C@H](CC(=O)OCCOC(=O)c1ccc(-c3c4nc(c(-c5c(F)c(F)c(F)c(F)c5F)c5ccc([nH]5)c(-c5c(F)c(F)c(F)c(F)c5F)c5nc(c(-c6c(F)c(F)c(F)c(F)c6F)c6ccc3[nH]6)C=C5)C=C4)cc1)C2
REMARK SMILES IDX 20 1 19 2 17 3 18 4 16 5 15 6 9 7 10 8 13 9 11 11 88 12
REMARK SMILES IDX 12 13 14 14 2 15 1 16 3 17 4 18 8 19 5 20 7 21 6 22 21 23
REMARK SMILES IDX 22 24 23 25 24 26 25 27 26 28 87 29 27 30 86 31 28 32 29 33
REMARK SMILES IDX 30 34 80 35 31 36 85 37 79 38 81 39 32 40 84 41 78 42 77 43
REMARK SMILES IDX 33 45 65 46 45 47 64 48 46 49 49 50 63 51 82 52 47 53 48 54
REMARK SMILES IDX 62 56 83 57 50 58 34 59 35 60 43 61 36 62 37 63 41 64 44 65
REMARK SMILES IDX 38 66 39 67 42 68 40 69 66 70 67 71 75 72 68 73 69 74 73 75
REMARK SMILES IDX 76 76 70 77 71 78 74 79 72 80 51 81 52 82 60 83 53 84 54 85
REMARK SMILES IDX 58 86 61 87 55 88 56 89 59 90 57 91
REMARK H PARENT 9 10 81 44 49 55
REMARK Flexibility Score: inf
ROOT
ATOM      1  C   UNL A   1      32.176  27.832  25.887  1.00  0.00     0.274 C 
ENDROOT
BRANCH   1   2
ATOM      2  O   UNL A   1      30.903  27.167  25.814  1.00  0.00    -0.462 OA
BRANCH   2   3
ATOM      3  C   UNL A   1      30.883  25.839  26.088  1.00  0.00     0.306 C 
ATOM      4  O   UNL A   1      29.911  25.221  26.502  1.00  0.00    -0.252 OA
BRANCH   3   5
ATOM      5  C   UNL A   1      32.235  25.191  25.873  1.00  0.00     0.126 C 
BRANCH   5   6
ATOM      6  C   UNL A   1      32.261  23.646  25.920  1.00  0.00     0.012 C 
ATOM      7  N   UNL A   1      34.514  22.008  24.953  1.00  0.00    -0.324 N 
ATOM      8  C   UNL A   1      34.169  21.928  26.382  1.00  0.00     0.185 C 
ATOM      9  C   UNL A   1      33.216  21.846  24.298  1.00  0.00     0.185 C 
ATOM     10  H   UNL A   1      35.157  21.283  24.634  1.00  0.00     0.349 HD
ATOM     11  C   UNL A   1      33.277  20.685  26.418  1.00  0.00     0.071 C 
ATOM     12  C   UNL A   1      33.404  23.176  26.856  1.00  0.00     0.069 C 
ATOM     13  C   UNL A   1      32.655  20.620  25.028  1.00  0.00     0.071 C 
ATOM     14  C   UNL A   1      32.308  23.060  24.492  1.00  0.00     0.069 C 
BRANCH   7  15
ATOM     15  C   UNL A   1      35.378  23.137  24.573  1.00  0.00     0.212 C 
ATOM     16  C   UNL A   1      35.583  23.329  23.056  1.00  0.00     0.081 C 
BRANCH  15  17
ATOM     17  C   UNL A   1      36.748  22.978  25.226  1.00  0.00     0.012 A 
ATOM     18  C   UNL A   1      37.318  24.019  25.970  1.00  0.00     0.030 A 
ATOM     19  C   UNL A   1      37.468  21.787  25.104  1.00  0.00     0.030 A 
ATOM     20  C   UNL A   1      38.540  23.811  26.587  1.00  0.00     0.111 A 
ATOM     21  C   UNL A   1      38.692  21.679  25.751  1.00  0.00     0.111 A 
ATOM     22  N   UNL A   1      39.239  22.660  26.500  1.00  0.00    -0.265 NA
ENDBRANCH  15  17
ENDBRANCH   7  15
ENDBRANCH   5   6
ENDBRANCH   3   5
ENDBRANCH   2   3
ENDBRANCH   1   2
BRANCH   1  23
ATOM     23  C   UNL A   1      32.026  29.315  25.544  1.00  0.00     0.275 C 
BRANCH  23  24
ATOM     24  O   UNL A   1      33.278  30.002  25.724  1.00  0.00    -0.458 OA
BRANCH  24  25
ATOM     25  C   UNL A   1      33.332  30.876  26.755  1.00  0.00     0.338 C 
ATOM     26  O   UNL A   1      32.482  31.670  27.110  1.00  0.00    -0.246 OA
BRANCH  25  27
ATOM     27  C   UNL A   1      34.580  30.645  27.497  1.00  0.00     0.060 A 
ATOM     28  C   UNL A   1      34.832  29.370  28.009  1.00  0.00     0.016 A 
ATOM     29  C   UNL A   1      35.475  31.691  27.719  1.00  0.00     0.016 A 
ATOM     30  C   UNL A   1      35.991  29.128  28.741  1.00  0.00     0.010 A 
ATOM     31  C   UNL A   1      36.640  31.446  28.449  1.00  0.00     0.010 A 
ATOM     32  C   UNL A   1      36.904  30.165  28.965  1.00  0.00    -0.014 A 
BRANCH  32  33
ATOM     33  C   UNL A   1      38.126  29.915  29.764  1.00  0.00     0.031 A 
ATOM     34  C   UNL A   1      39.199  29.019  29.224  1.00  0.00     0.074 A 
ATOM     35  C   UNL A   1      38.265  30.493  30.970  1.00  0.00     0.049 A 
ATOM     36  N   UNL A   1      40.289  28.587  29.806  1.00  0.00    -0.248 NA
ATOM     37  C   UNL A   1      39.023  28.544  27.843  1.00  0.00     0.031 C 
ATOM     38  C   UNL A   1      37.307  31.416  31.579  1.00  0.00     0.029 A 
ATOM     39  N   UNL A   1      39.262  30.377  31.905  1.00  0.00    -0.354 N 
ATOM     40  C   UNL A   1      40.918  27.774  28.871  1.00  0.00     0.074 A 
ATOM     41  C   UNL A   1      40.081  27.761  27.690  1.00  0.00     0.031 C 
ATOM     42  C   UNL A   1      37.762  31.781  32.789  1.00  0.00     0.029 A 
ATOM     43  C   UNL A   1      39.015  31.081  33.057  1.00  0.00     0.049 A 
ATOM     44  H   UNL A   1      40.077  29.844  31.763  1.00  0.00     0.167 HD
ATOM     45  C   UNL A   1      42.088  27.104  28.994  1.00  0.00     0.037 A 
ATOM     46  C   UNL A   1      39.705  31.126  34.213  1.00  0.00     0.037 A 
ATOM     47  C   UNL A   1      42.919  27.132  30.169  1.00  0.00     0.049 A 
ATOM     48  C   UNL A   1      40.967  30.319  34.345  1.00  0.00     0.074 A 
ATOM     49  C   UNL A   1      44.132  26.500  30.384  1.00  0.00     0.029 A 
ATOM     50  N   UNL A   1      42.620  27.828  31.331  1.00  0.00    -0.354 N 
ATOM     51  N   UNL A   1      41.555  29.550  33.462  1.00  0.00    -0.248 NA
ATOM     52  C   UNL A   1      41.658  30.379  35.642  1.00  0.00     0.031 C 
ATOM     53  C   UNL A   1      44.546  26.781  31.691  1.00  0.00     0.029 A 
ATOM     54  C   UNL A   1      43.614  27.624  32.275  1.00  0.00     0.049 A 
ATOM     55  H   UNL A   1      41.819  28.387  31.464  1.00  0.00     0.167 HD
ATOM     56  C   UNL A   1      42.690  29.049  34.084  1.00  0.00     0.074 A 
ATOM     57  C   UNL A   1      42.718  29.614  35.418  1.00  0.00     0.031 C 
ATOM     58  C   UNL A   1      43.623  28.195  33.598  1.00  0.00     0.037 A 
BRANCH  45  59
ATOM     59  C   UNL A   1      42.523  26.259  27.835  1.00  0.00     0.064 A 
ATOM     60  C   UNL A   1      42.146  24.913  27.721  1.00  0.00     0.173 A 
ATOM     61  C   UNL A   1      43.305  26.813  26.810  1.00  0.00     0.173 A 
ATOM     62  F   UNL A   1      41.412  24.333  28.682  1.00  0.00    -0.203 F 
ATOM     63  C   UNL A   1      42.555  24.147  26.632  1.00  0.00     0.198 A 
ATOM     64  C   UNL A   1      43.690  26.051  25.711  1.00  0.00     0.198 A 
ATOM     65  F   UNL A   1      43.691  28.096  26.871  1.00  0.00    -0.203 F 
ATOM     66  F   UNL A   1      42.218  22.851  26.563  1.00  0.00    -0.200 F 
ATOM     67  C   UNL A   1      43.321  24.716  25.626  1.00  0.00     0.200 A 
ATOM     68  F   UNL A   1      44.423  26.605  24.735  1.00  0.00    -0.200 F 
ATOM     69  F   UNL A   1      43.710  23.978  24.577  1.00  0.00    -0.200 F 
ENDBRANCH  45  59
BRANCH  46  70
ATOM     70  C   UNL A   1      39.202  31.946  35.343  1.00  0.00     0.064 A 
ATOM     71  C   UNL A   1      38.414  31.377  36.352  1.00  0.00     0.173 A 
ATOM     72  C   UNL A   1      39.495  33.315  35.436  1.00  0.00     0.173 A 
ATOM     73  F   UNL A   1      38.085  30.078  36.292  1.00  0.00    -0.203 F 
ATOM     74  C   UNL A   1      37.928  32.148  37.406  1.00  0.00     0.198 A 
ATOM     75  C   UNL A   1      39.031  34.079  36.504  1.00  0.00     0.198 A 
ATOM     76  F   UNL A   1      40.242  33.907  34.494  1.00  0.00    -0.203 F 
ATOM     77  F   UNL A   1      37.142  31.589  38.336  1.00  0.00    -0.200 F 
ATOM     78  C   UNL A   1      38.242  33.497  37.485  1.00  0.00     0.200 A 
ATOM     79  F   UNL A   1      39.345  35.380  36.581  1.00  0.00    -0.200 F 
ATOM     80  F   UNL A   1      37.777  34.237  38.501  1.00  0.00    -0.200 F 
ENDBRANCH  46  70
BRANCH  58  81
ATOM     81  C   UNL A   1      44.764  27.840  34.504  1.00  0.00     0.064 A 
ATOM     82  C   UNL A   1      44.715  26.713  35.336  1.00  0.00     0.173 A 
ATOM     83  C   UNL A   1      45.932  28.616  34.515  1.00  0.00     0.173 A 
ATOM     84  F   UNL A   1      43.613  25.948  35.374  1.00  0.00    -0.203 F 
ATOM     85  C   UNL A   1      45.786  26.387  36.163  1.00  0.00     0.198 A 
ATOM     86  C   UNL A   1      47.012  28.274  35.324  1.00  0.00     0.198 A 
ATOM     87  F   UNL A   1      46.030  29.702  33.733  1.00  0.00    -0.203 F 
ATOM     88  F   UNL A   1      45.701  25.329  36.983  1.00  0.00    -0.200 F 
ATOM     89  C   UNL A   1      46.936  27.163  36.152  1.00  0.00     0.200 A 
ATOM     90  F   UNL A   1      48.126  29.019  35.304  1.00  0.00    -0.200 F 
ATOM     91  F   UNL A   1      47.968  26.846  36.945  1.00  0.00    -0.200 F 
ENDBRANCH  58  81
ENDBRANCH  32  33
ENDBRANCH  25  27
ENDBRANCH  24  25
ENDBRANCH  23  24
ENDBRANCH   1  23
TORSDOF 14
ENDMDL
