MODEL 1
REMARK VINA RESULT:     -12.3      0.000      0.000
REMARK SMILES Cn1nc(C(=O)N2C[C@@H](O)C[C@H]2C(=O)OCCOC(=O)c2ccc(-c3c4nc(c(-c5c(F)c(F)c(F)c(F)c5F)c5ccc([nH]5)c(-c5c(F)c(F)c(F)c(F)c5F)c5nc(c(-c6c(F)c(F)c(F)c(F)c6F)c6ccc3[nH]6)C=C5)C=C4)cc2)ccc1=O
REMARK SMILES IDX 16 1 15 2 13 3 14 4 12 5 7 6 8 7 9 8 11 9 5 10 6 11 4 12
REMARK SMILES IDX 1 13 2 14 3 15 86 16 85 17 87 18 84 19 10 20 17 22 18 23
REMARK SMILES IDX 19 24 20 25 21 26 22 27 83 28 23 29 82 30 24 31 25 32 26 33
REMARK SMILES IDX 76 34 27 35 81 36 75 37 77 38 28 39 80 40 74 41 73 42 29 44
REMARK SMILES IDX 61 45 41 46 60 47 42 48 45 49 59 50 78 51 43 52 44 53 58 55
REMARK SMILES IDX 79 56 46 57 30 58 31 59 39 60 32 61 33 62 37 63 40 64 34 65
REMARK SMILES IDX 35 66 38 67 36 68 62 69 63 70 71 71 64 72 65 73 69 74 72 75
REMARK SMILES IDX 66 76 67 77 70 78 68 79 47 80 48 81 56 82 49 83 50 84 54 85
REMARK SMILES IDX 57 86 51 87 52 88 55 89 53 90
REMARK H PARENT 10 21 77 43 45 54
REMARK Flexibility Score: inf
ROOT
ATOM      1  C   UNL A   1      35.020  34.255  28.429  1.00  0.00     0.274 C 
ENDROOT
BRANCH   1   2
ATOM      2  O   UNL A   1      34.453  34.227  29.751  1.00  0.00    -0.461 OA
BRANCH   2   3
ATOM      3  C   UNL A   1      33.320  34.950  29.924  1.00  0.00     0.329 C 
ATOM      4  O   UNL A   1      32.529  35.241  29.030  1.00  0.00    -0.250 OA
BRANCH   3   5
ATOM      5  C   UNL A   1      33.097  35.400  31.368  1.00  0.00     0.198 C 
ATOM      6  N   UNL A   1      34.068  35.028  32.398  1.00  0.00    -0.321 N 
ATOM      7  C   UNL A   1      34.517  36.189  33.143  1.00  0.00     0.152 C 
ATOM      8  C   UNL A   1      33.503  37.282  32.814  1.00  0.00     0.136 C 
ATOM      9  C   UNL A   1      33.067  36.929  31.398  1.00  0.00     0.071 C 
BRANCH   6  10
ATOM     10  C   UNL A   1      34.019  33.741  32.907  1.00  0.00     0.275 C 
ATOM     11  O   UNL A   1      32.974  33.206  33.251  1.00  0.00    -0.267 OA
BRANCH  10  12
ATOM     12  C   UNL A   1      35.351  33.042  33.225  1.00  0.00     0.149 A 
ATOM     13  C   UNL A   1      37.709  32.785  35.924  1.00  0.00     0.178 C 
ATOM     14  N   UNL A   1      37.092  32.552  34.633  1.00  0.00    -0.232 N 
ATOM     15  N   UNL A   1      35.909  33.221  34.385  1.00  0.00    -0.165 NA
ATOM     16  C   UNL A   1      37.685  31.658  33.751  1.00  0.00     0.266 A 
ATOM     17  C   UNL A   1      36.992  31.467  32.461  1.00  0.00     0.076 A 
ATOM     18  O   UNL A   1      38.717  31.028  33.971  1.00  0.00    -0.268 OA
ATOM     19  C   UNL A   1      35.870  32.132  32.181  1.00  0.00     0.042 A 
ENDBRANCH  10  12
ENDBRANCH   6  10
BRANCH   8  20
ATOM     20  O   UNL A   1      34.060  38.584  32.862  1.00  0.00    -0.391 OA
ATOM     21  H   UNL A   1      34.983  38.553  32.567  1.00  0.00     0.211 HD
ENDBRANCH   8  20
ENDBRANCH   3   5
ENDBRANCH   2   3
ENDBRANCH   1   2
BRANCH   1  22
ATOM     22  C   UNL A   1      34.710  32.963  27.676  1.00  0.00     0.275 C 
BRANCH  22  23
ATOM     23  O   UNL A   1      34.723  31.845  28.584  1.00  0.00    -0.458 OA
BRANCH  23  24
ATOM     24  C   UNL A   1      34.770  30.627  28.005  1.00  0.00     0.338 C 
ATOM     25  O   UNL A   1      33.900  30.059  27.369  1.00  0.00    -0.246 OA
BRANCH  24  26
ATOM     26  C   UNL A   1      36.047  29.971  28.313  1.00  0.00     0.060 A 
ATOM     27  C   UNL A   1      36.278  29.378  29.557  1.00  0.00     0.016 A 
ATOM     28  C   UNL A   1      37.074  30.085  27.375  1.00  0.00     0.016 A 
ATOM     29  C   UNL A   1      37.564  28.945  29.885  1.00  0.00     0.010 A 
ATOM     30  C   UNL A   1      38.346  29.616  27.687  1.00  0.00     0.010 A 
ATOM     31  C   UNL A   1      38.606  29.074  28.954  1.00  0.00    -0.014 A 
BRANCH  31  32
ATOM     32  C   UNL A   1      39.990  28.683  29.301  1.00  0.00     0.031 A 
ATOM     33  C   UNL A   1      40.861  29.631  30.074  1.00  0.00     0.074 A 
ATOM     34  C   UNL A   1      40.469  27.498  28.885  1.00  0.00     0.049 A 
ATOM     35  N   UNL A   1      42.137  29.544  30.349  1.00  0.00    -0.248 NA
ATOM     36  C   UNL A   1      40.210  30.838  30.608  1.00  0.00     0.031 C 
ATOM     37  C   UNL A   1      39.703  26.490  28.155  1.00  0.00     0.029 A 
ATOM     38  N   UNL A   1      41.721  26.952  29.004  1.00  0.00    -0.354 N 
ATOM     39  C   UNL A   1      42.446  30.687  31.073  1.00  0.00     0.074 A 
ATOM     40  C   UNL A   1      41.227  31.461  31.188  1.00  0.00     0.031 C 
ATOM     41  C   UNL A   1      40.504  25.448  27.881  1.00  0.00     0.029 A 
ATOM     42  C   UNL A   1      41.847  25.738  28.376  1.00  0.00     0.049 A 
ATOM     43  H   UNL A   1      42.457  27.387  29.491  1.00  0.00     0.167 HD
ATOM     44  C   UNL A   1      43.639  31.050  31.597  1.00  0.00     0.037 A 
ATOM     45  C   UNL A   1      42.933  24.965  28.194  1.00  0.00     0.037 A 
ATOM     46  C   UNL A   1      44.844  30.271  31.487  1.00  0.00     0.049 A 
ATOM     47  C   UNL A   1      44.259  25.419  28.735  1.00  0.00     0.074 A 
ATOM     48  C   UNL A   1      46.102  30.549  31.991  1.00  0.00     0.029 A 
ATOM     49  N   UNL A   1      44.936  29.055  30.827  1.00  0.00    -0.354 N 
ATOM     50  N   UNL A   1      44.547  26.508  29.404  1.00  0.00    -0.248 NA
ATOM     51  C   UNL A   1      45.412  24.543  28.487  1.00  0.00     0.031 C 
ATOM     52  C   UNL A   1      46.963  29.515  31.610  1.00  0.00     0.029 A 
ATOM     53  C   UNL A   1      46.234  28.577  30.898  1.00  0.00     0.049 A 
ATOM     54  H   UNL A   1      44.190  28.598  30.375  1.00  0.00     0.167 HD
ATOM     55  C   UNL A   1      45.907  26.447  29.668  1.00  0.00     0.074 A 
ATOM     56  C   UNL A   1      46.387  25.204  29.097  1.00  0.00     0.031 C 
ATOM     57  C   UNL A   1      46.689  27.340  30.319  1.00  0.00     0.037 A 
BRANCH  44  58
ATOM     58  C   UNL A   1      43.713  32.355  32.329  1.00  0.00     0.064 A 
ATOM     59  C   UNL A   1      43.956  33.559  31.654  1.00  0.00     0.173 A 
ATOM     60  C   UNL A   1      43.464  32.411  33.709  1.00  0.00     0.173 A 
ATOM     61  F   UNL A   1      44.209  33.553  30.337  1.00  0.00    -0.203 F 
ATOM     62  C   UNL A   1      43.952  34.773  32.335  1.00  0.00     0.198 A 
ATOM     63  C   UNL A   1      43.444  33.629  34.384  1.00  0.00     0.198 A 
ATOM     64  F   UNL A   1      43.221  31.285  34.398  1.00  0.00    -0.203 F 
ATOM     65  F   UNL A   1      44.203  35.912  31.674  1.00  0.00    -0.200 F 
ATOM     66  C   UNL A   1      43.688  34.808  33.696  1.00  0.00     0.200 A 
ATOM     67  F   UNL A   1      43.179  33.661  35.697  1.00  0.00    -0.200 F 
ATOM     68  F   UNL A   1      43.669  35.979  34.348  1.00  0.00    -0.200 F 
ENDBRANCH  44  58
BRANCH  45  69
ATOM     69  C   UNL A   1      42.805  23.690  27.444  1.00  0.00     0.064 A 
ATOM     70  C   UNL A   1      43.169  23.613  26.093  1.00  0.00     0.173 A 
ATOM     71  C   UNL A   1      42.345  22.523  28.068  1.00  0.00     0.173 A 
ATOM     72  F   UNL A   1      43.594  24.709  25.451  1.00  0.00    -0.203 F 
ATOM     73  C   UNL A   1      43.074  22.412  25.394  1.00  0.00     0.198 A 
ATOM     74  C   UNL A   1      42.271  21.318  27.374  1.00  0.00     0.198 A 
ATOM     75  F   UNL A   1      41.986  22.549  29.360  1.00  0.00    -0.203 F 
ATOM     76  F   UNL A   1      43.403  22.368  24.095  1.00  0.00    -0.200 F 
ATOM     77  C   UNL A   1      42.632  21.265  26.036  1.00  0.00     0.200 A 
ATOM     78  F   UNL A   1      41.854  20.209  28.001  1.00  0.00    -0.200 F 
ATOM     79  F   UNL A   1      42.551  20.107  25.364  1.00  0.00    -0.200 F 
ENDBRANCH  45  69
BRANCH  57  80
ATOM     80  C   UNL A   1      48.140  27.004  30.462  1.00  0.00     0.064 A 
ATOM     81  C   UNL A   1      48.600  26.200  31.515  1.00  0.00     0.173 A 
ATOM     82  C   UNL A   1      49.071  27.441  29.508  1.00  0.00     0.173 A 
ATOM     83  F   UNL A   1      47.748  25.772  32.458  1.00  0.00    -0.203 F 
ATOM     84  C   UNL A   1      49.944  25.855  31.614  1.00  0.00     0.198 A 
ATOM     85  C   UNL A   1      50.410  27.077  29.598  1.00  0.00     0.198 A 
ATOM     86  F   UNL A   1      48.675  28.207  28.481  1.00  0.00    -0.203 F 
ATOM     87  F   UNL A   1      50.370  25.109  32.643  1.00  0.00    -0.200 F 
ATOM     88  C   UNL A   1      50.847  26.287  30.653  1.00  0.00     0.200 A 
ATOM     89  F   UNL A   1      51.280  27.488  28.666  1.00  0.00    -0.200 F 
ATOM     90  F   UNL A   1      52.139  25.947  30.744  1.00  0.00    -0.200 F 
ENDBRANCH  57  80
ENDBRANCH  31  32
ENDBRANCH  24  26
ENDBRANCH  23  24
ENDBRANCH  22  23
ENDBRANCH   1  22
TORSDOF 14
ENDMDL
MODEL 2
REMARK VINA RESULT:     -12.3      4.700     10.037
REMARK SMILES Cn1nc(C(=O)N2C[C@@H](O)C[C@H]2C(=O)OCCOC(=O)c2ccc(-c3c4nc(c(-c5c(F)c(F)c(F)c(F)c5F)c5ccc([nH]5)c(-c5c(F)c(F)c(F)c(F)c5F)c5nc(c(-c6c(F)c(F)c(F)c(F)c6F)c6ccc3[nH]6)C=C5)C=C4)cc2)ccc1=O
REMARK SMILES IDX 16 1 15 2 13 3 14 4 12 5 7 6 8 7 9 8 11 9 5 10 6 11 4 12
REMARK SMILES IDX 1 13 2 14 3 15 86 16 85 17 87 18 84 19 10 20 17 22 18 23
REMARK SMILES IDX 19 24 20 25 21 26 22 27 83 28 23 29 82 30 24 31 25 32 26 33
REMARK SMILES IDX 76 34 27 35 81 36 75 37 77 38 28 39 80 40 74 41 73 42 29 44
REMARK SMILES IDX 61 45 41 46 60 47 42 48 45 49 59 50 78 51 43 52 44 53 58 55
REMARK SMILES IDX 79 56 46 57 30 58 31 59 39 60 32 61 33 62 37 63 40 64 34 65
REMARK SMILES IDX 35 66 38 67 36 68 62 69 63 70 71 71 64 72 65 73 69 74 72 75
REMARK SMILES IDX 66 76 67 77 70 78 68 79 47 80 48 81 56 82 49 83 50 84 54 85
REMARK SMILES IDX 57 86 51 87 52 88 55 89 53 90
REMARK H PARENT 10 21 77 43 45 54
REMARK Flexibility Score: inf
ROOT
ATOM      1  C   UNL A   1      31.772  28.636  27.114  1.00  0.00     0.274 C 
ENDROOT
BRANCH   1   2
ATOM      2  O   UNL A   1      32.112  27.759  26.026  1.00  0.00    -0.461 OA
BRANCH   2   3
ATOM      3  C   UNL A   1      31.142  26.897  25.635  1.00  0.00     0.329 C 
ATOM      4  O   UNL A   1      30.415  26.265  26.398  1.00  0.00    -0.250 OA
BRANCH   3   5
ATOM      5  C   UNL A   1      31.022  26.759  24.117  1.00  0.00     0.198 C 
ATOM      6  N   UNL A   1      30.667  27.928  23.312  1.00  0.00    -0.321 N 
ATOM      7  C   UNL A   1      31.613  28.131  22.232  1.00  0.00     0.152 C 
ATOM      8  C   UNL A   1      32.381  26.816  22.131  1.00  0.00     0.136 C 
ATOM      9  C   UNL A   1      32.374  26.304  23.566  1.00  0.00     0.071 C 
BRANCH   6  10
ATOM     10  C   UNL A   1      29.337  28.315  23.272  1.00  0.00     0.275 C 
ATOM     11  O   UNL A   1      28.415  27.523  23.414  1.00  0.00    -0.267 OA
BRANCH  10  12
ATOM     12  C   UNL A   1      29.019  29.756  22.842  1.00  0.00     0.149 A 
ATOM     13  C   UNL A   1      27.814  31.529  19.958  1.00  0.00     0.178 C 
ATOM     14  N   UNL A   1      28.283  31.293  21.310  1.00  0.00    -0.232 N 
ATOM     15  N   UNL A   1      28.578  29.985  21.642  1.00  0.00    -0.165 NA
ATOM     16  C   UNL A   1      28.368  32.363  22.193  1.00  0.00     0.266 A 
ATOM     17  C   UNL A   1      28.844  32.040  23.554  1.00  0.00     0.076 A 
ATOM     18  O   UNL A   1      28.074  33.525  21.924  1.00  0.00    -0.268 OA
ATOM     19  C   UNL A   1      29.174  30.792  23.886  1.00  0.00     0.042 A 
ENDBRANCH  10  12
ENDBRANCH   6  10
BRANCH   8  20
ATOM     20  O   UNL A   1      33.708  26.986  21.661  1.00  0.00    -0.391 OA
ATOM     21  H   UNL A   1      33.700  27.525  20.856  1.00  0.00     0.211 HD
ENDBRANCH   8  20
ENDBRANCH   3   5
ENDBRANCH   2   3
ENDBRANCH   1   2
BRANCH   1  22
ATOM     22  C   UNL A   1      31.770  30.093  26.660  1.00  0.00     0.275 C 
BRANCH  22  23
ATOM     23  O   UNL A   1      33.117  30.532  26.400  1.00  0.00    -0.458 OA
BRANCH  23  24
ATOM     24  C   UNL A   1      33.598  31.465  27.249  1.00  0.00     0.338 C 
ATOM     25  O   UNL A   1      33.120  32.550  27.530  1.00  0.00    -0.246 OA
BRANCH  24  26
ATOM     26  C   UNL A   1      34.899  31.040  27.780  1.00  0.00     0.060 A 
ATOM     27  C   UNL A   1      35.122  29.722  28.189  1.00  0.00     0.016 A 
ATOM     28  C   UNL A   1      35.861  32.028  27.998  1.00  0.00     0.016 A 
ATOM     29  C   UNL A   1      36.298  29.403  28.870  1.00  0.00     0.010 A 
ATOM     30  C   UNL A   1      37.050  31.699  28.642  1.00  0.00     0.010 A 
ATOM     31  C   UNL A   1      37.261  30.394  29.111  1.00  0.00    -0.014 A 
BRANCH  31  32
ATOM     32  C   UNL A   1      38.484  30.096  29.888  1.00  0.00     0.031 A 
ATOM     33  C   UNL A   1      39.510  29.153  29.328  1.00  0.00     0.074 A 
ATOM     34  C   UNL A   1      38.646  30.640  31.106  1.00  0.00     0.049 A 
ATOM     35  N   UNL A   1      40.570  28.648  29.905  1.00  0.00    -0.248 NA
ATOM     36  C   UNL A   1      39.318  28.720  27.935  1.00  0.00     0.031 C 
ATOM     37  C   UNL A   1      37.729  31.590  31.732  1.00  0.00     0.029 A 
ATOM     38  N   UNL A   1      39.634  30.456  32.039  1.00  0.00    -0.354 N 
ATOM     39  C   UNL A   1      41.163  27.828  28.955  1.00  0.00     0.074 A 
ATOM     40  C   UNL A   1      40.340  27.893  27.765  1.00  0.00     0.031 C 
ATOM     41  C   UNL A   1      38.191  31.901  32.954  1.00  0.00     0.029 A 
ATOM     42  C   UNL A   1      39.410  31.137  33.210  1.00  0.00     0.049 A 
ATOM     43  H   UNL A   1      40.426  29.893  31.885  1.00  0.00     0.167 HD
ATOM     44  C   UNL A   1      42.294  27.094  29.069  1.00  0.00     0.037 A 
ATOM     45  C   UNL A   1      40.094  31.119  34.368  1.00  0.00     0.037 A 
ATOM     46  C   UNL A   1      43.111  27.043  30.252  1.00  0.00     0.049 A 
ATOM     47  C   UNL A   1      41.314  30.251  34.488  1.00  0.00     0.074 A 
ATOM     48  C   UNL A   1      44.281  26.336  30.464  1.00  0.00     0.029 A 
ATOM     49  N   UNL A   1      42.841  27.732  31.424  1.00  0.00    -0.354 N 
ATOM     50  N   UNL A   1      41.859  29.466  33.591  1.00  0.00    -0.248 NA
ATOM     51  C   UNL A   1      42.008  30.256  35.783  1.00  0.00     0.031 C 
ATOM     52  C   UNL A   1      44.703  26.574  31.776  1.00  0.00     0.029 A 
ATOM     53  C   UNL A   1      43.815  27.455  32.369  1.00  0.00     0.049 A 
ATOM     54  H   UNL A   1      42.071  28.330  31.565  1.00  0.00     0.167 HD
ATOM     55  C   UNL A   1      42.963  28.893  34.205  1.00  0.00     0.074 A 
ATOM     56  C   UNL A   1      43.020  29.431  35.548  1.00  0.00     0.031 C 
ATOM     57  C   UNL A   1      43.848  27.999  33.702  1.00  0.00     0.037 A 
BRANCH  44  58
ATOM     58  C   UNL A   1      42.715  26.273  27.889  1.00  0.00     0.064 A 
ATOM     59  C   UNL A   1      42.162  25.009  27.645  1.00  0.00     0.173 A 
ATOM     60  C   UNL A   1      43.627  26.787  26.954  1.00  0.00     0.173 A 
ATOM     61  F   UNL A   1      41.295  24.473  28.516  1.00  0.00    -0.203 F 
ATOM     62  C   UNL A   1      42.510  24.285  26.508  1.00  0.00     0.198 A 
ATOM     63  C   UNL A   1      43.960  26.068  25.810  1.00  0.00     0.198 A 
ATOM     64  F   UNL A   1      44.180  27.995  27.143  1.00  0.00    -0.203 F 
ATOM     65  F   UNL A   1      41.982  23.070  26.299  1.00  0.00    -0.200 F 
ATOM     66  C   UNL A   1      43.401  24.818  25.588  1.00  0.00     0.200 A 
ATOM     67  F   UNL A   1      44.813  26.589  24.917  1.00  0.00    -0.200 F 
ATOM     68  F   UNL A   1      43.723  24.127  24.486  1.00  0.00    -0.200 F 
ENDBRANCH  44  58
BRANCH  45  69
ATOM     69  C   UNL A   1      39.620  31.939  35.510  1.00  0.00     0.064 A 
ATOM     70  C   UNL A   1      40.115  33.233  35.719  1.00  0.00     0.173 A 
ATOM     71  C   UNL A   1      38.645  31.458  36.395  1.00  0.00     0.173 A 
ATOM     72  F   UNL A   1      41.063  33.726  34.910  1.00  0.00    -0.203 F 
ATOM     73  C   UNL A   1      39.654  34.014  36.776  1.00  0.00     0.198 A 
ATOM     74  C   UNL A   1      38.168  32.248  37.438  1.00  0.00     0.198 A 
ATOM     75  F   UNL A   1      38.141  30.225  36.234  1.00  0.00    -0.203 F 
ATOM     76  F   UNL A   1      40.160  35.239  36.972  1.00  0.00    -0.200 F 
ATOM     77  C   UNL A   1      38.675  33.525  37.629  1.00  0.00     0.200 A 
ATOM     78  F   UNL A   1      37.216  31.776  38.254  1.00  0.00    -0.200 F 
ATOM     79  F   UNL A   1      38.224  34.282  38.640  1.00  0.00    -0.200 F 
ENDBRANCH  45  69
BRANCH  57  80
ATOM     80  C   UNL A   1      44.958  27.555  34.602  1.00  0.00     0.064 A 
ATOM     81  C   UNL A   1      44.834  26.406  35.396  1.00  0.00     0.173 A 
ATOM     82  C   UNL A   1      46.176  28.250  34.628  1.00  0.00     0.173 A 
ATOM     83  F   UNL A   1      43.683  25.719  35.414  1.00  0.00    -0.203 F 
ATOM     84  C   UNL A   1      45.889  25.975  36.194  1.00  0.00     0.198 A 
ATOM     85  C   UNL A   1      47.236  27.804  35.411  1.00  0.00     0.198 A 
ATOM     86  F   UNL A   1      46.342  29.351  33.880  1.00  0.00    -0.203 F 
ATOM     87  F   UNL A   1      45.742  24.891  36.969  1.00  0.00    -0.200 F 
ATOM     88  C   UNL A   1      47.090  26.670  36.197  1.00  0.00     0.200 A 
ATOM     89  F   UNL A   1      48.398  28.470  35.407  1.00  0.00    -0.200 F 
ATOM     90  F   UNL A   1      48.108  26.248  36.959  1.00  0.00    -0.200 F 
ENDBRANCH  57  80
ENDBRANCH  31  32
ENDBRANCH  24  26
ENDBRANCH  23  24
ENDBRANCH  22  23
ENDBRANCH   1  22
TORSDOF 14
ENDMDL
MODEL 3
REMARK VINA RESULT:     -12.1      5.913     10.193
REMARK SMILES Cn1nc(C(=O)N2C[C@@H](O)C[C@H]2C(=O)OCCOC(=O)c2ccc(-c3c4nc(c(-c5c(F)c(F)c(F)c(F)c5F)c5ccc([nH]5)c(-c5c(F)c(F)c(F)c(F)c5F)c5nc(c(-c6c(F)c(F)c(F)c(F)c6F)c6ccc3[nH]6)C=C5)C=C4)cc2)ccc1=O
REMARK SMILES IDX 16 1 15 2 13 3 14 4 12 5 7 6 8 7 9 8 11 9 5 10 6 11 4 12
REMARK SMILES IDX 1 13 2 14 3 15 86 16 85 17 87 18 84 19 10 20 17 22 18 23
REMARK SMILES IDX 19 24 20 25 21 26 22 27 83 28 23 29 82 30 24 31 25 32 26 33
REMARK SMILES IDX 76 34 27 35 81 36 75 37 77 38 28 39 80 40 74 41 73 42 29 44
REMARK SMILES IDX 61 45 41 46 60 47 42 48 45 49 59 50 78 51 43 52 44 53 58 55
REMARK SMILES IDX 79 56 46 57 30 58 31 59 39 60 32 61 33 62 37 63 40 64 34 65
REMARK SMILES IDX 35 66 38 67 36 68 62 69 63 70 71 71 64 72 65 73 69 74 72 75
REMARK SMILES IDX 66 76 67 77 70 78 68 79 47 80 48 81 56 82 49 83 50 84 54 85
REMARK SMILES IDX 57 86 51 87 52 88 55 89 53 90
REMARK H PARENT 10 21 77 43 45 54
REMARK Flexibility Score: inf
ROOT
ATOM      1  C   UNL A   1      36.679  22.228  23.708  1.00  0.00     0.274 C 
ENDROOT
BRANCH   1   2
ATOM      2  O   UNL A   1      35.574  22.872  24.366  1.00  0.00    -0.461 OA
BRANCH   2   3
ATOM      3  C   UNL A   1      34.419  22.933  23.660  1.00  0.00     0.329 C 
ATOM      4  O   UNL A   1      34.325  23.328  22.501  1.00  0.00    -0.250 OA
BRANCH   3   5
ATOM      5  C   UNL A   1      33.195  22.462  24.448  1.00  0.00     0.198 C 
ATOM      6  N   UNL A   1      33.165  21.104  24.990  1.00  0.00    -0.321 N 
ATOM      7  C   UNL A   1      32.850  21.109  26.406  1.00  0.00     0.152 C 
ATOM      8  C   UNL A   1      32.290  22.503  26.678  1.00  0.00     0.136 C 
ATOM      9  C   UNL A   1      33.027  23.371  25.666  1.00  0.00     0.071 C 
BRANCH   6  10
ATOM     10  C   UNL A   1      32.874  20.061  24.126  1.00  0.00     0.275 C 
ATOM     11  O   UNL A   1      32.153  20.197  23.147  1.00  0.00    -0.267 OA
BRANCH  10  12
ATOM     12  C   UNL A   1      33.321  18.647  24.529  1.00  0.00     0.149 A 
ATOM     13  C   UNL A   1      31.886  15.587  25.751  1.00  0.00     0.178 C 
ATOM     14  N   UNL A   1      32.884  16.522  25.269  1.00  0.00    -0.232 N 
ATOM     15  N   UNL A   1      32.438  17.788  24.942  1.00  0.00    -0.165 NA
ATOM     16  C   UNL A   1      34.198  16.094  25.124  1.00  0.00     0.266 A 
ATOM     17  C   UNL A   1      35.153  17.101  24.619  1.00  0.00     0.076 A 
ATOM     18  O   UNL A   1      34.603  14.961  25.376  1.00  0.00    -0.268 OA
ATOM     19  C   UNL A   1      34.755  18.341  24.336  1.00  0.00     0.042 A 
ENDBRANCH  10  12
ENDBRANCH   6  10
BRANCH   8  20
ATOM     20  O   UNL A   1      32.537  22.949  28.001  1.00  0.00    -0.391 OA
ATOM     21  H   UNL A   1      33.270  23.582  27.998  1.00  0.00     0.211 HD
ENDBRANCH   8  20
ENDBRANCH   3   5
ENDBRANCH   2   3
ENDBRANCH   1   2
BRANCH   1  22
ATOM     22  C   UNL A   1      37.219  21.075  24.551  1.00  0.00     0.275 C 
BRANCH  22  23
ATOM     23  O   UNL A   1      37.618  21.555  25.849  1.00  0.00    -0.458 OA
BRANCH  23  24
ATOM     24  C   UNL A   1      38.936  21.451  26.126  1.00  0.00     0.338 C 
ATOM     25  O   UNL A   1      39.648  20.466  26.050  1.00  0.00    -0.246 OA
BRANCH  24  26
ATOM     26  C   UNL A   1      39.443  22.727  26.647  1.00  0.00     0.060 A 
ATOM     27  C   UNL A   1      39.008  23.949  26.126  1.00  0.00     0.016 A 
ATOM     28  C   UNL A   1      40.481  22.676  27.579  1.00  0.00     0.016 A 
ATOM     29  C   UNL A   1      39.656  25.126  26.503  1.00  0.00     0.010 A 
ATOM     30  C   UNL A   1      41.099  23.855  27.985  1.00  0.00     0.010 A 
ATOM     31  C   UNL A   1      40.713  25.082  27.425  1.00  0.00    -0.014 A 
BRANCH  31  32
ATOM     32  C   UNL A   1      41.457  26.307  27.790  1.00  0.00     0.031 A 
ATOM     33  C   UNL A   1      40.769  27.393  28.566  1.00  0.00     0.074 A 
ATOM     34  C   UNL A   1      42.731  26.455  27.390  1.00  0.00     0.049 A 
ATOM     35  N   UNL A   1      41.192  28.597  28.856  1.00  0.00    -0.248 NA
ATOM     36  C   UNL A   1      39.426  27.086  29.083  1.00  0.00     0.031 C 
ATOM     37  C   UNL A   1      43.505  25.452  26.659  1.00  0.00     0.029 A 
ATOM     38  N   UNL A   1      43.592  27.514  27.527  1.00  0.00    -0.354 N 
ATOM     39  C   UNL A   1      40.166  29.195  29.575  1.00  0.00     0.074 A 
ATOM     40  C   UNL A   1      39.092  28.227  29.668  1.00  0.00     0.031 C 
ATOM     41  C   UNL A   1      44.727  25.947  26.403  1.00  0.00     0.029 A 
ATOM     42  C   UNL A   1      44.802  27.315  26.911  1.00  0.00     0.049 A 
ATOM     43  H   UNL A   1      43.365  28.335  28.020  1.00  0.00     0.167 HD
ATOM     44  C   UNL A   1      40.130  30.437  30.109  1.00  0.00     0.037 A 
ATOM     45  C   UNL A   1      45.840  28.155  26.747  1.00  0.00     0.037 A 
ATOM     46  C   UNL A   1      41.205  31.390  30.019  1.00  0.00     0.049 A 
ATOM     47  C   UNL A   1      45.752  29.549  27.300  1.00  0.00     0.074 A 
ATOM     48  C   UNL A   1      41.269  32.672  30.535  1.00  0.00     0.029 A 
ATOM     49  N   UNL A   1      42.408  31.158  29.370  1.00  0.00    -0.354 N 
ATOM     50  N   UNL A   1      44.773  30.112  27.964  1.00  0.00    -0.248 NA
ATOM     51  C   UNL A   1      46.907  30.428  27.072  1.00  0.00     0.031 C 
ATOM     52  C   UNL A   1      42.499  33.227  30.173  1.00  0.00     0.029 A 
ATOM     53  C   UNL A   1      43.215  32.280  29.460  1.00  0.00     0.049 A 
ATOM     54  H   UNL A   1      42.653  30.321  28.913  1.00  0.00     0.167 HD
ATOM     55  C   UNL A   1      45.194  31.404  28.243  1.00  0.00     0.074 A 
ATOM     56  C   UNL A   1      46.525  31.538  27.689  1.00  0.00     0.031 C 
ATOM     57  C   UNL A   1      44.536  32.391  28.896  1.00  0.00     0.037 A 
BRANCH  44  58
ATOM     58  C   UNL A   1      38.885  30.851  30.831  1.00  0.00     0.064 A 
ATOM     59  C   UNL A   1      38.763  30.705  32.220  1.00  0.00     0.173 A 
ATOM     60  C   UNL A   1      37.833  31.469  30.138  1.00  0.00     0.173 A 
ATOM     61  F   UNL A   1      39.739  30.111  32.923  1.00  0.00    -0.203 F 
ATOM     62  C   UNL A   1      37.630  31.158  32.889  1.00  0.00     0.198 A 
ATOM     63  C   UNL A   1      36.708  31.936  30.813  1.00  0.00     0.198 A 
ATOM     64  F   UNL A   1      37.905  31.635  28.809  1.00  0.00    -0.203 F 
ATOM     65  F   UNL A   1      37.525  30.995  34.216  1.00  0.00    -0.200 F 
ATOM     66  C   UNL A   1      36.608  31.780  32.187  1.00  0.00     0.200 A 
ATOM     67  F   UNL A   1      35.726  32.546  30.134  1.00  0.00    -0.200 F 
ATOM     68  F   UNL A   1      35.524  32.230  32.834  1.00  0.00    -0.200 F 
ENDBRANCH  44  58
BRANCH  45  69
ATOM     69  C   UNL A   1      47.042  27.697  26.007  1.00  0.00     0.064 A 
ATOM     70  C   UNL A   1      47.092  27.764  24.608  1.00  0.00     0.173 A 
ATOM     71  C   UNL A   1      48.170  27.210  26.681  1.00  0.00     0.173 A 
ATOM     72  F   UNL A   1      46.028  28.203  23.921  1.00  0.00    -0.203 F 
ATOM     73  C   UNL A   1      48.227  27.358  23.911  1.00  0.00     0.198 A 
ATOM     74  C   UNL A   1      49.313  26.825  25.986  1.00  0.00     0.198 A 
ATOM     75  F   UNL A   1      48.168  27.127  28.020  1.00  0.00    -0.203 F 
ATOM     76  F   UNL A   1      48.243  27.408  22.573  1.00  0.00    -0.200 F 
ATOM     77  C   UNL A   1      49.339  26.896  24.601  1.00  0.00     0.200 A 
ATOM     78  F   UNL A   1      50.389  26.389  26.655  1.00  0.00    -0.200 F 
ATOM     79  F   UNL A   1      50.436  26.515  23.930  1.00  0.00    -0.200 F 
ENDBRANCH  45  69
BRANCH  57  80
ATOM     80  C   UNL A   1      45.247  33.698  29.059  1.00  0.00     0.064 A 
ATOM     81  C   UNL A   1      45.072  34.739  28.137  1.00  0.00     0.173 A 
ATOM     82  C   UNL A   1      46.066  33.931  30.173  1.00  0.00     0.173 A 
ATOM     83  F   UNL A   1      44.310  34.557  27.048  1.00  0.00    -0.203 F 
ATOM     84  C   UNL A   1      45.702  35.967  28.321  1.00  0.00     0.198 A 
ATOM     85  C   UNL A   1      46.677  35.165  30.365  1.00  0.00     0.198 A 
ATOM     86  F   UNL A   1      46.257  32.964  31.084  1.00  0.00    -0.203 F 
ATOM     87  F   UNL A   1      45.546  36.942  27.414  1.00  0.00    -0.200 F 
ATOM     88  C   UNL A   1      46.498  36.181  29.436  1.00  0.00     0.200 A 
ATOM     89  F   UNL A   1      47.439  35.374  31.447  1.00  0.00    -0.200 F 
ATOM     90  F   UNL A   1      47.097  37.366  29.617  1.00  0.00    -0.200 F 
ENDBRANCH  57  80
ENDBRANCH  31  32
ENDBRANCH  24  26
ENDBRANCH  23  24
ENDBRANCH  22  23
ENDBRANCH   1  22
TORSDOF 14
ENDMDL
