MODEL 1
REMARK VINA RESULT:     -13.1      0.000      0.000
REMARK SMILES Cc1ccc(S(=O)(=O)N(c2ccccc2)[C@H](C)C(=O)OCCOC(=O)c2ccc(-c3c4nc(c(-c5c(F)c(F)c(F)c(F)c5F)c5ccc([nH]5)c(-c5c(F)c(F)c(F)c(F)c5F)c5nc(c(-c6c(F)c(F)c(F)c(F)c6F)c6ccc3[nH]6)C=C5)C=C4)cc2)cc1
REMARK SMILES IDX 21 1 20 2 18 3 19 4 16 5 17 6 9 7 6 8 7 9 8 10 5 11 1 12
REMARK SMILES IDX 2 13 3 14 90 15 4 16 89 17 10 18 11 19 15 20 12 21 14 22
REMARK SMILES IDX 13 23 22 24 23 25 24 26 25 27 26 28 27 29 88 30 28 31 87 32
REMARK SMILES IDX 29 33 30 34 31 35 81 36 32 37 86 38 80 39 82 40 33 41 85 42
REMARK SMILES IDX 79 43 78 44 34 46 66 47 46 48 65 49 47 50 50 51 64 52 83 53
REMARK SMILES IDX 48 54 49 55 63 57 84 58 51 59 35 60 36 61 44 62 37 63 38 64
REMARK SMILES IDX 42 65 45 66 39 67 40 68 43 69 41 70 67 71 68 72 76 73 69 74
REMARK SMILES IDX 70 75 74 76 77 77 71 78 72 79 75 80 73 81 52 82 53 83 61 84
REMARK SMILES IDX 54 85 55 86 59 87 62 88 56 89 57 90 60 91 58 92
REMARK H PARENT 82 45 50 56
REMARK Flexibility Score: inf
ROOT
ATOM      1  C   UNL A   1      33.808  28.233  26.949  1.00  0.00     0.274 C 
ENDROOT
BRANCH   1   2
ATOM      2  O   UNL A   1      33.580  27.078  26.117  1.00  0.00    -0.461 OA
BRANCH   2   3
ATOM      3  C   UNL A   1      32.303  26.644  26.063  1.00  0.00     0.329 C 
ATOM      4  O   UNL A   1      31.410  27.238  26.657  1.00  0.00    -0.250 OA
BRANCH   3   5
ATOM      5  C   UNL A   1      32.004  25.370  25.007  1.00  0.00     0.206 C 
ATOM      6  C   UNL A   1      30.400  24.860  23.558  1.00  0.00     0.045 C 
BRANCH   5   7
ATOM      7  N   UNL A   1      32.757  25.158  24.064  1.00  0.00    -0.252 N 
BRANCH   7   8
ATOM      8  S   UNL A   1      32.878  27.062  22.833  1.00  0.00     0.265 S 
ATOM      9  O   UNL A   1      32.758  26.667  21.435  1.00  0.00    -0.201 OA
ATOM     10  O   UNL A   1      34.023  27.831  23.250  1.00  0.00    -0.201 OA
BRANCH   8  11
ATOM     11  C   UNL A   1      31.221  28.325  23.095  1.00  0.00     0.088 A 
ATOM     12  C   UNL A   1      27.887  31.180  23.502  1.00  0.00     0.044 C 
ATOM     13  C   UNL A   1      28.939  30.108  23.398  1.00  0.00    -0.051 A 
ATOM     14  C   UNL A   1      28.906  28.987  22.545  1.00  0.00     0.005 A 
ATOM     15  C   UNL A   1      30.055  30.246  24.189  1.00  0.00     0.005 A 
ATOM     16  C   UNL A   1      30.031  28.089  22.391  1.00  0.00     0.022 A 
ATOM     17  C   UNL A   1      31.148  29.391  24.015  1.00  0.00     0.022 A 
ENDBRANCH   8  11
ENDBRANCH   7   8
BRANCH   7  18
ATOM     18  C   UNL A   1      34.467  23.951  24.454  1.00  0.00     0.053 A 
ATOM     19  C   UNL A   1      35.288  23.175  23.452  1.00  0.00     0.027 A 
ATOM     20  C   UNL A   1      35.281  23.858  25.734  1.00  0.00     0.027 A 
ATOM     21  C   UNL A   1      36.604  22.676  23.623  1.00  0.00     0.002 A 
ATOM     22  C   UNL A   1      36.593  23.355  25.891  1.00  0.00     0.002 A 
ATOM     23  C   UNL A   1      37.269  22.814  24.823  1.00  0.00     0.000 A 
ENDBRANCH   7  18
ENDBRANCH   5   7
ENDBRANCH   3   5
ENDBRANCH   2   3
ENDBRANCH   1   2
BRANCH   1  24
ATOM     24  C   UNL A   1      33.645  29.720  26.425  1.00  0.00     0.275 C 
BRANCH  24  25
ATOM     25  O   UNL A   1      33.979  30.962  27.182  1.00  0.00    -0.458 OA
BRANCH  25  26
ATOM     26  C   UNL A   1      35.048  31.551  27.818  1.00  0.00     0.338 C 
ATOM     27  O   UNL A   1      35.421  32.690  27.588  1.00  0.00    -0.246 OA
BRANCH  26  28
ATOM     28  C   UNL A   1      35.822  30.707  28.743  1.00  0.00     0.060 A 
ATOM     29  C   UNL A   1      35.946  30.369  30.708  1.00  0.00     0.016 A 
ATOM     30  C   UNL A   1      37.328  29.815  27.892  1.00  0.00     0.016 A 
ATOM     31  C   UNL A   1      37.467  29.404  31.511  1.00  0.00     0.010 A 
ATOM     32  C   UNL A   1      38.919  29.094  28.650  1.00  0.00     0.010 A 
ATOM     33  C   UNL A   1      39.200  28.845  30.568  1.00  0.00    -0.014 A 
BRANCH  33  34
ATOM     34  C   UNL A   1      40.725  29.029  30.433  1.00  0.00     0.031 A 
ATOM     35  C   UNL A   1      41.127  30.221  31.118  1.00  0.00     0.074 A 
ATOM     36  C   UNL A   1      41.706  28.081  30.254  1.00  0.00     0.049 A 
ATOM     37  N   UNL A   1      41.519  31.296  30.527  1.00  0.00    -0.248 NA
ATOM     38  C   UNL A   1      40.767  30.307  32.530  1.00  0.00     0.031 C 
ATOM     39  C   UNL A   1      43.002  28.087  30.945  1.00  0.00     0.029 A 
ATOM     40  N   UNL A   1      41.753  26.846  29.599  1.00  0.00    -0.354 N 
ATOM     41  C   UNL A   1      41.627  32.164  31.574  1.00  0.00     0.074 A 
ATOM     42  C   UNL A   1      40.738  31.629  32.604  1.00  0.00     0.031 C 
ATOM     43  C   UNL A   1      43.756  27.051  30.539  1.00  0.00     0.029 A 
ATOM     44  C   UNL A   1      43.064  26.359  29.471  1.00  0.00     0.049 A 
ATOM     45  H   UNL A   1      40.957  26.373  29.265  1.00  0.00     0.167 HD
ATOM     46  C   UNL A   1      42.849  32.636  31.949  1.00  0.00     0.037 A 
ATOM     47  C   UNL A   1      43.630  26.137  28.244  1.00  0.00     0.037 A 
ATOM     48  C   UNL A   1      43.949  31.819  31.418  1.00  0.00     0.049 A 
ATOM     49  C   UNL A   1      44.402  27.346  27.748  1.00  0.00     0.074 A 
ATOM     50  C   UNL A   1      44.838  30.914  31.981  1.00  0.00     0.029 A 
ATOM     51  N   UNL A   1      44.039  31.588  30.052  1.00  0.00    -0.354 N 
ATOM     52  N   UNL A   1      44.725  28.352  28.515  1.00  0.00    -0.248 NA
ATOM     53  C   UNL A   1      44.817  27.562  26.365  1.00  0.00     0.031 C 
ATOM     54  C   UNL A   1      45.551  30.260  30.929  1.00  0.00     0.029 A 
ATOM     55  C   UNL A   1      45.107  30.774  29.725  1.00  0.00     0.049 A 
ATOM     56  H   UNL A   1      43.412  31.961  29.390  1.00  0.00     0.167 HD
ATOM     57  C   UNL A   1      45.208  29.385  27.762  1.00  0.00     0.074 A 
ATOM     58  C   UNL A   1      45.262  28.831  26.417  1.00  0.00     0.031 C 
ATOM     59  C   UNL A   1      45.462  30.615  28.316  1.00  0.00     0.037 A 
BRANCH  46  60
ATOM     60  C   UNL A   1      42.879  33.550  33.142  1.00  0.00     0.064 A 
ATOM     61  C   UNL A   1      42.617  34.917  33.022  1.00  0.00     0.173 A 
ATOM     62  C   UNL A   1      43.158  33.091  34.458  1.00  0.00     0.173 A 
ATOM     63  F   UNL A   1      42.234  35.448  31.854  1.00  0.00    -0.203 F 
ATOM     64  C   UNL A   1      42.729  35.779  34.112  1.00  0.00     0.198 A 
ATOM     65  C   UNL A   1      43.351  33.961  35.525  1.00  0.00     0.198 A 
ATOM     66  F   UNL A   1      43.266  31.781  34.740  1.00  0.00    -0.203 F 
ATOM     67  F   UNL A   1      42.450  37.079  33.956  1.00  0.00    -0.200 F 
ATOM     68  C   UNL A   1      43.130  35.309  35.352  1.00  0.00     0.200 A 
ATOM     69  F   UNL A   1      43.753  33.483  36.711  1.00  0.00    -0.200 F 
ATOM     70  F   UNL A   1      43.275  36.150  36.383  1.00  0.00    -0.200 F 
ENDBRANCH  46  60
BRANCH  47  71
ATOM     71  C   UNL A   1      42.869  25.150  27.436  1.00  0.00     0.064 A 
ATOM     72  C   UNL A   1      43.099  23.789  27.715  1.00  0.00     0.173 A 
ATOM     73  C   UNL A   1      41.688  25.478  26.768  1.00  0.00     0.173 A 
ATOM     74  F   UNL A   1      44.250  23.408  28.294  1.00  0.00    -0.203 F 
ATOM     75  C   UNL A   1      42.114  22.829  27.503  1.00  0.00     0.198 A 
ATOM     76  C   UNL A   1      40.688  24.522  26.581  1.00  0.00     0.198 A 
ATOM     77  F   UNL A   1      41.474  26.734  26.358  1.00  0.00    -0.203 F 
ATOM     78  F   UNL A   1      42.309  21.568  27.918  1.00  0.00    -0.200 F 
ATOM     79  C   UNL A   1      40.895  23.202  26.967  1.00  0.00     0.200 A 
ATOM     80  F   UNL A   1      39.487  24.898  26.118  1.00  0.00    -0.200 F 
ATOM     81  F   UNL A   1      39.911  22.297  26.866  1.00  0.00    -0.200 F 
ENDBRANCH  47  71
BRANCH  59  82
ATOM     82  C   UNL A   1      45.999  31.823  27.569  1.00  0.00     0.064 A 
ATOM     83  C   UNL A   1      47.313  32.291  27.700  1.00  0.00     0.173 A 
ATOM     84  C   UNL A   1      45.176  32.617  26.728  1.00  0.00     0.173 A 
ATOM     85  F   UNL A   1      48.128  31.813  28.648  1.00  0.00    -0.203 F 
ATOM     86  C   UNL A   1      47.812  33.328  26.907  1.00  0.00     0.198 A 
ATOM     87  C   UNL A   1      45.661  33.675  25.968  1.00  0.00     0.198 A 
ATOM     88  F   UNL A   1      43.856  32.434  26.612  1.00  0.00    -0.203 F 
ATOM     89  F   UNL A   1      49.101  33.681  27.015  1.00  0.00    -0.200 F 
ATOM     90  C   UNL A   1      46.992  34.005  26.024  1.00  0.00     0.200 A 
ATOM     91  F   UNL A   1      44.820  34.366  25.185  1.00  0.00    -0.200 F 
ATOM     92  F   UNL A   1      47.472  34.996  25.263  1.00  0.00    -0.200 F 
ENDBRANCH  59  82
ENDBRANCH  33  34
ENDBRANCH  26  28
ENDBRANCH  25  26
ENDBRANCH  24  25
ENDBRANCH   1  24
TORSDOF 15
ENDMDL
MODEL 2
REMARK VINA RESULT:     -13.1      0.924      4.035
REMARK SMILES Cc1ccc(S(=O)(=O)N(c2ccccc2)[C@H](C)C(=O)OCCOC(=O)c2ccc(-c3c4nc(c(-c5c(F)c(F)c(F)c(F)c5F)c5ccc([nH]5)c(-c5c(F)c(F)c(F)c(F)c5F)c5nc(c(-c6c(F)c(F)c(F)c(F)c6F)c6ccc3[nH]6)C=C5)C=C4)cc2)cc1
REMARK SMILES IDX 21 1 20 2 18 3 19 4 16 5 17 6 9 7 6 8 7 9 8 10 5 11 1 12
REMARK SMILES IDX 2 13 3 14 90 15 4 16 89 17 10 18 11 19 15 20 12 21 14 22
REMARK SMILES IDX 13 23 22 24 23 25 24 26 25 27 26 28 27 29 88 30 28 31 87 32
REMARK SMILES IDX 29 33 30 34 31 35 81 36 32 37 86 38 80 39 82 40 33 41 85 42
REMARK SMILES IDX 79 43 78 44 34 46 66 47 46 48 65 49 47 50 50 51 64 52 83 53
REMARK SMILES IDX 48 54 49 55 63 57 84 58 51 59 35 60 36 61 44 62 37 63 38 64
REMARK SMILES IDX 42 65 45 66 39 67 40 68 43 69 41 70 67 71 68 72 76 73 69 74
REMARK SMILES IDX 70 75 74 76 77 77 71 78 72 79 75 80 73 81 52 82 53 83 61 84
REMARK SMILES IDX 54 85 55 86 59 87 62 88 56 89 57 90 60 91 58 92
REMARK H PARENT 82 45 50 56
REMARK Flexibility Score: inf
ROOT
ATOM      1  C   UNL A   1      31.844  29.364  26.561  1.00  0.00     0.274 C 
ENDROOT
BRANCH   1   2
ATOM      2  O   UNL A   1      32.049  27.939  26.493  1.00  0.00    -0.461 OA
BRANCH   2   3
ATOM      3  C   UNL A   1      33.003  27.530  25.629  1.00  0.00     0.329 C 
ATOM      4  O   UNL A   1      34.048  27.034  26.034  1.00  0.00    -0.250 OA
BRANCH   3   5
ATOM      5  C   UNL A   1      32.591  27.585  24.000  1.00  0.00     0.206 C 
ATOM      6  C   UNL A   1      33.423  26.727  22.128  1.00  0.00     0.045 C 
BRANCH   5   7
ATOM      7  N   UNL A   1      31.536  27.097  23.612  1.00  0.00    -0.252 N 
BRANCH   7   8
ATOM      8  S   UNL A   1      31.434  24.964  24.383  1.00  0.00     0.265 S 
ATOM      9  O   UNL A   1      30.758  24.179  23.358  1.00  0.00    -0.201 OA
ATOM     10  O   UNL A   1      30.912  24.964  25.726  1.00  0.00    -0.201 OA
BRANCH   8  11
ATOM     11  C   UNL A   1      33.314  24.036  24.505  1.00  0.00     0.088 A 
ATOM     12  C   UNL A   1      37.376  22.331  24.664  1.00  0.00     0.044 C 
ATOM     13  C   UNL A   1      35.949  22.811  24.687  1.00  0.00    -0.051 A 
ATOM     14  C   UNL A   1      35.208  23.169  25.832  1.00  0.00     0.005 A 
ATOM     15  C   UNL A   1      35.311  22.941  23.477  1.00  0.00     0.005 A 
ATOM     16  C   UNL A   1      33.895  23.772  25.754  1.00  0.00     0.022 A 
ATOM     17  C   UNL A   1      34.053  23.549  23.408  1.00  0.00     0.022 A 
ENDBRANCH   8  11
ENDBRANCH   7   8
BRANCH   7  18
ATOM     18  C   UNL A   1      29.835  28.378  23.594  1.00  0.00     0.053 A 
ATOM     19  C   UNL A   1      29.824  29.887  23.624  1.00  0.00     0.027 A 
ATOM     20  C   UNL A   1      28.387  28.014  23.308  1.00  0.00     0.027 A 
ATOM     21  C   UNL A   1      28.759  30.746  23.255  1.00  0.00     0.002 A 
ATOM     22  C   UNL A   1      27.333  28.882  22.943  1.00  0.00     0.002 A 
ATOM     23  C   UNL A   1      27.536  30.239  22.866  1.00  0.00     0.000 A 
ENDBRANCH   7  18
ENDBRANCH   5   7
ENDBRANCH   3   5
ENDBRANCH   2   3
ENDBRANCH   1   2
BRANCH   1  24
ATOM     24  C   UNL A   1      33.033  30.411  26.499  1.00  0.00     0.275 C 
BRANCH  24  25
ATOM     25  O   UNL A   1      33.730  31.021  27.668  1.00  0.00    -0.458 OA
BRANCH  25  26
ATOM     26  C   UNL A   1      34.967  31.512  28.018  1.00  0.00     0.338 C 
ATOM     27  O   UNL A   1      35.441  32.534  27.548  1.00  0.00    -0.246 OA
BRANCH  26  28
ATOM     28  C   UNL A   1      35.779  30.690  28.929  1.00  0.00     0.060 A 
ATOM     29  C   UNL A   1      35.991  30.404  30.895  1.00  0.00     0.016 A 
ATOM     30  C   UNL A   1      37.240  29.766  28.035  1.00  0.00     0.016 A 
ATOM     31  C   UNL A   1      37.543  29.452  31.654  1.00  0.00     0.010 A 
ATOM     32  C   UNL A   1      38.861  29.057  28.739  1.00  0.00     0.010 A 
ATOM     33  C   UNL A   1      39.229  28.858  30.648  1.00  0.00    -0.014 A 
BRANCH  33  34
ATOM     34  C   UNL A   1      40.747  29.029  30.439  1.00  0.00     0.031 A 
ATOM     35  C   UNL A   1      41.188  30.228  31.086  1.00  0.00     0.074 A 
ATOM     36  C   UNL A   1      41.712  28.072  30.229  1.00  0.00     0.049 A 
ATOM     37  N   UNL A   1      41.559  31.292  30.461  1.00  0.00    -0.248 NA
ATOM     38  C   UNL A   1      40.896  30.338  32.512  1.00  0.00     0.031 C 
ATOM     39  C   UNL A   1      43.040  28.080  30.858  1.00  0.00     0.029 A 
ATOM     40  N   UNL A   1      41.721  26.828  29.591  1.00  0.00    -0.354 N 
ATOM     41  C   UNL A   1      41.721  32.175  31.488  1.00  0.00     0.074 A 
ATOM     42  C   UNL A   1      40.878  31.662  32.567  1.00  0.00     0.031 C 
ATOM     43  C   UNL A   1      43.767  27.032  30.433  1.00  0.00     0.029 A 
ATOM     44  C   UNL A   1      43.021  26.329  29.409  1.00  0.00     0.049 A 
ATOM     45  H   UNL A   1      40.907  26.354  29.302  1.00  0.00     0.167 HD
ATOM     46  C   UNL A   1      42.962  32.644  31.798  1.00  0.00     0.037 A 
ATOM     47  C   UNL A   1      43.528  26.085  28.160  1.00  0.00     0.037 A 
ATOM     48  C   UNL A   1      44.031  31.812  31.229  1.00  0.00     0.049 A 
ATOM     49  C   UNL A   1      44.282  27.281  27.610  1.00  0.00     0.074 A 
ATOM     50  C   UNL A   1      44.940  30.909  31.763  1.00  0.00     0.029 A 
ATOM     51  N   UNL A   1      44.055  31.559  29.863  1.00  0.00    -0.354 N 
ATOM     52  N   UNL A   1      44.647  28.296  28.345  1.00  0.00    -0.248 NA
ATOM     53  C   UNL A   1      44.633  27.474  26.205  1.00  0.00     0.031 C 
ATOM     54  C   UNL A   1      45.599  30.235  30.689  1.00  0.00     0.029 A 
ATOM     55  C   UNL A   1      45.101  30.734  29.499  1.00  0.00     0.049 A 
ATOM     56  H   UNL A   1      43.400  31.927  29.226  1.00  0.00     0.167 HD
ATOM     57  C   UNL A   1      45.101  29.315  27.554  1.00  0.00     0.074 A 
ATOM     58  C   UNL A   1      45.088  28.740  26.217  1.00  0.00     0.031 C 
ATOM     59  C   UNL A   1      45.388  30.551  28.078  1.00  0.00     0.037 A 
BRANCH  46  60
ATOM     60  C   UNL A   1      43.054  33.576  32.974  1.00  0.00     0.064 A 
ATOM     61  C   UNL A   1      43.336  33.105  34.259  1.00  0.00     0.173 A 
ATOM     62  C   UNL A   1      42.876  34.981  32.860  1.00  0.00     0.173 A 
ATOM     63  F   UNL A   1      43.631  31.817  34.474  1.00  0.00    -0.203 F 
ATOM     64  C   UNL A   1      43.336  33.956  35.364  1.00  0.00     0.198 A 
ATOM     65  C   UNL A   1      42.795  35.814  33.970  1.00  0.00     0.198 A 
ATOM     66  F   UNL A   1      42.763  35.583  31.663  1.00  0.00    -0.203 F 
ATOM     67  F   UNL A   1      43.631  33.465  36.573  1.00  0.00    -0.200 F 
ATOM     68  C   UNL A   1      43.031  35.300  35.226  1.00  0.00     0.200 A 
ATOM     69  F   UNL A   1      42.483  37.109  33.812  1.00  0.00    -0.200 F 
ATOM     70  F   UNL A   1      42.994  36.101  36.297  1.00  0.00    -0.200 F 
ENDBRANCH  46  60
BRANCH  47  71
ATOM     71  C   UNL A   1      42.723  25.092  27.404  1.00  0.00     0.064 A 
ATOM     72  C   UNL A   1      42.959  23.733  27.692  1.00  0.00     0.173 A 
ATOM     73  C   UNL A   1      41.513  25.417  26.789  1.00  0.00     0.173 A 
ATOM     74  F   UNL A   1      44.134  23.353  28.220  1.00  0.00    -0.203 F 
ATOM     75  C   UNL A   1      41.960  22.776  27.541  1.00  0.00     0.198 A 
ATOM     76  C   UNL A   1      40.500  24.464  26.664  1.00  0.00     0.198 A 
ATOM     77  F   UNL A   1      41.286  26.668  26.371  1.00  0.00    -0.203 F 
ATOM     78  F   UNL A   1      42.167  21.520  27.964  1.00  0.00    -0.200 F 
ATOM     79  C   UNL A   1      40.718  23.149  27.059  1.00  0.00     0.200 A 
ATOM     80  F   UNL A   1      39.281  24.842  26.254  1.00  0.00    -0.200 F 
ATOM     81  F   UNL A   1      39.726  22.249  27.019  1.00  0.00    -0.200 F 
ENDBRANCH  47  71
BRANCH  59  82
ATOM     82  C   UNL A   1      45.897  31.744  27.287  1.00  0.00     0.064 A 
ATOM     83  C   UNL A   1      45.075  32.548  26.488  1.00  0.00     0.173 A 
ATOM     84  C   UNL A   1      47.274  32.089  27.244  1.00  0.00     0.173 A 
ATOM     85  F   UNL A   1      43.812  32.196  26.217  1.00  0.00    -0.203 F 
ATOM     86  C   UNL A   1      45.548  33.711  25.872  1.00  0.00     0.198 A 
ATOM     87  C   UNL A   1      47.754  33.223  26.599  1.00  0.00     0.198 A 
ATOM     88  F   UNL A   1      48.233  31.341  27.800  1.00  0.00    -0.203 F 
ATOM     89  F   UNL A   1      44.698  34.489  25.188  1.00  0.00    -0.200 F 
ATOM     90  C   UNL A   1      46.884  34.060  25.947  1.00  0.00     0.200 A 
ATOM     91  F   UNL A   1      49.068  33.487  26.620  1.00  0.00    -0.200 F 
ATOM     92  F   UNL A   1      47.336  35.175  25.361  1.00  0.00    -0.200 F 
ENDBRANCH  59  82
ENDBRANCH  33  34
ENDBRANCH  26  28
ENDBRANCH  25  26
ENDBRANCH  24  25
ENDBRANCH   1  24
TORSDOF 15
ENDMDL
MODEL 3
REMARK VINA RESULT:     -13.0      4.072      8.824
REMARK SMILES Cc1ccc(S(=O)(=O)N(c2ccccc2)[C@H](C)C(=O)OCCOC(=O)c2ccc(-c3c4nc(c(-c5c(F)c(F)c(F)c(F)c5F)c5ccc([nH]5)c(-c5c(F)c(F)c(F)c(F)c5F)c5nc(c(-c6c(F)c(F)c(F)c(F)c6F)c6ccc3[nH]6)C=C5)C=C4)cc2)cc1
REMARK SMILES IDX 21 1 20 2 18 3 19 4 16 5 17 6 9 7 6 8 7 9 8 10 5 11 1 12
REMARK SMILES IDX 2 13 3 14 90 15 4 16 89 17 10 18 11 19 15 20 12 21 14 22
REMARK SMILES IDX 13 23 22 24 23 25 24 26 25 27 26 28 27 29 88 30 28 31 87 32
REMARK SMILES IDX 29 33 30 34 31 35 81 36 32 37 86 38 80 39 82 40 33 41 85 42
REMARK SMILES IDX 79 43 78 44 34 46 66 47 46 48 65 49 47 50 50 51 64 52 83 53
REMARK SMILES IDX 48 54 49 55 63 57 84 58 51 59 35 60 36 61 44 62 37 63 38 64
REMARK SMILES IDX 42 65 45 66 39 67 40 68 43 69 41 70 67 71 68 72 76 73 69 74
REMARK SMILES IDX 70 75 74 76 77 77 71 78 72 79 75 80 73 81 52 82 53 83 61 84
REMARK SMILES IDX 54 85 55 86 59 87 62 88 56 89 57 90 60 91 58 92
REMARK H PARENT 82 45 50 56
REMARK Flexibility Score: inf
ROOT
ATOM      1  C   UNL A   1      36.309  21.792  25.467  1.00  0.00     0.274 C 
ENDROOT
BRANCH   1   2
ATOM      2  O   UNL A   1      35.281  21.730  26.476  1.00  0.00    -0.461 OA
BRANCH   2   3
ATOM      3  C   UNL A   1      34.448  22.791  26.522  1.00  0.00     0.329 C 
ATOM      4  O   UNL A   1      33.943  23.149  27.580  1.00  0.00    -0.250 OA
BRANCH   3   5
ATOM      5  C   UNL A   1      34.296  23.669  25.096  1.00  0.00     0.206 C 
ATOM      6  C   UNL A   1      34.322  23.183  22.929  1.00  0.00     0.045 C 
BRANCH   5   7
ATOM      7  N   UNL A   1      33.247  24.243  24.832  1.00  0.00    -0.252 N 
BRANCH   7   8
ATOM      8  S   UNL A   1      31.588  22.694  24.843  1.00  0.00     0.265 S 
ATOM      9  O   UNL A   1      30.721  22.998  23.710  1.00  0.00    -0.201 OA
ATOM     10  O   UNL A   1      31.016  22.612  26.163  1.00  0.00    -0.201 OA
BRANCH   8  11
ATOM     11  C   UNL A   1      32.260  20.755  24.396  1.00  0.00     0.088 A 
ATOM     12  C   UNL A   1      33.445  16.585  23.598  1.00  0.00     0.044 C 
ATOM     13  C   UNL A   1      33.127  18.046  23.775  1.00  0.00    -0.051 A 
ATOM     14  C   UNL A   1      32.609  18.911  22.790  1.00  0.00     0.005 A 
ATOM     15  C   UNL A   1      33.334  18.587  25.021  1.00  0.00     0.005 A 
ATOM     16  C   UNL A   1      32.182  20.262  23.085  1.00  0.00     0.022 A 
ATOM     17  C   UNL A   1      32.893  19.884  25.305  1.00  0.00     0.022 A 
ENDBRANCH   8  11
ENDBRANCH   7   8
BRANCH   7  18
ATOM     18  C   UNL A   1      32.984  26.189  25.653  1.00  0.00     0.053 A 
ATOM     19  C   UNL A   1      31.833  26.680  26.498  1.00  0.00     0.027 A 
ATOM     20  C   UNL A   1      33.998  27.320  25.737  1.00  0.00     0.027 A 
ATOM     21  C   UNL A   1      31.810  27.822  27.337  1.00  0.00     0.002 A 
ATOM     22  C   UNL A   1      33.960  28.455  26.578  1.00  0.00     0.002 A 
ATOM     23  C   UNL A   1      32.891  28.674  27.413  1.00  0.00     0.000 A 
ENDBRANCH   7  18
ENDBRANCH   5   7
ENDBRANCH   3   5
ENDBRANCH   2   3
ENDBRANCH   1   2
BRANCH   1  24
ATOM     24  C   UNL A   1      37.752  22.389  25.742  1.00  0.00     0.275 C 
BRANCH  24  25
ATOM     25  O   UNL A   1      38.905  21.660  26.346  1.00  0.00    -0.458 OA
BRANCH  25  26
ATOM     26  C   UNL A   1      40.105  21.918  26.968  1.00  0.00     0.338 C 
ATOM     27  O   UNL A   1      40.627  21.155  27.764  1.00  0.00    -0.246 OA
BRANCH  26  28
ATOM     28  C   UNL A   1      40.717  23.233  26.717  1.00  0.00     0.060 A 
ATOM     29  C   UNL A   1      42.263  23.994  25.706  1.00  0.00     0.016 A 
ATOM     30  C   UNL A   1      40.000  24.643  27.851  1.00  0.00     0.016 A 
ATOM     31  C   UNL A   1      42.920  25.827  26.018  1.00  0.00     0.010 A 
ATOM     32  C   UNL A   1      40.749  26.322  28.348  1.00  0.00     0.010 A 
ATOM     33  C   UNL A   1      42.338  27.098  27.518  1.00  0.00    -0.014 A 
BRANCH  33  34
ATOM     34  C   UNL A   1      42.723  27.850  28.808  1.00  0.00     0.031 A 
ATOM     35  C   UNL A   1      44.035  27.452  29.222  1.00  0.00     0.074 A 
ATOM     36  C   UNL A   1      42.298  29.077  29.263  1.00  0.00     0.049 A 
ATOM     37  N   UNL A   1      44.275  26.722  30.255  1.00  0.00    -0.248 NA
ATOM     38  C   UNL A   1      45.102  27.626  28.241  1.00  0.00     0.031 C 
ATOM     39  C   UNL A   1      43.174  30.085  29.876  1.00  0.00     0.029 A 
ATOM     40  N   UNL A   1      41.099  29.789  29.154  1.00  0.00    -0.354 N 
ATOM     41  C   UNL A   1      45.616  26.496  30.129  1.00  0.00     0.074 A 
ATOM     42  C   UNL A   1      45.899  26.674  28.705  1.00  0.00     0.031 C 
ATOM     43  C   UNL A   1      42.462  31.164  30.244  1.00  0.00     0.029 A 
ATOM     44  C   UNL A   1      41.057  30.899  30.013  1.00  0.00     0.049 A 
ATOM     45  H   UNL A   1      40.368  29.540  28.544  1.00  0.00     0.167 HD
ATOM     46  C   UNL A   1      46.486  27.018  31.036  1.00  0.00     0.037 A 
ATOM     47  C   UNL A   1      40.111  31.010  30.997  1.00  0.00     0.037 A 
ATOM     48  C   UNL A   1      45.889  28.109  31.819  1.00  0.00     0.049 A 
ATOM     49  C   UNL A   1      40.598  30.443  32.318  1.00  0.00     0.074 A 
ATOM     50  C   UNL A   1      46.047  29.488  31.831  1.00  0.00     0.029 A 
ATOM     51  N   UNL A   1      44.707  27.891  32.515  1.00  0.00    -0.354 N 
ATOM     52  N   UNL A   1      41.850  30.158  32.556  1.00  0.00    -0.248 NA
ATOM     53  C   UNL A   1      39.738  30.093  33.445  1.00  0.00     0.031 C 
ATOM     54  C   UNL A   1      45.033  30.057  32.662  1.00  0.00     0.029 A 
ATOM     55  C   UNL A   1      44.263  29.025  33.166  1.00  0.00     0.049 A 
ATOM     56  H   UNL A   1      44.237  27.025  32.541  1.00  0.00     0.167 HD
ATOM     57  C   UNL A   1      41.963  29.460  33.726  1.00  0.00     0.074 A 
ATOM     58  C   UNL A   1      40.607  29.461  34.256  1.00  0.00     0.031 C 
ATOM     59  C   UNL A   1      43.156  28.903  34.113  1.00  0.00     0.037 A 
BRANCH  46  60
ATOM     60  C   UNL A   1      47.947  26.759  30.793  1.00  0.00     0.064 A 
ATOM     61  C   UNL A   1      48.705  27.580  29.954  1.00  0.00     0.173 A 
ATOM     62  C   UNL A   1      48.651  25.685  31.400  1.00  0.00     0.173 A 
ATOM     63  F   UNL A   1      48.181  28.686  29.412  1.00  0.00    -0.203 F 
ATOM     64  C   UNL A   1      50.037  27.290  29.660  1.00  0.00     0.198 A 
ATOM     65  C   UNL A   1      49.952  25.349  31.043  1.00  0.00     0.198 A 
ATOM     66  F   UNL A   1      48.087  24.919  32.352  1.00  0.00    -0.203 F 
ATOM     67  F   UNL A   1      50.731  28.116  28.867  1.00  0.00    -0.200 F 
ATOM     68  C   UNL A   1      50.649  26.158  30.174  1.00  0.00     0.200 A 
ATOM     69  F   UNL A   1      50.517  24.240  31.543  1.00  0.00    -0.200 F 
ATOM     70  F   UNL A   1      51.915  25.867  29.854  1.00  0.00    -0.200 F 
ENDBRANCH  46  60
BRANCH  47  71
ATOM     71  C   UNL A   1      38.727  31.000  30.460  1.00  0.00     0.064 A 
ATOM     72  C   UNL A   1      38.241  32.215  29.937  1.00  0.00     0.173 A 
ATOM     73  C   UNL A   1      38.084  29.827  30.061  1.00  0.00     0.173 A 
ATOM     74  F   UNL A   1      38.776  33.380  30.339  1.00  0.00    -0.203 F 
ATOM     75  C   UNL A   1      37.283  32.239  28.928  1.00  0.00     0.198 A 
ATOM     76  C   UNL A   1      37.143  29.847  29.029  1.00  0.00     0.198 A 
ATOM     77  F   UNL A   1      38.411  28.657  30.622  1.00  0.00    -0.203 F 
ATOM     78  F   UNL A   1      36.951  33.402  28.348  1.00  0.00    -0.200 F 
ATOM     79  C   UNL A   1      36.759  31.052  28.450  1.00  0.00     0.200 A 
ATOM     80  F   UNL A   1      36.684  28.692  28.527  1.00  0.00    -0.200 F 
ATOM     81  F   UNL A   1      35.921  31.071  27.404  1.00  0.00    -0.200 F 
ENDBRANCH  47  71
BRANCH  59  82
ATOM     82  C   UNL A   1      43.385  28.113  35.390  1.00  0.00     0.064 A 
ATOM     83  C   UNL A   1      42.770  26.883  35.658  1.00  0.00     0.173 A 
ATOM     84  C   UNL A   1      44.192  28.607  36.448  1.00  0.00     0.173 A 
ATOM     85  F   UNL A   1      41.785  26.416  34.882  1.00  0.00    -0.203 F 
ATOM     86  C   UNL A   1      43.096  26.123  36.785  1.00  0.00     0.198 A 
ATOM     87  C   UNL A   1      44.486  27.870  37.589  1.00  0.00     0.198 A 
ATOM     88  F   UNL A   1      44.721  29.836  36.452  1.00  0.00    -0.203 F 
ATOM     89  F   UNL A   1      42.541  24.914  36.950  1.00  0.00    -0.200 F 
ATOM     90  C   UNL A   1      43.972  26.607  37.739  1.00  0.00     0.200 A 
ATOM     91  F   UNL A   1      45.272  28.404  38.535  1.00  0.00    -0.200 F 
ATOM     92  F   UNL A   1      44.286  25.877  38.816  1.00  0.00    -0.200 F 
ENDBRANCH  59  82
ENDBRANCH  33  34
ENDBRANCH  26  28
ENDBRANCH  25  26
ENDBRANCH  24  25
ENDBRANCH   1  24
TORSDOF 15
ENDMDL
