MODEL 1
REMARK VINA RESULT:     -11.7      0.000      0.000
REMARK SMILES O=C(Cc1ccc(NC(=O)C2CCCC2)cc1)OCCOC(=O)c1ccc(-c2c3nc(c(-c4c(F)c(F)c(F)c(F)c4F)c4ccc([nH]4)c(-c4c(F)c(F)c(F)c(F)c4F)c4nc(c(-c5c(F)c(F)c(F)c(F)c5F)c5ccc2[nH]5)C=C4)C=C3)cc1
REMARK SMILES IDX 19 1 18 2 2 3 1 4 3 5 4 6 5 7 17 8 6 9 16 10 7 11 8 12 9 13
REMARK SMILES IDX 10 15 11 16 12 17 15 18 13 19 14 20 20 21 21 22 22 23 23 24
REMARK SMILES IDX 24 25 25 26 86 27 26 28 85 29 27 30 28 31 29 32 79 33 30 34
REMARK SMILES IDX 84 35 78 36 80 37 31 38 83 39 77 40 76 41 32 43 64 44 44 45
REMARK SMILES IDX 63 46 45 47 48 48 62 49 81 50 46 51 47 52 61 54 82 55 49 56
REMARK SMILES IDX 33 57 34 58 42 59 35 60 36 61 40 62 43 63 37 64 38 65 41 66
REMARK SMILES IDX 39 67 65 68 66 69 74 70 67 71 68 72 72 73 75 74 69 75 70 76
REMARK SMILES IDX 73 77 71 78 50 79 51 80 59 81 52 82 53 83 57 84 60 85 54 86
REMARK SMILES IDX 55 87 58 88 56 89
REMARK H PARENT 8 14 80 42 48 53
REMARK Flexibility Score: inf
ROOT
ATOM      1  C   UNL A   1      43.096  20.238  25.758  1.00  0.00     0.274 C 
ENDROOT
BRANCH   1   2
ATOM      2  O   UNL A   1      41.734  20.718  25.734  1.00  0.00    -0.462 OA
BRANCH   2   3
ATOM      3  C   UNL A   1      40.923  20.876  26.804  1.00  0.00     0.310 C 
ATOM      4  O   UNL A   1      40.777  19.956  27.608  1.00  0.00    -0.252 OA
BRANCH   3   5
ATOM      5  C   UNL A   1      40.138  22.149  26.958  1.00  0.00     0.158 C 
BRANCH   5   6
ATOM      6  C   UNL A   1      38.861  22.280  26.180  1.00  0.00    -0.037 A 
ATOM      7  C   UNL A   1      38.191  23.509  26.168  1.00  0.00     0.006 A 
ATOM      8  C   UNL A   1      38.365  21.235  25.403  1.00  0.00     0.006 A 
ATOM      9  C   UNL A   1      37.073  23.703  25.357  1.00  0.00     0.026 A 
ATOM     10  C   UNL A   1      37.265  21.449  24.566  1.00  0.00     0.026 A 
ATOM     11  C   UNL A   1      36.655  22.709  24.483  1.00  0.00     0.041 A 
BRANCH  11  12
ATOM     12  N   UNL A   1      35.685  22.874  23.483  1.00  0.00    -0.326 N 
ATOM     13  C   UNL A   1      34.320  22.892  23.475  1.00  0.00     0.227 C 
ATOM     14  H   UNL A   1      36.075  23.005  22.588  1.00  0.00     0.169 HD
ATOM     15  O   UNL A   1      33.777  23.047  22.376  1.00  0.00    -0.274 OA
BRANCH  13  16
ATOM     16  C   UNL A   1      33.487  22.741  24.741  1.00  0.00     0.079 C 
ATOM     17  C   UNL A   1      33.286  24.026  25.546  1.00  0.00     0.013 C 
ATOM     18  C   UNL A   1      32.029  22.361  24.456  1.00  0.00     0.013 C 
ATOM     19  C   UNL A   1      32.174  23.650  26.519  1.00  0.00     0.001 C 
ATOM     20  C   UNL A   1      31.283  22.678  25.751  1.00  0.00     0.001 C 
ENDBRANCH  13  16
ENDBRANCH  11  12
ENDBRANCH   5   6
ENDBRANCH   3   5
ENDBRANCH   2   3
ENDBRANCH   1   2
BRANCH   1  21
ATOM     21  C   UNL A   1      44.094  21.319  25.345  1.00  0.00     0.275 C 
BRANCH  21  22
ATOM     22  O   UNL A   1      43.976  22.474  26.196  1.00  0.00    -0.458 OA
BRANCH  22  23
ATOM     23  C   UNL A   1      43.924  23.674  25.568  1.00  0.00     0.338 C 
ATOM     24  O   UNL A   1      44.155  23.901  24.395  1.00  0.00    -0.246 OA
BRANCH  23  25
ATOM     25  C   UNL A   1      43.337  24.665  26.497  1.00  0.00     0.060 A 
ATOM     26  C   UNL A   1      43.759  25.999  26.395  1.00  0.00     0.016 A 
ATOM     27  C   UNL A   1      42.354  24.303  27.423  1.00  0.00     0.016 A 
ATOM     28  C   UNL A   1      43.206  26.972  27.228  1.00  0.00     0.010 A 
ATOM     29  C   UNL A   1      41.815  25.273  28.267  1.00  0.00     0.010 A 
ATOM     30  C   UNL A   1      42.251  26.607  28.187  1.00  0.00    -0.014 A 
BRANCH  30  31
ATOM     31  C   UNL A   1      41.824  27.563  29.231  1.00  0.00     0.031 A 
ATOM     32  C   UNL A   1      42.545  27.547  30.547  1.00  0.00     0.074 A 
ATOM     33  C   UNL A   1      40.775  28.380  29.042  1.00  0.00     0.049 A 
ATOM     34  N   UNL A   1      42.272  28.184  31.655  1.00  0.00    -0.248 NA
ATOM     35  C   UNL A   1      43.729  26.677  30.624  1.00  0.00     0.031 C 
ATOM     36  C   UNL A   1      40.010  28.501  27.804  1.00  0.00     0.029 A 
ATOM     37  N   UNL A   1      40.154  29.242  29.912  1.00  0.00    -0.354 N 
ATOM     38  C   UNL A   1      43.242  27.786  32.563  1.00  0.00     0.074 A 
ATOM     39  C   UNL A   1      44.097  26.835  31.885  1.00  0.00     0.031 C 
ATOM     40  C   UNL A   1      38.996  29.363  28.003  1.00  0.00     0.029 A 
ATOM     41  C   UNL A   1      39.028  29.828  29.390  1.00  0.00     0.049 A 
ATOM     42  H   UNL A   1      40.485  29.423  30.821  1.00  0.00     0.167 HD
ATOM     43  C   UNL A   1      43.404  28.175  33.849  1.00  0.00     0.037 A 
ATOM     44  C   UNL A   1      38.112  30.621  29.979  1.00  0.00     0.037 A 
ATOM     45  C   UNL A   1      42.545  29.107  34.526  1.00  0.00     0.049 A 
ATOM     46  C   UNL A   1      38.279  31.002  31.428  1.00  0.00     0.074 A 
ATOM     47  C   UNL A   1      42.640  29.587  35.820  1.00  0.00     0.029 A 
ATOM     48  N   UNL A   1      41.420  29.691  33.962  1.00  0.00    -0.354 N 
ATOM     49  N   UNL A   1      39.220  30.655  32.272  1.00  0.00    -0.248 NA
ATOM     50  C   UNL A   1      37.254  31.884  32.007  1.00  0.00     0.031 C 
ATOM     51  C   UNL A   1      41.543  30.424  36.054  1.00  0.00     0.029 A 
ATOM     52  C   UNL A   1      40.793  30.504  34.891  1.00  0.00     0.049 A 
ATOM     53  H   UNL A   1      41.112  29.546  33.038  1.00  0.00     0.167 HD
ATOM     54  C   UNL A   1      38.920  31.295  33.468  1.00  0.00     0.074 A 
ATOM     55  C   UNL A   1      37.708  32.054  33.241  1.00  0.00     0.031 C 
ATOM     56  C   UNL A   1      39.592  31.262  34.644  1.00  0.00     0.037 A 
BRANCH  43  57
ATOM     57  C   UNL A   1      44.535  27.552  34.610  1.00  0.00     0.064 A 
ATOM     58  C   UNL A   1      44.372  26.355  35.324  1.00  0.00     0.173 A 
ATOM     59  C   UNL A   1      45.794  28.169  34.640  1.00  0.00     0.173 A 
ATOM     60  F   UNL A   1      43.181  25.738  35.343  1.00  0.00    -0.203 F 
ATOM     61  C   UNL A   1      45.417  25.819  36.070  1.00  0.00     0.198 A 
ATOM     62  C   UNL A   1      46.845  27.617  35.365  1.00  0.00     0.198 A 
ATOM     63  F   UNL A   1      46.000  29.316  33.975  1.00  0.00    -0.203 F 
ATOM     64  F   UNL A   1      45.221  24.709  36.795  1.00  0.00    -0.200 F 
ATOM     65  C   UNL A   1      46.653  26.449  36.088  1.00  0.00     0.200 A 
ATOM     66  F   UNL A   1      48.040  28.222  35.377  1.00  0.00    -0.200 F 
ATOM     67  F   UNL A   1      47.657  25.937  36.814  1.00  0.00    -0.200 F 
ENDBRANCH  43  57
BRANCH  44  68
ATOM     68  C   UNL A   1      36.943  31.096  29.195  1.00  0.00     0.064 A 
ATOM     69  C   UNL A   1      35.879  30.235  28.893  1.00  0.00     0.173 A 
ATOM     70  C   UNL A   1      36.862  32.421  28.744  1.00  0.00     0.173 A 
ATOM     71  F   UNL A   1      35.924  28.953  29.282  1.00  0.00    -0.203 F 
ATOM     72  C   UNL A   1      34.781  30.681  28.159  1.00  0.00     0.198 A 
ATOM     73  C   UNL A   1      35.753  32.872  28.031  1.00  0.00     0.198 A 
ATOM     74  F   UNL A   1      37.855  33.282  29.008  1.00  0.00    -0.203 F 
ATOM     75  F   UNL A   1      33.791  29.830  27.855  1.00  0.00    -0.200 F 
ATOM     76  C   UNL A   1      34.715  32.000  27.736  1.00  0.00     0.200 A 
ATOM     77  F   UNL A   1      35.689  34.149  27.633  1.00  0.00    -0.200 F 
ATOM     78  F   UNL A   1      33.655  32.429  27.038  1.00  0.00    -0.200 F 
ENDBRANCH  44  68
BRANCH  56  79
ATOM     79  C   UNL A   1      39.064  32.096  35.775  1.00  0.00     0.064 A 
ATOM     80  C   UNL A   1      38.214  31.559  36.751  1.00  0.00     0.173 A 
ATOM     81  C   UNL A   1      39.481  33.428  35.924  1.00  0.00     0.173 A 
ATOM     82  F   UNL A   1      37.779  30.295  36.646  1.00  0.00    -0.203 F 
ATOM     83  C   UNL A   1      37.793  32.328  37.833  1.00  0.00     0.198 A 
ATOM     84  C   UNL A   1      39.078  34.187  37.020  1.00  0.00     0.198 A 
ATOM     85  F   UNL A   1      40.300  33.985  35.020  1.00  0.00    -0.203 F 
ATOM     86  F   UNL A   1      36.959  31.805  38.742  1.00  0.00    -0.200 F 
ATOM     87  C   UNL A   1      38.233  33.637  37.972  1.00  0.00     0.200 A 
ATOM     88  F   UNL A   1      39.515  35.446  37.158  1.00  0.00    -0.200 F 
ATOM     89  F   UNL A   1      37.839  34.371  39.023  1.00  0.00    -0.200 F 
ENDBRANCH  56  79
ENDBRANCH  30  31
ENDBRANCH  23  25
ENDBRANCH  22  23
ENDBRANCH  21  22
ENDBRANCH   1  21
TORSDOF 14
ENDMDL
MODEL 2
REMARK VINA RESULT:     -11.7      0.428      2.026
REMARK SMILES O=C(Cc1ccc(NC(=O)C2CCCC2)cc1)OCCOC(=O)c1ccc(-c2c3nc(c(-c4c(F)c(F)c(F)c(F)c4F)c4ccc([nH]4)c(-c4c(F)c(F)c(F)c(F)c4F)c4nc(c(-c5c(F)c(F)c(F)c(F)c5F)c5ccc2[nH]5)C=C4)C=C3)cc1
REMARK SMILES IDX 19 1 18 2 2 3 1 4 3 5 4 6 5 7 17 8 6 9 16 10 7 11 8 12 9 13
REMARK SMILES IDX 10 15 11 16 12 17 15 18 13 19 14 20 20 21 21 22 22 23 23 24
REMARK SMILES IDX 24 25 25 26 86 27 26 28 85 29 27 30 28 31 29 32 79 33 30 34
REMARK SMILES IDX 84 35 78 36 80 37 31 38 83 39 77 40 76 41 32 43 64 44 44 45
REMARK SMILES IDX 63 46 45 47 48 48 62 49 81 50 46 51 47 52 61 54 82 55 49 56
REMARK SMILES IDX 33 57 34 58 42 59 35 60 36 61 40 62 43 63 37 64 38 65 41 66
REMARK SMILES IDX 39 67 65 68 66 69 74 70 67 71 68 72 72 73 75 74 69 75 70 76
REMARK SMILES IDX 73 77 71 78 50 79 51 80 59 81 52 82 53 83 57 84 60 85 54 86
REMARK SMILES IDX 55 87 58 88 56 89
REMARK H PARENT 8 14 80 42 48 53
REMARK Flexibility Score: inf
ROOT
ATOM      1  C   UNL A   1      43.080  20.711  25.741  1.00  0.00     0.274 C 
ENDROOT
BRANCH   1   2
ATOM      2  O   UNL A   1      41.647  20.894  25.749  1.00  0.00    -0.462 OA
BRANCH   2   3
ATOM      3  C   UNL A   1      40.857  20.975  26.843  1.00  0.00     0.310 C 
ATOM      4  O   UNL A   1      40.780  20.023  27.619  1.00  0.00    -0.252 OA
BRANCH   3   5
ATOM      5  C   UNL A   1      40.012  22.199  27.058  1.00  0.00     0.158 C 
BRANCH   5   6
ATOM      6  C   UNL A   1      38.786  22.360  26.207  1.00  0.00    -0.037 A 
ATOM      7  C   UNL A   1      38.120  23.591  26.191  1.00  0.00     0.006 A 
ATOM      8  C   UNL A   1      38.337  21.341  25.368  1.00  0.00     0.006 A 
ATOM      9  C   UNL A   1      37.056  23.815  25.319  1.00  0.00     0.026 A 
ATOM     10  C   UNL A   1      37.291  21.586  24.472  1.00  0.00     0.026 A 
ATOM     11  C   UNL A   1      36.691  22.850  24.390  1.00  0.00     0.041 A 
BRANCH  11  12
ATOM     12  N   UNL A   1      35.786  23.050  23.337  1.00  0.00    -0.326 N 
ATOM     13  C   UNL A   1      34.424  23.039  23.238  1.00  0.00     0.227 C 
ATOM     14  H   UNL A   1      36.230  23.240  22.479  1.00  0.00     0.169 HD
ATOM     15  O   UNL A   1      33.952  23.244  22.115  1.00  0.00    -0.274 OA
BRANCH  13  16
ATOM     16  C   UNL A   1      33.514  22.799  24.434  1.00  0.00     0.079 C 
ATOM     17  C   UNL A   1      33.365  23.985  25.389  1.00  0.00     0.013 C 
ATOM     18  C   UNL A   1      32.049  22.578  24.036  1.00  0.00     0.013 C 
ATOM     19  C   UNL A   1      32.176  23.582  26.253  1.00  0.00     0.001 C 
ATOM     20  C   UNL A   1      31.258  22.790  25.326  1.00  0.00     0.001 C 
ENDBRANCH  13  16
ENDBRANCH  11  12
ENDBRANCH   5   6
ENDBRANCH   3   5
ENDBRANCH   2   3
ENDBRANCH   1   2
BRANCH   1  21
ATOM     21  C   UNL A   1      43.806  21.890  25.095  1.00  0.00     0.275 C 
BRANCH  21  22
ATOM     22  O   UNL A   1      43.050  23.105  25.257  1.00  0.00    -0.458 OA
BRANCH  22  23
ATOM     23  C   UNL A   1      43.764  24.257  25.235  1.00  0.00     0.338 C 
ATOM     24  O   UNL A   1      44.620  24.578  24.430  1.00  0.00    -0.246 OA
BRANCH  23  25
ATOM     25  C   UNL A   1      43.198  25.180  26.244  1.00  0.00     0.060 A 
ATOM     26  C   UNL A   1      43.552  26.535  26.174  1.00  0.00     0.016 A 
ATOM     27  C   UNL A   1      42.299  24.733  27.216  1.00  0.00     0.016 A 
ATOM     28  C   UNL A   1      43.014  27.446  27.085  1.00  0.00     0.010 A 
ATOM     29  C   UNL A   1      41.776  25.640  28.136  1.00  0.00     0.010 A 
ATOM     30  C   UNL A   1      42.145  26.996  28.087  1.00  0.00    -0.014 A 
BRANCH  30  31
ATOM     31  C   UNL A   1      41.747  27.886  29.200  1.00  0.00     0.031 A 
ATOM     32  C   UNL A   1      42.482  27.766  30.502  1.00  0.00     0.074 A 
ATOM     33  C   UNL A   1      40.713  28.734  29.079  1.00  0.00     0.049 A 
ATOM     34  N   UNL A   1      42.233  28.331  31.654  1.00  0.00    -0.248 NA
ATOM     35  C   UNL A   1      43.649  26.870  30.506  1.00  0.00     0.031 C 
ATOM     36  C   UNL A   1      39.938  28.954  27.861  1.00  0.00     0.029 A 
ATOM     37  N   UNL A   1      40.119  29.546  30.013  1.00  0.00    -0.354 N 
ATOM     38  C   UNL A   1      43.204  27.852  32.522  1.00  0.00     0.074 A 
ATOM     39  C   UNL A   1      44.033  26.934  31.771  1.00  0.00     0.031 C 
ATOM     40  C   UNL A   1      38.944  29.819  28.130  1.00  0.00     0.029 A 
ATOM     41  C   UNL A   1      39.000  30.188  29.545  1.00  0.00     0.049 A 
ATOM     42  H   UNL A   1      40.462  29.658  30.929  1.00  0.00     0.167 HD
ATOM     43  C   UNL A   1      43.388  28.150  33.830  1.00  0.00     0.037 A 
ATOM     44  C   UNL A   1      38.106  30.956  30.197  1.00  0.00     0.037 A 
ATOM     45  C   UNL A   1      42.554  29.050  34.579  1.00  0.00     0.049 A 
ATOM     46  C   UNL A   1      38.295  31.233  31.667  1.00  0.00     0.074 A 
ATOM     47  C   UNL A   1      42.672  29.437  35.901  1.00  0.00     0.029 A 
ATOM     48  N   UNL A   1      41.435  29.692  34.068  1.00  0.00    -0.354 N 
ATOM     49  N   UNL A   1      39.237  30.812  32.474  1.00  0.00    -0.248 NA
ATOM     50  C   UNL A   1      37.294  32.094  32.317  1.00  0.00     0.031 C 
ATOM     51  C   UNL A   1      41.594  30.278  36.205  1.00  0.00     0.029 A 
ATOM     52  C   UNL A   1      40.834  30.451  35.059  1.00  0.00     0.049 A 
ATOM     53  H   UNL A   1      41.115  29.617  33.141  1.00  0.00     0.167 HD
ATOM     54  C   UNL A   1      38.963  31.374  33.715  1.00  0.00     0.074 A 
ATOM     55  C   UNL A   1      37.764  32.170  33.555  1.00  0.00     0.031 C 
ATOM     56  C   UNL A   1      39.647  31.247  34.878  1.00  0.00     0.037 A 
BRANCH  43  57
ATOM     57  C   UNL A   1      44.513  27.454  34.533  1.00  0.00     0.064 A 
ATOM     58  C   UNL A   1      45.790  28.028  34.629  1.00  0.00     0.173 A 
ATOM     59  C   UNL A   1      44.317  26.187  35.102  1.00  0.00     0.173 A 
ATOM     60  F   UNL A   1      46.032  29.229  34.082  1.00  0.00    -0.203 F 
ATOM     61  C   UNL A   1      46.838  27.344  35.237  1.00  0.00     0.198 A 
ATOM     62  C   UNL A   1      45.360  25.516  35.733  1.00  0.00     0.198 A 
ATOM     63  F   UNL A   1      43.115  25.594  35.034  1.00  0.00    -0.203 F 
ATOM     64  F   UNL A   1      48.064  27.884  35.263  1.00  0.00    -0.200 F 
ATOM     65  C   UNL A   1      46.622  26.090  35.790  1.00  0.00     0.200 A 
ATOM     66  F   UNL A   1      45.149  24.309  36.272  1.00  0.00    -0.200 F 
ATOM     67  F   UNL A   1      47.634  25.428  36.368  1.00  0.00    -0.200 F 
ENDBRANCH  43  57
BRANCH  44  68
ATOM     68  C   UNL A   1      36.938  31.506  29.462  1.00  0.00     0.064 A 
ATOM     69  C   UNL A   1      36.870  32.865  29.127  1.00  0.00     0.173 A 
ATOM     70  C   UNL A   1      35.874  30.682  29.070  1.00  0.00     0.173 A 
ATOM     71  F   UNL A   1      37.853  33.696  29.503  1.00  0.00    -0.203 F 
ATOM     72  C   UNL A   1      35.776  33.381  28.436  1.00  0.00     0.198 A 
ATOM     73  C   UNL A   1      34.791  31.193  28.359  1.00  0.00     0.198 A 
ATOM     74  F   UNL A   1      35.892  29.374  29.368  1.00  0.00    -0.203 F 
ATOM     75  F   UNL A   1      35.720  34.690  28.156  1.00  0.00    -0.200 F 
ATOM     76  C   UNL A   1      34.741  32.544  28.045  1.00  0.00     0.200 A 
ATOM     77  F   UNL A   1      33.798  30.380  27.974  1.00  0.00    -0.200 F 
ATOM     78  F   UNL A   1      33.693  33.039  27.374  1.00  0.00    -0.200 F 
ENDBRANCH  44  68
BRANCH  56  79
ATOM     79  C   UNL A   1      39.146  32.012  36.069  1.00  0.00     0.064 A 
ATOM     80  C   UNL A   1      39.523  33.342  36.301  1.00  0.00     0.173 A 
ATOM     81  C   UNL A   1      38.214  31.429  36.942  1.00  0.00     0.173 A 
ATOM     82  F   UNL A   1      40.419  33.939  35.502  1.00  0.00    -0.203 F 
ATOM     83  C   UNL A   1      38.991  34.059  37.370  1.00  0.00     0.198 A 
ATOM     84  C   UNL A   1      37.666  32.156  37.995  1.00  0.00     0.198 A 
ATOM     85  F   UNL A   1      37.818  30.161  36.758  1.00  0.00    -0.203 F 
ATOM     86  F   UNL A   1      39.384  35.321  37.590  1.00  0.00    -0.200 F 
ATOM     87  C   UNL A   1      38.057  33.470  38.209  1.00  0.00     0.200 A 
ATOM     88  F   UNL A   1      36.754  31.588  38.796  1.00  0.00    -0.200 F 
ATOM     89  F   UNL A   1      37.534  34.167  39.228  1.00  0.00    -0.200 F 
ENDBRANCH  56  79
ENDBRANCH  30  31
ENDBRANCH  23  25
ENDBRANCH  22  23
ENDBRANCH  21  22
ENDBRANCH   1  21
TORSDOF 14
ENDMDL
MODEL 3
REMARK VINA RESULT:     -11.7      5.149     11.083
REMARK SMILES O=C(Cc1ccc(NC(=O)C2CCCC2)cc1)OCCOC(=O)c1ccc(-c2c3nc(c(-c4c(F)c(F)c(F)c(F)c4F)c4ccc([nH]4)c(-c4c(F)c(F)c(F)c(F)c4F)c4nc(c(-c5c(F)c(F)c(F)c(F)c5F)c5ccc2[nH]5)C=C4)C=C3)cc1
REMARK SMILES IDX 19 1 18 2 2 3 1 4 3 5 4 6 5 7 17 8 6 9 16 10 7 11 8 12 9 13
REMARK SMILES IDX 10 15 11 16 12 17 15 18 13 19 14 20 20 21 21 22 22 23 23 24
REMARK SMILES IDX 24 25 25 26 86 27 26 28 85 29 27 30 28 31 29 32 79 33 30 34
REMARK SMILES IDX 84 35 78 36 80 37 31 38 83 39 77 40 76 41 32 43 64 44 44 45
REMARK SMILES IDX 63 46 45 47 48 48 62 49 81 50 46 51 47 52 61 54 82 55 49 56
REMARK SMILES IDX 33 57 34 58 42 59 35 60 36 61 40 62 43 63 37 64 38 65 41 66
REMARK SMILES IDX 39 67 65 68 66 69 74 70 67 71 68 72 72 73 75 74 69 75 70 76
REMARK SMILES IDX 73 77 71 78 50 79 51 80 59 81 52 82 53 83 57 84 60 85 54 86
REMARK SMILES IDX 55 87 58 88 56 89
REMARK H PARENT 8 14 80 42 48 53
REMARK Flexibility Score: inf
ROOT
ATOM      1  C   UNL A   1      33.349  34.262  28.285  1.00  0.00     0.274 C 
ENDROOT
BRANCH   1   2
ATOM      2  O   UNL A   1      33.235  34.285  29.724  1.00  0.00    -0.462 OA
BRANCH   2   3
ATOM      3  C   UNL A   1      34.226  34.567  30.600  1.00  0.00     0.310 C 
ATOM      4  O   UNL A   1      33.999  35.275  31.581  1.00  0.00    -0.252 OA
BRANCH   3   5
ATOM      5  C   UNL A   1      35.621  34.079  30.323  1.00  0.00     0.158 C 
BRANCH   5   6
ATOM      6  C   UNL A   1      36.310  33.289  31.398  1.00  0.00    -0.037 A 
ATOM      7  C   UNL A   1      37.392  33.859  32.079  1.00  0.00     0.006 A 
ATOM      8  C   UNL A   1      35.851  32.034  31.794  1.00  0.00     0.006 A 
ATOM      9  C   UNL A   1      37.974  33.207  33.164  1.00  0.00     0.026 A 
ATOM     10  C   UNL A   1      36.418  31.403  32.906  1.00  0.00     0.026 A 
ATOM     11  C   UNL A   1      37.437  32.020  33.645  1.00  0.00     0.041 A 
BRANCH  11  12
ATOM     12  N   UNL A   1      37.808  31.398  34.847  1.00  0.00    -0.326 N 
ATOM     13  C   UNL A   1      38.803  30.534  35.202  1.00  0.00     0.227 C 
ATOM     14  H   UNL A   1      37.221  31.638  35.600  1.00  0.00     0.169 HD
ATOM     15  O   UNL A   1      38.818  30.166  36.382  1.00  0.00    -0.274 OA
BRANCH  13  16
ATOM     16  C   UNL A   1      39.855  30.039  34.219  1.00  0.00     0.079 C 
ATOM     17  C   UNL A   1      41.077  29.373  34.853  1.00  0.00     0.013 C 
ATOM     18  C   UNL A   1      39.350  28.900  33.325  1.00  0.00     0.013 C 
ATOM     19  C   UNL A   1      41.755  28.700  33.666  1.00  0.00     0.001 C 
ATOM     20  C   UNL A   1      40.616  28.269  32.746  1.00  0.00     0.001 C 
ENDBRANCH  13  16
ENDBRANCH  11  12
ENDBRANCH   5   6
ENDBRANCH   3   5
ENDBRANCH   2   3
ENDBRANCH   1   2
BRANCH   1  21
ATOM     21  C   UNL A   1      33.136  32.859  27.715  1.00  0.00     0.275 C 
BRANCH  21  22
ATOM     22  O   UNL A   1      34.381  32.140  27.654  1.00  0.00    -0.458 OA
BRANCH  22  23
ATOM     23  C   UNL A   1      34.307  30.802  27.863  1.00  0.00     0.338 C 
ATOM     24  O   UNL A   1      33.341  30.082  27.686  1.00  0.00    -0.246 OA
BRANCH  23  25
ATOM     25  C   UNL A   1      35.666  30.297  28.159  1.00  0.00     0.060 A 
ATOM     26  C   UNL A   1      35.900  29.728  29.419  1.00  0.00     0.016 A 
ATOM     27  C   UNL A   1      36.683  30.338  27.201  1.00  0.00     0.016 A 
ATOM     28  C   UNL A   1      37.158  29.207  29.728  1.00  0.00     0.010 A 
ATOM     29  C   UNL A   1      37.944  29.834  27.518  1.00  0.00     0.010 A 
ATOM     30  C   UNL A   1      38.192  29.285  28.787  1.00  0.00    -0.014 A 
BRANCH  30  31
ATOM     31  C   UNL A   1      39.585  28.959  29.165  1.00  0.00     0.031 A 
ATOM     32  C   UNL A   1      40.386  30.001  29.889  1.00  0.00     0.074 A 
ATOM     33  C   UNL A   1      40.148  27.791  28.814  1.00  0.00     0.049 A 
ATOM     34  N   UNL A   1      41.655  30.007  30.203  1.00  0.00    -0.248 NA
ATOM     35  C   UNL A   1      39.655  31.209  30.299  1.00  0.00     0.031 C 
ATOM     36  C   UNL A   1      39.467  26.696  28.129  1.00  0.00     0.029 A 
ATOM     37  N   UNL A   1      41.440  27.351  28.961  1.00  0.00    -0.354 N 
ATOM     38  C   UNL A   1      41.876  31.220  30.838  1.00  0.00     0.074 A 
ATOM     39  C   UNL A   1      40.618  31.934  30.845  1.00  0.00     0.031 C 
ATOM     40  C   UNL A   1      40.357  25.718  27.883  1.00  0.00     0.029 A 
ATOM     41  C   UNL A   1      41.673  26.136  28.367  1.00  0.00     0.049 A 
ATOM     42  H   UNL A   1      42.132  27.856  29.447  1.00  0.00     0.167 HD
ATOM     43  C   UNL A   1      43.028  31.699  31.365  1.00  0.00     0.037 A 
ATOM     44  C   UNL A   1      42.827  25.458  28.205  1.00  0.00     0.037 A 
ATOM     45  C   UNL A   1      44.281  30.995  31.343  1.00  0.00     0.049 A 
ATOM     46  C   UNL A   1      44.110  26.031  28.751  1.00  0.00     0.074 A 
ATOM     47  C   UNL A   1      45.498  31.382  31.874  1.00  0.00     0.029 A 
ATOM     48  N   UNL A   1      44.477  29.760  30.743  1.00  0.00    -0.354 N 
ATOM     49  N   UNL A   1      44.307  27.160  29.387  1.00  0.00    -0.248 NA
ATOM     50  C   UNL A   1      45.331  25.234  28.557  1.00  0.00     0.031 C 
ATOM     51  C   UNL A   1      46.443  30.402  31.551  1.00  0.00     0.029 A 
ATOM     52  C   UNL A   1      45.804  29.382  30.863  1.00  0.00     0.049 A 
ATOM     53  H   UNL A   1      43.778  29.231  30.296  1.00  0.00     0.167 HD
ATOM     54  C   UNL A   1      45.662  27.198  29.693  1.00  0.00     0.074 A 
ATOM     55  C   UNL A   1      46.240  25.977  29.174  1.00  0.00     0.031 C 
ATOM     56  C   UNL A   1      46.361  28.156  30.350  1.00  0.00     0.037 A 
BRANCH  43  57
ATOM     57  C   UNL A   1      42.979  33.068  31.971  1.00  0.00     0.064 A 
ATOM     58  C   UNL A   1      43.195  34.222  31.202  1.00  0.00     0.173 A 
ATOM     59  C   UNL A   1      42.731  33.228  33.342  1.00  0.00     0.173 A 
ATOM     60  F   UNL A   1      43.457  34.120  29.890  1.00  0.00    -0.203 F 
ATOM     61  C   UNL A   1      43.201  35.483  31.791  1.00  0.00     0.198 A 
ATOM     62  C   UNL A   1      42.711  34.492  33.923  1.00  0.00     0.198 A 
ATOM     63  F   UNL A   1      42.520  32.156  34.120  1.00  0.00    -0.203 F 
ATOM     64  F   UNL A   1      43.472  36.566  31.050  1.00  0.00    -0.200 F 
ATOM     65  C   UNL A   1      42.957  35.617  33.150  1.00  0.00     0.200 A 
ATOM     66  F   UNL A   1      42.468  34.621  35.234  1.00  0.00    -0.200 F 
ATOM     67  F   UNL A   1      42.971  36.831  33.718  1.00  0.00    -0.200 F 
ENDBRANCH  43  57
BRANCH  44  68
ATOM     68  C   UNL A   1      42.819  24.164  27.476  1.00  0.00     0.064 A 
ATOM     69  C   UNL A   1      43.126  24.103  26.110  1.00  0.00     0.173 A 
ATOM     70  C   UNL A   1      42.516  22.963  28.133  1.00  0.00     0.173 A 
ATOM     71  F   UNL A   1      43.397  25.229  25.435  1.00  0.00    -0.203 F 
ATOM     72  C   UNL A   1      43.120  22.889  25.426  1.00  0.00     0.198 A 
ATOM     73  C   UNL A   1      42.534  21.747  27.454  1.00  0.00     0.198 A 
ATOM     74  F   UNL A   1      42.216  22.969  29.440  1.00  0.00    -0.203 F 
ATOM     75  F   UNL A   1      43.386  22.861  24.113  1.00  0.00    -0.200 F 
ATOM     76  C   UNL A   1      42.833  21.711  26.100  1.00  0.00     0.200 A 
ATOM     77  F   UNL A   1      42.265  20.610  28.111  1.00  0.00    -0.200 F 
ATOM     78  F   UNL A   1      42.836  20.543  25.443  1.00  0.00    -0.200 F 
ENDBRANCH  44  68
BRANCH  56  79
ATOM     79  C   UNL A   1      47.824  27.915  30.586  1.00  0.00     0.064 A 
ATOM     80  C   UNL A   1      48.799  28.372  29.689  1.00  0.00     0.173 A 
ATOM     81  C   UNL A   1      48.255  27.291  31.767  1.00  0.00     0.173 A 
ATOM     82  F   UNL A   1      48.436  28.964  28.542  1.00  0.00    -0.203 F 
ATOM     83  C   UNL A   1      50.154  28.204  29.961  1.00  0.00     0.198 A 
ATOM     84  C   UNL A   1      49.611  27.147  32.048  1.00  0.00     0.198 A 
ATOM     85  F   UNL A   1      47.360  26.843  32.660  1.00  0.00    -0.203 F 
ATOM     86  F   UNL A   1      51.071  28.624  29.078  1.00  0.00    -0.200 F 
ATOM     87  C   UNL A   1      50.559  27.601  31.143  1.00  0.00     0.200 A 
ATOM     88  F   UNL A   1      49.998  26.576  33.196  1.00  0.00    -0.200 F 
ATOM     89  F   UNL A   1      51.865  27.456  31.411  1.00  0.00    -0.200 F 
ENDBRANCH  56  79
ENDBRANCH  30  31
ENDBRANCH  23  25
ENDBRANCH  22  23
ENDBRANCH  21  22
ENDBRANCH   1  21
TORSDOF 14
ENDMDL
