MODEL 1
REMARK VINA RESULT:     -10.6      0.000      0.000
REMARK SMILES O=C(COc1ccc(N2C[C@@H](C(=O)OCCOC(=O)c3ccc(-c4c5nc(c(-c6c(F)c(F)c(F)c(F)c6F)c6ccc([nH]6)c(-c6c(F)c(F)c(F)c(F)c6F)c6nc(c(-c7c(F)c(F)c(F)c(F)c7F)c7ccc4[nH]7)C=C6)C=C5)cc3)CC2=O)cc1)Nc1ccc(Cl)cc1Cl
REMARK SMILES IDX 14 1 12 2 13 3 11 4 9 5 10 6 84 7 83 8 85 9 8 10 5 11 6 12
REMARK SMILES IDX 87 13 7 14 86 15 4 16 3 17 2 18 1 19 88 20 89 22 90 23 95 24
REMARK SMILES IDX 91 25 94 26 96 27 92 28 93 29 15 30 16 31 17 32 18 33 19 34
REMARK SMILES IDX 20 35 21 36 82 37 22 38 81 39 23 40 24 41 25 42 75 43 26 44
REMARK SMILES IDX 80 45 74 46 76 47 27 48 79 49 73 50 72 51 28 53 60 54 40 55
REMARK SMILES IDX 59 56 41 57 44 58 58 59 77 60 42 61 43 62 57 64 78 65 45 66
REMARK SMILES IDX 29 67 30 68 38 69 31 70 32 71 36 72 39 73 33 74 34 75 37 76
REMARK SMILES IDX 35 77 61 78 62 79 70 80 63 81 64 82 68 83 71 84 65 85 66 86
REMARK SMILES IDX 69 87 67 88 46 89 47 90 55 91 48 92 49 93 53 94 56 95 50 96
REMARK SMILES IDX 51 97 54 98 52 99
REMARK H PARENT 88 21 76 52 44 63
REMARK Flexibility Score: inf
ROOT
ATOM      1  O   UNL A   1      34.178  33.843  29.066  1.00  0.00    -0.462 OA
ENDROOT
BRANCH   1   2
ATOM      2  C   UNL A   1      33.676  34.556  30.103  1.00  0.00     0.311 C 
ATOM      3  O   UNL A   1      32.540  35.008  30.163  1.00  0.00    -0.252 OA
BRANCH   2   4
ATOM      4  C   UNL A   1      34.661  34.716  31.230  1.00  0.00     0.128 C 
ATOM      5  N   UNL A   1      35.816  33.516  32.843  1.00  0.00    -0.312 N 
ATOM      6  C   UNL A   1      35.432  33.437  31.458  1.00  0.00     0.141 C 
ATOM      7  C   UNL A   1      35.057  34.458  33.546  1.00  0.00     0.227 C 
ATOM      8  C   UNL A   1      34.083  35.078  32.589  1.00  0.00     0.117 C 
ATOM      9  O   UNL A   1      35.121  34.759  34.729  1.00  0.00    -0.274 OA
BRANCH   5  10
ATOM     10  C   UNL A   1      36.689  32.590  33.440  1.00  0.00     0.044 A 
ATOM     11  C   UNL A   1      38.449  30.705  34.540  1.00  0.00     0.120 A 
ATOM     12  C   UNL A   1      38.275  31.937  35.165  1.00  0.00     0.048 A 
ATOM     13  C   UNL A   1      37.723  30.405  33.393  1.00  0.00     0.048 A 
ATOM     14  C   UNL A   1      37.417  32.892  34.597  1.00  0.00     0.030 A 
ATOM     15  C   UNL A   1      36.849  31.337  32.851  1.00  0.00     0.030 A 
BRANCH  11  16
ATOM     16  O   UNL A   1      39.257  29.768  35.128  1.00  0.00    -0.484 OA
BRANCH  16  17
ATOM     17  C   UNL A   1      40.574  29.760  34.564  1.00  0.00     0.329 C 
BRANCH  17  18
ATOM     18  C   UNL A   1      41.017  28.411  33.982  1.00  0.00     0.262 C 
ATOM     19  O   UNL A   1      40.306  27.798  33.193  1.00  0.00    -0.271 OA
ATOM     20  N   UNL A   1      42.214  27.966  34.537  1.00  0.00    -0.322 N 
ATOM     21  H   UNL A   1      42.728  28.604  35.082  1.00  0.00     0.170 HD
BRANCH  20  22
ATOM     22  C   UNL A   1      42.746  26.664  34.376  1.00  0.00     0.060 A 
ATOM     23  C   UNL A   1      43.726  26.536  33.374  1.00  0.00     0.029 A 
ATOM     24  C   UNL A   1      42.407  25.532  35.136  1.00  0.00     0.066 A 
ATOM     25  C   UNL A   1      44.414  25.334  33.196  1.00  0.00     0.023 A 
ATOM     26  C   UNL A   1      43.102  24.328  34.954  1.00  0.00     0.043 A 
ATOM     27  Cl  UNL A   1      41.026  25.466  36.176  1.00  0.00    -0.082 Cl
ATOM     28  C   UNL A   1      44.109  24.240  33.999  1.00  0.00     0.042 A 
ATOM     29  Cl  UNL A   1      44.961  22.761  33.783  1.00  0.00    -0.084 Cl
ENDBRANCH  20  22
ENDBRANCH  17  18
ENDBRANCH  16  17
ENDBRANCH  11  16
ENDBRANCH   5  10
ENDBRANCH   2   4
ENDBRANCH   1   2
BRANCH   1  30
ATOM     30  C   UNL A   1      33.280  33.510  27.991  1.00  0.00     0.274 C 
BRANCH  30  31
ATOM     31  C   UNL A   1      33.321  32.006  27.706  1.00  0.00     0.275 C 
BRANCH  31  32
ATOM     32  O   UNL A   1      34.675  31.517  27.622  1.00  0.00    -0.458 OA
BRANCH  32  33
ATOM     33  C   UNL A   1      34.822  30.198  27.880  1.00  0.00     0.338 C 
ATOM     34  O   UNL A   1      34.035  29.301  27.633  1.00  0.00    -0.246 OA
BRANCH  33  35
ATOM     35  C   UNL A   1      36.179  29.930  28.377  1.00  0.00     0.060 A 
ATOM     36  C   UNL A   1      37.242  30.193  27.514  1.00  0.00     0.016 A 
ATOM     37  C   UNL A   1      36.407  29.327  29.612  1.00  0.00     0.016 A 
ATOM     38  C   UNL A   1      38.538  29.832  27.854  1.00  0.00     0.010 A 
ATOM     39  C   UNL A   1      37.718  28.985  29.970  1.00  0.00     0.010 A 
ATOM     40  C   UNL A   1      38.787  29.222  29.085  1.00  0.00    -0.014 A 
BRANCH  40  41
ATOM     41  C   UNL A   1      40.170  28.799  29.407  1.00  0.00     0.031 A 
ATOM     42  C   UNL A   1      41.027  29.656  30.290  1.00  0.00     0.074 A 
ATOM     43  C   UNL A   1      40.627  27.618  28.953  1.00  0.00     0.049 A 
ATOM     44  N   UNL A   1      42.285  29.507  30.617  1.00  0.00    -0.248 NA
ATOM     45  C   UNL A   1      40.385  30.837  30.885  1.00  0.00     0.031 C 
ATOM     46  C   UNL A   1      39.858  26.669  28.149  1.00  0.00     0.029 A 
ATOM     47  N   UNL A   1      41.847  27.013  29.112  1.00  0.00    -0.354 N 
ATOM     48  C   UNL A   1      42.594  30.592  31.425  1.00  0.00     0.074 A 
ATOM     49  C   UNL A   1      41.395  31.394  31.537  1.00  0.00     0.031 C 
ATOM     50  C   UNL A   1      40.619  25.592  27.895  1.00  0.00     0.029 A 
ATOM     51  C   UNL A   1      41.945  25.805  28.466  1.00  0.00     0.049 A 
ATOM     52  H   UNL A   1      42.581  27.405  29.638  1.00  0.00     0.167 HD
ATOM     53  C   UNL A   1      43.777  30.889  32.015  1.00  0.00     0.037 A 
ATOM     54  C   UNL A   1      42.999  24.979  28.324  1.00  0.00     0.037 A 
ATOM     55  C   UNL A   1      44.957  30.069  31.924  1.00  0.00     0.049 A 
ATOM     56  C   UNL A   1      44.315  25.360  28.942  1.00  0.00     0.074 A 
ATOM     57  C   UNL A   1      46.201  30.277  32.493  1.00  0.00     0.029 A 
ATOM     58  N   UNL A   1      45.034  28.876  31.219  1.00  0.00    -0.354 N 
ATOM     59  N   UNL A   1      44.612  26.407  29.672  1.00  0.00    -0.248 NA
ATOM     60  C   UNL A   1      45.444  24.452  28.704  1.00  0.00     0.031 C 
ATOM     61  C   UNL A   1      47.041  29.229  32.102  1.00  0.00     0.029 A 
ATOM     62  C   UNL A   1      46.310  28.346  31.322  1.00  0.00     0.049 A 
ATOM     63  H   UNL A   1      44.291  28.467  30.719  1.00  0.00     0.167 HD
ATOM     64  C   UNL A   1      45.956  26.281  29.991  1.00  0.00     0.074 A 
ATOM     65  C   UNL A   1      46.412  25.044  29.389  1.00  0.00     0.031 C 
ATOM     66  C   UNL A   1      46.743  27.115  30.714  1.00  0.00     0.037 A 
BRANCH  53  67
ATOM     67  C   UNL A   1      43.862  32.178  32.776  1.00  0.00     0.064 A 
ATOM     68  C   UNL A   1      43.717  32.228  34.169  1.00  0.00     0.173 A 
ATOM     69  C   UNL A   1      44.109  33.381  32.097  1.00  0.00     0.173 A 
ATOM     70  F   UNL A   1      43.461  31.108  34.862  1.00  0.00    -0.203 F 
ATOM     71  C   UNL A   1      43.791  33.440  34.853  1.00  0.00     0.198 A 
ATOM     72  C   UNL A   1      44.208  34.587  32.786  1.00  0.00     0.198 A 
ATOM     73  F   UNL A   1      44.258  33.387  30.764  1.00  0.00    -0.203 F 
ATOM     74  F   UNL A   1      43.604  33.471  36.180  1.00  0.00    -0.200 F 
ATOM     75  C   UNL A   1      44.042  34.616  34.162  1.00  0.00     0.200 A 
ATOM     76  F   UNL A   1      44.459  35.720  32.118  1.00  0.00    -0.200 F 
ATOM     77  F   UNL A   1      44.115  35.780  34.822  1.00  0.00    -0.200 F 
ENDBRANCH  53  67
BRANCH  54  78
ATOM     78  C   UNL A   1      42.852  23.729  27.539  1.00  0.00     0.064 A 
ATOM     79  C   UNL A   1      43.210  23.680  26.186  1.00  0.00     0.173 A 
ATOM     80  C   UNL A   1      42.365  22.553  28.129  1.00  0.00     0.173 A 
ATOM     81  F   UNL A   1      43.658  24.786  25.572  1.00  0.00    -0.203 F 
ATOM     82  C   UNL A   1      43.082  22.503  25.450  1.00  0.00     0.198 A 
ATOM     83  C   UNL A   1      42.262  21.371  27.401  1.00  0.00     0.198 A 
ATOM     84  F   UNL A   1      42.008  22.549  29.423  1.00  0.00    -0.203 F 
ATOM     85  F   UNL A   1      43.402  22.491  24.149  1.00  0.00    -0.200 F 
ATOM     86  C   UNL A   1      42.616  21.347  26.060  1.00  0.00     0.200 A 
ATOM     87  F   UNL A   1      41.824  20.254  27.997  1.00  0.00    -0.200 F 
ATOM     88  F   UNL A   1      42.504  20.213  25.356  1.00  0.00    -0.200 F 
ENDBRANCH  54  78
BRANCH  66  89
ATOM     89  C   UNL A   1      48.171  26.704  30.909  1.00  0.00     0.064 A 
ATOM     90  C   UNL A   1      48.548  25.844  31.950  1.00  0.00     0.173 A 
ATOM     91  C   UNL A   1      49.166  27.149  30.026  1.00  0.00     0.173 A 
ATOM     92  F   UNL A   1      47.634  25.409  32.830  1.00  0.00    -0.203 F 
ATOM     93  C   UNL A   1      49.876  25.459  32.113  1.00  0.00     0.198 A 
ATOM     94  C   UNL A   1      50.488  26.743  30.177  1.00  0.00     0.198 A 
ATOM     95  F   UNL A   1      48.852  27.969  29.013  1.00  0.00    -0.203 F 
ATOM     96  F   UNL A   1      50.223  24.670  33.139  1.00  0.00    -0.200 F 
ATOM     97  C   UNL A   1      50.843  25.904  31.223  1.00  0.00     0.200 A 
ATOM     98  F   UNL A   1      51.420  27.166  29.313  1.00  0.00    -0.200 F 
ATOM     99  F   UNL A   1      52.121  25.530  31.379  1.00  0.00    -0.200 F 
ENDBRANCH  66  89
ENDBRANCH  40  41
ENDBRANCH  33  35
ENDBRANCH  32  33
ENDBRANCH  31  32
ENDBRANCH  30  31
ENDBRANCH   1  30
TORSDOF 16
ENDMDL
MODEL 2
REMARK VINA RESULT:     -10.6      0.965      1.709
REMARK SMILES O=C(COc1ccc(N2C[C@@H](C(=O)OCCOC(=O)c3ccc(-c4c5nc(c(-c6c(F)c(F)c(F)c(F)c6F)c6ccc([nH]6)c(-c6c(F)c(F)c(F)c(F)c6F)c6nc(c(-c7c(F)c(F)c(F)c(F)c7F)c7ccc4[nH]7)C=C6)C=C5)cc3)CC2=O)cc1)Nc1ccc(Cl)cc1Cl
REMARK SMILES IDX 14 1 12 2 13 3 11 4 9 5 10 6 84 7 83 8 85 9 8 10 5 11 6 12
REMARK SMILES IDX 87 13 7 14 86 15 4 16 3 17 2 18 1 19 88 20 89 22 90 23 95 24
REMARK SMILES IDX 91 25 94 26 96 27 92 28 93 29 15 30 16 31 17 32 18 33 19 34
REMARK SMILES IDX 20 35 21 36 82 37 22 38 81 39 23 40 24 41 25 42 75 43 26 44
REMARK SMILES IDX 80 45 74 46 76 47 27 48 79 49 73 50 72 51 28 53 60 54 40 55
REMARK SMILES IDX 59 56 41 57 44 58 58 59 77 60 42 61 43 62 57 64 78 65 45 66
REMARK SMILES IDX 29 67 30 68 38 69 31 70 32 71 36 72 39 73 33 74 34 75 37 76
REMARK SMILES IDX 35 77 61 78 62 79 70 80 63 81 64 82 68 83 71 84 65 85 66 86
REMARK SMILES IDX 69 87 67 88 46 89 47 90 55 91 48 92 49 93 53 94 56 95 50 96
REMARK SMILES IDX 51 97 54 98 52 99
REMARK H PARENT 88 21 76 52 44 63
REMARK Flexibility Score: inf
ROOT
ATOM      1  O   UNL A   1      33.936  33.869  30.666  1.00  0.00    -0.462 OA
ENDROOT
BRANCH   1   2
ATOM      2  C   UNL A   1      34.174  34.972  31.414  1.00  0.00     0.311 C 
ATOM      3  O   UNL A   1      33.578  36.037  31.310  1.00  0.00    -0.252 OA
BRANCH   2   4
ATOM      4  C   UNL A   1      35.249  34.755  32.445  1.00  0.00     0.128 C 
ATOM      5  N   UNL A   1      36.522  33.099  33.450  1.00  0.00    -0.312 N 
ATOM      6  C   UNL A   1      36.026  33.492  32.157  1.00  0.00     0.141 C 
ATOM      7  C   UNL A   1      35.831  33.726  34.492  1.00  0.00     0.227 C 
ATOM      8  C   UNL A   1      34.787  34.617  33.888  1.00  0.00     0.117 C 
ATOM      9  O   UNL A   1      35.993  33.603  35.697  1.00  0.00    -0.274 OA
BRANCH   5  10
ATOM     10  C   UNL A   1      37.433  32.042  33.620  1.00  0.00     0.044 A 
ATOM     11  C   UNL A   1      39.277  29.973  34.048  1.00  0.00     0.120 A 
ATOM     12  C   UNL A   1      38.132  29.736  33.291  1.00  0.00     0.048 A 
ATOM     13  C   UNL A   1      39.513  31.244  34.558  1.00  0.00     0.048 A 
ATOM     14  C   UNL A   1      37.194  30.763  33.102  1.00  0.00     0.030 A 
ATOM     15  C   UNL A   1      38.603  32.269  34.343  1.00  0.00     0.030 A 
BRANCH  11  16
ATOM     16  O   UNL A   1      40.202  28.973  34.188  1.00  0.00    -0.484 OA
BRANCH  16  17
ATOM     17  C   UNL A   1      41.111  29.224  35.267  1.00  0.00     0.329 C 
BRANCH  17  18
ATOM     18  C   UNL A   1      41.905  28.000  35.739  1.00  0.00     0.262 C 
ATOM     19  O   UNL A   1      42.496  28.006  36.814  1.00  0.00    -0.271 OA
ATOM     20  N   UNL A   1      41.944  26.994  34.778  1.00  0.00    -0.322 N 
ATOM     21  H   UNL A   1      41.341  27.080  34.004  1.00  0.00     0.170 HD
BRANCH  20  22
ATOM     22  C   UNL A   1      42.784  25.856  34.830  1.00  0.00     0.060 A 
ATOM     23  C   UNL A   1      42.141  24.649  35.159  1.00  0.00     0.029 A 
ATOM     24  C   UNL A   1      44.162  25.833  34.555  1.00  0.00     0.066 A 
ATOM     25  C   UNL A   1      42.834  23.437  35.126  1.00  0.00     0.023 A 
ATOM     26  C   UNL A   1      44.853  24.614  34.523  1.00  0.00     0.043 A 
ATOM     27  Cl  UNL A   1      45.131  27.262  34.440  1.00  0.00    -0.082 Cl
ATOM     28  C   UNL A   1      44.185  23.424  34.793  1.00  0.00     0.042 A 
ATOM     29  Cl  UNL A   1      45.037  21.931  34.747  1.00  0.00    -0.084 Cl
ENDBRANCH  20  22
ENDBRANCH  17  18
ENDBRANCH  16  17
ENDBRANCH  11  16
ENDBRANCH   5  10
ENDBRANCH   2   4
ENDBRANCH   1   2
BRANCH   1  30
ATOM     30  C   UNL A   1      33.887  34.031  29.236  1.00  0.00     0.274 C 
BRANCH  30  31
ATOM     31  C   UNL A   1      34.751  32.971  28.547  1.00  0.00     0.275 C 
BRANCH  31  32
ATOM     32  O   UNL A   1      34.416  31.640  28.992  1.00  0.00    -0.458 OA
BRANCH  32  33
ATOM     33  C   UNL A   1      34.638  30.663  28.084  1.00  0.00     0.338 C 
ATOM     34  O   UNL A   1      33.924  30.340  27.152  1.00  0.00    -0.246 OA
BRANCH  33  35
ATOM     35  C   UNL A   1      35.987  30.106  28.265  1.00  0.00     0.060 A 
ATOM     36  C   UNL A   1      36.306  29.594  29.522  1.00  0.00     0.016 A 
ATOM     37  C   UNL A   1      36.958  30.186  27.269  1.00  0.00     0.016 A 
ATOM     38  C   UNL A   1      37.600  29.185  29.813  1.00  0.00     0.010 A 
ATOM     39  C   UNL A   1      38.259  29.750  27.552  1.00  0.00     0.010 A 
ATOM     40  C   UNL A   1      38.589  29.261  28.830  1.00  0.00    -0.014 A 
BRANCH  40  41
ATOM     41  C   UNL A   1      39.974  28.868  29.177  1.00  0.00     0.031 A 
ATOM     42  C   UNL A   1      40.812  29.764  30.041  1.00  0.00     0.074 A 
ATOM     43  C   UNL A   1      40.453  27.681  28.763  1.00  0.00     0.049 A 
ATOM     44  N   UNL A   1      42.069  29.644  30.383  1.00  0.00    -0.248 NA
ATOM     45  C   UNL A   1      40.147  30.953  30.594  1.00  0.00     0.031 C 
ATOM     46  C   UNL A   1      39.704  26.696  27.982  1.00  0.00     0.029 A 
ATOM     47  N   UNL A   1      41.679  27.098  28.951  1.00  0.00    -0.354 N 
ATOM     48  C   UNL A   1      42.356  30.757  31.159  1.00  0.00     0.074 A 
ATOM     49  C   UNL A   1      41.144  31.544  31.237  1.00  0.00     0.031 C 
ATOM     50  C   UNL A   1      40.483  25.624  27.767  1.00  0.00     0.029 A 
ATOM     51  C   UNL A   1      41.801  25.873  28.343  1.00  0.00     0.049 A 
ATOM     52  H   UNL A   1      42.403  27.517  29.470  1.00  0.00     0.167 HD
ATOM     53  C   UNL A   1      43.529  31.088  31.750  1.00  0.00     0.037 A 
ATOM     54  C   UNL A   1      42.867  25.059  28.235  1.00  0.00     0.037 A 
ATOM     55  C   UNL A   1      44.721  30.284  31.694  1.00  0.00     0.049 A 
ATOM     56  C   UNL A   1      44.172  25.477  28.852  1.00  0.00     0.074 A 
ATOM     57  C   UNL A   1      45.956  30.526  32.267  1.00  0.00     0.029 A 
ATOM     58  N   UNL A   1      44.821  29.071  31.027  1.00  0.00    -0.354 N 
ATOM     59  N   UNL A   1      44.448  26.550  29.552  1.00  0.00    -0.248 NA
ATOM     60  C   UNL A   1      45.316  24.579  28.651  1.00  0.00     0.031 C 
ATOM     61  C   UNL A   1      46.815  29.479  31.916  1.00  0.00     0.029 A 
ATOM     62  C   UNL A   1      46.103  28.563  31.157  1.00  0.00     0.049 A 
ATOM     63  H   UNL A   1      44.088  28.636  30.533  1.00  0.00     0.167 HD
ATOM     64  C   UNL A   1      45.791  26.453  29.886  1.00  0.00     0.074 A 
ATOM     65  C   UNL A   1      46.270  25.206  29.325  1.00  0.00     0.031 C 
ATOM     66  C   UNL A   1      46.559  27.320  30.589  1.00  0.00     0.037 A 
BRANCH  53  67
ATOM     67  C   UNL A   1      43.588  32.402  32.472  1.00  0.00     0.064 A 
ATOM     68  C   UNL A   1      43.383  32.497  33.855  1.00  0.00     0.173 A 
ATOM     69  C   UNL A   1      43.872  33.580  31.766  1.00  0.00     0.173 A 
ATOM     70  F   UNL A   1      43.091  31.401  34.572  1.00  0.00    -0.203 F 
ATOM     71  C   UNL A   1      43.435  33.730  34.502  1.00  0.00     0.198 A 
ATOM     72  C   UNL A   1      43.949  34.807  32.420  1.00  0.00     0.198 A 
ATOM     73  F   UNL A   1      44.079  33.542  30.441  1.00  0.00    -0.203 F 
ATOM     74  F   UNL A   1      43.191  33.806  35.818  1.00  0.00    -0.200 F 
ATOM     75  C   UNL A   1      43.723  34.882  33.785  1.00  0.00     0.200 A 
ATOM     76  F   UNL A   1      44.235  35.917  31.726  1.00  0.00    -0.200 F 
ATOM     77  F   UNL A   1      43.774  36.067  34.410  1.00  0.00    -0.200 F 
ENDBRANCH  53  67
BRANCH  54  78
ATOM     78  C   UNL A   1      42.745  23.783  27.486  1.00  0.00     0.064 A 
ATOM     79  C   UNL A   1      42.250  22.629  28.105  1.00  0.00     0.173 A 
ATOM     80  C   UNL A   1      43.108  23.697  26.133  1.00  0.00     0.173 A 
ATOM     81  F   UNL A   1      41.913  22.656  29.403  1.00  0.00    -0.203 F 
ATOM     82  C   UNL A   1      42.126  21.432  27.400  1.00  0.00     0.198 A 
ATOM     83  C   UNL A   1      42.960  22.509  25.423  1.00  0.00     0.198 A 
ATOM     84  F   UNL A   1      43.589  24.776  25.497  1.00  0.00    -0.203 F 
ATOM     85  F   UNL A   1      41.679  20.334  28.022  1.00  0.00    -0.200 F 
ATOM     86  C   UNL A   1      42.473  21.376  26.057  1.00  0.00     0.200 A 
ATOM     87  F   UNL A   1      43.284  22.462  24.124  1.00  0.00    -0.200 F 
ATOM     88  F   UNL A   1      42.343  20.228  25.378  1.00  0.00    -0.200 F 
ENDBRANCH  54  78
BRANCH  66  89
ATOM     89  C   UNL A   1      47.991  26.936  30.809  1.00  0.00     0.064 A 
ATOM     90  C   UNL A   1      48.364  26.068  31.846  1.00  0.00     0.173 A 
ATOM     91  C   UNL A   1      48.995  27.415  29.955  1.00  0.00     0.173 A 
ATOM     92  F   UNL A   1      47.441  25.600  32.698  1.00  0.00    -0.203 F 
ATOM     93  C   UNL A   1      49.696  25.709  32.031  1.00  0.00     0.198 A 
ATOM     94  C   UNL A   1      50.322  27.034  30.128  1.00  0.00     0.198 A 
ATOM     95  F   UNL A   1      48.686  28.244  28.947  1.00  0.00    -0.203 F 
ATOM     96  F   UNL A   1      50.038  24.911  33.052  1.00  0.00    -0.200 F 
ATOM     97  C   UNL A   1      50.672  26.187  31.169  1.00  0.00     0.200 A 
ATOM     98  F   UNL A   1      51.263  27.490  29.290  1.00  0.00    -0.200 F 
ATOM     99  F   UNL A   1      51.954  25.837  31.347  1.00  0.00    -0.200 F 
ENDBRANCH  66  89
ENDBRANCH  40  41
ENDBRANCH  33  35
ENDBRANCH  32  33
ENDBRANCH  31  32
ENDBRANCH  30  31
ENDBRANCH   1  30
TORSDOF 16
ENDMDL
MODEL 3
REMARK VINA RESULT:     -10.5      5.591     11.813
REMARK SMILES O=C(COc1ccc(N2C[C@@H](C(=O)OCCOC(=O)c3ccc(-c4c5nc(c(-c6c(F)c(F)c(F)c(F)c6F)c6ccc([nH]6)c(-c6c(F)c(F)c(F)c(F)c6F)c6nc(c(-c7c(F)c(F)c(F)c(F)c7F)c7ccc4[nH]7)C=C6)C=C5)cc3)CC2=O)cc1)Nc1ccc(Cl)cc1Cl
REMARK SMILES IDX 14 1 12 2 13 3 11 4 9 5 10 6 84 7 83 8 85 9 8 10 5 11 6 12
REMARK SMILES IDX 87 13 7 14 86 15 4 16 3 17 2 18 1 19 88 20 89 22 90 23 95 24
REMARK SMILES IDX 91 25 94 26 96 27 92 28 93 29 15 30 16 31 17 32 18 33 19 34
REMARK SMILES IDX 20 35 21 36 82 37 22 38 81 39 23 40 24 41 25 42 75 43 26 44
REMARK SMILES IDX 80 45 74 46 76 47 27 48 79 49 73 50 72 51 28 53 60 54 40 55
REMARK SMILES IDX 59 56 41 57 44 58 58 59 77 60 42 61 43 62 57 64 78 65 45 66
REMARK SMILES IDX 29 67 30 68 38 69 31 70 32 71 36 72 39 73 33 74 34 75 37 76
REMARK SMILES IDX 35 77 61 78 62 79 70 80 63 81 64 82 68 83 71 84 65 85 66 86
REMARK SMILES IDX 69 87 67 88 46 89 47 90 55 91 48 92 49 93 53 94 56 95 50 96
REMARK SMILES IDX 51 97 54 98 52 99
REMARK H PARENT 88 21 76 52 44 63
REMARK Flexibility Score: inf
ROOT
ATOM      1  O   UNL A   1      42.589  21.145  26.083  1.00  0.00    -0.462 OA
ENDROOT
BRANCH   1   2
ATOM      2  C   UNL A   1      41.531  20.300  26.058  1.00  0.00     0.311 C 
ATOM      3  O   UNL A   1      41.575  19.124  25.722  1.00  0.00    -0.252 OA
BRANCH   2   4
ATOM      4  C   UNL A   1      40.257  20.948  26.532  1.00  0.00     0.128 C 
ATOM      5  N   UNL A   1      38.272  21.870  25.769  1.00  0.00    -0.312 N 
ATOM      6  C   UNL A   1      39.146  20.752  25.527  1.00  0.00     0.141 C 
ATOM      7  C   UNL A   1      38.904  22.886  26.494  1.00  0.00     0.227 C 
ATOM      8  C   UNL A   1      40.310  22.447  26.780  1.00  0.00     0.117 C 
ATOM      9  O   UNL A   1      38.451  23.963  26.851  1.00  0.00    -0.274 OA
BRANCH   5  10
ATOM     10  C   UNL A   1      37.018  21.997  25.146  1.00  0.00     0.044 A 
ATOM     11  C   UNL A   1      34.564  22.266  23.817  1.00  0.00     0.120 A 
ATOM     12  C   UNL A   1      34.654  21.458  24.949  1.00  0.00     0.048 A 
ATOM     13  C   UNL A   1      35.684  22.959  23.375  1.00  0.00     0.048 A 
ATOM     14  C   UNL A   1      35.889  21.300  25.596  1.00  0.00     0.030 A 
ATOM     15  C   UNL A   1      36.898  22.829  24.035  1.00  0.00     0.030 A 
BRANCH  11  16
ATOM     16  O   UNL A   1      33.343  22.443  23.222  1.00  0.00    -0.484 OA
BRANCH  16  17
ATOM     17  C   UNL A   1      32.333  22.826  24.162  1.00  0.00     0.329 C 
BRANCH  17  18
ATOM     18  C   UNL A   1      32.162  24.340  24.344  1.00  0.00     0.262 C 
ATOM     19  O   UNL A   1      32.369  24.874  25.429  1.00  0.00    -0.271 OA
ATOM     20  N   UNL A   1      31.662  24.956  23.200  1.00  0.00    -0.322 N 
ATOM     21  H   UNL A   1      31.640  24.425  22.371  1.00  0.00     0.170 HD
BRANCH  20  22
ATOM     22  C   UNL A   1      31.185  26.287  23.139  1.00  0.00     0.060 A 
ATOM     23  C   UNL A   1      29.834  26.457  23.490  1.00  0.00     0.029 A 
ATOM     24  C   UNL A   1      31.941  27.421  22.798  1.00  0.00     0.066 A 
ATOM     25  C   UNL A   1      29.274  27.733  23.587  1.00  0.00     0.023 A 
ATOM     26  C   UNL A   1      31.375  28.700  22.896  1.00  0.00     0.043 A 
ATOM     27  Cl  UNL A   1      33.504  27.333  22.060  1.00  0.00    -0.082 Cl
ATOM     28  C   UNL A   1      30.054  28.850  23.304  1.00  0.00     0.042 A 
ATOM     29  Cl  UNL A   1      29.367  30.422  23.427  1.00  0.00    -0.084 Cl
ENDBRANCH  20  22
ENDBRANCH  17  18
ENDBRANCH  16  17
ENDBRANCH  11  16
ENDBRANCH   5  10
ENDBRANCH   2   4
ENDBRANCH   1   2
BRANCH   1  30
ATOM     30  C   UNL A   1      43.794  20.723  25.417  1.00  0.00     0.274 C 
BRANCH  30  31
ATOM     31  C   UNL A   1      44.455  21.908  24.706  1.00  0.00     0.275 C 
BRANCH  31  32
ATOM     32  O   UNL A   1      43.678  23.114  24.850  1.00  0.00    -0.458 OA
BRANCH  32  33
ATOM     33  C   UNL A   1      44.396  24.223  25.139  1.00  0.00     0.338 C 
ATOM     34  O   UNL A   1      45.408  24.617  24.586  1.00  0.00    -0.246 OA
BRANCH  33  35
ATOM     35  C   UNL A   1      43.693  25.029  26.147  1.00  0.00     0.060 A 
ATOM     36  C   UNL A   1      43.981  26.392  26.194  1.00  0.00     0.016 A 
ATOM     37  C   UNL A   1      42.861  24.452  27.104  1.00  0.00     0.016 A 
ATOM     38  C   UNL A   1      43.471  27.191  27.208  1.00  0.00     0.010 A 
ATOM     39  C   UNL A   1      42.323  25.261  28.114  1.00  0.00     0.010 A 
ATOM     40  C   UNL A   1      42.639  26.631  28.178  1.00  0.00    -0.014 A 
BRANCH  40  41
ATOM     41  C   UNL A   1      42.146  27.490  29.281  1.00  0.00     0.031 A 
ATOM     42  C   UNL A   1      42.925  27.586  30.558  1.00  0.00     0.074 A 
ATOM     43  C   UNL A   1      41.033  28.225  29.106  1.00  0.00     0.049 A 
ATOM     44  N   UNL A   1      42.620  28.208  31.668  1.00  0.00    -0.248 NA
ATOM     45  C   UNL A   1      44.220  26.890  30.594  1.00  0.00     0.031 C 
ATOM     46  C   UNL A   1      40.235  28.268  27.880  1.00  0.00     0.029 A 
ATOM     47  N   UNL A   1      40.386  29.082  29.957  1.00  0.00    -0.354 N 
ATOM     48  C   UNL A   1      43.665  27.949  32.544  1.00  0.00     0.074 A 
ATOM     49  C   UNL A   1      44.611  27.111  31.840  1.00  0.00     0.031 C 
ATOM     50  C   UNL A   1      39.212  29.120  28.054  1.00  0.00     0.029 A 
ATOM     51  C   UNL A   1      39.249  29.633  29.419  1.00  0.00     0.049 A 
ATOM     52  H   UNL A   1      40.705  29.284  30.866  1.00  0.00     0.167 HD
ATOM     53  C   UNL A   1      43.813  28.374  33.822  1.00  0.00     0.037 A 
ATOM     54  C   UNL A   1      38.323  30.434  29.979  1.00  0.00     0.037 A 
ATOM     55  C   UNL A   1      42.882  29.233  34.504  1.00  0.00     0.049 A 
ATOM     56  C   UNL A   1      38.484  30.845  31.415  1.00  0.00     0.074 A 
ATOM     57  C   UNL A   1      42.947  29.728  35.794  1.00  0.00     0.029 A 
ATOM     58  N   UNL A   1      41.714  29.732  33.943  1.00  0.00    -0.354 N 
ATOM     59  N   UNL A   1      39.454  30.565  32.251  1.00  0.00    -0.248 NA
ATOM     60  C   UNL A   1      37.413  31.670  31.990  1.00  0.00     0.031 C 
ATOM     61  C   UNL A   1      41.800  30.496  36.027  1.00  0.00     0.029 A 
ATOM     62  C   UNL A   1      41.040  30.513  34.867  1.00  0.00     0.049 A 
ATOM     63  H   UNL A   1      41.410  29.556  33.023  1.00  0.00     0.167 HD
ATOM     64  C   UNL A   1      39.120  31.188  33.445  1.00  0.00     0.074 A 
ATOM     65  C   UNL A   1      37.865  31.875  33.220  1.00  0.00     0.031 C 
ATOM     66  C   UNL A   1      39.791  31.186  34.623  1.00  0.00     0.037 A 
BRANCH  53  67
ATOM     67  C   UNL A   1      45.010  27.877  34.577  1.00  0.00     0.064 A 
ATOM     68  C   UNL A   1      44.977  26.688  35.319  1.00  0.00     0.173 A 
ATOM     69  C   UNL A   1      46.212  28.598  34.543  1.00  0.00     0.173 A 
ATOM     70  F   UNL A   1      43.845  25.972  35.397  1.00  0.00    -0.203 F 
ATOM     71  C   UNL A   1      46.099  26.251  36.019  1.00  0.00     0.198 A 
ATOM     72  C   UNL A   1      47.340  28.146  35.224  1.00  0.00     0.198 A 
ATOM     73  F   UNL A   1      46.296  29.741  33.846  1.00  0.00    -0.203 F 
ATOM     74  F   UNL A   1      46.034  25.135  36.759  1.00  0.00    -0.200 F 
ATOM     75  C   UNL A   1      47.280  26.977  35.967  1.00  0.00     0.200 A 
ATOM     76  F   UNL A   1      48.481  28.845  35.165  1.00  0.00    -0.200 F 
ATOM     77  F   UNL A   1      48.359  26.555  36.640  1.00  0.00    -0.200 F 
ENDBRANCH  53  67
BRANCH  54  78
ATOM     78  C   UNL A   1      37.151  30.872  29.181  1.00  0.00     0.064 A 
ATOM     79  C   UNL A   1      36.130  29.975  28.847  1.00  0.00     0.173 A 
ATOM     80  C   UNL A   1      37.022  32.201  28.749  1.00  0.00     0.173 A 
ATOM     81  F   UNL A   1      36.221  28.688  29.217  1.00  0.00    -0.203 F 
ATOM     82  C   UNL A   1      35.024  30.388  28.106  1.00  0.00     0.198 A 
ATOM     83  C   UNL A   1      35.905  32.619  28.031  1.00  0.00     0.198 A 
ATOM     84  F   UNL A   1      37.975  33.099  29.043  1.00  0.00    -0.203 F 
ATOM     85  F   UNL A   1      34.075  29.503  27.773  1.00  0.00    -0.200 F 
ATOM     86  C   UNL A   1      34.908  31.711  27.706  1.00  0.00     0.200 A 
ATOM     87  F   UNL A   1      35.791  33.901  27.658  1.00  0.00    -0.200 F 
ATOM     88  F   UNL A   1      33.839  32.110  27.003  1.00  0.00    -0.200 F 
ENDBRANCH  54  78
BRANCH  66  89
ATOM     89  C   UNL A   1      39.188  31.970  35.749  1.00  0.00     0.064 A 
ATOM     90  C   UNL A   1      38.327  31.368  36.679  1.00  0.00     0.173 A 
ATOM     91  C   UNL A   1      39.500  33.326  35.920  1.00  0.00     0.173 A 
ATOM     92  F   UNL A   1      37.985  30.078  36.545  1.00  0.00    -0.203 F 
ATOM     93  C   UNL A   1      37.784  32.104  37.728  1.00  0.00     0.198 A 
ATOM     94  C   UNL A   1      38.975  34.052  36.984  1.00  0.00     0.198 A 
ATOM     95  F   UNL A   1      40.322  33.943  35.058  1.00  0.00    -0.203 F 
ATOM     96  F   UNL A   1      36.930  31.521  38.582  1.00  0.00    -0.200 F 
ATOM     97  C   UNL A   1      38.113  33.443  37.883  1.00  0.00     0.200 A 
ATOM     98  F   UNL A   1      39.299  35.343  37.138  1.00  0.00    -0.200 F 
ATOM     99  F   UNL A   1      37.591  34.148  38.897  1.00  0.00    -0.200 F 
ENDBRANCH  66  89
ENDBRANCH  40  41
ENDBRANCH  33  35
ENDBRANCH  32  33
ENDBRANCH  31  32
ENDBRANCH  30  31
ENDBRANCH   1  30
TORSDOF 16
ENDMDL
