MODEL 1
REMARK VINA RESULT:     -11.7      0.000      0.000
REMARK SMILES CC(=C\c1ccco1)/C=C1/SC(=S)N(CC(=O)OCCOC(=O)c2ccc(-c3c4nc(c(-c5c(F)c(F)c(F)c(F)c5F)c5ccc([nH]5)c(-c5c(F)c(F)c(F)c(F)c5F)c5nc(c(-c6c(F)c(F)c(F)c(F)c6F)c6ccc3[nH]6)C=C5)C=C4)cc2)C1=O
REMARK SMILES IDX 19 1 18 2 16 3 17 4 15 5 14 6 9 7 10 8 11 9 87 10 12 11
REMARK SMILES IDX 88 12 13 13 2 14 1 15 3 16 4 17 5 18 8 19 6 20 7 21 20 22
REMARK SMILES IDX 21 23 22 24 23 25 24 26 25 27 86 28 26 29 85 30 27 31 28 32
REMARK SMILES IDX 29 33 79 34 30 35 84 36 78 37 80 38 31 39 83 40 77 41 76 42
REMARK SMILES IDX 32 44 64 45 44 46 63 47 45 48 48 49 62 50 81 51 46 52 47 53
REMARK SMILES IDX 61 55 82 56 49 57 33 58 34 59 42 60 35 61 36 62 40 63 43 64
REMARK SMILES IDX 37 65 38 66 41 67 39 68 65 69 66 70 74 71 67 72 68 73 72 74
REMARK SMILES IDX 75 75 69 76 70 77 73 78 71 79 50 80 51 81 59 82 52 83 53 84
REMARK SMILES IDX 57 85 60 86 54 87 55 88 58 89 56 90
REMARK H PARENT 80 43 48 54
REMARK Flexibility Score: inf
ROOT
ATOM      1  C   UNL A   1      31.374  29.638  25.365  1.00  0.00     0.274 C 
ENDROOT
BRANCH   1   2
ATOM      2  O   UNL A   1      32.071  28.421  25.723  1.00  0.00    -0.461 OA
BRANCH   2   3
ATOM      3  C   UNL A   1      31.403  27.578  26.553  1.00  0.00     0.326 C 
ATOM      4  O   UNL A   1      31.390  27.676  27.778  1.00  0.00    -0.250 OA
BRANCH   3   5
ATOM      5  C   UNL A   1      30.670  26.446  25.841  1.00  0.00     0.250 C 
BRANCH   5   6
ATOM      6  N   UNL A   1      31.149  26.076  24.512  1.00  0.00    -0.282 N 
ATOM      7  C   UNL A   1      33.098  23.844  22.417  1.00  0.00     0.024 C 
ATOM      8  C   UNL A   1      32.496  24.907  22.971  1.00  0.00     0.080 C 
ATOM      9  S   UNL A   1      31.724  26.117  22.005  1.00  0.00    -0.054 SA
ATOM     10  C   UNL A   1      32.206  25.182  24.405  1.00  0.00     0.266 C 
ATOM     11  C   UNL A   1      30.705  26.644  23.340  1.00  0.00     0.148 C 
ATOM     12  O   UNL A   1      32.887  24.781  25.337  1.00  0.00    -0.268 OA
ATOM     13  S   UNL A   1      29.431  27.698  23.126  1.00  0.00    -0.052 S 
BRANCH   7  14
ATOM     14  C   UNL A   1      33.418  22.578  23.064  1.00  0.00    -0.046 C 
ATOM     15  C   UNL A   1      34.860  22.515  23.502  1.00  0.00     0.044 C 
ATOM     16  C   UNL A   1      32.485  21.626  23.258  1.00  0.00     0.050 C 
BRANCH  16  17
ATOM     17  C   UNL A   1      32.685  20.422  24.004  1.00  0.00     0.126 A 
ATOM     18  C   UNL A   1      32.670  20.167  25.374  1.00  0.00     0.050 A 
ATOM     19  O   UNL A   1      32.876  19.202  23.380  1.00  0.00    -0.465 OA
ATOM     20  C   UNL A   1      32.903  18.788  25.581  1.00  0.00     0.042 A 
ATOM     21  C   UNL A   1      33.012  18.244  24.329  1.00  0.00     0.195 A 
ENDBRANCH  16  17
ENDBRANCH   7  14
ENDBRANCH   5   6
ENDBRANCH   3   5
ENDBRANCH   2   3
ENDBRANCH   1   2
BRANCH   1  22
ATOM     22  C   UNL A   1      31.811  30.829  26.224  1.00  0.00     0.275 C 
BRANCH  22  23
ATOM     23  O   UNL A   1      33.243  30.890  26.359  1.00  0.00    -0.458 OA
BRANCH  23  24
ATOM     24  C   UNL A   1      33.656  31.793  27.279  1.00  0.00     0.338 C 
ATOM     25  O   UNL A   1      33.054  32.792  27.625  1.00  0.00    -0.246 OA
BRANCH  24  26
ATOM     26  C   UNL A   1      34.924  31.381  27.889  1.00  0.00     0.060 A 
ATOM     27  C   UNL A   1      35.042  30.076  28.362  1.00  0.00     0.016 A 
ATOM     28  C   UNL A   1      35.927  32.319  28.133  1.00  0.00     0.016 A 
ATOM     29  C   UNL A   1      36.148  29.705  29.118  1.00  0.00     0.010 A 
ATOM     30  C   UNL A   1      37.064  31.933  28.851  1.00  0.00     0.010 A 
ATOM     31  C   UNL A   1      37.174  30.627  29.362  1.00  0.00    -0.014 A 
BRANCH  31  32
ATOM     32  C   UNL A   1      38.364  30.207  30.139  1.00  0.00     0.031 A 
ATOM     33  C   UNL A   1      39.379  29.275  29.543  1.00  0.00     0.074 A 
ATOM     34  C   UNL A   1      38.536  30.691  31.383  1.00  0.00     0.049 A 
ATOM     35  N   UNL A   1      40.429  28.732  30.107  1.00  0.00    -0.248 NA
ATOM     36  C   UNL A   1      39.191  28.903  28.133  1.00  0.00     0.031 C 
ATOM     37  C   UNL A   1      37.638  31.634  32.050  1.00  0.00     0.029 A 
ATOM     38  N   UNL A   1      39.523  30.460  32.307  1.00  0.00    -0.354 N 
ATOM     39  C   UNL A   1      41.012  27.935  29.132  1.00  0.00     0.074 A 
ATOM     40  C   UNL A   1      40.196  28.059  27.941  1.00  0.00     0.031 C 
ATOM     41  C   UNL A   1      38.123  31.914  33.269  1.00  0.00     0.029 A 
ATOM     42  C   UNL A   1      39.331  31.127  33.491  1.00  0.00     0.049 A 
ATOM     43  H   UNL A   1      40.296  29.872  32.137  1.00  0.00     0.167 HD
ATOM     44  C   UNL A   1      42.127  27.173  29.229  1.00  0.00     0.037 A 
ATOM     45  C   UNL A   1      40.032  31.085  34.639  1.00  0.00     0.037 A 
ATOM     46  C   UNL A   1      42.952  27.075  30.407  1.00  0.00     0.049 A 
ATOM     47  C   UNL A   1      41.239  30.198  34.729  1.00  0.00     0.074 A 
ATOM     48  C   UNL A   1      44.113  26.343  30.592  1.00  0.00     0.029 A 
ATOM     49  N   UNL A   1      42.704  27.738  31.600  1.00  0.00    -0.354 N 
ATOM     50  N   UNL A   1      41.770  29.429  33.811  1.00  0.00    -0.248 NA
ATOM     51  C   UNL A   1      41.938  30.162  36.021  1.00  0.00     0.031 C 
ATOM     52  C   UNL A   1      44.548  26.536  31.908  1.00  0.00     0.029 A 
ATOM     53  C   UNL A   1      43.679  27.415  32.532  1.00  0.00     0.049 A 
ATOM     54  H   UNL A   1      41.947  28.347  31.762  1.00  0.00     0.167 HD
ATOM     55  C   UNL A   1      42.865  28.823  34.406  1.00  0.00     0.074 A 
ATOM     56  C   UNL A   1      42.938  29.330  35.762  1.00  0.00     0.031 C 
ATOM     57  C   UNL A   1      43.730  27.924  33.879  1.00  0.00     0.037 A 
BRANCH  44  58
ATOM     58  C   UNL A   1      42.512  26.354  28.033  1.00  0.00     0.064 A 
ATOM     59  C   UNL A   1      41.987  25.072  27.816  1.00  0.00     0.173 A 
ATOM     60  C   UNL A   1      43.380  26.881  27.066  1.00  0.00     0.173 A 
ATOM     61  F   UNL A   1      41.158  24.520  28.716  1.00  0.00    -0.203 F 
ATOM     62  C   UNL A   1      42.333  24.341  26.682  1.00  0.00     0.198 A 
ATOM     63  C   UNL A   1      43.706  26.157  25.923  1.00  0.00     0.198 A 
ATOM     64  F   UNL A   1      43.904  28.107  27.224  1.00  0.00    -0.203 F 
ATOM     65  F   UNL A   1      41.843  23.105  26.507  1.00  0.00    -0.200 F 
ATOM     66  C   UNL A   1      43.186  24.886  25.734  1.00  0.00     0.200 A 
ATOM     67  F   UNL A   1      44.523  26.690  25.003  1.00  0.00    -0.200 F 
ATOM     68  F   UNL A   1      43.511  24.184  24.639  1.00  0.00    -0.200 F 
ENDBRANCH  44  58
BRANCH  45  69
ATOM     69  C   UNL A   1      39.585  31.894  35.800  1.00  0.00     0.064 A 
ATOM     70  C   UNL A   1      40.184  33.126  36.094  1.00  0.00     0.173 A 
ATOM     71  C   UNL A   1      38.540  31.459  36.627  1.00  0.00     0.173 A 
ATOM     72  F   UNL A   1      41.203  33.570  35.344  1.00  0.00    -0.203 F 
ATOM     73  C   UNL A   1      39.756  33.890  37.176  1.00  0.00     0.198 A 
ATOM     74  C   UNL A   1      38.095  32.236  37.694  1.00  0.00     0.198 A 
ATOM     75  F   UNL A   1      37.936  30.286  36.386  1.00  0.00    -0.203 F 
ATOM     76  F   UNL A   1      40.365  35.050  37.457  1.00  0.00    -0.200 F 
ATOM     77  C   UNL A   1      38.707  33.450  37.970  1.00  0.00     0.200 A 
ATOM     78  F   UNL A   1      37.075  31.811  38.451  1.00  0.00    -0.200 F 
ATOM     79  F   UNL A   1      38.291  34.190  39.005  1.00  0.00    -0.200 F 
ENDBRANCH  45  69
BRANCH  57  80
ATOM     80  C   UNL A   1      44.833  27.440  34.772  1.00  0.00     0.064 A 
ATOM     81  C   UNL A   1      44.683  26.288  35.557  1.00  0.00     0.173 A 
ATOM     82  C   UNL A   1      46.056  28.123  34.827  1.00  0.00     0.173 A 
ATOM     83  F   UNL A   1      43.524  25.614  35.551  1.00  0.00    -0.203 F 
ATOM     84  C   UNL A   1      45.714  25.848  36.383  1.00  0.00     0.198 A 
ATOM     85  C   UNL A   1      47.093  27.667  35.638  1.00  0.00     0.198 A 
ATOM     86  F   UNL A   1      46.248  29.230  34.094  1.00  0.00    -0.203 F 
ATOM     87  F   UNL A   1      45.535  24.769  37.157  1.00  0.00    -0.200 F 
ATOM     88  C   UNL A   1      46.918  26.535  36.420  1.00  0.00     0.200 A 
ATOM     89  F   UNL A   1      48.258  28.328  35.667  1.00  0.00    -0.200 F 
ATOM     90  F   UNL A   1      47.910  26.110  37.215  1.00  0.00    -0.200 F 
ENDBRANCH  57  80
ENDBRANCH  31  32
ENDBRANCH  24  26
ENDBRANCH  23  24
ENDBRANCH  22  23
ENDBRANCH   1  22
TORSDOF 14
ENDMDL
MODEL 2
REMARK VINA RESULT:     -11.6      4.544     10.036
REMARK SMILES CC(=C\c1ccco1)/C=C1/SC(=S)N(CC(=O)OCCOC(=O)c2ccc(-c3c4nc(c(-c5c(F)c(F)c(F)c(F)c5F)c5ccc([nH]5)c(-c5c(F)c(F)c(F)c(F)c5F)c5nc(c(-c6c(F)c(F)c(F)c(F)c6F)c6ccc3[nH]6)C=C5)C=C4)cc2)C1=O
REMARK SMILES IDX 19 1 18 2 16 3 17 4 15 5 14 6 9 7 10 8 11 9 87 10 12 11
REMARK SMILES IDX 88 12 13 13 2 14 1 15 3 16 4 17 5 18 8 19 6 20 7 21 20 22
REMARK SMILES IDX 21 23 22 24 23 25 24 26 25 27 86 28 26 29 85 30 27 31 28 32
REMARK SMILES IDX 29 33 79 34 30 35 84 36 78 37 80 38 31 39 83 40 77 41 76 42
REMARK SMILES IDX 32 44 64 45 44 46 63 47 45 48 48 49 62 50 81 51 46 52 47 53
REMARK SMILES IDX 61 55 82 56 49 57 33 58 34 59 42 60 35 61 36 62 40 63 43 64
REMARK SMILES IDX 37 65 38 66 41 67 39 68 65 69 66 70 74 71 67 72 68 73 72 74
REMARK SMILES IDX 75 75 69 76 70 77 73 78 71 79 50 80 51 81 59 82 52 83 53 84
REMARK SMILES IDX 57 85 60 86 54 87 55 88 58 89 56 90
REMARK H PARENT 80 43 48 54
REMARK Flexibility Score: inf
ROOT
ATOM      1  C   UNL A   1      35.919  20.822  24.626  1.00  0.00     0.274 C 
ENDROOT
BRANCH   1   2
ATOM      2  O   UNL A   1      35.593  22.232  24.635  1.00  0.00    -0.461 OA
BRANCH   2   3
ATOM      3  C   UNL A   1      35.498  22.826  23.417  1.00  0.00     0.326 C 
ATOM      4  O   UNL A   1      36.454  23.255  22.777  1.00  0.00    -0.250 OA
BRANCH   3   5
ATOM      5  C   UNL A   1      34.071  22.957  22.894  1.00  0.00     0.250 C 
BRANCH   5   6
ATOM      6  N   UNL A   1      33.004  23.052  23.888  1.00  0.00    -0.282 N 
ATOM      7  C   UNL A   1      30.643  25.098  25.733  1.00  0.00     0.024 C 
ATOM      8  C   UNL A   1      31.535  24.172  25.351  1.00  0.00     0.080 C 
ATOM      9  S   UNL A   1      31.356  22.508  25.785  1.00  0.00    -0.054 SA
ATOM     10  C   UNL A   1      32.674  24.299  24.400  1.00  0.00     0.266 C 
ATOM     11  C   UNL A   1      32.370  21.969  24.452  1.00  0.00     0.148 C 
ATOM     12  O   UNL A   1      33.302  25.329  24.209  1.00  0.00    -0.268 OA
ATOM     13  S   UNL A   1      32.503  20.362  24.025  1.00  0.00    -0.052 S 
BRANCH   7  14
ATOM     14  C   UNL A   1      30.426  26.409  25.135  1.00  0.00    -0.046 C 
ATOM     15  C   UNL A   1      31.085  27.510  25.930  1.00  0.00     0.044 C 
ATOM     16  C   UNL A   1      29.742  26.559  23.985  1.00  0.00     0.050 C 
BRANCH  16  17
ATOM     17  C   UNL A   1      29.605  27.788  23.266  1.00  0.00     0.126 A 
ATOM     18  C   UNL A   1      30.524  28.545  22.541  1.00  0.00     0.050 A 
ATOM     19  O   UNL A   1      28.382  28.420  23.129  1.00  0.00    -0.465 OA
ATOM     20  C   UNL A   1      29.859  29.670  22.002  1.00  0.00     0.042 A 
ATOM     21  C   UNL A   1      28.551  29.539  22.384  1.00  0.00     0.195 A 
ENDBRANCH  16  17
ENDBRANCH   7  14
ENDBRANCH   5   6
ENDBRANCH   3   5
ENDBRANCH   2   3
ENDBRANCH   1   2
BRANCH   1  22
ATOM     22  C   UNL A   1      37.361  20.558  25.069  1.00  0.00     0.275 C 
BRANCH  22  23
ATOM     23  O   UNL A   1      37.883  21.644  25.856  1.00  0.00    -0.458 OA
BRANCH  23  24
ATOM     24  C   UNL A   1      39.163  21.451  26.253  1.00  0.00     0.338 C 
ATOM     25  O   UNL A   1      39.785  20.408  26.187  1.00  0.00    -0.246 OA
BRANCH  24  26
ATOM     26  C   UNL A   1      39.762  22.704  26.724  1.00  0.00     0.060 A 
ATOM     27  C   UNL A   1      39.315  23.903  26.174  1.00  0.00     0.016 A 
ATOM     28  C   UNL A   1      40.863  22.681  27.582  1.00  0.00     0.016 A 
ATOM     29  C   UNL A   1      39.988  25.089  26.446  1.00  0.00     0.010 A 
ATOM     30  C   UNL A   1      41.510  23.881  27.895  1.00  0.00     0.010 A 
ATOM     31  C   UNL A   1      41.086  25.090  27.317  1.00  0.00    -0.014 A 
BRANCH  31  32
ATOM     32  C   UNL A   1      41.771  26.368  27.625  1.00  0.00     0.031 A 
ATOM     33  C   UNL A   1      41.087  27.427  28.440  1.00  0.00     0.074 A 
ATOM     34  C   UNL A   1      43.028  26.559  27.183  1.00  0.00     0.049 A 
ATOM     35  N   UNL A   1      41.498  28.637  28.729  1.00  0.00    -0.248 NA
ATOM     36  C   UNL A   1      39.771  27.086  29.002  1.00  0.00     0.031 C 
ATOM     37  C   UNL A   1      43.807  25.584  26.418  1.00  0.00     0.029 A 
ATOM     38  N   UNL A   1      43.872  27.632  27.314  1.00  0.00    -0.354 N 
ATOM     39  C   UNL A   1      40.484  29.211  29.482  1.00  0.00     0.074 A 
ATOM     40  C   UNL A   1      39.434  28.220  29.602  1.00  0.00     0.031 C 
ATOM     41  C   UNL A   1      45.020  26.097  26.161  1.00  0.00     0.029 A 
ATOM     42  C   UNL A   1      45.082  27.455  26.691  1.00  0.00     0.049 A 
ATOM     43  H   UNL A   1      43.632  28.450  27.807  1.00  0.00     0.167 HD
ATOM     44  C   UNL A   1      40.441  30.452  30.023  1.00  0.00     0.037 A 
ATOM     45  C   UNL A   1      46.115  28.304  26.536  1.00  0.00     0.037 A 
ATOM     46  C   UNL A   1      41.501  31.423  29.926  1.00  0.00     0.049 A 
ATOM     47  C   UNL A   1      46.020  29.687  27.110  1.00  0.00     0.074 A 
ATOM     48  C   UNL A   1      41.555  32.701  30.459  1.00  0.00     0.029 A 
ATOM     49  N   UNL A   1      42.698  31.221  29.255  1.00  0.00    -0.354 N 
ATOM     50  N   UNL A   1      45.048  30.230  27.800  1.00  0.00    -0.248 NA
ATOM     51  C   UNL A   1      47.161  30.581  26.872  1.00  0.00     0.031 C 
ATOM     52  C   UNL A   1      42.770  33.283  30.081  1.00  0.00     0.029 A 
ATOM     53  C   UNL A   1      43.488  32.357  29.342  1.00  0.00     0.049 A 
ATOM     54  H   UNL A   1      42.949  30.393  28.784  1.00  0.00     0.167 HD
ATOM     55  C   UNL A   1      45.458  31.523  28.085  1.00  0.00     0.074 A 
ATOM     56  C   UNL A   1      46.780  31.679  27.511  1.00  0.00     0.031 C 
ATOM     57  C   UNL A   1      44.798  32.496  28.758  1.00  0.00     0.037 A 
BRANCH  44  58
ATOM     58  C   UNL A   1      39.190  30.847  30.749  1.00  0.00     0.064 A 
ATOM     59  C   UNL A   1      38.086  31.390  30.077  1.00  0.00     0.173 A 
ATOM     60  C   UNL A   1      39.079  30.634  32.131  1.00  0.00     0.173 A 
ATOM     61  F   UNL A   1      38.146  31.620  28.756  1.00  0.00    -0.203 F 
ATOM     62  C   UNL A   1      36.921  31.721  30.766  1.00  0.00     0.198 A 
ATOM     63  C   UNL A   1      37.906  30.945  32.814  1.00  0.00     0.198 A 
ATOM     64  F   UNL A   1      40.106  30.111  32.819  1.00  0.00    -0.203 F 
ATOM     65  F   UNL A   1      35.887  32.265  30.109  1.00  0.00    -0.200 F 
ATOM     66  C   UNL A   1      36.830  31.492  32.131  1.00  0.00     0.200 A 
ATOM     67  F   UNL A   1      37.816  30.714  34.131  1.00  0.00    -0.200 F 
ATOM     68  F   UNL A   1      35.706  31.803  32.791  1.00  0.00    -0.200 F 
ENDBRANCH  44  58
BRANCH  45  69
ATOM     69  C   UNL A   1      47.315  27.867  25.780  1.00  0.00     0.064 A 
ATOM     70  C   UNL A   1      47.319  27.852  24.380  1.00  0.00     0.173 A 
ATOM     71  C   UNL A   1      48.485  27.471  26.443  1.00  0.00     0.173 A 
ATOM     72  F   UNL A   1      46.214  28.199  23.704  1.00  0.00    -0.203 F 
ATOM     73  C   UNL A   1      48.449  27.453  23.670  1.00  0.00     0.198 A 
ATOM     74  C   UNL A   1      49.623  27.096  25.733  1.00  0.00     0.198 A 
ATOM     75  F   UNL A   1      48.530  27.467  27.784  1.00  0.00    -0.203 F 
ATOM     76  F   UNL A   1      48.418  27.416  22.331  1.00  0.00    -0.200 F 
ATOM     77  C   UNL A   1      49.602  27.084  24.347  1.00  0.00     0.200 A 
ATOM     78  F   UNL A   1      50.738  26.751  26.391  1.00  0.00    -0.200 F 
ATOM     79  F   UNL A   1      50.691  26.708  23.663  1.00  0.00    -0.200 F 
ENDBRANCH  45  69
BRANCH  57  80
ATOM     80  C   UNL A   1      45.502  33.810  28.914  1.00  0.00     0.064 A 
ATOM     81  C   UNL A   1      46.364  34.052  29.993  1.00  0.00     0.173 A 
ATOM     82  C   UNL A   1      45.328  34.828  27.966  1.00  0.00     0.173 A 
ATOM     83  F   UNL A   1      46.545  33.114  30.935  1.00  0.00    -0.203 F 
ATOM     84  C   UNL A   1      47.012  35.276  30.129  1.00  0.00     0.198 A 
ATOM     85  C   UNL A   1      45.996  36.044  28.093  1.00  0.00     0.198 A 
ATOM     86  F   UNL A   1      44.515  34.644  26.915  1.00  0.00    -0.203 F 
ATOM     87  F   UNL A   1      47.798  35.502  31.190  1.00  0.00    -0.200 F 
ATOM     88  C   UNL A   1      46.831  36.269  29.177  1.00  0.00     0.200 A 
ATOM     89  F   UNL A   1      45.825  37.000  27.170  1.00  0.00    -0.200 F 
ATOM     90  F   UNL A   1      47.456  37.447  29.309  1.00  0.00    -0.200 F 
ENDBRANCH  57  80
ENDBRANCH  31  32
ENDBRANCH  24  26
ENDBRANCH  23  24
ENDBRANCH  22  23
ENDBRANCH   1  22
TORSDOF 14
ENDMDL
MODEL 3
REMARK VINA RESULT:     -11.6      1.674      3.071
REMARK SMILES CC(=C\c1ccco1)/C=C1/SC(=S)N(CC(=O)OCCOC(=O)c2ccc(-c3c4nc(c(-c5c(F)c(F)c(F)c(F)c5F)c5ccc([nH]5)c(-c5c(F)c(F)c(F)c(F)c5F)c5nc(c(-c6c(F)c(F)c(F)c(F)c6F)c6ccc3[nH]6)C=C5)C=C4)cc2)C1=O
REMARK SMILES IDX 19 1 18 2 16 3 17 4 15 5 14 6 9 7 10 8 11 9 87 10 12 11
REMARK SMILES IDX 88 12 13 13 2 14 1 15 3 16 4 17 5 18 8 19 6 20 7 21 20 22
REMARK SMILES IDX 21 23 22 24 23 25 24 26 25 27 86 28 26 29 85 30 27 31 28 32
REMARK SMILES IDX 29 33 79 34 30 35 84 36 78 37 80 38 31 39 83 40 77 41 76 42
REMARK SMILES IDX 32 44 64 45 44 46 63 47 45 48 48 49 62 50 81 51 46 52 47 53
REMARK SMILES IDX 61 55 82 56 49 57 33 58 34 59 42 60 35 61 36 62 40 63 43 64
REMARK SMILES IDX 37 65 38 66 41 67 39 68 65 69 66 70 74 71 67 72 68 73 72 74
REMARK SMILES IDX 75 75 69 76 70 77 73 78 71 79 50 80 51 81 59 82 52 83 53 84
REMARK SMILES IDX 57 85 60 86 54 87 55 88 58 89 56 90
REMARK H PARENT 80 43 48 54
REMARK Flexibility Score: inf
ROOT
ATOM      1  C   UNL A   1      31.867  28.011  26.515  1.00  0.00     0.274 C 
ENDROOT
BRANCH   1   2
ATOM      2  O   UNL A   1      31.024  27.583  25.420  1.00  0.00    -0.461 OA
BRANCH   2   3
ATOM      3  C   UNL A   1      30.789  26.247  25.340  1.00  0.00     0.326 C 
ATOM      4  O   UNL A   1      29.961  25.731  24.593  1.00  0.00    -0.250 OA
BRANCH   3   5
ATOM      5  C   UNL A   1      31.630  25.404  26.293  1.00  0.00     0.250 C 
BRANCH   5   6
ATOM      6  N   UNL A   1      31.979  24.055  25.857  1.00  0.00    -0.282 N 
ATOM      7  C   UNL A   1      34.459  21.749  24.556  1.00  0.00     0.024 C 
ATOM      8  C   UNL A   1      33.331  22.418  24.834  1.00  0.00     0.080 C 
ATOM      9  S   UNL A   1      31.836  21.596  25.116  1.00  0.00    -0.054 SA
ATOM     10  C   UNL A   1      33.145  23.866  25.128  1.00  0.00     0.266 C 
ATOM     11  C   UNL A   1      31.167  22.954  26.014  1.00  0.00     0.148 C 
ATOM     12  O   UNL A   1      33.847  24.758  24.677  1.00  0.00    -0.268 OA
ATOM     13  S   UNL A   1      29.745  22.840  26.875  1.00  0.00    -0.052 S 
BRANCH   7  14
ATOM     14  C   UNL A   1      35.827  22.232  24.696  1.00  0.00    -0.046 C 
ATOM     15  C   UNL A   1      36.361  22.802  23.405  1.00  0.00     0.044 C 
ATOM     16  C   UNL A   1      36.476  22.187  25.875  1.00  0.00     0.050 C 
BRANCH  16  17
ATOM     17  C   UNL A   1      37.761  22.765  26.126  1.00  0.00     0.126 A 
ATOM     18  C   UNL A   1      38.152  24.077  26.390  1.00  0.00     0.050 A 
ATOM     19  O   UNL A   1      38.904  21.990  26.215  1.00  0.00    -0.465 OA
ATOM     20  C   UNL A   1      39.551  24.101  26.591  1.00  0.00     0.042 A 
ATOM     21  C   UNL A   1      39.958  22.799  26.482  1.00  0.00     0.195 A 
ENDBRANCH  16  17
ENDBRANCH   7  14
ENDBRANCH   5   6
ENDBRANCH   3   5
ENDBRANCH   2   3
ENDBRANCH   1   2
BRANCH   1  22
ATOM     22  C   UNL A   1      31.870  29.534  26.683  1.00  0.00     0.275 C 
BRANCH  22  23
ATOM     23  O   UNL A   1      33.124  30.111  26.275  1.00  0.00    -0.458 OA
BRANCH  23  24
ATOM     24  C   UNL A   1      33.501  31.165  27.037  1.00  0.00     0.338 C 
ATOM     25  O   UNL A   1      32.846  32.168  27.248  1.00  0.00    -0.246 OA
BRANCH  24  26
ATOM     26  C   UNL A   1      34.805  30.922  27.662  1.00  0.00     0.060 A 
ATOM     27  C   UNL A   1      35.120  29.626  28.063  1.00  0.00     0.016 A 
ATOM     28  C   UNL A   1      35.640  31.991  27.990  1.00  0.00     0.016 A 
ATOM     29  C   UNL A   1      36.254  29.389  28.831  1.00  0.00     0.010 A 
ATOM     30  C   UNL A   1      36.808  31.746  28.720  1.00  0.00     0.010 A 
ATOM     31  C   UNL A   1      37.114  30.446  29.158  1.00  0.00    -0.014 A 
BRANCH  31  32
ATOM     32  C   UNL A   1      38.339  30.172  29.947  1.00  0.00     0.031 A 
ATOM     33  C   UNL A   1      39.467  29.377  29.360  1.00  0.00     0.074 A 
ATOM     34  C   UNL A   1      38.436  30.668  31.195  1.00  0.00     0.049 A 
ATOM     35  N   UNL A   1      40.571  28.965  29.933  1.00  0.00    -0.248 NA
ATOM     36  C   UNL A   1      39.342  28.992  27.946  1.00  0.00     0.031 C 
ATOM     37  C   UNL A   1      37.420  31.489  31.856  1.00  0.00     0.029 A 
ATOM     38  N   UNL A   1      39.434  30.556  32.130  1.00  0.00    -0.354 N 
ATOM     39  C   UNL A   1      41.258  28.252  28.962  1.00  0.00     0.074 A 
ATOM     40  C   UNL A   1      40.446  28.281  27.762  1.00  0.00     0.031 C 
ATOM     41  C   UNL A   1      37.853  31.821  33.082  1.00  0.00     0.029 A 
ATOM     42  C   UNL A   1      39.148  31.188  33.313  1.00  0.00     0.049 A 
ATOM     43  H   UNL A   1      40.275  30.070  31.966  1.00  0.00     0.167 HD
ATOM     44  C   UNL A   1      42.459  27.634  29.068  1.00  0.00     0.037 A 
ATOM     45  C   UNL A   1      39.837  31.228  34.469  1.00  0.00     0.037 A 
ATOM     46  C   UNL A   1      43.276  27.634  30.255  1.00  0.00     0.049 A 
ATOM     47  C   UNL A   1      41.143  30.497  34.570  1.00  0.00     0.074 A 
ATOM     48  C   UNL A   1      44.517  27.050  30.450  1.00  0.00     0.029 A 
ATOM     49  N   UNL A   1      42.936  28.254  31.448  1.00  0.00    -0.354 N 
ATOM     50  N   UNL A   1      41.775  29.804  33.654  1.00  0.00    -0.248 NA
ATOM     51  C   UNL A   1      41.828  30.542  35.869  1.00  0.00     0.031 C 
ATOM     52  C   UNL A   1      44.911  27.289  31.772  1.00  0.00     0.029 A 
ATOM     53  C   UNL A   1      43.933  28.050  32.390  1.00  0.00     0.049 A 
ATOM     54  H   UNL A   1      42.107  28.764  31.604  1.00  0.00     0.167 HD
ATOM     55  C   UNL A   1      42.931  29.337  34.259  1.00  0.00     0.074 A 
ATOM     56  C   UNL A   1      42.926  29.841  35.618  1.00  0.00     0.031 C 
ATOM     57  C   UNL A   1      43.907  28.554  33.739  1.00  0.00     0.037 A 
BRANCH  44  58
ATOM     58  C   UNL A   1      42.955  26.875  27.874  1.00  0.00     0.064 A 
ATOM     59  C   UNL A   1      43.666  27.504  26.842  1.00  0.00     0.173 A 
ATOM     60  C   UNL A   1      42.758  25.489  27.787  1.00  0.00     0.173 A 
ATOM     61  F   UNL A   1      43.874  28.829  26.875  1.00  0.00    -0.203 F 
ATOM     62  C   UNL A   1      44.146  26.774  25.757  1.00  0.00     0.198 A 
ATOM     63  C   UNL A   1      43.258  24.758  26.712  1.00  0.00     0.198 A 
ATOM     64  F   UNL A   1      42.089  24.839  28.753  1.00  0.00    -0.203 F 
ATOM     65  F   UNL A   1      44.798  27.399  24.766  1.00  0.00    -0.200 F 
ATOM     66  C   UNL A   1      43.948  25.403  25.696  1.00  0.00     0.200 A 
ATOM     67  F   UNL A   1      43.074  23.432  26.661  1.00  0.00    -0.200 F 
ATOM     68  F   UNL A   1      44.417  24.700  24.656  1.00  0.00    -0.200 F 
ENDBRANCH  44  58
BRANCH  45  69
ATOM     69  C   UNL A   1      39.280  31.969  35.628  1.00  0.00     0.064 A 
ATOM     70  C   UNL A   1      38.403  31.349  36.527  1.00  0.00     0.173 A 
ATOM     71  C   UNL A   1      39.628  33.306  35.868  1.00  0.00     0.173 A 
ATOM     72  F   UNL A   1      38.024  30.079  36.323  1.00  0.00    -0.203 F 
ATOM     73  C   UNL A   1      37.890  32.041  37.621  1.00  0.00     0.198 A 
ATOM     74  C   UNL A   1      39.135  33.990  36.977  1.00  0.00     0.198 A 
ATOM     75  F   UNL A   1      40.464  33.943  35.035  1.00  0.00    -0.203 F 
ATOM     76  F   UNL A   1      37.027  31.436  38.449  1.00  0.00    -0.200 F 
ATOM     77  C   UNL A   1      38.262  33.358  37.850  1.00  0.00     0.200 A 
ATOM     78  F   UNL A   1      39.506  35.258  37.200  1.00  0.00    -0.200 F 
ATOM     79  F   UNL A   1      37.775  34.019  38.908  1.00  0.00    -0.200 F 
ENDBRANCH  45  69
BRANCH  57  80
ATOM     80  C   UNL A   1      45.052  28.207  34.642  1.00  0.00     0.064 A 
ATOM     81  C   UNL A   1      46.182  29.031  34.736  1.00  0.00     0.173 A 
ATOM     82  C   UNL A   1      45.008  27.051  35.434  1.00  0.00     0.173 A 
ATOM     83  F   UNL A   1      46.275  30.137  33.983  1.00  0.00    -0.203 F 
ATOM     84  C   UNL A   1      47.240  28.699  35.578  1.00  0.00     0.198 A 
ATOM     85  C   UNL A   1      46.059  26.733  36.291  1.00  0.00     0.198 A 
ATOM     86  F   UNL A   1      43.948  26.231  35.380  1.00  0.00    -0.203 F 
ATOM     87  F   UNL A   1      48.329  29.478  35.622  1.00  0.00    -0.200 F 
ATOM     88  C   UNL A   1      47.176  27.553  36.358  1.00  0.00     0.200 A 
ATOM     89  F   UNL A   1      45.993  25.630  37.049  1.00  0.00    -0.200 F 
ATOM     90  F   UNL A   1      48.195  27.234  37.167  1.00  0.00    -0.200 F 
ENDBRANCH  57  80
ENDBRANCH  31  32
ENDBRANCH  24  26
ENDBRANCH  23  24
ENDBRANCH  22  23
ENDBRANCH   1  22
TORSDOF 14
ENDMDL
