MODEL 1
REMARK VINA RESULT:     -11.3      0.000      0.000
REMARK SMILES O=C(OCCOC(=O)[C@@H]1CSCN1C(=O)CN1C(=O)CNC1=O)c1ccc(-c2c3nc(c(-c4c(F)c(F)c(F)c(F)c4F)c4ccc([nH]4)c(-c4c(F)c(F)c(F)c(F)c4F)c4nc(c(-c5c(F)c(F)c(F)c(F)c5F)c5ccc2[nH]5)C=C4)C=C3)cc1
REMARK SMILES IDX 5 1 4 2 3 3 2 4 1 5 24 6 25 7 86 8 26 9 85 10 27 11 28 12
REMARK SMILES IDX 29 13 79 14 30 15 84 16 78 17 80 18 31 19 83 20 77 21 76 22
REMARK SMILES IDX 32 24 64 25 44 26 63 27 45 28 48 29 62 30 81 31 46 32 47 33
REMARK SMILES IDX 61 35 82 36 49 37 33 38 34 39 42 40 35 41 36 42 40 43 43 44
REMARK SMILES IDX 37 45 38 46 41 47 39 48 65 49 66 50 74 51 67 52 68 53 72 54
REMARK SMILES IDX 75 55 69 56 70 57 73 58 71 59 50 60 51 61 59 62 52 63 53 64
REMARK SMILES IDX 57 65 60 66 54 67 55 68 58 69 56 70 6 71 7 72 8 73 9 74
REMARK SMILES IDX 10 75 13 76 11 77 12 78 14 79 15 80 16 81 17 82 18 83 22 84
REMARK SMILES IDX 19 85 20 86 21 87 23 88
REMARK H PARENT 80 23 48 34 21 89
REMARK Flexibility Score: inf
ROOT
ATOM      1  C   UNL A   1      31.870  30.720  26.715  1.00  0.00     0.274 C 
ENDROOT
BRANCH   1   2
ATOM      2  C   UNL A   1      31.841  32.241  26.578  1.00  0.00     0.275 C 
BRANCH   2   3
ATOM      3  O   UNL A   1      32.466  32.980  27.642  1.00  0.00    -0.458 OA
BRANCH   3   4
ATOM      4  C   UNL A   1      33.702  33.520  27.736  1.00  0.00     0.338 C 
ATOM      5  O   UNL A   1      33.919  34.620  27.233  1.00  0.00    -0.246 OA
BRANCH   4   6
ATOM      6  C   UNL A   1      34.848  32.809  28.373  1.00  0.00     0.060 A 
ATOM      7  C   UNL A   1      34.765  31.586  29.041  1.00  0.00     0.016 A 
ATOM      8  C   UNL A   1      36.087  33.471  28.364  1.00  0.00     0.016 A 
ATOM      9  C   UNL A   1      35.906  30.983  29.584  1.00  0.00     0.010 A 
ATOM     10  C   UNL A   1      37.231  32.879  28.914  1.00  0.00     0.010 A 
ATOM     11  C   UNL A   1      37.149  31.619  29.517  1.00  0.00    -0.014 A 
BRANCH  11  12
ATOM     12  C   UNL A   1      38.322  31.007  30.185  1.00  0.00     0.031 A 
ATOM     13  C   UNL A   1      38.626  31.381  31.603  1.00  0.00     0.074 A 
ATOM     14  C   UNL A   1      39.077  30.093  29.547  1.00  0.00     0.049 A 
ATOM     15  N   UNL A   1      39.492  30.854  32.430  1.00  0.00    -0.248 NA
ATOM     16  C   UNL A   1      37.836  32.483  32.177  1.00  0.00     0.031 C 
ATOM     17  C   UNL A   1      38.872  29.637  28.175  1.00  0.00     0.029 A 
ATOM     18  N   UNL A   1      40.173  29.382  29.968  1.00  0.00    -0.354 N 
ATOM     19  C   UNL A   1      39.313  31.522  33.632  1.00  0.00     0.074 A 
ATOM     20  C   UNL A   1      38.326  32.554  33.405  1.00  0.00     0.031 C 
ATOM     21  C   UNL A   1      39.830  28.754  27.850  1.00  0.00     0.029 A 
ATOM     22  C   UNL A   1      40.698  28.554  29.004  1.00  0.00     0.049 A 
ATOM     23  H   UNL A   1      40.548  29.458  30.876  1.00  0.00     0.167 HD
ATOM     24  C   UNL A   1      39.884  31.263  34.832  1.00  0.00     0.037 A 
ATOM     25  C   UNL A   1      41.746  27.712  29.060  1.00  0.00     0.037 A 
ATOM     26  C   UNL A   1      40.892  30.262  35.039  1.00  0.00     0.049 A 
ATOM     27  C   UNL A   1      42.446  27.519  30.379  1.00  0.00     0.074 A 
ATOM     28  C   UNL A   1      41.536  29.907  36.209  1.00  0.00     0.029 A 
ATOM     29  N   UNL A   1      41.422  29.466  34.031  1.00  0.00    -0.354 N 
ATOM     30  N   UNL A   1      42.185  28.068  31.541  1.00  0.00    -0.248 NA
ATOM     31  C   UNL A   1      43.555  26.557  30.404  1.00  0.00     0.031 C 
ATOM     32  C   UNL A   1      42.487  28.925  35.901  1.00  0.00     0.029 A 
ATOM     33  C   UNL A   1      42.405  28.640  34.547  1.00  0.00     0.049 A 
ATOM     34  H   UNL A   1      41.139  29.488  33.088  1.00  0.00     0.167 HD
ATOM     35  C   UNL A   1      43.055  27.478  32.446  1.00  0.00     0.074 A 
ATOM     36  C   UNL A   1      43.857  26.532  31.695  1.00  0.00     0.031 C 
ATOM     37  C   UNL A   1      43.170  27.688  33.781  1.00  0.00     0.037 A 
BRANCH  24  38
ATOM     38  C   UNL A   1      39.405  32.088  35.988  1.00  0.00     0.064 A 
ATOM     39  C   UNL A   1      40.007  33.319  36.298  1.00  0.00     0.173 A 
ATOM     40  C   UNL A   1      38.386  31.624  36.831  1.00  0.00     0.173 A 
ATOM     41  F   UNL A   1      41.000  33.797  35.531  1.00  0.00    -0.203 F 
ATOM     42  C   UNL A   1      39.642  34.029  37.438  1.00  0.00     0.198 A 
ATOM     43  C   UNL A   1      38.006  32.350  37.957  1.00  0.00     0.198 A 
ATOM     44  F   UNL A   1      37.780  30.455  36.579  1.00  0.00    -0.203 F 
ATOM     45  F   UNL A   1      40.283  35.163  37.753  1.00  0.00    -0.200 F 
ATOM     46  C   UNL A   1      38.643  33.543  38.267  1.00  0.00     0.200 A 
ATOM     47  F   UNL A   1      37.038  31.883  38.757  1.00  0.00    -0.200 F 
ATOM     48  F   UNL A   1      38.307  34.215  39.377  1.00  0.00    -0.200 F 
ENDBRANCH  24  38
BRANCH  25  49
ATOM     49  C   UNL A   1      42.151  26.932  27.861  1.00  0.00     0.064 A 
ATOM     50  C   UNL A   1      41.611  25.664  27.607  1.00  0.00     0.173 A 
ATOM     51  C   UNL A   1      43.103  27.427  26.958  1.00  0.00     0.173 A 
ATOM     52  F   UNL A   1      40.707  25.140  28.449  1.00  0.00    -0.203 F 
ATOM     53  C   UNL A   1      42.028  24.909  26.512  1.00  0.00     0.198 A 
ATOM     54  C   UNL A   1      43.504  26.680  25.852  1.00  0.00     0.198 A 
ATOM     55  F   UNL A   1      43.647  28.637  27.154  1.00  0.00    -0.203 F 
ATOM     56  F   UNL A   1      41.530  23.680  26.320  1.00  0.00    -0.200 F 
ATOM     57  C   UNL A   1      42.975  25.417  25.635  1.00  0.00     0.200 A 
ATOM     58  F   UNL A   1      44.413  27.178  25.001  1.00  0.00    -0.200 F 
ATOM     59  F   UNL A   1      43.380  24.687  24.587  1.00  0.00    -0.200 F 
ENDBRANCH  25  49
BRANCH  37  60
ATOM     60  C   UNL A   1      44.159  26.840  34.523  1.00  0.00     0.064 A 
ATOM     61  C   UNL A   1      45.467  27.278  34.774  1.00  0.00     0.173 A 
ATOM     62  C   UNL A   1      43.773  25.591  35.033  1.00  0.00     0.173 A 
ATOM     63  F   UNL A   1      45.888  28.457  34.290  1.00  0.00    -0.203 F 
ATOM     64  C   UNL A   1      46.359  26.488  35.493  1.00  0.00     0.198 A 
ATOM     65  C   UNL A   1      44.658  24.817  35.776  1.00  0.00     0.198 A 
ATOM     66  F   UNL A   1      42.531  25.129  34.822  1.00  0.00    -0.203 F 
ATOM     67  F   UNL A   1      47.617  26.907  35.684  1.00  0.00    -0.200 F 
ATOM     68  C   UNL A   1      45.951  25.263  36.001  1.00  0.00     0.200 A 
ATOM     69  F   UNL A   1      44.258  23.640  36.277  1.00  0.00    -0.200 F 
ATOM     70  F   UNL A   1      46.808  24.509  36.704  1.00  0.00    -0.200 F 
ENDBRANCH  37  60
ENDBRANCH  11  12
ENDBRANCH   4   6
ENDBRANCH   3   4
ENDBRANCH   2   3
ENDBRANCH   1   2
BRANCH   1  71
ATOM     71  O   UNL A   1      32.613  30.016  25.706  1.00  0.00    -0.461 OA
BRANCH  71  72
ATOM     72  C   UNL A   1      31.848  29.326  24.800  1.00  0.00     0.329 C 
ATOM     73  O   UNL A   1      30.736  29.703  24.451  1.00  0.00    -0.250 OA
BRANCH  72  74
ATOM     74  C   UNL A   1      32.498  27.983  24.380  1.00  0.00     0.206 C 
ATOM     75  C   UNL A   1      33.430  28.151  23.178  1.00  0.00     0.108 C 
ATOM     76  N   UNL A   1      31.506  26.926  24.075  1.00  0.00    -0.317 N 
ATOM     77  S   UNL A   1      33.281  26.635  22.216  1.00  0.00    -0.138 SA
ATOM     78  C   UNL A   1      31.569  26.420  22.721  1.00  0.00     0.190 C 
BRANCH  76  79
ATOM     79  C   UNL A   1      30.781  26.347  25.105  1.00  0.00     0.244 C 
ATOM     80  O   UNL A   1      29.557  26.207  25.017  1.00  0.00    -0.273 OA
BRANCH  79  81
ATOM     81  C   UNL A   1      31.526  25.812  26.335  1.00  0.00     0.230 C 
BRANCH  81  82
ATOM     82  N   UNL A   1      31.708  24.379  26.267  1.00  0.00    -0.253 N 
ATOM     83  C   UNL A   1      32.701  23.749  25.571  1.00  0.00     0.250 C 
ATOM     84  C   UNL A   1      30.807  23.469  26.724  1.00  0.00     0.325 C 
ATOM     85  O   UNL A   1      33.594  24.279  24.925  1.00  0.00    -0.272 OA
ATOM     86  C   UNL A   1      32.470  22.247  25.655  1.00  0.00     0.218 C 
ATOM     87  N   UNL A   1      31.270  22.208  26.435  1.00  0.00    -0.329 N 
ATOM     88  O   UNL A   1      29.733  23.697  27.250  1.00  0.00    -0.248 OA
ATOM     89  H   UNL A   1      30.828  21.378  26.729  1.00  0.00     0.165 HD
ENDBRANCH  81  82
ENDBRANCH  79  81
ENDBRANCH  76  79
ENDBRANCH  72  74
ENDBRANCH  71  72
ENDBRANCH   1  71
TORSDOF 14
ENDMDL
MODEL 2
REMARK VINA RESULT:     -11.2      1.734      3.243
REMARK SMILES O=C(OCCOC(=O)[C@@H]1CSCN1C(=O)CN1C(=O)CNC1=O)c1ccc(-c2c3nc(c(-c4c(F)c(F)c(F)c(F)c4F)c4ccc([nH]4)c(-c4c(F)c(F)c(F)c(F)c4F)c4nc(c(-c5c(F)c(F)c(F)c(F)c5F)c5ccc2[nH]5)C=C4)C=C3)cc1
REMARK SMILES IDX 5 1 4 2 3 3 2 4 1 5 24 6 25 7 86 8 26 9 85 10 27 11 28 12
REMARK SMILES IDX 29 13 79 14 30 15 84 16 78 17 80 18 31 19 83 20 77 21 76 22
REMARK SMILES IDX 32 24 64 25 44 26 63 27 45 28 48 29 62 30 81 31 46 32 47 33
REMARK SMILES IDX 61 35 82 36 49 37 33 38 34 39 42 40 35 41 36 42 40 43 43 44
REMARK SMILES IDX 37 45 38 46 41 47 39 48 65 49 66 50 74 51 67 52 68 53 72 54
REMARK SMILES IDX 75 55 69 56 70 57 73 58 71 59 50 60 51 61 59 62 52 63 53 64
REMARK SMILES IDX 57 65 60 66 54 67 55 68 58 69 56 70 6 71 7 72 8 73 9 74
REMARK SMILES IDX 10 75 13 76 11 77 12 78 14 79 15 80 16 81 17 82 18 83 22 84
REMARK SMILES IDX 19 85 20 86 21 87 23 88
REMARK H PARENT 80 23 48 34 21 89
REMARK Flexibility Score: inf
ROOT
ATOM      1  C   UNL A   1      32.580  31.052  26.754  1.00  0.00     0.274 C 
ENDROOT
BRANCH   1   2
ATOM      2  C   UNL A   1      31.780  32.271  27.207  1.00  0.00     0.275 C 
BRANCH   2   3
ATOM      3  O   UNL A   1      32.497  33.517  27.240  1.00  0.00    -0.458 OA
BRANCH   3   4
ATOM      4  C   UNL A   1      33.278  34.063  28.199  1.00  0.00     0.338 C 
ATOM      5  O   UNL A   1      33.067  35.217  28.563  1.00  0.00    -0.246 OA
BRANCH   4   6
ATOM      6  C   UNL A   1      34.441  33.346  28.799  1.00  0.00     0.060 A 
ATOM      7  C   UNL A   1      34.355  32.328  29.750  1.00  0.00     0.016 A 
ATOM      8  C   UNL A   1      35.719  33.796  28.432  1.00  0.00     0.016 A 
ATOM      9  C   UNL A   1      35.506  31.695  30.234  1.00  0.00     0.010 A 
ATOM     10  C   UNL A   1      36.876  33.176  28.920  1.00  0.00     0.010 A 
ATOM     11  C   UNL A   1      36.775  32.108  29.817  1.00  0.00    -0.014 A 
BRANCH  11  12
ATOM     12  C   UNL A   1      37.980  31.489  30.418  1.00  0.00     0.031 A 
ATOM     13  C   UNL A   1      38.382  31.885  31.806  1.00  0.00     0.074 A 
ATOM     14  C   UNL A   1      38.678  30.551  29.750  1.00  0.00     0.049 A 
ATOM     15  N   UNL A   1      39.293  31.360  32.584  1.00  0.00    -0.248 NA
ATOM     16  C   UNL A   1      37.649  33.010  32.409  1.00  0.00     0.031 C 
ATOM     17  C   UNL A   1      38.376  30.073  28.404  1.00  0.00     0.029 A 
ATOM     18  N   UNL A   1      39.788  29.831  30.113  1.00  0.00    -0.354 N 
ATOM     19  C   UNL A   1      39.204  32.053  33.782  1.00  0.00     0.074 A 
ATOM     20  C   UNL A   1      38.219  33.097  33.600  1.00  0.00     0.031 C 
ATOM     21  C   UNL A   1      39.298  29.169  28.034  1.00  0.00     0.029 A 
ATOM     22  C   UNL A   1      40.237  28.977  29.133  1.00  0.00     0.049 A 
ATOM     23  H   UNL A   1      40.224  29.918  30.992  1.00  0.00     0.167 HD
ATOM     24  C   UNL A   1      39.849  31.808  34.947  1.00  0.00     0.037 A 
ATOM     25  C   UNL A   1      41.273  28.119  29.137  1.00  0.00     0.037 A 
ATOM     26  C   UNL A   1      40.854  30.795  35.107  1.00  0.00     0.049 A 
ATOM     27  C   UNL A   1      42.056  27.940  30.411  1.00  0.00     0.074 A 
ATOM     28  C   UNL A   1      41.568  30.452  36.240  1.00  0.00     0.029 A 
ATOM     29  N   UNL A   1      41.304  29.971  34.083  1.00  0.00    -0.354 N 
ATOM     30  N   UNL A   1      41.880  28.515  31.576  1.00  0.00    -0.248 NA
ATOM     31  C   UNL A   1      43.150  26.961  30.382  1.00  0.00     0.031 C 
ATOM     32  C   UNL A   1      42.482  29.449  35.889  1.00  0.00     0.029 A 
ATOM     33  C   UNL A   1      42.307  29.139  34.549  1.00  0.00     0.049 A 
ATOM     34  H   UNL A   1      40.960  29.980  33.160  1.00  0.00     0.167 HD
ATOM     35  C   UNL A   1      42.800  27.928  32.434  1.00  0.00     0.074 A 
ATOM     36  C   UNL A   1      43.536  26.956  31.651  1.00  0.00     0.031 C 
ATOM     37  C   UNL A   1      43.006  28.161  33.754  1.00  0.00     0.037 A 
BRANCH  24  38
ATOM     38  C   UNL A   1      39.460  32.662  36.115  1.00  0.00     0.064 A 
ATOM     39  C   UNL A   1      40.136  33.862  36.392  1.00  0.00     0.173 A 
ATOM     40  C   UNL A   1      38.453  32.255  37.001  1.00  0.00     0.173 A 
ATOM     41  F   UNL A   1      41.120  34.284  35.583  1.00  0.00    -0.203 F 
ATOM     42  C   UNL A   1      39.853  34.596  37.540  1.00  0.00     0.198 A 
ATOM     43  C   UNL A   1      38.156  33.006  38.136  1.00  0.00     0.198 A 
ATOM     44  F   UNL A   1      37.778  31.117  36.782  1.00  0.00    -0.203 F 
ATOM     45  F   UNL A   1      40.564  35.697  37.822  1.00  0.00    -0.200 F 
ATOM     46  C   UNL A   1      38.865  34.166  38.413  1.00  0.00     0.200 A 
ATOM     47  F   UNL A   1      37.198  32.593  38.978  1.00  0.00    -0.200 F 
ATOM     48  F   UNL A   1      38.609  34.860  39.530  1.00  0.00    -0.200 F 
ENDBRANCH  24  38
BRANCH  25  49
ATOM     49  C   UNL A   1      41.586  27.310  27.930  1.00  0.00     0.064 A 
ATOM     50  C   UNL A   1      41.013  26.046  27.737  1.00  0.00     0.173 A 
ATOM     51  C   UNL A   1      42.484  27.773  26.956  1.00  0.00     0.173 A 
ATOM     52  F   UNL A   1      40.160  25.553  28.647  1.00  0.00    -0.203 F 
ATOM     53  C   UNL A   1      41.346  25.264  26.633  1.00  0.00     0.198 A 
ATOM     54  C   UNL A   1      42.801  26.999  25.841  1.00  0.00     0.198 A 
ATOM     55  F   UNL A   1      43.057  28.978  27.091  1.00  0.00    -0.203 F 
ATOM     56  F   UNL A   1      40.818  24.039  26.498  1.00  0.00    -0.200 F 
ATOM     57  C   UNL A   1      42.239  25.740  25.685  1.00  0.00     0.200 A 
ATOM     58  F   UNL A   1      43.658  27.466  24.923  1.00  0.00    -0.200 F 
ATOM     59  F   UNL A   1      42.564  24.984  24.627  1.00  0.00    -0.200 F 
ENDBRANCH  25  49
BRANCH  37  60
ATOM     60  C   UNL A   1      44.029  27.311  34.446  1.00  0.00     0.064 A 
ATOM     61  C   UNL A   1      43.702  26.065  34.998  1.00  0.00     0.173 A 
ATOM     62  C   UNL A   1      45.366  27.732  34.511  1.00  0.00     0.173 A 
ATOM     63  F   UNL A   1      42.433  25.630  34.976  1.00  0.00    -0.203 F 
ATOM     64  C   UNL A   1      44.674  25.278  35.608  1.00  0.00     0.198 A 
ATOM     65  C   UNL A   1      46.340  26.930  35.095  1.00  0.00     0.198 A 
ATOM     66  F   UNL A   1      45.729  28.916  33.994  1.00  0.00    -0.203 F 
ATOM     67  F   UNL A   1      44.332  24.110  36.168  1.00  0.00    -0.200 F 
ATOM     68  C   UNL A   1      45.993  25.706  35.647  1.00  0.00     0.200 A 
ATOM     69  F   UNL A   1      47.616  27.339  35.121  1.00  0.00    -0.200 F 
ATOM     70  F   UNL A   1      46.930  24.941  36.225  1.00  0.00    -0.200 F 
ENDBRANCH  37  60
ENDBRANCH  11  12
ENDBRANCH   4   6
ENDBRANCH   3   4
ENDBRANCH   2   3
ENDBRANCH   1   2
BRANCH   1  71
ATOM     71  O   UNL A   1      32.156  30.451  25.518  1.00  0.00    -0.461 OA
BRANCH  71  72
ATOM     72  C   UNL A   1      32.476  29.124  25.381  1.00  0.00     0.329 C 
ATOM     73  O   UNL A   1      33.629  28.731  25.248  1.00  0.00    -0.250 OA
BRANCH  72  74
ATOM     74  C   UNL A   1      31.220  28.221  25.293  1.00  0.00     0.206 C 
ATOM     75  C   UNL A   1      31.370  26.950  26.133  1.00  0.00     0.108 C 
ATOM     76  N   UNL A   1      30.873  27.840  23.904  1.00  0.00    -0.317 N 
ATOM     77  S   UNL A   1      30.501  25.653  25.234  1.00  0.00    -0.138 SA
ATOM     78  C   UNL A   1      30.889  26.414  23.652  1.00  0.00     0.190 C 
BRANCH  76  79
ATOM     79  C   UNL A   1      30.350  28.791  23.041  1.00  0.00     0.244 C 
ATOM     80  O   UNL A   1      31.055  29.318  22.176  1.00  0.00    -0.273 OA
BRANCH  79  81
ATOM     81  C   UNL A   1      28.857  29.135  23.125  1.00  0.00     0.230 C 
BRANCH  81  82
ATOM     82  N   UNL A   1      28.600  30.499  22.721  1.00  0.00    -0.253 N 
ATOM     83  C   UNL A   1      28.226  30.886  21.464  1.00  0.00     0.250 C 
ATOM     84  C   UNL A   1      28.883  31.591  23.481  1.00  0.00     0.325 C 
ATOM     85  O   UNL A   1      28.028  30.158  20.503  1.00  0.00    -0.272 OA
ATOM     86  C   UNL A   1      28.177  32.407  21.423  1.00  0.00     0.218 C 
ATOM     87  N   UNL A   1      28.577  32.720  22.762  1.00  0.00    -0.329 N 
ATOM     88  O   UNL A   1      29.383  31.604  24.592  1.00  0.00    -0.248 OA
ATOM     89  H   UNL A   1      28.627  33.634  23.124  1.00  0.00     0.165 HD
ENDBRANCH  81  82
ENDBRANCH  79  81
ENDBRANCH  76  79
ENDBRANCH  72  74
ENDBRANCH  71  72
ENDBRANCH   1  71
TORSDOF 14
ENDMDL
MODEL 3
REMARK VINA RESULT:     -11.1      0.401      1.830
REMARK SMILES O=C(OCCOC(=O)[C@@H]1CSCN1C(=O)CN1C(=O)CNC1=O)c1ccc(-c2c3nc(c(-c4c(F)c(F)c(F)c(F)c4F)c4ccc([nH]4)c(-c4c(F)c(F)c(F)c(F)c4F)c4nc(c(-c5c(F)c(F)c(F)c(F)c5F)c5ccc2[nH]5)C=C4)C=C3)cc1
REMARK SMILES IDX 5 1 4 2 3 3 2 4 1 5 24 6 25 7 86 8 26 9 85 10 27 11 28 12
REMARK SMILES IDX 29 13 79 14 30 15 84 16 78 17 80 18 31 19 83 20 77 21 76 22
REMARK SMILES IDX 32 24 64 25 44 26 63 27 45 28 48 29 62 30 81 31 46 32 47 33
REMARK SMILES IDX 61 35 82 36 49 37 33 38 34 39 42 40 35 41 36 42 40 43 43 44
REMARK SMILES IDX 37 45 38 46 41 47 39 48 65 49 66 50 74 51 67 52 68 53 72 54
REMARK SMILES IDX 75 55 69 56 70 57 73 58 71 59 50 60 51 61 59 62 52 63 53 64
REMARK SMILES IDX 57 65 60 66 54 67 55 68 58 69 56 70 6 71 7 72 8 73 9 74
REMARK SMILES IDX 10 75 13 76 11 77 12 78 14 79 15 80 16 81 17 82 18 83 22 84
REMARK SMILES IDX 19 85 20 86 21 87 23 88
REMARK H PARENT 80 23 48 34 21 89
REMARK Flexibility Score: inf
ROOT
ATOM      1  C   UNL A   1      32.192  30.614  26.639  1.00  0.00     0.274 C 
ENDROOT
BRANCH   1   2
ATOM      2  C   UNL A   1      31.891  32.111  26.607  1.00  0.00     0.275 C 
BRANCH   2   3
ATOM      3  O   UNL A   1      32.491  32.895  27.652  1.00  0.00    -0.458 OA
BRANCH   3   4
ATOM      4  C   UNL A   1      33.724  33.442  27.752  1.00  0.00     0.338 C 
ATOM      5  O   UNL A   1      33.938  34.542  27.247  1.00  0.00    -0.246 OA
BRANCH   4   6
ATOM      6  C   UNL A   1      34.871  32.738  28.395  1.00  0.00     0.060 A 
ATOM      7  C   UNL A   1      34.785  31.532  29.094  1.00  0.00     0.016 A 
ATOM      8  C   UNL A   1      36.114  33.389  28.358  1.00  0.00     0.016 A 
ATOM      9  C   UNL A   1      35.926  30.933  29.640  1.00  0.00     0.010 A 
ATOM     10  C   UNL A   1      37.259  32.802  28.911  1.00  0.00     0.010 A 
ATOM     11  C   UNL A   1      37.174  31.559  29.546  1.00  0.00    -0.014 A 
BRANCH  11  12
ATOM     12  C   UNL A   1      38.348  30.953  30.217  1.00  0.00     0.031 A 
ATOM     13  C   UNL A   1      38.650  31.336  31.634  1.00  0.00     0.074 A 
ATOM     14  C   UNL A   1      39.106  30.038  29.585  1.00  0.00     0.049 A 
ATOM     15  N   UNL A   1      39.518  30.817  32.463  1.00  0.00    -0.248 NA
ATOM     16  C   UNL A   1      37.858  32.439  32.201  1.00  0.00     0.031 C 
ATOM     17  C   UNL A   1      38.902  29.573  28.215  1.00  0.00     0.029 A 
ATOM     18  N   UNL A   1      40.203  29.333  30.010  1.00  0.00    -0.354 N 
ATOM     19  C   UNL A   1      39.337  31.491  33.661  1.00  0.00     0.074 A 
ATOM     20  C   UNL A   1      38.347  32.520  33.428  1.00  0.00     0.031 C 
ATOM     21  C   UNL A   1      39.863  28.691  27.896  1.00  0.00     0.029 A 
ATOM     22  C   UNL A   1      40.732  28.501  29.051  1.00  0.00     0.049 A 
ATOM     23  H   UNL A   1      40.579  29.415  30.917  1.00  0.00     0.167 HD
ATOM     24  C   UNL A   1      39.908  31.241  34.863  1.00  0.00     0.037 A 
ATOM     25  C   UNL A   1      41.781  27.662  29.112  1.00  0.00     0.037 A 
ATOM     26  C   UNL A   1      40.920  30.244  35.076  1.00  0.00     0.049 A 
ATOM     27  C   UNL A   1      42.482  27.479  30.433  1.00  0.00     0.074 A 
ATOM     28  C   UNL A   1      41.564  29.898  36.249  1.00  0.00     0.029 A 
ATOM     29  N   UNL A   1      41.452  29.444  34.073  1.00  0.00    -0.354 N 
ATOM     30  N   UNL A   1      42.219  28.034  31.591  1.00  0.00    -0.248 NA
ATOM     31  C   UNL A   1      43.594  26.520  30.463  1.00  0.00     0.031 C 
ATOM     32  C   UNL A   1      42.518  28.917  35.946  1.00  0.00     0.029 A 
ATOM     33  C   UNL A   1      42.437  28.623  34.594  1.00  0.00     0.049 A 
ATOM     34  H   UNL A   1      41.169  29.460  33.130  1.00  0.00     0.167 HD
ATOM     35  C   UNL A   1      43.091  27.451  32.500  1.00  0.00     0.074 A 
ATOM     36  C   UNL A   1      43.896  26.504  31.754  1.00  0.00     0.031 C 
ATOM     37  C   UNL A   1      43.206  27.670  33.833  1.00  0.00     0.037 A 
BRANCH  24  38
ATOM     38  C   UNL A   1      39.427  32.071  36.014  1.00  0.00     0.064 A 
ATOM     39  C   UNL A   1      40.038  33.296  36.330  1.00  0.00     0.173 A 
ATOM     40  C   UNL A   1      38.396  31.618  36.847  1.00  0.00     0.173 A 
ATOM     41  F   UNL A   1      41.044  33.764  35.572  1.00  0.00    -0.203 F 
ATOM     42  C   UNL A   1      39.670  34.010  37.466  1.00  0.00     0.198 A 
ATOM     43  C   UNL A   1      38.011  32.348  37.970  1.00  0.00     0.198 A 
ATOM     44  F   UNL A   1      37.779  30.455  36.590  1.00  0.00    -0.203 F 
ATOM     45  F   UNL A   1      40.320  35.138  37.787  1.00  0.00    -0.200 F 
ATOM     46  C   UNL A   1      38.658  33.535  38.286  1.00  0.00     0.200 A 
ATOM     47  F   UNL A   1      37.032  31.892  38.760  1.00  0.00    -0.200 F 
ATOM     48  F   UNL A   1      38.318  34.211  39.392  1.00  0.00    -0.200 F 
ENDBRANCH  24  38
BRANCH  25  49
ATOM     49  C   UNL A   1      42.189  26.877  27.918  1.00  0.00     0.064 A 
ATOM     50  C   UNL A   1      43.136  27.375  27.013  1.00  0.00     0.173 A 
ATOM     51  C   UNL A   1      41.622  25.623  27.643  1.00  0.00     0.173 A 
ATOM     52  F   UNL A   1      43.696  28.576  27.224  1.00  0.00    -0.203 F 
ATOM     53  C   UNL A   1      43.480  26.665  25.864  1.00  0.00     0.198 A 
ATOM     54  C   UNL A   1      41.983  24.903  26.505  1.00  0.00     0.198 A 
ATOM     55  F   UNL A   1      40.714  25.100  28.479  1.00  0.00    -0.203 F 
ATOM     56  F   UNL A   1      44.354  27.187  24.992  1.00  0.00    -0.200 F 
ATOM     57  C   UNL A   1      42.904  25.429  25.611  1.00  0.00     0.200 A 
ATOM     58  F   UNL A   1      41.430  23.706  26.267  1.00  0.00    -0.200 F 
ATOM     59  F   UNL A   1      43.231  24.749  24.503  1.00  0.00    -0.200 F 
ENDBRANCH  25  49
BRANCH  37  60
ATOM     60  C   UNL A   1      44.197  26.829  34.581  1.00  0.00     0.064 A 
ATOM     61  C   UNL A   1      43.857  25.572  35.099  1.00  0.00     0.173 A 
ATOM     62  C   UNL A   1      45.520  27.270  34.734  1.00  0.00     0.173 A 
ATOM     63  F   UNL A   1      42.599  25.116  34.992  1.00  0.00    -0.203 F 
ATOM     64  C   UNL A   1      44.801  24.793  35.761  1.00  0.00     0.198 A 
ATOM     65  C   UNL A   1      46.469  26.477  35.371  1.00  0.00     0.198 A 
ATOM     66  F   UNL A   1      45.895  28.465  34.253  1.00  0.00    -0.203 F 
ATOM     67  F   UNL A   1      44.444  23.614  36.286  1.00  0.00    -0.200 F 
ATOM     68  C   UNL A   1      46.108  25.242  35.888  1.00  0.00     0.200 A 
ATOM     69  F   UNL A   1      47.734  26.906  35.482  1.00  0.00    -0.200 F 
ATOM     70  F   UNL A   1      47.019  24.485  36.516  1.00  0.00    -0.200 F 
ENDBRANCH  37  60
ENDBRANCH  11  12
ENDBRANCH   4   6
ENDBRANCH   3   4
ENDBRANCH   2   3
ENDBRANCH   1   2
BRANCH   1  71
ATOM     71  O   UNL A   1      32.794  30.072  25.452  1.00  0.00    -0.461 OA
BRANCH  71  72
ATOM     72  C   UNL A   1      31.950  29.339  24.658  1.00  0.00     0.329 C 
ATOM     73  O   UNL A   1      30.812  29.702  24.389  1.00  0.00    -0.250 OA
BRANCH  72  74
ATOM     74  C   UNL A   1      32.558  27.971  24.256  1.00  0.00     0.206 C 
ATOM     75  C   UNL A   1      33.477  28.090  23.038  1.00  0.00     0.108 C 
ATOM     76  N   UNL A   1      31.534  26.935  23.986  1.00  0.00    -0.317 N 
ATOM     77  S   UNL A   1      33.273  26.560  22.108  1.00  0.00    -0.138 SA
ATOM     78  C   UNL A   1      31.564  26.400  22.641  1.00  0.00     0.190 C 
BRANCH  76  79
ATOM     79  C   UNL A   1      30.808  26.396  25.037  1.00  0.00     0.244 C 
ATOM     80  O   UNL A   1      29.612  26.120  24.905  1.00  0.00    -0.273 OA
BRANCH  79  81
ATOM     81  C   UNL A   1      31.527  26.076  26.354  1.00  0.00     0.230 C 
BRANCH  81  82
ATOM     82  N   UNL A   1      32.123  24.758  26.330  1.00  0.00    -0.253 N 
ATOM     83  C   UNL A   1      31.520  23.618  26.783  1.00  0.00     0.250 C 
ATOM     84  C   UNL A   1      33.428  24.512  26.035  1.00  0.00     0.325 C 
ATOM     85  O   UNL A   1      30.395  23.521  27.250  1.00  0.00    -0.272 OA
ATOM     86  C   UNL A   1      32.522  22.475  26.694  1.00  0.00     0.218 C 
ATOM     87  N   UNL A   1      33.665  23.167  26.177  1.00  0.00    -0.329 N 
ATOM     88  O   UNL A   1      34.285  25.329  25.751  1.00  0.00    -0.248 OA
ATOM     89  H   UNL A   1      34.518  22.730  25.951  1.00  0.00     0.165 HD
ENDBRANCH  81  82
ENDBRANCH  79  81
ENDBRANCH  76  79
ENDBRANCH  72  74
ENDBRANCH  71  72
ENDBRANCH   1  71
TORSDOF 14
ENDMDL
