MODEL 1
REMARK VINA RESULT:     -11.6      0.000      0.000
REMARK SMILES O=C(COc1ncc(C(F)(F)F)cc1Cl)OCCOC(=O)c1ccc(-c2c3nc(c(-c4c(F)c(F)c(F)c(F)c4F)c4ccc([nH]4)c(-c4c(F)c(F)c(F)c(F)c4F)c4nc(c(-c5c(F)c(F)c(F)c(F)c5F)c5ccc2[nH]5)C=C4)C=C3)cc1
REMARK SMILES IDX 17 1 16 2 2 3 1 4 3 5 4 6 5 7 6 8 14 9 7 10 13 11 15 12 8 13
REMARK SMILES IDX 9 14 10 15 11 16 12 17 18 18 19 19 20 20 21 21 22 22 23 23
REMARK SMILES IDX 84 24 24 25 83 26 25 27 26 28 27 29 77 30 28 31 82 32 76 33
REMARK SMILES IDX 78 34 29 35 81 36 75 37 74 38 30 40 62 41 42 42 61 43 43 44
REMARK SMILES IDX 46 45 60 46 79 47 44 48 45 49 59 51 80 52 47 53 31 54 32 55
REMARK SMILES IDX 40 56 33 57 34 58 38 59 41 60 35 61 36 62 39 63 37 64 63 65
REMARK SMILES IDX 64 66 72 67 65 68 66 69 70 70 73 71 67 72 68 73 71 74 69 75
REMARK SMILES IDX 48 76 49 77 57 78 50 79 51 80 55 81 58 82 52 83 53 84 56 85
REMARK SMILES IDX 54 86
REMARK H PARENT 78 39 46 50
REMARK Flexibility Score: inf
ROOT
ATOM      1  C   UNL A   1      44.225  21.293  25.269  1.00  0.00     0.274 C 
ENDROOT
BRANCH   1   2
ATOM      2  O   UNL A   1      43.780  20.039  24.705  1.00  0.00    -0.460 OA
BRANCH   2   3
ATOM      3  C   UNL A   1      43.861  18.852  25.354  1.00  0.00     0.344 C 
ATOM      4  O   UNL A   1      44.918  18.222  25.385  1.00  0.00    -0.248 OA
BRANCH   3   5
ATOM      5  C   UNL A   1      42.629  18.340  26.079  1.00  0.00     0.353 C 
BRANCH   5   6
ATOM      6  O   UNL A   1      42.292  19.199  27.162  1.00  0.00    -0.465 OA
BRANCH   6   7
ATOM      7  C   UNL A   1      41.212  19.965  26.805  1.00  0.00     0.233 A 
ATOM      8  N   UNL A   1      40.349  19.373  25.945  1.00  0.00    -0.220 NA
ATOM      9  C   UNL A   1      41.072  21.265  27.275  1.00  0.00     0.103 A 
ATOM     10  C   UNL A   1      39.290  20.112  25.546  1.00  0.00     0.128 A 
ATOM     11  C   UNL A   1      39.951  21.985  26.874  1.00  0.00     0.041 A 
ATOM     12  Cl  UNL A   1      42.221  22.007  28.317  1.00  0.00    -0.078 Cl
ATOM     13  C   UNL A   1      39.035  21.404  25.989  1.00  0.00     0.076 A 
BRANCH  13  14
ATOM     14  C   UNL A   1      37.841  22.147  25.475  1.00  0.00     0.417 C 
ATOM     15  F   UNL A   1      37.610  21.901  24.158  1.00  0.00    -0.166 F 
ATOM     16  F   UNL A   1      36.694  21.815  26.127  1.00  0.00    -0.166 F 
ATOM     17  F   UNL A   1      37.960  23.498  25.591  1.00  0.00    -0.166 F 
ENDBRANCH  13  14
ENDBRANCH   6   7
ENDBRANCH   5   6
ENDBRANCH   3   5
ENDBRANCH   2   3
ENDBRANCH   1   2
BRANCH   1  18
ATOM     18  C   UNL A   1      44.128  22.414  24.233  1.00  0.00     0.275 C 
BRANCH  18  19
ATOM     19  O   UNL A   1      43.451  23.552  24.799  1.00  0.00    -0.458 OA
BRANCH  19  20
ATOM     20  C   UNL A   1      44.247  24.604  25.120  1.00  0.00     0.338 C 
ATOM     21  O   UNL A   1      45.288  24.932  24.579  1.00  0.00    -0.246 OA
BRANCH  20  22
ATOM     22  C   UNL A   1      43.561  25.424  26.140  1.00  0.00     0.060 A 
ATOM     23  C   UNL A   1      44.012  26.732  26.353  1.00  0.00     0.016 A 
ATOM     24  C   UNL A   1      42.491  24.916  26.882  1.00  0.00     0.016 A 
ATOM     25  C   UNL A   1      43.407  27.529  27.326  1.00  0.00     0.010 A 
ATOM     26  C   UNL A   1      41.893  25.712  27.864  1.00  0.00     0.010 A 
ATOM     27  C   UNL A   1      42.363  27.015  28.106  1.00  0.00    -0.014 A 
BRANCH  27  28
ATOM     28  C   UNL A   1      41.849  27.788  29.262  1.00  0.00     0.031 A 
ATOM     29  C   UNL A   1      42.534  27.648  30.593  1.00  0.00     0.074 A 
ATOM     30  C   UNL A   1      40.790  28.605  29.132  1.00  0.00     0.049 A 
ATOM     31  N   UNL A   1      42.243  28.208  31.740  1.00  0.00    -0.248 NA
ATOM     32  C   UNL A   1      43.702  26.755  30.636  1.00  0.00     0.031 C 
ATOM     33  C   UNL A   1      40.052  28.843  27.894  1.00  0.00     0.029 A 
ATOM     34  N   UNL A   1      40.145  29.382  30.064  1.00  0.00    -0.354 N 
ATOM     35  C   UNL A   1      43.198  27.745  32.636  1.00  0.00     0.074 A 
ATOM     36  C   UNL A   1      44.050  26.827  31.912  1.00  0.00     0.031 C 
ATOM     37  C   UNL A   1      39.045  29.700  28.144  1.00  0.00     0.029 A 
ATOM     38  C   UNL A   1      39.055  30.051  29.564  1.00  0.00     0.049 A 
ATOM     39  H   UNL A   1      40.437  29.452  31.001  1.00  0.00     0.167 HD
ATOM     40  C   UNL A   1      43.357  28.066  33.942  1.00  0.00     0.037 A 
ATOM     41  C   UNL A   1      38.162  30.842  30.187  1.00  0.00     0.037 A 
ATOM     42  C   UNL A   1      42.503  28.969  34.669  1.00  0.00     0.049 A 
ATOM     43  C   UNL A   1      38.319  31.124  31.662  1.00  0.00     0.074 A 
ATOM     44  C   UNL A   1      42.594  29.365  35.992  1.00  0.00     0.029 A 
ATOM     45  N   UNL A   1      41.395  29.608  34.136  1.00  0.00    -0.354 N 
ATOM     46  N   UNL A   1      39.249  30.717  32.491  1.00  0.00    -0.248 NA
ATOM     47  C   UNL A   1      37.298  31.982  32.284  1.00  0.00     0.031 C 
ATOM     48  C   UNL A   1      41.513  30.207  36.272  1.00  0.00     0.029 A 
ATOM     49  C   UNL A   1      40.778  30.376  35.111  1.00  0.00     0.049 A 
ATOM     50  H   UNL A   1      41.091  29.528  33.202  1.00  0.00     0.167 HD
ATOM     51  C   UNL A   1      38.947  31.294  33.719  1.00  0.00     0.074 A 
ATOM     52  C   UNL A   1      37.755  32.090  33.524  1.00  0.00     0.031 C 
ATOM     53  C   UNL A   1      39.597  31.174  34.902  1.00  0.00     0.037 A 
BRANCH  40  54
ATOM     54  C   UNL A   1      44.495  27.425  34.677  1.00  0.00     0.064 A 
ATOM     55  C   UNL A   1      45.750  28.046  34.768  1.00  0.00     0.173 A 
ATOM     56  C   UNL A   1      44.318  26.199  35.336  1.00  0.00     0.173 A 
ATOM     57  F   UNL A   1      45.973  29.212  34.143  1.00  0.00    -0.203 F 
ATOM     58  C   UNL A   1      46.792  27.453  35.477  1.00  0.00     0.198 A 
ATOM     59  C   UNL A   1      45.354  25.623  36.066  1.00  0.00     0.198 A 
ATOM     60  F   UNL A   1      43.136  25.567  35.282  1.00  0.00    -0.203 F 
ATOM     61  F   UNL A   1      47.993  28.046  35.519  1.00  0.00    -0.200 F 
ATOM     62  C   UNL A   1      46.590  26.247  36.131  1.00  0.00     0.200 A 
ATOM     63  F   UNL A   1      45.155  24.463  36.706  1.00  0.00    -0.200 F 
ATOM     64  F   UNL A   1      47.591  25.683  36.822  1.00  0.00    -0.200 F 
ENDBRANCH  40  54
BRANCH  41  65
ATOM     65  C   UNL A   1      37.024  31.429  29.432  1.00  0.00     0.064 A 
ATOM     66  C   UNL A   1      36.982  32.798  29.133  1.00  0.00     0.173 A 
ATOM     67  C   UNL A   1      35.932  30.642  29.039  1.00  0.00     0.173 A 
ATOM     68  F   UNL A   1      37.989  33.597  29.515  1.00  0.00    -0.203 F 
ATOM     69  C   UNL A   1      35.878  33.363  28.497  1.00  0.00     0.198 A 
ATOM     70  C   UNL A   1      34.841  31.203  28.375  1.00  0.00     0.198 A 
ATOM     71  F   UNL A   1      35.920  29.327  29.304  1.00  0.00    -0.203 F 
ATOM     72  F   UNL A   1      35.837  34.685  28.278  1.00  0.00    -0.200 F 
ATOM     73  C   UNL A   1      34.811  32.564  28.115  1.00  0.00     0.200 A 
ATOM     74  F   UNL A   1      33.816  30.425  28.001  1.00  0.00    -0.200 F 
ATOM     75  F   UNL A   1      33.746  33.108  27.510  1.00  0.00    -0.200 F 
ENDBRANCH  41  65
BRANCH  53  76
ATOM     76  C   UNL A   1      39.058  31.949  36.071  1.00  0.00     0.064 A 
ATOM     77  C   UNL A   1      39.408  33.289  36.289  1.00  0.00     0.173 A 
ATOM     78  C   UNL A   1      38.153  31.353  36.962  1.00  0.00     0.173 A 
ATOM     79  F   UNL A   1      40.282  33.901  35.475  1.00  0.00    -0.203 F 
ATOM     80  C   UNL A   1      38.894  33.996  37.374  1.00  0.00     0.198 A 
ATOM     81  C   UNL A   1      37.616  32.071  38.027  1.00  0.00     0.198 A 
ATOM     82  F   UNL A   1      37.779  30.076  36.793  1.00  0.00    -0.203 F 
ATOM     83  F   UNL A   1      39.282  35.259  37.593  1.00  0.00    -0.200 F 
ATOM     84  C   UNL A   1      37.994  33.389  38.238  1.00  0.00     0.200 A 
ATOM     85  F   UNL A   1      36.736  31.487  38.851  1.00  0.00    -0.200 F 
ATOM     86  F   UNL A   1      37.496  34.072  39.278  1.00  0.00    -0.200 F 
ENDBRANCH  53  76
ENDBRANCH  27  28
ENDBRANCH  20  22
ENDBRANCH  19  20
ENDBRANCH  18  19
ENDBRANCH   1  18
TORSDOF 14
ENDMDL
MODEL 2
REMARK VINA RESULT:     -11.2      0.244      2.022
REMARK SMILES O=C(COc1ncc(C(F)(F)F)cc1Cl)OCCOC(=O)c1ccc(-c2c3nc(c(-c4c(F)c(F)c(F)c(F)c4F)c4ccc([nH]4)c(-c4c(F)c(F)c(F)c(F)c4F)c4nc(c(-c5c(F)c(F)c(F)c(F)c5F)c5ccc2[nH]5)C=C4)C=C3)cc1
REMARK SMILES IDX 17 1 16 2 2 3 1 4 3 5 4 6 5 7 6 8 14 9 7 10 13 11 15 12 8 13
REMARK SMILES IDX 9 14 10 15 11 16 12 17 18 18 19 19 20 20 21 21 22 22 23 23
REMARK SMILES IDX 84 24 24 25 83 26 25 27 26 28 27 29 77 30 28 31 82 32 76 33
REMARK SMILES IDX 78 34 29 35 81 36 75 37 74 38 30 40 62 41 42 42 61 43 43 44
REMARK SMILES IDX 46 45 60 46 79 47 44 48 45 49 59 51 80 52 47 53 31 54 32 55
REMARK SMILES IDX 40 56 33 57 34 58 38 59 41 60 35 61 36 62 39 63 37 64 63 65
REMARK SMILES IDX 64 66 72 67 65 68 66 69 70 70 73 71 67 72 68 73 71 74 69 75
REMARK SMILES IDX 48 76 49 77 57 78 50 79 51 80 55 81 58 82 52 83 53 84 56 85
REMARK SMILES IDX 54 86
REMARK H PARENT 78 39 46 50
REMARK Flexibility Score: inf
ROOT
ATOM      1  C   UNL A   1      44.055  21.451  25.292  1.00  0.00     0.274 C 
ENDROOT
BRANCH   1   2
ATOM      2  O   UNL A   1      43.794  20.192  24.633  1.00  0.00    -0.460 OA
BRANCH   2   3
ATOM      3  C   UNL A   1      43.868  18.989  25.254  1.00  0.00     0.344 C 
ATOM      4  O   UNL A   1      44.938  18.385  25.328  1.00  0.00    -0.248 OA
BRANCH   3   5
ATOM      5  C   UNL A   1      42.612  18.428  25.895  1.00  0.00     0.353 C 
BRANCH   5   6
ATOM      6  O   UNL A   1      42.193  19.249  26.980  1.00  0.00    -0.465 OA
BRANCH   6   7
ATOM      7  C   UNL A   1      41.058  19.926  26.615  1.00  0.00     0.233 A 
ATOM      8  N   UNL A   1      40.233  19.252  25.778  1.00  0.00    -0.220 NA
ATOM      9  C   UNL A   1      40.828  21.224  27.055  1.00  0.00     0.103 A 
ATOM     10  C   UNL A   1      39.119  19.903  25.373  1.00  0.00     0.128 A 
ATOM     11  C   UNL A   1      39.655  21.851  26.648  1.00  0.00     0.041 A 
ATOM     12  Cl  UNL A   1      41.930  22.073  28.067  1.00  0.00    -0.078 Cl
ATOM     13  C   UNL A   1      38.776  21.184  25.787  1.00  0.00     0.076 A 
BRANCH  13  14
ATOM     14  C   UNL A   1      37.527  21.826  25.268  1.00  0.00     0.417 C 
ATOM     15  F   UNL A   1      37.402  21.691  23.921  1.00  0.00    -0.166 F 
ATOM     16  F   UNL A   1      36.397  21.292  25.806  1.00  0.00    -0.166 F 
ATOM     17  F   UNL A   1      37.466  23.162  25.520  1.00  0.00    -0.166 F 
ENDBRANCH  13  14
ENDBRANCH   6   7
ENDBRANCH   5   6
ENDBRANCH   3   5
ENDBRANCH   2   3
ENDBRANCH   1   2
BRANCH   1  18
ATOM     18  C   UNL A   1      44.223  22.572  24.264  1.00  0.00     0.275 C 
BRANCH  18  19
ATOM     19  O   UNL A   1      43.542  23.760  24.711  1.00  0.00    -0.458 OA
BRANCH  19  20
ATOM     20  C   UNL A   1      44.347  24.782  25.098  1.00  0.00     0.338 C 
ATOM     21  O   UNL A   1      45.411  25.109  24.603  1.00  0.00    -0.246 OA
BRANCH  20  22
ATOM     22  C   UNL A   1      43.643  25.578  26.125  1.00  0.00     0.060 A 
ATOM     23  C   UNL A   1      44.010  26.918  26.293  1.00  0.00     0.016 A 
ATOM     24  C   UNL A   1      42.638  25.016  26.917  1.00  0.00     0.016 A 
ATOM     25  C   UNL A   1      43.387  27.696  27.270  1.00  0.00     0.010 A 
ATOM     26  C   UNL A   1      42.023  25.793  27.903  1.00  0.00     0.010 A 
ATOM     27  C   UNL A   1      42.410  27.130  28.100  1.00  0.00    -0.014 A 
BRANCH  27  28
ATOM     28  C   UNL A   1      41.886  27.894  29.258  1.00  0.00     0.031 A 
ATOM     29  C   UNL A   1      42.589  27.783  30.581  1.00  0.00     0.074 A 
ATOM     30  C   UNL A   1      40.800  28.677  29.135  1.00  0.00     0.049 A 
ATOM     31  N   UNL A   1      42.295  28.341  31.728  1.00  0.00    -0.248 NA
ATOM     32  C   UNL A   1      43.785  26.927  30.615  1.00  0.00     0.031 C 
ATOM     33  C   UNL A   1      40.041  28.885  27.904  1.00  0.00     0.029 A 
ATOM     34  N   UNL A   1      40.143  29.440  30.070  1.00  0.00    -0.354 N 
ATOM     35  C   UNL A   1      43.273  27.912  32.616  1.00  0.00     0.074 A 
ATOM     36  C   UNL A   1      44.146  27.017  31.886  1.00  0.00     0.031 C 
ATOM     37  C   UNL A   1      39.011  29.712  28.162  1.00  0.00     0.029 A 
ATOM     38  C   UNL A   1      39.027  30.072  29.579  1.00  0.00     0.049 A 
ATOM     39  H   UNL A   1      40.443  29.524  31.003  1.00  0.00     0.167 HD
ATOM     40  C   UNL A   1      43.438  28.246  33.918  1.00  0.00     0.037 A 
ATOM     41  C   UNL A   1      38.117  30.839  30.208  1.00  0.00     0.037 A 
ATOM     42  C   UNL A   1      42.565  29.126  34.649  1.00  0.00     0.049 A 
ATOM     43  C   UNL A   1      38.282  31.134  31.679  1.00  0.00     0.074 A 
ATOM     44  C   UNL A   1      42.659  29.534  35.969  1.00  0.00     0.029 A 
ATOM     45  N   UNL A   1      41.432  29.728  34.126  1.00  0.00    -0.354 N 
ATOM     46  N   UNL A   1      39.234  30.761  32.500  1.00  0.00    -0.248 NA
ATOM     47  C   UNL A   1      37.243  31.964  32.309  1.00  0.00     0.031 C 
ATOM     48  C   UNL A   1      41.556  30.344  36.257  1.00  0.00     0.029 A 
ATOM     49  C   UNL A   1      40.803  30.483  35.104  1.00  0.00     0.049 A 
ATOM     50  H   UNL A   1      41.119  29.633  33.196  1.00  0.00     0.167 HD
ATOM     51  C   UNL A   1      38.928  31.336  33.728  1.00  0.00     0.074 A 
ATOM     52  C   UNL A   1      37.710  32.094  33.542  1.00  0.00     0.031 C 
ATOM     53  C   UNL A   1      39.596  31.243  34.904  1.00  0.00     0.037 A 
BRANCH  40  54
ATOM     54  C   UNL A   1      44.604  27.645  34.642  1.00  0.00     0.064 A 
ATOM     55  C   UNL A   1      44.501  26.405  35.293  1.00  0.00     0.173 A 
ATOM     56  C   UNL A   1      45.849  28.290  34.649  1.00  0.00     0.173 A 
ATOM     57  F   UNL A   1      43.328  25.756  35.325  1.00  0.00    -0.203 F 
ATOM     58  C   UNL A   1      45.599  25.843  35.938  1.00  0.00     0.198 A 
ATOM     59  C   UNL A   1      46.951  27.713  35.273  1.00  0.00     0.198 A 
ATOM     60  F   UNL A   1      45.999  29.475  34.038  1.00  0.00    -0.203 F 
ATOM     61  F   UNL A   1      45.469  24.677  36.586  1.00  0.00    -0.200 F 
ATOM     62  C   UNL A   1      46.824  26.494  35.922  1.00  0.00     0.200 A 
ATOM     63  F   UNL A   1      48.136  28.337  35.247  1.00  0.00    -0.200 F 
ATOM     64  F   UNL A   1      47.883  25.947  36.536  1.00  0.00    -0.200 F 
ENDBRANCH  40  54
BRANCH  41  65
ATOM     65  C   UNL A   1      36.953  31.387  29.463  1.00  0.00     0.064 A 
ATOM     66  C   UNL A   1      35.874  30.567  29.102  1.00  0.00     0.173 A 
ATOM     67  C   UNL A   1      36.920  32.727  29.053  1.00  0.00     0.173 A 
ATOM     68  F   UNL A   1      35.874  29.272  29.446  1.00  0.00    -0.203 F 
ATOM     69  C   UNL A   1      34.821  31.060  28.333  1.00  0.00     0.198 A 
ATOM     70  C   UNL A   1      35.851  33.227  28.310  1.00  0.00     0.198 A 
ATOM     71  F   UNL A   1      37.929  33.552  29.368  1.00  0.00    -0.203 F 
ATOM     72  F   UNL A   1      33.833  30.240  27.951  1.00  0.00    -0.200 F 
ATOM     73  C   UNL A   1      34.809  32.390  27.941  1.00  0.00     0.200 A 
ATOM     74  F   UNL A   1      35.840  34.515  27.941  1.00  0.00    -0.200 F 
ATOM     75  F   UNL A   1      33.800  32.863  27.197  1.00  0.00    -0.200 F 
ENDBRANCH  41  65
BRANCH  53  76
ATOM     76  C   UNL A   1      39.047  32.008  36.074  1.00  0.00     0.064 A 
ATOM     77  C   UNL A   1      38.174  31.415  36.998  1.00  0.00     0.173 A 
ATOM     78  C   UNL A   1      39.427  33.341  36.293  1.00  0.00     0.173 A 
ATOM     79  F   UNL A   1      37.767  30.148  36.826  1.00  0.00    -0.203 F 
ATOM     80  C   UNL A   1      37.679  32.137  38.081  1.00  0.00     0.198 A 
ATOM     81  C   UNL A   1      38.955  34.051  37.395  1.00  0.00     0.198 A 
ATOM     82  F   UNL A   1      40.267  33.953  35.444  1.00  0.00    -0.203 F 
ATOM     83  F   UNL A   1      36.806  31.567  38.923  1.00  0.00    -0.200 F 
ATOM     84  C   UNL A   1      38.075  33.452  38.283  1.00  0.00     0.200 A 
ATOM     85  F   UNL A   1      39.352  35.315  37.594  1.00  0.00    -0.200 F 
ATOM     86  F   UNL A   1      37.603  34.143  39.329  1.00  0.00    -0.200 F 
ENDBRANCH  53  76
ENDBRANCH  27  28
ENDBRANCH  20  22
ENDBRANCH  19  20
ENDBRANCH  18  19
ENDBRANCH   1  18
TORSDOF 14
ENDMDL
MODEL 3
REMARK VINA RESULT:     -10.9      1.166      7.762
REMARK SMILES O=C(COc1ncc(C(F)(F)F)cc1Cl)OCCOC(=O)c1ccc(-c2c3nc(c(-c4c(F)c(F)c(F)c(F)c4F)c4ccc([nH]4)c(-c4c(F)c(F)c(F)c(F)c4F)c4nc(c(-c5c(F)c(F)c(F)c(F)c5F)c5ccc2[nH]5)C=C4)C=C3)cc1
REMARK SMILES IDX 17 1 16 2 2 3 1 4 3 5 4 6 5 7 6 8 14 9 7 10 13 11 15 12 8 13
REMARK SMILES IDX 9 14 10 15 11 16 12 17 18 18 19 19 20 20 21 21 22 22 23 23
REMARK SMILES IDX 84 24 24 25 83 26 25 27 26 28 27 29 77 30 28 31 82 32 76 33
REMARK SMILES IDX 78 34 29 35 81 36 75 37 74 38 30 40 62 41 42 42 61 43 43 44
REMARK SMILES IDX 46 45 60 46 79 47 44 48 45 49 59 51 80 52 47 53 31 54 32 55
REMARK SMILES IDX 40 56 33 57 34 58 38 59 41 60 35 61 36 62 39 63 37 64 63 65
REMARK SMILES IDX 64 66 72 67 65 68 66 69 70 70 73 71 67 72 68 73 71 74 69 75
REMARK SMILES IDX 48 76 49 77 57 78 50 79 51 80 55 81 58 82 52 83 53 84 56 85
REMARK SMILES IDX 54 86
REMARK H PARENT 78 39 46 50
REMARK Flexibility Score: inf
ROOT
ATOM      1  C   UNL A   1      45.038  20.933  24.823  1.00  0.00     0.274 C 
ENDROOT
BRANCH   1   2
ATOM      2  O   UNL A   1      43.694  20.412  24.913  1.00  0.00    -0.460 OA
BRANCH   2   3
ATOM      3  C   UNL A   1      43.388  19.208  25.456  1.00  0.00     0.344 C 
ATOM      4  O   UNL A   1      44.022  18.199  25.145  1.00  0.00    -0.248 OA
BRANCH   3   5
ATOM      5  C   UNL A   1      42.278  19.141  26.489  1.00  0.00     0.353 C 
BRANCH   5   6
ATOM      6  O   UNL A   1      41.003  19.173  25.857  1.00  0.00    -0.465 OA
BRANCH   6   7
ATOM      7  C   UNL A   1      40.433  20.403  26.064  1.00  0.00     0.233 A 
ATOM      8  N   UNL A   1      41.235  21.311  26.669  1.00  0.00    -0.220 NA
ATOM      9  C   UNL A   1      39.112  20.646  25.707  1.00  0.00     0.103 A 
ATOM     10  C   UNL A   1      40.694  22.526  26.916  1.00  0.00     0.128 A 
ATOM     11  C   UNL A   1      38.598  21.917  25.943  1.00  0.00     0.041 A 
ATOM     12  Cl  UNL A   1      38.103  19.448  24.998  1.00  0.00    -0.078 Cl
ATOM     13  C   UNL A   1      39.399  22.884  26.563  1.00  0.00     0.076 A 
BRANCH  13  14
ATOM     14  C   UNL A   1      38.885  24.251  26.896  1.00  0.00     0.417 C 
ATOM     15  F   UNL A   1      39.616  25.232  26.303  1.00  0.00    -0.166 F 
ATOM     16  F   UNL A   1      37.600  24.443  26.493  1.00  0.00    -0.166 F 
ATOM     17  F   UNL A   1      38.904  24.520  28.230  1.00  0.00    -0.166 F 
ENDBRANCH  13  14
ENDBRANCH   6   7
ENDBRANCH   5   6
ENDBRANCH   3   5
ENDBRANCH   2   3
ENDBRANCH   1   2
BRANCH   1  18
ATOM     18  C   UNL A   1      45.228  22.102  25.791  1.00  0.00     0.275 C 
BRANCH  18  19
ATOM     19  O   UNL A   1      44.153  23.049  25.641  1.00  0.00    -0.458 OA
BRANCH  19  20
ATOM     20  C   UNL A   1      44.531  24.346  25.514  1.00  0.00     0.338 C 
ATOM     21  O   UNL A   1      45.200  24.835  24.621  1.00  0.00    -0.246 OA
BRANCH  20  22
ATOM     22  C   UNL A   1      43.848  25.143  26.554  1.00  0.00     0.060 A 
ATOM     23  C   UNL A   1      44.178  26.498  26.676  1.00  0.00     0.016 A 
ATOM     24  C   UNL A   1      42.898  24.569  27.402  1.00  0.00     0.016 A 
ATOM     25  C   UNL A   1      43.574  27.278  27.663  1.00  0.00     0.010 A 
ATOM     26  C   UNL A   1      42.301  25.348  28.398  1.00  0.00     0.010 A 
ATOM     27  C   UNL A   1      42.653  26.701  28.548  1.00  0.00    -0.014 A 
BRANCH  27  28
ATOM     28  C   UNL A   1      42.156  27.475  29.711  1.00  0.00     0.031 A 
ATOM     29  C   UNL A   1      40.900  28.287  29.562  1.00  0.00     0.074 A 
ATOM     30  C   UNL A   1      42.809  27.454  30.886  1.00  0.00     0.049 A 
ATOM     31  N   UNL A   1      40.297  29.053  30.435  1.00  0.00    -0.248 NA
ATOM     32  C   UNL A   1      40.235  28.227  28.251  1.00  0.00     0.031 C 
ATOM     33  C   UNL A   1      44.025  26.692  31.165  1.00  0.00     0.029 A 
ATOM     34  N   UNL A   1      42.541  28.105  32.065  1.00  0.00    -0.354 N 
ATOM     35  C   UNL A   1      39.179  29.557  29.783  1.00  0.00     0.074 A 
ATOM     36  C   UNL A   1      39.208  29.043  28.431  1.00  0.00     0.031 C 
ATOM     37  C   UNL A   1      44.405  26.929  32.434  1.00  0.00     0.029 A 
ATOM     38  C   UNL A   1      43.474  27.876  33.046  1.00  0.00     0.049 A 
ATOM     39  H   UNL A   1      41.754  28.682  32.195  1.00  0.00     0.167 HD
ATOM     40  C   UNL A   1      38.208  30.365  30.272  1.00  0.00     0.037 A 
ATOM     41  C   UNL A   1      43.570  28.386  34.288  1.00  0.00     0.037 A 
ATOM     42  C   UNL A   1      38.183  30.888  31.613  1.00  0.00     0.049 A 
ATOM     43  C   UNL A   1      42.515  29.344  34.783  1.00  0.00     0.074 A 
ATOM     44  C   UNL A   1      37.233  31.704  32.203  1.00  0.00     0.029 A 
ATOM     45  N   UNL A   1      39.158  30.654  32.570  1.00  0.00    -0.354 N 
ATOM     46  N   UNL A   1      41.438  29.780  34.176  1.00  0.00    -0.248 NA
ATOM     47  C   UNL A   1      42.690  29.878  36.143  1.00  0.00     0.031 C 
ATOM     48  C   UNL A   1      37.658  32.002  33.502  1.00  0.00     0.029 A 
ATOM     49  C   UNL A   1      38.845  31.332  33.738  1.00  0.00     0.049 A 
ATOM     50  H   UNL A   1      39.955  30.090  32.439  1.00  0.00     0.167 HD
ATOM     51  C   UNL A   1      40.793  30.608  35.087  1.00  0.00     0.074 A 
ATOM     52  C   UNL A   1      41.591  30.603  36.294  1.00  0.00     0.031 C 
ATOM     53  C   UNL A   1      39.643  31.310  34.937  1.00  0.00     0.037 A 
BRANCH  40  54
ATOM     54  C   UNL A   1      37.094  30.745  29.345  1.00  0.00     0.064 A 
ATOM     55  C   UNL A   1      36.078  29.836  29.011  1.00  0.00     0.173 A 
ATOM     56  C   UNL A   1      37.014  32.043  28.821  1.00  0.00     0.173 A 
ATOM     57  F   UNL A   1      36.117  28.579  29.477  1.00  0.00    -0.203 F 
ATOM     58  C   UNL A   1      35.033  30.210  28.170  1.00  0.00     0.198 A 
ATOM     59  C   UNL A   1      35.953  32.421  28.002  1.00  0.00     0.198 A 
ATOM     60  F   UNL A   1      37.959  32.949  29.113  1.00  0.00    -0.203 F 
ATOM     61  F   UNL A   1      34.093  29.315  27.834  1.00  0.00    -0.200 F 
ATOM     62  C   UNL A   1      34.968  31.503  27.673  1.00  0.00     0.200 A 
ATOM     63  F   UNL A   1      35.886  33.673  27.531  1.00  0.00    -0.200 F 
ATOM     64  F   UNL A   1      33.955  31.863  26.872  1.00  0.00    -0.200 F 
ENDBRANCH  40  54
BRANCH  41  65
ATOM     65  C   UNL A   1      44.712  28.014  35.166  1.00  0.00     0.064 A 
ATOM     66  C   UNL A   1      44.651  26.886  35.995  1.00  0.00     0.173 A 
ATOM     67  C   UNL A   1      45.866  28.809  35.229  1.00  0.00     0.173 A 
ATOM     68  F   UNL A   1      43.556  26.112  35.991  1.00  0.00    -0.203 F 
ATOM     69  C   UNL A   1      45.687  26.583  36.877  1.00  0.00     0.198 A 
ATOM     70  C   UNL A   1      46.915  28.488  36.089  1.00  0.00     0.198 A 
ATOM     71  F   UNL A   1      45.973  29.902  34.459  1.00  0.00    -0.203 F 
ATOM     72  F   UNL A   1      45.576  25.533  37.702  1.00  0.00    -0.200 F 
ATOM     73  C   UNL A   1      46.819  27.382  36.920  1.00  0.00     0.200 A 
ATOM     74  F   UNL A   1      48.011  29.259  36.122  1.00  0.00    -0.200 F 
ATOM     75  F   UNL A   1      47.812  27.096  37.772  1.00  0.00    -0.200 F 
ENDBRANCH  41  65
BRANCH  53  76
ATOM     76  C   UNL A   1      39.157  32.102  36.118  1.00  0.00     0.064 A 
ATOM     77  C   UNL A   1      38.262  31.559  37.052  1.00  0.00     0.173 A 
ATOM     78  C   UNL A   1      39.619  33.409  36.336  1.00  0.00     0.173 A 
ATOM     79  F   UNL A   1      37.778  30.319  36.881  1.00  0.00    -0.203 F 
ATOM     80  C   UNL A   1      37.827  32.305  38.144  1.00  0.00     0.198 A 
ATOM     81  C   UNL A   1      39.206  34.141  37.446  1.00  0.00     0.198 A 
ATOM     82  F   UNL A   1      40.483  33.973  35.477  1.00  0.00    -0.203 F 
ATOM     83  F   UNL A   1      36.932  31.784  38.995  1.00  0.00    -0.200 F 
ATOM     84  C   UNL A   1      38.304  33.592  38.344  1.00  0.00     0.200 A 
ATOM     85  F   UNL A   1      39.680  35.379  37.645  1.00  0.00    -0.200 F 
ATOM     86  F   UNL A   1      37.888  34.307  39.399  1.00  0.00    -0.200 F 
ENDBRANCH  53  76
ENDBRANCH  27  28
ENDBRANCH  20  22
ENDBRANCH  19  20
ENDBRANCH  18  19
ENDBRANCH   1  18
TORSDOF 14
ENDMDL
