MODEL 1
REMARK VINA RESULT:     -12.9      0.000      0.000
REMARK SMILES CC1(C)[C@H](C(=O)OCCOC(=O)c2ccc(-c3c4nc(c(-c5c(F)c(F)c(F)c(F)c5F)c5ccc([nH]5)c(-c5c(F)c(F)c(F)c(F)c5F)c5nc(c(-c6c(F)c(F)c(F)c(F)c6F)c6ccc3[nH]6)C=C5)C=C4)cc2)[C@@H]1C(=O)Nc1ccc(NC(=O)C2CCC2)cc1
REMARK SMILES IDX 8 1 7 2 5 3 6 4 4 5 1 6 2 7 3 8 76 9 77 10 78 11 79 12 80 14
REMARK SMILES IDX 81 15 92 16 82 17 91 18 83 19 84 20 85 21 86 23 87 24 88 25
REMARK SMILES IDX 90 26 89 27 9 28 10 29 11 30 12 31 13 32 14 33 75 34 15 35
REMARK SMILES IDX 74 36 16 37 17 38 18 39 68 40 19 41 73 42 67 43 69 44 20 45
REMARK SMILES IDX 72 46 66 47 65 48 21 50 53 51 33 52 52 53 34 54 37 55 51 56
REMARK SMILES IDX 70 57 35 58 36 59 50 61 71 62 38 63 22 64 23 65 31 66 24 67
REMARK SMILES IDX 25 68 29 69 32 70 26 71 27 72 30 73 28 74 54 75 55 76 63 77
REMARK SMILES IDX 56 78 57 79 61 80 64 81 58 82 59 83 62 84 60 85 39 86 40 87
REMARK SMILES IDX 48 88 41 89 42 90 46 91 49 92 43 93 44 94 47 95 45 96
REMARK H PARENT 79 13 84 22 69 49 37 60
REMARK Flexibility Score: inf
ROOT
ATOM      1  C   UNL A   1      31.521  30.068  25.364  1.00  0.00     0.274 C 
ENDROOT
BRANCH   1   2
ATOM      2  O   UNL A   1      32.763  29.469  24.933  1.00  0.00    -0.462 OA
BRANCH   2   3
ATOM      3  C   UNL A   1      32.661  28.705  23.813  1.00  0.00     0.310 C 
ATOM      4  O   UNL A   1      32.297  29.129  22.732  1.00  0.00    -0.252 OA
BRANCH   3   5
ATOM      5  C   UNL A   1      33.181  27.322  23.888  1.00  0.00     0.118 C 
ATOM      6  C   UNL A   1      34.413  25.654  25.343  1.00  0.00     0.013 C 
ATOM      7  C   UNL A   1      33.109  26.357  25.036  1.00  0.00    -0.009 C 
ATOM      8  C   UNL A   1      32.332  26.724  26.275  1.00  0.00     0.013 C 
ATOM      9  C   UNL A   1      32.402  26.052  23.694  1.00  0.00     0.100 C 
BRANCH   9  10
ATOM     10  C   UNL A   1      30.935  25.873  23.637  1.00  0.00     0.228 C 
ATOM     11  O   UNL A   1      30.226  26.816  23.297  1.00  0.00    -0.274 OA
ATOM     12  N   UNL A   1      30.335  24.696  24.015  1.00  0.00    -0.326 N 
ATOM     13  H   UNL A   1      29.372  24.745  24.217  1.00  0.00     0.169 HD
BRANCH  12  14
ATOM     14  C   UNL A   1      30.929  23.441  24.146  1.00  0.00     0.041 A 
ATOM     15  C   UNL A   1      31.395  22.882  22.965  1.00  0.00     0.028 A 
ATOM     16  C   UNL A   1      31.139  22.784  25.356  1.00  0.00     0.028 A 
ATOM     17  C   UNL A   1      32.203  21.753  23.014  1.00  0.00     0.028 A 
ATOM     18  C   UNL A   1      31.850  21.565  25.366  1.00  0.00     0.028 A 
ATOM     19  C   UNL A   1      32.419  21.051  24.186  1.00  0.00     0.041 A 
BRANCH  19  20
ATOM     20  N   UNL A   1      33.238  19.919  24.274  1.00  0.00    -0.326 N 
ATOM     21  C   UNL A   1      34.537  19.670  24.668  1.00  0.00     0.227 C 
ATOM     22  H   UNL A   1      32.775  19.101  23.981  1.00  0.00     0.169 HD
ATOM     23  O   UNL A   1      34.837  18.459  24.662  1.00  0.00    -0.274 OA
BRANCH  21  24
ATOM     24  C   UNL A   1      35.595  20.709  25.118  1.00  0.00     0.079 C 
ATOM     25  C   UNL A   1      37.073  20.220  24.873  1.00  0.00     0.013 C 
ATOM     26  C   UNL A   1      36.049  21.979  24.336  1.00  0.00     0.013 C 
ATOM     27  C   UNL A   1      37.488  21.689  24.768  1.00  0.00     0.002 C 
ENDBRANCH  21  24
ENDBRANCH  19  20
ENDBRANCH  12  14
ENDBRANCH   9  10
ENDBRANCH   3   5
ENDBRANCH   2   3
ENDBRANCH   1   2
BRANCH   1  28
ATOM     28  C   UNL A   1      31.675  31.229  26.360  1.00  0.00     0.275 C 
BRANCH  28  29
ATOM     29  O   UNL A   1      32.709  31.019  27.344  1.00  0.00    -0.458 OA
BRANCH  29  30
ATOM     30  C   UNL A   1      33.509  32.091  27.555  1.00  0.00     0.338 C 
ATOM     31  O   UNL A   1      33.172  33.265  27.564  1.00  0.00    -0.246 OA
BRANCH  30  32
ATOM     32  C   UNL A   1      34.877  31.681  27.912  1.00  0.00     0.060 A 
ATOM     33  C   UNL A   1      35.074  30.351  28.297  1.00  0.00     0.016 A 
ATOM     34  C   UNL A   1      35.904  32.608  28.062  1.00  0.00     0.016 A 
ATOM     35  C   UNL A   1      36.262  29.936  28.874  1.00  0.00     0.010 A 
ATOM     36  C   UNL A   1      37.109  32.195  28.643  1.00  0.00     0.010 A 
ATOM     37  C   UNL A   1      37.277  30.866  29.083  1.00  0.00    -0.014 A 
BRANCH  37  38
ATOM     38  C   UNL A   1      38.447  30.479  29.898  1.00  0.00     0.031 A 
ATOM     39  C   UNL A   1      39.461  29.547  29.305  1.00  0.00     0.074 A 
ATOM     40  C   UNL A   1      38.624  30.994  31.128  1.00  0.00     0.049 A 
ATOM     41  N   UNL A   1      40.456  28.925  29.882  1.00  0.00    -0.248 NA
ATOM     42  C   UNL A   1      39.337  29.281  27.863  1.00  0.00     0.031 C 
ATOM     43  C   UNL A   1      37.767  31.999  31.754  1.00  0.00     0.029 A 
ATOM     44  N   UNL A   1      39.581  30.728  32.072  1.00  0.00    -0.354 N 
ATOM     45  C   UNL A   1      41.045  28.158  28.886  1.00  0.00     0.074 A 
ATOM     46  C   UNL A   1      40.303  28.395  27.667  1.00  0.00     0.031 C 
ATOM     47  C   UNL A   1      38.222  32.247  32.993  1.00  0.00     0.029 A 
ATOM     48  C   UNL A   1      39.358  31.370  33.264  1.00  0.00     0.049 A 
ATOM     49  H   UNL A   1      40.352  30.136  31.912  1.00  0.00     0.167 HD
ATOM     50  C   UNL A   1      42.105  27.324  28.993  1.00  0.00     0.037 A 
ATOM     51  C   UNL A   1      39.969  31.219  34.454  1.00  0.00     0.037 A 
ATOM     52  C   UNL A   1      42.841  27.121  30.212  1.00  0.00     0.049 A 
ATOM     53  C   UNL A   1      41.089  30.220  34.573  1.00  0.00     0.074 A 
ATOM     54  C   UNL A   1      43.923  26.291  30.443  1.00  0.00     0.029 A 
ATOM     55  N   UNL A   1      42.568  27.767  31.410  1.00  0.00    -0.354 N 
ATOM     56  N   UNL A   1      41.611  29.449  33.650  1.00  0.00    -0.248 NA
ATOM     57  C   UNL A   1      41.697  30.060  35.900  1.00  0.00     0.031 C 
ATOM     58  C   UNL A   1      44.276  26.401  31.791  1.00  0.00     0.029 A 
ATOM     59  C   UNL A   1      43.452  27.342  32.388  1.00  0.00     0.049 A 
ATOM     60  H   UNL A   1      41.852  28.429  31.546  1.00  0.00     0.167 HD
ATOM     61  C   UNL A   1      42.628  28.738  34.273  1.00  0.00     0.074 A 
ATOM     62  C   UNL A   1      42.651  29.173  35.654  1.00  0.00     0.031 C 
ATOM     63  C   UNL A   1      43.468  27.812  33.751  1.00  0.00     0.037 A 
BRANCH  50  64
ATOM     64  C   UNL A   1      42.492  26.531  27.780  1.00  0.00     0.064 A 
ATOM     65  C   UNL A   1      43.477  26.972  26.885  1.00  0.00     0.173 A 
ATOM     66  C   UNL A   1      41.876  25.296  27.522  1.00  0.00     0.173 A 
ATOM     67  F   UNL A   1      44.083  28.153  27.076  1.00  0.00    -0.203 F 
ATOM     68  C   UNL A   1      43.816  26.216  25.764  1.00  0.00     0.198 A 
ATOM     69  C   UNL A   1      42.237  24.530  26.418  1.00  0.00     0.198 A 
ATOM     70  F   UNL A   1      40.927  24.829  28.347  1.00  0.00    -0.203 F 
ATOM     71  F   UNL A   1      44.727  26.678  24.897  1.00  0.00    -0.200 F 
ATOM     72  C   UNL A   1      43.201  24.993  25.536  1.00  0.00     0.200 A 
ATOM     73  F   UNL A   1      41.649  23.345  26.204  1.00  0.00    -0.200 F 
ATOM     74  F   UNL A   1      43.532  24.265  24.460  1.00  0.00    -0.200 F 
ENDBRANCH  50  64
BRANCH  51  75
ATOM     75  C   UNL A   1      39.500  31.993  35.633  1.00  0.00     0.064 A 
ATOM     76  C   UNL A   1      40.025  33.258  35.921  1.00  0.00     0.173 A 
ATOM     77  C   UNL A   1      38.518  31.482  36.495  1.00  0.00     0.173 A 
ATOM     78  F   UNL A   1      40.984  33.779  35.141  1.00  0.00    -0.203 F 
ATOM     79  C   UNL A   1      39.596  33.979  37.035  1.00  0.00     0.198 A 
ATOM     80  C   UNL A   1      38.068  32.216  37.591  1.00  0.00     0.198 A 
ATOM     81  F   UNL A   1      37.983  30.274  36.265  1.00  0.00    -0.203 F 
ATOM     82  F   UNL A   1      40.146  35.169  37.311  1.00  0.00    -0.200 F 
ATOM     83  C   UNL A   1      38.613  33.461  37.864  1.00  0.00     0.200 A 
ATOM     84  F   UNL A   1      37.108  31.717  38.380  1.00  0.00    -0.200 F 
ATOM     85  F   UNL A   1      38.196  34.157  38.930  1.00  0.00    -0.200 F 
ENDBRANCH  51  75
BRANCH  63  86
ATOM     86  C   UNL A   1      44.526  27.255  34.655  1.00  0.00     0.064 A 
ATOM     87  C   UNL A   1      44.334  26.067  35.374  1.00  0.00     0.173 A 
ATOM     88  C   UNL A   1      45.774  27.890  34.752  1.00  0.00     0.173 A 
ATOM     89  F   UNL A   1      43.153  25.431  35.325  1.00  0.00    -0.203 F 
ATOM     90  C   UNL A   1      45.348  25.544  36.172  1.00  0.00     0.198 A 
ATOM     91  C   UNL A   1      46.795  27.350  35.527  1.00  0.00     0.198 A 
ATOM     92  F   UNL A   1      46.009  29.026  34.077  1.00  0.00    -0.203 F 
ATOM     93  F   UNL A   1      45.132  24.428  36.881  1.00  0.00    -0.200 F 
ATOM     94  C   UNL A   1      46.579  26.180  36.241  1.00  0.00     0.200 A 
ATOM     95  F   UNL A   1      47.987  27.958  35.581  1.00  0.00    -0.200 F 
ATOM     96  F   UNL A   1      47.558  25.667  36.998  1.00  0.00    -0.200 F 
ENDBRANCH  63  86
ENDBRANCH  37  38
ENDBRANCH  30  32
ENDBRANCH  29  30
ENDBRANCH  28  29
ENDBRANCH   1  28
TORSDOF 15
ENDMDL
MODEL 2
REMARK VINA RESULT:     -12.8      1.141      2.081
REMARK SMILES CC1(C)[C@H](C(=O)OCCOC(=O)c2ccc(-c3c4nc(c(-c5c(F)c(F)c(F)c(F)c5F)c5ccc([nH]5)c(-c5c(F)c(F)c(F)c(F)c5F)c5nc(c(-c6c(F)c(F)c(F)c(F)c6F)c6ccc3[nH]6)C=C5)C=C4)cc2)[C@@H]1C(=O)Nc1ccc(NC(=O)C2CCC2)cc1
REMARK SMILES IDX 8 1 7 2 5 3 6 4 4 5 1 6 2 7 3 8 76 9 77 10 78 11 79 12 80 14
REMARK SMILES IDX 81 15 92 16 82 17 91 18 83 19 84 20 85 21 86 23 87 24 88 25
REMARK SMILES IDX 90 26 89 27 9 28 10 29 11 30 12 31 13 32 14 33 75 34 15 35
REMARK SMILES IDX 74 36 16 37 17 38 18 39 68 40 19 41 73 42 67 43 69 44 20 45
REMARK SMILES IDX 72 46 66 47 65 48 21 50 53 51 33 52 52 53 34 54 37 55 51 56
REMARK SMILES IDX 70 57 35 58 36 59 50 61 71 62 38 63 22 64 23 65 31 66 24 67
REMARK SMILES IDX 25 68 29 69 32 70 26 71 27 72 30 73 28 74 54 75 55 76 63 77
REMARK SMILES IDX 56 78 57 79 61 80 64 81 58 82 59 83 62 84 60 85 39 86 40 87
REMARK SMILES IDX 48 88 41 89 42 90 46 91 49 92 43 93 44 94 47 95 45 96
REMARK H PARENT 79 13 84 22 69 49 37 60
REMARK Flexibility Score: inf
ROOT
ATOM      1  C   UNL A   1      31.289  30.453  25.286  1.00  0.00     0.274 C 
ENDROOT
BRANCH   1   2
ATOM      2  O   UNL A   1      31.514  29.043  25.501  1.00  0.00    -0.462 OA
BRANCH   2   3
ATOM      3  C   UNL A   1      31.353  28.271  24.395  1.00  0.00     0.310 C 
ATOM      4  O   UNL A   1      31.507  28.674  23.257  1.00  0.00    -0.252 OA
BRANCH   3   5
ATOM      5  C   UNL A   1      31.139  26.822  24.606  1.00  0.00     0.118 C 
ATOM      6  C   UNL A   1      30.492  24.643  23.487  1.00  0.00     0.013 C 
ATOM      7  C   UNL A   1      31.570  25.676  23.738  1.00  0.00    -0.009 C 
ATOM      8  C   UNL A   1      32.430  25.936  22.528  1.00  0.00     0.013 C 
ATOM      9  C   UNL A   1      32.119  25.837  25.176  1.00  0.00     0.100 C 
BRANCH   9  10
ATOM     10  C   UNL A   1      33.567  26.015  25.415  1.00  0.00     0.228 C 
ATOM     11  O   UNL A   1      34.013  27.145  25.599  1.00  0.00    -0.274 OA
ATOM     12  N   UNL A   1      34.443  24.957  25.375  1.00  0.00    -0.326 N 
ATOM     13  H   UNL A   1      35.395  25.184  25.262  1.00  0.00     0.169 HD
BRANCH  12  14
ATOM     14  C   UNL A   1      34.142  23.599  25.475  1.00  0.00     0.041 A 
ATOM     15  C   UNL A   1      34.191  23.076  26.760  1.00  0.00     0.028 A 
ATOM     16  C   UNL A   1      33.736  22.794  24.413  1.00  0.00     0.028 A 
ATOM     17  C   UNL A   1      33.688  21.803  27.000  1.00  0.00     0.028 A 
ATOM     18  C   UNL A   1      33.355  21.460  24.664  1.00  0.00     0.028 A 
ATOM     19  C   UNL A   1      33.299  20.959  25.977  1.00  0.00     0.041 A 
BRANCH  19  20
ATOM     20  N   UNL A   1      32.774  19.677  26.186  1.00  0.00    -0.326 N 
ATOM     21  C   UNL A   1      32.901  18.447  25.572  1.00  0.00     0.227 C 
ATOM     22  H   UNL A   1      32.164  19.646  26.958  1.00  0.00     0.169 HD
ATOM     23  O   UNL A   1      32.296  17.530  26.163  1.00  0.00    -0.274 OA
BRANCH  21  24
ATOM     24  C   UNL A   1      33.709  18.119  24.291  1.00  0.00     0.079 C 
ATOM     25  C   UNL A   1      34.345  16.678  24.324  1.00  0.00     0.013 C 
ATOM     26  C   UNL A   1      33.133  17.666  22.915  1.00  0.00     0.013 C 
ATOM     27  C   UNL A   1      34.294  16.675  22.795  1.00  0.00     0.002 C 
ENDBRANCH  21  24
ENDBRANCH  19  20
ENDBRANCH  12  14
ENDBRANCH   9  10
ENDBRANCH   3   5
ENDBRANCH   2   3
ENDBRANCH   1   2
BRANCH   1  28
ATOM     28  C   UNL A   1      31.569  31.347  26.506  1.00  0.00     0.275 C 
BRANCH  28  29
ATOM     29  O   UNL A   1      32.784  31.011  27.207  1.00  0.00    -0.458 OA
BRANCH  29  30
ATOM     30  C   UNL A   1      33.545  32.076  27.552  1.00  0.00     0.338 C 
ATOM     31  O   UNL A   1      33.174  33.234  27.671  1.00  0.00    -0.246 OA
BRANCH  30  32
ATOM     32  C   UNL A   1      34.914  31.667  27.910  1.00  0.00     0.060 A 
ATOM     33  C   UNL A   1      35.111  30.337  28.293  1.00  0.00     0.016 A 
ATOM     34  C   UNL A   1      35.940  32.595  28.061  1.00  0.00     0.016 A 
ATOM     35  C   UNL A   1      36.299  29.922  28.871  1.00  0.00     0.010 A 
ATOM     36  C   UNL A   1      37.145  32.182  28.643  1.00  0.00     0.010 A 
ATOM     37  C   UNL A   1      37.313  30.853  29.082  1.00  0.00    -0.014 A 
BRANCH  37  38
ATOM     38  C   UNL A   1      38.483  30.466  29.897  1.00  0.00     0.031 A 
ATOM     39  C   UNL A   1      39.493  29.526  29.308  1.00  0.00     0.074 A 
ATOM     40  C   UNL A   1      38.665  30.989  31.123  1.00  0.00     0.049 A 
ATOM     41  N   UNL A   1      40.485  28.903  29.888  1.00  0.00    -0.248 NA
ATOM     42  C   UNL A   1      39.364  29.250  27.868  1.00  0.00     0.031 C 
ATOM     43  C   UNL A   1      37.814  32.001  31.744  1.00  0.00     0.029 A 
ATOM     44  N   UNL A   1      39.623  30.725  32.067  1.00  0.00    -0.354 N 
ATOM     45  C   UNL A   1      41.069  28.127  28.896  1.00  0.00     0.074 A 
ATOM     46  C   UNL A   1      40.326  28.360  27.676  1.00  0.00     0.031 C 
ATOM     47  C   UNL A   1      38.272  32.256  32.981  1.00  0.00     0.029 A 
ATOM     48  C   UNL A   1      39.405  31.376  33.255  1.00  0.00     0.049 A 
ATOM     49  H   UNL A   1      40.390  30.128  31.909  1.00  0.00     0.167 HD
ATOM     50  C   UNL A   1      42.126  27.289  29.006  1.00  0.00     0.037 A 
ATOM     51  C   UNL A   1      40.017  31.229  34.445  1.00  0.00     0.037 A 
ATOM     52  C   UNL A   1      42.864  27.091  30.225  1.00  0.00     0.049 A 
ATOM     53  C   UNL A   1      41.134  30.226  34.568  1.00  0.00     0.074 A 
ATOM     54  C   UNL A   1      43.942  26.258  30.459  1.00  0.00     0.029 A 
ATOM     55  N   UNL A   1      42.595  27.746  31.419  1.00  0.00    -0.354 N 
ATOM     56  N   UNL A   1      41.651  29.447  33.649  1.00  0.00    -0.248 NA
ATOM     57  C   UNL A   1      41.743  30.073  35.896  1.00  0.00     0.031 C 
ATOM     58  C   UNL A   1      44.298  26.375  31.806  1.00  0.00     0.029 A 
ATOM     59  C   UNL A   1      43.479  27.324  32.398  1.00  0.00     0.049 A 
ATOM     60  H   UNL A   1      41.883  28.412  31.551  1.00  0.00     0.167 HD
ATOM     61  C   UNL A   1      42.665  28.736  34.275  1.00  0.00     0.074 A 
ATOM     62  C   UNL A   1      42.693  29.180  35.654  1.00  0.00     0.031 C 
ATOM     63  C   UNL A   1      43.500  27.803  33.757  1.00  0.00     0.037 A 
BRANCH  50  64
ATOM     64  C   UNL A   1      42.507  26.486  27.797  1.00  0.00     0.064 A 
ATOM     65  C   UNL A   1      43.488  26.920  26.894  1.00  0.00     0.173 A 
ATOM     66  C   UNL A   1      41.890  25.249  27.553  1.00  0.00     0.173 A 
ATOM     67  F   UNL A   1      44.094  28.103  27.072  1.00  0.00    -0.203 F 
ATOM     68  C   UNL A   1      43.820  26.156  25.777  1.00  0.00     0.198 A 
ATOM     69  C   UNL A   1      42.246  24.475  26.452  1.00  0.00     0.198 A 
ATOM     70  F   UNL A   1      40.946  24.788  28.386  1.00  0.00    -0.203 F 
ATOM     71  F   UNL A   1      44.727  26.611  24.902  1.00  0.00    -0.200 F 
ATOM     72  C   UNL A   1      43.205  24.931  25.562  1.00  0.00     0.200 A 
ATOM     73  F   UNL A   1      41.657  23.287  26.252  1.00  0.00    -0.200 F 
ATOM     74  F   UNL A   1      43.531  24.194  24.491  1.00  0.00    -0.200 F 
ENDBRANCH  50  64
BRANCH  51  75
ATOM     75  C   UNL A   1      39.554  32.014  35.619  1.00  0.00     0.064 A 
ATOM     76  C   UNL A   1      38.557  31.519  36.469  1.00  0.00     0.173 A 
ATOM     77  C   UNL A   1      40.098  33.273  35.914  1.00  0.00     0.173 A 
ATOM     78  F   UNL A   1      37.988  30.332  36.215  1.00  0.00    -0.203 F 
ATOM     79  C   UNL A   1      38.111  32.261  37.563  1.00  0.00     0.198 A 
ATOM     80  C   UNL A   1      39.674  33.999  37.025  1.00  0.00     0.198 A 
ATOM     81  F   UNL A   1      41.054  33.792  35.131  1.00  0.00    -0.203 F 
ATOM     82  F   UNL A   1      37.126  31.783  38.336  1.00  0.00    -0.200 F 
ATOM     83  C   UNL A   1      38.675  33.496  37.844  1.00  0.00     0.200 A 
ATOM     84  F   UNL A   1      40.232  35.185  37.300  1.00  0.00    -0.200 F 
ATOM     85  F   UNL A   1      38.252  34.204  38.900  1.00  0.00    -0.200 F 
ENDBRANCH  51  75
BRANCH  63  86
ATOM     86  C   UNL A   1      44.558  27.247  34.663  1.00  0.00     0.064 A 
ATOM     87  C   UNL A   1      44.345  26.090  35.425  1.00  0.00     0.173 A 
ATOM     88  C   UNL A   1      45.824  27.851  34.719  1.00  0.00     0.173 A 
ATOM     89  F   UNL A   1      43.147  25.486  35.416  1.00  0.00    -0.203 F 
ATOM     90  C   UNL A   1      45.358  25.566  36.224  1.00  0.00     0.198 A 
ATOM     91  C   UNL A   1      46.842  27.308  35.496  1.00  0.00     0.198 A 
ATOM     92  F   UNL A   1      46.078  28.956  34.003  1.00  0.00    -0.203 F 
ATOM     93  F   UNL A   1      45.123  24.481  36.974  1.00  0.00    -0.200 F 
ATOM     94  C   UNL A   1      46.607  26.169  36.252  1.00  0.00     0.200 A 
ATOM     95  F   UNL A   1      48.051  27.884  35.510  1.00  0.00    -0.200 F 
ATOM     96  F   UNL A   1      47.584  25.655  37.011  1.00  0.00    -0.200 F 
ENDBRANCH  63  86
ENDBRANCH  37  38
ENDBRANCH  30  32
ENDBRANCH  29  30
ENDBRANCH  28  29
ENDBRANCH   1  28
TORSDOF 15
ENDMDL
MODEL 3
REMARK VINA RESULT:     -12.7      1.191      2.115
REMARK SMILES CC1(C)[C@H](C(=O)OCCOC(=O)c2ccc(-c3c4nc(c(-c5c(F)c(F)c(F)c(F)c5F)c5ccc([nH]5)c(-c5c(F)c(F)c(F)c(F)c5F)c5nc(c(-c6c(F)c(F)c(F)c(F)c6F)c6ccc3[nH]6)C=C5)C=C4)cc2)[C@@H]1C(=O)Nc1ccc(NC(=O)C2CCC2)cc1
REMARK SMILES IDX 8 1 7 2 5 3 6 4 4 5 1 6 2 7 3 8 76 9 77 10 78 11 79 12 80 14
REMARK SMILES IDX 81 15 92 16 82 17 91 18 83 19 84 20 85 21 86 23 87 24 88 25
REMARK SMILES IDX 90 26 89 27 9 28 10 29 11 30 12 31 13 32 14 33 75 34 15 35
REMARK SMILES IDX 74 36 16 37 17 38 18 39 68 40 19 41 73 42 67 43 69 44 20 45
REMARK SMILES IDX 72 46 66 47 65 48 21 50 53 51 33 52 52 53 34 54 37 55 51 56
REMARK SMILES IDX 70 57 35 58 36 59 50 61 71 62 38 63 22 64 23 65 31 66 24 67
REMARK SMILES IDX 25 68 29 69 32 70 26 71 27 72 30 73 28 74 54 75 55 76 63 77
REMARK SMILES IDX 56 78 57 79 61 80 64 81 58 82 59 83 62 84 60 85 39 86 40 87
REMARK SMILES IDX 48 88 41 89 42 90 46 91 49 92 43 93 44 94 47 95 45 96
REMARK H PARENT 79 13 84 22 69 49 37 60
REMARK Flexibility Score: inf
ROOT
ATOM      1  C   UNL A   1      31.650  30.220  25.179  1.00  0.00     0.274 C 
ENDROOT
BRANCH   1   2
ATOM      2  O   UNL A   1      31.273  28.844  25.403  1.00  0.00    -0.462 OA
BRANCH   2   3
ATOM      3  C   UNL A   1      31.382  28.044  24.309  1.00  0.00     0.310 C 
ATOM      4  O   UNL A   1      31.761  28.432  23.220  1.00  0.00    -0.252 OA
BRANCH   3   5
ATOM      5  C   UNL A   1      31.180  26.592  24.510  1.00  0.00     0.118 C 
ATOM      6  C   UNL A   1      30.656  24.400  23.354  1.00  0.00     0.013 C 
ATOM      7  C   UNL A   1      31.693  25.453  23.679  1.00  0.00    -0.009 C 
ATOM      8  C   UNL A   1      32.634  25.726  22.533  1.00  0.00     0.013 C 
ATOM      9  C   UNL A   1      32.134  25.627  25.152  1.00  0.00     0.100 C 
BRANCH   9  10
ATOM     10  C   UNL A   1      33.559  25.833  25.493  1.00  0.00     0.228 C 
ATOM     11  O   UNL A   1      33.971  26.972  25.698  1.00  0.00    -0.274 OA
ATOM     12  N   UNL A   1      34.453  24.790  25.528  1.00  0.00    -0.326 N 
ATOM     13  H   UNL A   1      35.406  25.034  25.483  1.00  0.00     0.169 HD
BRANCH  12  14
ATOM     14  C   UNL A   1      34.169  23.428  25.620  1.00  0.00     0.041 A 
ATOM     15  C   UNL A   1      34.096  22.926  26.912  1.00  0.00     0.028 A 
ATOM     16  C   UNL A   1      33.889  22.599  24.536  1.00  0.00     0.028 A 
ATOM     17  C   UNL A   1      33.594  21.647  27.122  1.00  0.00     0.028 A 
ATOM     18  C   UNL A   1      33.509  21.261  24.770  1.00  0.00     0.028 A 
ATOM     19  C   UNL A   1      33.328  20.780  26.079  1.00  0.00     0.041 A 
BRANCH  19  20
ATOM     20  N   UNL A   1      32.808  19.491  26.255  1.00  0.00    -0.326 N 
ATOM     21  C   UNL A   1      32.927  18.282  25.599  1.00  0.00     0.227 C 
ATOM     22  H   UNL A   1      32.212  19.433  27.037  1.00  0.00     0.169 HD
ATOM     23  O   UNL A   1      32.334  17.344  26.170  1.00  0.00    -0.274 OA
BRANCH  21  24
ATOM     24  C   UNL A   1      33.712  17.997  24.294  1.00  0.00     0.079 C 
ATOM     25  C   UNL A   1      34.348  16.555  24.268  1.00  0.00     0.013 C 
ATOM     26  C   UNL A   1      33.113  17.591  22.913  1.00  0.00     0.013 C 
ATOM     27  C   UNL A   1      34.271  16.605  22.741  1.00  0.00     0.002 C 
ENDBRANCH  21  24
ENDBRANCH  19  20
ENDBRANCH  12  14
ENDBRANCH   9  10
ENDBRANCH   3   5
ENDBRANCH   2   3
ENDBRANCH   1   2
BRANCH   1  28
ATOM     28  C   UNL A   1      31.716  31.087  26.448  1.00  0.00     0.275 C 
BRANCH  28  29
ATOM     29  O   UNL A   1      32.845  30.792  27.296  1.00  0.00    -0.458 OA
BRANCH  29  30
ATOM     30  C   UNL A   1      33.600  31.867  27.620  1.00  0.00     0.338 C 
ATOM     31  O   UNL A   1      33.220  33.024  27.727  1.00  0.00    -0.246 OA
BRANCH  30  32
ATOM     32  C   UNL A   1      34.975  31.476  27.970  1.00  0.00     0.060 A 
ATOM     33  C   UNL A   1      35.182  30.164  28.407  1.00  0.00     0.016 A 
ATOM     34  C   UNL A   1      36.003  32.410  28.060  1.00  0.00     0.016 A 
ATOM     35  C   UNL A   1      36.382  29.776  28.981  1.00  0.00     0.010 A 
ATOM     36  C   UNL A   1      37.219  32.024  28.637  1.00  0.00     0.010 A 
ATOM     37  C   UNL A   1      37.398  30.716  29.131  1.00  0.00    -0.014 A 
BRANCH  37  38
ATOM     38  C   UNL A   1      38.583  30.366  29.940  1.00  0.00     0.031 A 
ATOM     39  C   UNL A   1      39.615  29.453  29.349  1.00  0.00     0.074 A 
ATOM     40  C   UNL A   1      38.758  30.898  31.163  1.00  0.00     0.049 A 
ATOM     41  N   UNL A   1      40.629  28.861  29.925  1.00  0.00    -0.248 NA
ATOM     42  C   UNL A   1      39.486  29.168  27.911  1.00  0.00     0.031 C 
ATOM     43  C   UNL A   1      37.881  31.888  31.786  1.00  0.00     0.029 A 
ATOM     44  N   UNL A   1      39.728  30.665  32.103  1.00  0.00    -0.354 N 
ATOM     45  C   UNL A   1      41.229  28.098  28.932  1.00  0.00     0.074 A 
ATOM     46  C   UNL A   1      40.472  28.304  27.716  1.00  0.00     0.031 C 
ATOM     47  C   UNL A   1      38.340  32.161  33.019  1.00  0.00     0.029 A 
ATOM     48  C   UNL A   1      39.499  31.315  33.289  1.00  0.00     0.049 A 
ATOM     49  H   UNL A   1      40.511  30.091  31.942  1.00  0.00     0.167 HD
ATOM     50  C   UNL A   1      42.310  27.290  29.039  1.00  0.00     0.037 A 
ATOM     51  C   UNL A   1      40.122  31.191  34.476  1.00  0.00     0.037 A 
ATOM     52  C   UNL A   1      43.060  27.119  30.254  1.00  0.00     0.049 A 
ATOM     53  C   UNL A   1      41.268  30.220  34.596  1.00  0.00     0.074 A 
ATOM     54  C   UNL A   1      44.163  26.317  30.485  1.00  0.00     0.029 A 
ATOM     55  N   UNL A   1      42.781  27.771  31.448  1.00  0.00    -0.354 N 
ATOM     56  N   UNL A   1      41.801  29.453  33.677  1.00  0.00    -0.248 NA
ATOM     57  C   UNL A   1      41.889  30.090  35.920  1.00  0.00     0.031 C 
ATOM     58  C   UNL A   1      44.525  26.451  31.829  1.00  0.00     0.029 A 
ATOM     59  C   UNL A   1      43.682  27.378  32.423  1.00  0.00     0.049 A 
ATOM     60  H   UNL A   1      42.050  28.417  31.582  1.00  0.00     0.167 HD
ATOM     61  C   UNL A   1      42.840  28.773  34.299  1.00  0.00     0.074 A 
ATOM     62  C   UNL A   1      42.863  29.224  35.676  1.00  0.00     0.031 C 
ATOM     63  C   UNL A   1      43.698  27.863  33.780  1.00  0.00     0.037 A 
BRANCH  50  64
ATOM     64  C   UNL A   1      42.706  26.494  27.831  1.00  0.00     0.064 A 
ATOM     65  C   UNL A   1      43.672  26.950  26.923  1.00  0.00     0.173 A 
ATOM     66  C   UNL A   1      42.120  25.241  27.592  1.00  0.00     0.173 A 
ATOM     67  F   UNL A   1      44.249  28.148  27.095  1.00  0.00    -0.203 F 
ATOM     68  C   UNL A   1      44.020  26.191  25.807  1.00  0.00     0.198 A 
ATOM     69  C   UNL A   1      42.491  24.473  26.493  1.00  0.00     0.198 A 
ATOM     70  F   UNL A   1      41.191  24.759  28.431  1.00  0.00    -0.203 F 
ATOM     71  F   UNL A   1      44.911  26.666  24.927  1.00  0.00    -0.200 F 
ATOM     72  C   UNL A   1      43.435  24.951  25.597  1.00  0.00     0.200 A 
ATOM     73  F   UNL A   1      41.932  23.270  26.298  1.00  0.00    -0.200 F 
ATOM     74  F   UNL A   1      43.776  24.219  24.527  1.00  0.00    -0.200 F 
ENDBRANCH  50  64
BRANCH  51  75
ATOM     75  C   UNL A   1      39.644  31.966  35.650  1.00  0.00     0.064 A 
ATOM     76  C   UNL A   1      40.233  33.188  35.997  1.00  0.00     0.173 A 
ATOM     77  C   UNL A   1      38.589  31.499  36.450  1.00  0.00     0.173 A 
ATOM     78  F   UNL A   1      41.260  33.664  35.279  1.00  0.00    -0.203 F 
ATOM     79  C   UNL A   1      39.794  33.909  37.107  1.00  0.00     0.198 A 
ATOM     80  C   UNL A   1      38.131  32.235  37.541  1.00  0.00     0.198 A 
ATOM     81  F   UNL A   1      37.992  30.334  36.162  1.00  0.00    -0.203 F 
ATOM     82  F   UNL A   1      40.402  35.055  37.441  1.00  0.00    -0.200 F 
ATOM     83  C   UNL A   1      38.739  33.435  37.873  1.00  0.00     0.200 A 
ATOM     84  F   UNL A   1      37.103  31.780  38.269  1.00  0.00    -0.200 F 
ATOM     85  F   UNL A   1      38.314  34.133  38.935  1.00  0.00    -0.200 F 
ENDBRANCH  51  75
BRANCH  63  86
ATOM     86  C   UNL A   1      44.776  27.341  34.682  1.00  0.00     0.064 A 
ATOM     87  C   UNL A   1      46.002  28.004  34.829  1.00  0.00     0.173 A 
ATOM     88  C   UNL A   1      44.550  26.192  35.456  1.00  0.00     0.173 A 
ATOM     89  F   UNL A   1      46.270  29.098  34.099  1.00  0.00    -0.203 F 
ATOM     90  C   UNL A   1      46.971  27.526  35.706  1.00  0.00     0.198 A 
ATOM     91  C   UNL A   1      45.509  25.733  36.354  1.00  0.00     0.198 A 
ATOM     92  F   UNL A   1      43.389  25.527  35.356  1.00  0.00    -0.203 F 
ATOM     93  F   UNL A   1      48.151  28.152  35.805  1.00  0.00    -0.200 F 
ATOM     94  C   UNL A   1      46.720  26.398  36.475  1.00  0.00     0.200 A 
ATOM     95  F   UNL A   1      45.259  24.653  37.104  1.00  0.00    -0.200 F 
ATOM     96  F   UNL A   1      47.649  25.947  37.329  1.00  0.00    -0.200 F 
ENDBRANCH  63  86
ENDBRANCH  37  38
ENDBRANCH  30  32
ENDBRANCH  29  30
ENDBRANCH  28  29
ENDBRANCH   1  28
TORSDOF 15
ENDMDL
