MODEL 1
REMARK VINA RESULT:     -15.2      0.000      0.000
REMARK SMILES Cc1ccc(C(=O)NC2(CC(=O)OCCOC(=O)c3ccc(-c4c5nc(c(-c6c(F)c(F)c(F)c(F)c6F)c6ccc([nH]6)c(-c6c(F)c(F)c(F)c(F)c6F)c6nc(c(-c7c(F)c(F)c(F)c(F)c7F)c7ccc4[nH]7)C=C6)C=C5)cc3)CCC2)cc1
REMARK SMILES IDX 14 1 13 2 11 3 12 4 10 5 9 6 82 7 84 8 83 9 8 10 6 11 7 12
REMARK SMILES IDX 5 14 1 15 2 16 3 17 86 18 4 19 85 20 15 21 16 22 17 23 18 24
REMARK SMILES IDX 19 25 20 26 81 27 21 28 80 29 22 30 23 31 24 32 74 33 25 34
REMARK SMILES IDX 79 35 73 36 75 37 26 38 78 39 72 40 71 41 27 43 59 44 39 45
REMARK SMILES IDX 58 46 40 47 43 48 57 49 76 50 41 51 42 52 56 54 77 55 44 56
REMARK SMILES IDX 28 57 29 58 37 59 30 60 31 61 35 62 38 63 32 64 33 65 36 66
REMARK SMILES IDX 34 67 60 68 61 69 69 70 62 71 63 72 67 73 70 74 64 75 65 76
REMARK SMILES IDX 68 77 66 78 45 79 46 80 54 81 47 82 48 83 52 84 55 85 49 86
REMARK SMILES IDX 50 87 53 88 51 89
REMARK H PARENT 8 13 75 42 43 53
REMARK Flexibility Score: inf
ROOT
ATOM      1  C   UNL A   1      32.060  26.799  26.698  1.00  0.00     0.274 C 
ENDROOT
BRANCH   1   2
ATOM      2  O   UNL A   1      31.169  25.181  25.834  1.00  0.00    -0.462 OA
BRANCH   2   3
ATOM      3  C   UNL A   1      31.197  23.970  25.060  1.00  0.00     0.308 C 
ATOM      4  O   UNL A   1      30.627  22.963  25.487  1.00  0.00    -0.252 OA
BRANCH   3   5
ATOM      5  C   UNL A   1      31.645  23.662  23.668  1.00  0.00     0.151 C 
BRANCH   5   6
ATOM      6  C   UNL A   1      32.904  23.954  22.893  1.00  0.00     0.051 C 
ATOM      7  C   UNL A   1      33.906  22.767  23.118  1.00  0.00     0.029 C 
ATOM      8  C   UNL A   1      34.025  24.853  23.493  1.00  0.00     0.029 C 
ATOM      9  C   UNL A   1      34.542  23.613  24.239  1.00  0.00     0.005 C 
BRANCH   6  10
ATOM     10  N   UNL A   1      32.678  24.184  21.459  1.00  0.00    -0.346 N 
ATOM     11  C   UNL A   1      32.683  25.424  20.911  1.00  0.00     0.251 C 
ATOM     12  O   UNL A   1      33.033  25.668  19.770  1.00  0.00    -0.269 OA
ATOM     13  H   UNL A   1      32.518  23.408  20.875  1.00  0.00     0.164 HD
BRANCH  11  14
ATOM     14  C   UNL A   1      32.334  26.467  21.866  1.00  0.00     0.039 A 
ATOM     15  C   UNL A   1      31.338  30.223  25.182  1.00  0.00     0.044 C 
ATOM     16  C   UNL A   1      31.671  29.220  24.104  1.00  0.00    -0.051 A 
ATOM     17  C   UNL A   1      30.382  28.129  23.742  1.00  0.00     0.004 A 
ATOM     18  C   UNL A   1      33.261  29.002  23.384  1.00  0.00     0.004 A 
ATOM     19  C   UNL A   1      30.684  26.729  22.677  1.00  0.00     0.014 A 
ATOM     20  C   UNL A   1      33.630  27.646  22.277  1.00  0.00     0.014 A 
ENDBRANCH  11  14
ENDBRANCH   6  10
ENDBRANCH   5   6
ENDBRANCH   3   5
ENDBRANCH   2   3
ENDBRANCH   1   2
BRANCH   1  21
ATOM     21  C   UNL A   1      33.855  27.283  26.334  1.00  0.00     0.275 C 
BRANCH  21  22
ATOM     22  O   UNL A   1      34.660  28.745  26.718  1.00  0.00    -0.458 OA
BRANCH  22  23
ATOM     23  C   UNL A   1      35.031  29.773  27.640  1.00  0.00     0.338 C 
ATOM     24  O   UNL A   1      34.249  30.686  27.891  1.00  0.00    -0.246 OA
BRANCH  23  25
ATOM     25  C   UNL A   1      36.407  29.862  28.355  1.00  0.00     0.060 A 
ATOM     26  C   UNL A   1      36.773  29.287  29.609  1.00  0.00     0.016 A 
ATOM     27  C   UNL A   1      37.439  30.176  27.520  1.00  0.00     0.016 A 
ATOM     28  C   UNL A   1      38.096  28.700  29.844  1.00  0.00     0.010 A 
ATOM     29  C   UNL A   1      38.577  29.383  27.682  1.00  0.00     0.010 A 
ATOM     30  C   UNL A   1      38.992  28.568  28.783  1.00  0.00    -0.014 A 
BRANCH  30  31
ATOM     31  C   UNL A   1      40.276  27.684  28.545  1.00  0.00     0.031 A 
ATOM     32  C   UNL A   1      40.477  26.144  28.300  1.00  0.00     0.074 A 
ATOM     33  C   UNL A   1      41.410  28.443  28.477  1.00  0.00     0.049 A 
ATOM     34  N   UNL A   1      41.292  25.348  28.957  1.00  0.00    -0.248 NA
ATOM     35  C   UNL A   1      39.907  25.353  27.192  1.00  0.00     0.031 C 
ATOM     36  C   UNL A   1      42.805  28.145  28.214  1.00  0.00     0.029 A 
ATOM     37  N   UNL A   1      41.505  29.816  28.800  1.00  0.00    -0.354 N 
ATOM     38  C   UNL A   1      41.433  24.152  28.204  1.00  0.00     0.074 A 
ATOM     39  C   UNL A   1      40.297  24.090  27.361  1.00  0.00     0.031 C 
ATOM     40  C   UNL A   1      43.551  29.109  28.815  1.00  0.00     0.029 A 
ATOM     41  C   UNL A   1      42.642  29.988  29.554  1.00  0.00     0.049 A 
ATOM     42  H   UNL A   1      40.871  30.522  28.534  1.00  0.00     0.167 HD
ATOM     43  C   UNL A   1      42.639  23.533  27.961  1.00  0.00     0.037 A 
ATOM     44  C   UNL A   1      42.437  30.185  30.890  1.00  0.00     0.037 A 
ATOM     45  C   UNL A   1      43.686  24.366  28.507  1.00  0.00     0.049 A 
ATOM     46  C   UNL A   1      43.030  29.041  31.658  1.00  0.00     0.074 A 
ATOM     47  C   UNL A   1      44.635  25.217  27.973  1.00  0.00     0.029 A 
ATOM     48  N   UNL A   1      43.625  24.640  29.844  1.00  0.00    -0.354 N 
ATOM     49  N   UNL A   1      43.408  27.936  31.086  1.00  0.00    -0.248 NA
ATOM     50  C   UNL A   1      43.227  29.014  33.099  1.00  0.00     0.031 C 
ATOM     51  C   UNL A   1      45.162  25.995  29.049  1.00  0.00     0.029 A 
ATOM     52  C   UNL A   1      44.528  25.597  30.213  1.00  0.00     0.049 A 
ATOM     53  H   UNL A   1      43.005  24.201  30.468  1.00  0.00     0.167 HD
ATOM     54  C   UNL A   1      43.960  27.100  31.998  1.00  0.00     0.074 A 
ATOM     55  C   UNL A   1      43.755  27.787  33.263  1.00  0.00     0.031 C 
ATOM     56  C   UNL A   1      44.549  25.930  31.620  1.00  0.00     0.037 A 
BRANCH  43  57
ATOM     57  C   UNL A   1      42.975  22.354  27.018  1.00  0.00     0.064 A 
ATOM     58  C   UNL A   1      42.302  21.109  27.166  1.00  0.00     0.173 A 
ATOM     59  C   UNL A   1      43.875  22.374  25.930  1.00  0.00     0.173 A 
ATOM     60  F   UNL A   1      41.330  20.940  28.070  1.00  0.00    -0.203 F 
ATOM     61  C   UNL A   1      42.567  19.982  26.374  1.00  0.00     0.198 A 
ATOM     62  C   UNL A   1      44.160  21.232  25.149  1.00  0.00     0.198 A 
ATOM     63  F   UNL A   1      44.473  23.504  25.533  1.00  0.00    -0.203 F 
ATOM     64  F   UNL A   1      41.889  18.845  26.589  1.00  0.00    -0.200 F 
ATOM     65  C   UNL A   1      43.511  20.036  25.377  1.00  0.00     0.200 A 
ATOM     66  F   UNL A   1      45.063  21.307  24.159  1.00  0.00    -0.200 F 
ATOM     67  F   UNL A   1      43.769  18.957  24.623  1.00  0.00    -0.200 F 
ENDBRANCH  43  57
BRANCH  44  68
ATOM     68  C   UNL A   1      41.147  30.924  31.219  1.00  0.00     0.064 A 
ATOM     69  C   UNL A   1      40.130  30.249  31.944  1.00  0.00     0.173 A 
ATOM     70  C   UNL A   1      41.012  32.321  31.140  1.00  0.00     0.173 A 
ATOM     71  F   UNL A   1      40.196  28.917  32.111  1.00  0.00    -0.203 F 
ATOM     72  C   UNL A   1      39.113  30.931  32.622  1.00  0.00     0.198 A 
ATOM     73  C   UNL A   1      39.976  33.002  31.806  1.00  0.00     0.198 A 
ATOM     74  F   UNL A   1      41.925  33.053  30.488  1.00  0.00    -0.203 F 
ATOM     75  F   UNL A   1      38.282  30.258  33.435  1.00  0.00    -0.200 F 
ATOM     76  C   UNL A   1      39.042  32.310  32.561  1.00  0.00     0.200 A 
ATOM     77  F   UNL A   1      39.931  34.344  31.780  1.00  0.00    -0.200 F 
ATOM     78  F   UNL A   1      38.133  32.972  33.294  1.00  0.00    -0.200 F 
ENDBRANCH  44  68
BRANCH  56  79
ATOM     79  C   UNL A   1      45.126  24.937  32.576  1.00  0.00     0.064 A 
ATOM     80  C   UNL A   1      46.429  25.064  33.060  1.00  0.00     0.173 A 
ATOM     81  C   UNL A   1      44.416  23.783  32.994  1.00  0.00     0.173 A 
ATOM     82  F   UNL A   1      47.244  26.023  32.599  1.00  0.00    -0.203 F 
ATOM     83  C   UNL A   1      46.934  24.186  34.013  1.00  0.00     0.198 A 
ATOM     84  C   UNL A   1      44.949  22.872  33.891  1.00  0.00     0.198 A 
ATOM     85  F   UNL A   1      43.177  23.498  32.578  1.00  0.00    -0.203 F 
ATOM     86  F   UNL A   1      48.150  24.406  34.528  1.00  0.00    -0.200 F 
ATOM     87  C   UNL A   1      46.194  23.094  34.432  1.00  0.00     0.200 A 
ATOM     88  F   UNL A   1      44.235  21.791  34.236  1.00  0.00    -0.200 F 
ATOM     89  F   UNL A   1      46.682  22.252  35.350  1.00  0.00    -0.200 F 
ENDBRANCH  56  79
ENDBRANCH  30  31
ENDBRANCH  23  25
ENDBRANCH  22  23
ENDBRANCH  21  22
ENDBRANCH   1  21
TORSDOF 14
ENDMDL
MODEL 2
REMARK VINA RESULT:     -14.8      1.193      2.720
REMARK SMILES Cc1ccc(C(=O)NC2(CC(=O)OCCOC(=O)c3ccc(-c4c5nc(c(-c6c(F)c(F)c(F)c(F)c6F)c6ccc([nH]6)c(-c6c(F)c(F)c(F)c(F)c6F)c6nc(c(-c7c(F)c(F)c(F)c(F)c7F)c7ccc4[nH]7)C=C6)C=C5)cc3)CCC2)cc1
REMARK SMILES IDX 14 1 13 2 11 3 12 4 10 5 9 6 82 7 84 8 83 9 8 10 6 11 7 12
REMARK SMILES IDX 5 14 1 15 2 16 3 17 86 18 4 19 85 20 15 21 16 22 17 23 18 24
REMARK SMILES IDX 19 25 20 26 81 27 21 28 80 29 22 30 23 31 24 32 74 33 25 34
REMARK SMILES IDX 79 35 73 36 75 37 26 38 78 39 72 40 71 41 27 43 59 44 39 45
REMARK SMILES IDX 58 46 40 47 43 48 57 49 76 50 41 51 42 52 56 54 77 55 44 56
REMARK SMILES IDX 28 57 29 58 37 59 30 60 31 61 35 62 38 63 32 64 33 65 36 66
REMARK SMILES IDX 34 67 60 68 61 69 69 70 62 71 63 72 67 73 70 74 64 75 65 76
REMARK SMILES IDX 68 77 66 78 45 79 46 80 54 81 47 82 48 83 52 84 55 85 49 86
REMARK SMILES IDX 50 87 53 88 51 89
REMARK H PARENT 8 13 75 42 43 53
REMARK Flexibility Score: inf
ROOT
ATOM      1  C   UNL A   1      34.257  28.161  23.824  1.00  0.00     0.274 C 
ENDROOT
BRANCH   1   2
ATOM      2  O   UNL A   1      33.554  26.517  22.845  1.00  0.00    -0.462 OA
BRANCH   2   3
ATOM      3  C   UNL A   1      32.535  25.549  22.543  1.00  0.00     0.308 C 
ATOM      4  O   UNL A   1      32.721  24.734  21.636  1.00  0.00    -0.252 OA
BRANCH   3   5
ATOM      5  C   UNL A   1      31.270  25.154  23.234  1.00  0.00     0.151 C 
BRANCH   5   6
ATOM      6  C   UNL A   1      30.485  25.741  24.379  1.00  0.00     0.051 C 
ATOM      7  C   UNL A   1      29.366  26.667  23.784  1.00  0.00     0.029 C 
ATOM      8  C   UNL A   1      30.978  27.018  25.120  1.00  0.00     0.029 C 
ATOM      9  C   UNL A   1      30.333  27.849  23.999  1.00  0.00     0.005 C 
BRANCH   6  10
ATOM     10  N   UNL A   1      29.905  24.733  25.279  1.00  0.00    -0.346 N 
ATOM     11  C   UNL A   1      30.663  23.984  26.117  1.00  0.00     0.251 C 
ATOM     12  O   UNL A   1      30.283  23.565  27.196  1.00  0.00    -0.269 OA
ATOM     13  H   UNL A   1      28.931  24.597  25.273  1.00  0.00     0.164 HD
BRANCH  11  14
ATOM     14  C   UNL A   1      32.034  23.823  25.650  1.00  0.00     0.039 A 
ATOM     15  C   UNL A   1      36.764  23.069  23.873  1.00  0.00     0.044 C 
ATOM     16  C   UNL A   1      35.321  23.299  24.254  1.00  0.00    -0.051 A 
ATOM     17  C   UNL A   1      35.085  24.642  25.314  1.00  0.00     0.004 A 
ATOM     18  C   UNL A   1      33.988  22.226  23.854  1.00  0.00     0.004 A 
ATOM     19  C   UNL A   1      33.486  24.906  26.061  1.00  0.00     0.014 A 
ATOM     20  C   UNL A   1      32.346  22.448  24.531  1.00  0.00     0.014 A 
ENDBRANCH  11  14
ENDBRANCH   6  10
ENDBRANCH   5   6
ENDBRANCH   3   5
ENDBRANCH   2   3
ENDBRANCH   1   2
BRANCH   1  21
ATOM     21  C   UNL A   1      33.729  28.590  25.592  1.00  0.00     0.275 C 
BRANCH  21  22
ATOM     22  O   UNL A   1      34.697  29.178  26.877  1.00  0.00    -0.458 OA
BRANCH  22  23
ATOM     23  C   UNL A   1      35.167  30.234  27.718  1.00  0.00     0.338 C 
ATOM     24  O   UNL A   1      34.585  31.315  27.732  1.00  0.00    -0.246 OA
BRANCH  23  25
ATOM     25  C   UNL A   1      36.422  30.145  28.630  1.00  0.00     0.060 A 
ATOM     26  C   UNL A   1      36.650  29.239  29.708  1.00  0.00     0.016 A 
ATOM     27  C   UNL A   1      37.536  30.714  28.085  1.00  0.00     0.016 A 
ATOM     28  C   UNL A   1      37.964  28.642  29.963  1.00  0.00     0.010 A 
ATOM     29  C   UNL A   1      38.692  29.938  28.185  1.00  0.00     0.010 A 
ATOM     30  C   UNL A   1      39.005  28.847  29.058  1.00  0.00    -0.014 A 
BRANCH  30  31
ATOM     31  C   UNL A   1      40.367  28.104  28.775  1.00  0.00     0.031 A 
ATOM     32  C   UNL A   1      40.703  26.637  28.317  1.00  0.00     0.074 A 
ATOM     33  C   UNL A   1      41.439  28.943  28.896  1.00  0.00     0.049 A 
ATOM     34  N   UNL A   1      41.542  25.810  28.900  1.00  0.00    -0.248 NA
ATOM     35  C   UNL A   1      40.260  25.988  27.069  1.00  0.00     0.031 C 
ATOM     36  C   UNL A   1      42.865  28.788  28.684  1.00  0.00     0.029 A 
ATOM     37  N   UNL A   1      41.406  30.253  29.426  1.00  0.00    -0.354 N 
ATOM     38  C   UNL A   1      41.819  24.756  27.989  1.00  0.00     0.074 A 
ATOM     39  C   UNL A   1      40.739  24.745  27.073  1.00  0.00     0.031 C 
ATOM     40  C   UNL A   1      43.498  29.699  29.469  1.00  0.00     0.029 A 
ATOM     41  C   UNL A   1      42.483  30.387  30.270  1.00  0.00     0.049 A 
ATOM     42  H   UNL A   1      40.733  30.944  29.227  1.00  0.00     0.167 HD
ATOM     43  C   UNL A   1      43.082  24.270  27.735  1.00  0.00     0.037 A 
ATOM     44  C   UNL A   1      42.191  30.361  31.604  1.00  0.00     0.037 A 
ATOM     45  C   UNL A   1      44.029  25.081  28.467  1.00  0.00     0.049 A 
ATOM     46  C   UNL A   1      42.830  29.158  32.231  1.00  0.00     0.074 A 
ATOM     47  C   UNL A   1      44.933  26.068  28.130  1.00  0.00     0.029 A 
ATOM     48  N   UNL A   1      43.873  25.141  29.823  1.00  0.00    -0.354 N 
ATOM     49  N   UNL A   1      43.327  28.183  31.526  1.00  0.00    -0.248 NA
ATOM     50  C   UNL A   1      42.951  28.924  33.661  1.00  0.00     0.031 C 
ATOM     51  C   UNL A   1      45.337  26.707  29.342  1.00  0.00     0.029 A 
ATOM     52  C   UNL A   1      44.676  26.091  30.390  1.00  0.00     0.049 A 
ATOM     53  H   UNL A   1      43.257  24.568  30.333  1.00  0.00     0.167 HD
ATOM     54  C   UNL A   1      43.893  27.258  32.338  1.00  0.00     0.074 A 
ATOM     55  C   UNL A   1      43.565  27.726  33.675  1.00  0.00     0.031 C 
ATOM     56  C   UNL A   1      44.593  26.205  31.828  1.00  0.00     0.037 A 
BRANCH  43  57
ATOM     57  C   UNL A   1      43.562  23.276  26.651  1.00  0.00     0.064 A 
ATOM     58  C   UNL A   1      43.266  21.890  26.774  1.00  0.00     0.173 A 
ATOM     59  C   UNL A   1      44.246  23.595  25.458  1.00  0.00     0.173 A 
ATOM     60  F   UNL A   1      42.524  21.417  27.782  1.00  0.00    -0.203 F 
ATOM     61  C   UNL A   1      43.688  20.919  25.854  1.00  0.00     0.198 A 
ATOM     62  C   UNL A   1      44.693  22.616  24.544  1.00  0.00     0.198 A 
ATOM     63  F   UNL A   1      44.462  24.864  25.089  1.00  0.00    -0.203 F 
ATOM     64  F   UNL A   1      43.370  19.632  26.053  1.00  0.00    -0.200 F 
ATOM     65  C   UNL A   1      44.419  21.278  24.747  1.00  0.00     0.200 A 
ATOM     66  F   UNL A   1      45.380  22.983  23.451  1.00  0.00    -0.200 F 
ATOM     67  F   UNL A   1      44.828  20.350  23.869  1.00  0.00    -0.200 F 
ENDBRANCH  43  57
BRANCH  44  68
ATOM     68  C   UNL A   1      40.830  30.948  31.954  1.00  0.00     0.064 A 
ATOM     69  C   UNL A   1      39.809  30.086  32.434  1.00  0.00     0.173 A 
ATOM     70  C   UNL A   1      40.603  32.322  32.143  1.00  0.00     0.173 A 
ATOM     71  F   UNL A   1      39.955  28.753  32.338  1.00  0.00    -0.203 F 
ATOM     72  C   UNL A   1      38.696  30.560  33.138  1.00  0.00     0.198 A 
ATOM     73  C   UNL A   1      39.472  32.797  32.833  1.00  0.00     0.198 A 
ATOM     74  F   UNL A   1      41.510  33.220  31.735  1.00  0.00    -0.203 F 
ATOM     75  F   UNL A   1      37.853  29.691  33.721  1.00  0.00    -0.200 F 
ATOM     76  C   UNL A   1      38.533  31.916  33.346  1.00  0.00     0.200 A 
ATOM     77  F   UNL A   1      39.334  34.111  33.070  1.00  0.00    -0.200 F 
ATOM     78  F   UNL A   1      37.524  32.365  34.110  1.00  0.00    -0.200 F 
ENDBRANCH  44  68
BRANCH  56  79
ATOM     79  C   UNL A   1      45.195  25.120  32.662  1.00  0.00     0.064 A 
ATOM     80  C   UNL A   1      46.549  25.128  33.000  1.00  0.00     0.173 A 
ATOM     81  C   UNL A   1      44.450  23.996  33.100  1.00  0.00     0.173 A 
ATOM     82  F   UNL A   1      47.379  26.052  32.498  1.00  0.00    -0.203 F 
ATOM     83  C   UNL A   1      47.088  24.162  33.844  1.00  0.00     0.198 A 
ATOM     84  C   UNL A   1      45.007  22.999  33.883  1.00  0.00     0.198 A 
ATOM     85  F   UNL A   1      43.155  23.823  32.813  1.00  0.00    -0.203 F 
ATOM     86  F   UNL A   1      48.366  24.267  34.228  1.00  0.00    -0.200 F 
ATOM     87  C   UNL A   1      46.318  23.102  34.289  1.00  0.00     0.200 A 
ATOM     88  F   UNL A   1      44.256  21.953  34.253  1.00  0.00    -0.200 F 
ATOM     89  F   UNL A   1      46.839  22.176  35.102  1.00  0.00    -0.200 F 
ENDBRANCH  56  79
ENDBRANCH  30  31
ENDBRANCH  23  25
ENDBRANCH  22  23
ENDBRANCH  21  22
ENDBRANCH   1  21
TORSDOF 14
ENDMDL
MODEL 3
REMARK VINA RESULT:     -14.8      1.062      1.610
REMARK SMILES Cc1ccc(C(=O)NC2(CC(=O)OCCOC(=O)c3ccc(-c4c5nc(c(-c6c(F)c(F)c(F)c(F)c6F)c6ccc([nH]6)c(-c6c(F)c(F)c(F)c(F)c6F)c6nc(c(-c7c(F)c(F)c(F)c(F)c7F)c7ccc4[nH]7)C=C6)C=C5)cc3)CCC2)cc1
REMARK SMILES IDX 14 1 13 2 11 3 12 4 10 5 9 6 82 7 84 8 83 9 8 10 6 11 7 12
REMARK SMILES IDX 5 14 1 15 2 16 3 17 86 18 4 19 85 20 15 21 16 22 17 23 18 24
REMARK SMILES IDX 19 25 20 26 81 27 21 28 80 29 22 30 23 31 24 32 74 33 25 34
REMARK SMILES IDX 79 35 73 36 75 37 26 38 78 39 72 40 71 41 27 43 59 44 39 45
REMARK SMILES IDX 58 46 40 47 43 48 57 49 76 50 41 51 42 52 56 54 77 55 44 56
REMARK SMILES IDX 28 57 29 58 37 59 30 60 31 61 35 62 38 63 32 64 33 65 36 66
REMARK SMILES IDX 34 67 60 68 61 69 69 70 62 71 63 72 67 73 70 74 64 75 65 76
REMARK SMILES IDX 68 77 66 78 45 79 46 80 54 81 47 82 48 83 52 84 55 85 49 86
REMARK SMILES IDX 50 87 53 88 51 89
REMARK H PARENT 8 13 75 42 43 53
REMARK Flexibility Score: inf
ROOT
ATOM      1  C   UNL A   1      31.761  27.317  26.728  1.00  0.00     0.274 C 
ENDROOT
BRANCH   1   2
ATOM      2  O   UNL A   1      31.126  25.384  26.857  1.00  0.00    -0.462 OA
BRANCH   2   3
ATOM      3  C   UNL A   1      31.264  23.975  26.607  1.00  0.00     0.308 C 
ATOM      4  O   UNL A   1      30.673  23.169  27.331  1.00  0.00    -0.252 OA
BRANCH   3   5
ATOM      5  C   UNL A   1      31.867  23.195  25.484  1.00  0.00     0.151 C 
BRANCH   5   6
ATOM      6  C   UNL A   1      33.215  23.215  24.812  1.00  0.00     0.051 C 
ATOM      7  C   UNL A   1      34.212  22.375  25.685  1.00  0.00     0.029 C 
ATOM      8  C   UNL A   1      34.206  24.395  25.035  1.00  0.00     0.029 C 
ATOM      9  C   UNL A   1      34.650  23.703  26.333  1.00  0.00     0.005 C 
BRANCH   6  10
ATOM     10  N   UNL A   1      33.194  22.727  23.425  1.00  0.00    -0.346 N 
ATOM     11  C   UNL A   1      33.101  23.562  22.361  1.00  0.00     0.251 C 
ATOM     12  O   UNL A   1      33.592  23.338  21.269  1.00  0.00    -0.269 OA
ATOM     13  H   UNL A   1      33.251  21.758  23.263  1.00  0.00     0.164 HD
BRANCH  11  14
ATOM     14  C   UNL A   1      32.447  24.823  22.686  1.00  0.00     0.039 A 
ATOM     15  C   UNL A   1      30.369  29.363  23.764  1.00  0.00     0.044 C 
ATOM     16  C   UNL A   1      31.020  28.079  23.310  1.00  0.00    -0.051 A 
ATOM     17  C   UNL A   1      29.990  26.697  23.424  1.00  0.00     0.004 A 
ATOM     18  C   UNL A   1      32.716  27.903  22.884  1.00  0.00     0.004 A 
ATOM     19  C   UNL A   1      30.670  25.066  23.167  1.00  0.00     0.014 A 
ATOM     20  C   UNL A   1      33.463  26.305  22.575  1.00  0.00     0.014 A 
ENDBRANCH  11  14
ENDBRANCH   6  10
ENDBRANCH   5   6
ENDBRANCH   3   5
ENDBRANCH   2   3
ENDBRANCH   1   2
BRANCH   1  21
ATOM     21  C   UNL A   1      33.581  27.770  26.464  1.00  0.00     0.275 C 
BRANCH  21  22
ATOM     22  O   UNL A   1      34.370  29.249  26.815  1.00  0.00    -0.458 OA
BRANCH  22  23
ATOM     23  C   UNL A   1      34.734  30.299  27.715  1.00  0.00     0.338 C 
ATOM     24  O   UNL A   1      34.015  31.288  27.829  1.00  0.00    -0.246 OA
BRANCH  23  25
ATOM     25  C   UNL A   1      36.030  30.318  28.571  1.00  0.00     0.060 A 
ATOM     26  C   UNL A   1      36.307  29.555  29.745  1.00  0.00     0.016 A 
ATOM     27  C   UNL A   1      37.118  30.805  27.908  1.00  0.00     0.016 A 
ATOM     28  C   UNL A   1      37.631  28.986  30.014  1.00  0.00     0.010 A 
ATOM     29  C   UNL A   1      38.277  30.040  28.053  1.00  0.00     0.010 A 
ATOM     30  C   UNL A   1      38.629  29.067  29.043  1.00  0.00    -0.014 A 
BRANCH  30  31
ATOM     31  C   UNL A   1      39.975  28.284  28.796  1.00  0.00     0.031 A 
ATOM     32  C   UNL A   1      40.284  26.781  28.450  1.00  0.00     0.074 A 
ATOM     33  C   UNL A   1      41.060  29.115  28.829  1.00  0.00     0.049 A 
ATOM     34  N   UNL A   1      41.123  25.991  29.082  1.00  0.00    -0.248 NA
ATOM     35  C   UNL A   1      39.807  26.041  27.266  1.00  0.00     0.031 C 
ATOM     36  C   UNL A   1      42.479  28.923  28.603  1.00  0.00     0.029 A 
ATOM     37  N   UNL A   1      41.054  30.463  29.252  1.00  0.00    -0.354 N 
ATOM     38  C   UNL A   1      41.368  24.865  28.252  1.00  0.00     0.074 A 
ATOM     39  C   UNL A   1      40.270  24.796  27.361  1.00  0.00     0.031 C 
ATOM     40  C   UNL A   1      43.139  29.885  29.301  1.00  0.00     0.029 A 
ATOM     41  C   UNL A   1      42.149  30.649  30.063  1.00  0.00     0.049 A 
ATOM     42  H   UNL A   1      40.386  31.146  29.012  1.00  0.00     0.167 HD
ATOM     43  C   UNL A   1      42.620  24.341  28.015  1.00  0.00     0.037 A 
ATOM     44  C   UNL A   1      41.883  30.734  31.401  1.00  0.00     0.037 A 
ATOM     45  C   UNL A   1      43.591  25.194  28.662  1.00  0.00     0.049 A 
ATOM     46  C   UNL A   1      42.519  29.575  32.109  1.00  0.00     0.074 A 
ATOM     47  C   UNL A   1      44.501  26.139  28.230  1.00  0.00     0.029 A 
ATOM     48  N   UNL A   1      43.463  25.365  30.011  1.00  0.00    -0.354 N 
ATOM     49  N   UNL A   1      42.989  28.540  31.475  1.00  0.00    -0.248 NA
ATOM     50  C   UNL A   1      42.665  29.454  33.551  1.00  0.00     0.031 C 
ATOM     51  C   UNL A   1      44.938  26.867  29.379  1.00  0.00     0.029 A 
ATOM     52  C   UNL A   1      44.289  26.346  30.485  1.00  0.00     0.049 A 
ATOM     53  H   UNL A   1      42.850  24.843  30.576  1.00  0.00     0.167 HD
ATOM     54  C   UNL A   1      43.560  27.675  32.348  1.00  0.00     0.074 A 
ATOM     55  C   UNL A   1      43.264  28.253  33.649  1.00  0.00     0.031 C 
ATOM     56  C   UNL A   1      44.236  26.574  31.911  1.00  0.00     0.037 A 
BRANCH  43  57
ATOM     57  C   UNL A   1      43.066  23.257  27.005  1.00  0.00     0.064 A 
ATOM     58  C   UNL A   1      42.665  21.905  27.188  1.00  0.00     0.173 A 
ATOM     59  C   UNL A   1      43.815  23.461  25.825  1.00  0.00     0.173 A 
ATOM     60  F   UNL A   1      41.854  21.542  28.189  1.00  0.00    -0.203 F 
ATOM     61  C   UNL A   1      43.049  20.857  26.338  1.00  0.00     0.198 A 
ATOM     62  C   UNL A   1      44.222  22.403  24.983  1.00  0.00     0.198 A 
ATOM     63  F   UNL A   1      44.136  24.689  25.399  1.00  0.00    -0.203 F 
ATOM     64  F   UNL A   1      42.631  19.608  26.592  1.00  0.00    -0.200 F 
ATOM     65  C   UNL A   1      43.845  21.102  25.245  1.00  0.00     0.200 A 
ATOM     66  F   UNL A   1      44.975  22.660  23.902  1.00  0.00    -0.200 F 
ATOM     67  F   UNL A   1      44.217  20.100  24.435  1.00  0.00    -0.200 F 
ENDBRANCH  43  57
BRANCH  44  68
ATOM     68  C   UNL A   1      40.536  31.366  31.727  1.00  0.00     0.064 A 
ATOM     69  C   UNL A   1      39.525  30.567  32.323  1.00  0.00     0.173 A 
ATOM     70  C   UNL A   1      40.325  32.754  31.781  1.00  0.00     0.173 A 
ATOM     71  F   UNL A   1      39.660  29.230  32.359  1.00  0.00    -0.203 F 
ATOM     72  C   UNL A   1      38.437  31.121  33.006  1.00  0.00     0.198 A 
ATOM     73  C   UNL A   1      39.217  33.307  32.451  1.00  0.00     0.198 A 
ATOM     74  F   UNL A   1      41.225  33.597  31.258  1.00  0.00    -0.203 F 
ATOM     75  F   UNL A   1      37.605  30.324  33.699  1.00  0.00    -0.200 F 
ATOM     76  C   UNL A   1      38.288  32.493  33.079  1.00  0.00     0.200 A 
ATOM     77  F   UNL A   1      39.095  34.640  32.557  1.00  0.00    -0.200 F 
ATOM     78  F   UNL A   1      37.305  33.026  33.822  1.00  0.00    -0.200 F 
ENDBRANCH  44  68
BRANCH  56  79
ATOM     79  C   UNL A   1      44.840  25.551  32.818  1.00  0.00     0.064 A 
ATOM     80  C   UNL A   1      44.056  24.805  33.699  1.00  0.00     0.173 A 
ATOM     81  C   UNL A   1      46.238  25.327  32.885  1.00  0.00     0.173 A 
ATOM     82  F   UNL A   1      42.747  25.056  33.838  1.00  0.00    -0.203 F 
ATOM     83  C   UNL A   1      44.610  23.797  34.481  1.00  0.00     0.198 A 
ATOM     84  C   UNL A   1      46.795  24.369  33.717  1.00  0.00     0.198 A 
ATOM     85  F   UNL A   1      47.122  25.999  32.139  1.00  0.00    -0.203 F 
ATOM     86  F   UNL A   1      43.807  23.034  35.233  1.00  0.00    -0.200 F 
ATOM     87  C   UNL A   1      45.976  23.575  34.486  1.00  0.00     0.200 A 
ATOM     88  F   UNL A   1      48.125  24.213  33.747  1.00  0.00    -0.200 F 
ATOM     89  F   UNL A   1      46.505  22.603  35.239  1.00  0.00    -0.200 F 
ENDBRANCH  56  79
ENDBRANCH  30  31
ENDBRANCH  23  25
ENDBRANCH  22  23
ENDBRANCH  21  22
ENDBRANCH   1  21
TORSDOF 14
ENDMDL
