MODEL 1
REMARK VINA RESULT:     -12.3      0.000      0.000
REMARK SMILES O=C(OCCOC(=O)[C@H]1CCCCN1c1cc(-c2ccccc2)nc(-c2cccc(Cl)c2)n1)c1ccc(-c2c3nc(c(-c4c(F)c(F)c(F)c(F)c4F)c4ccc([nH]4)c(-c4c(F)c(F)c(F)c(F)c4F)c4nc(c(-c5c(F)c(F)c(F)c(F)c5F)c5ccc2[nH]5)C=C4)C=C3)cc1
REMARK SMILES IDX 4 1 3 2 2 3 1 4 34 5 35 6 96 7 36 8 95 9 37 10 38 11 39 12
REMARK SMILES IDX 89 13 40 14 94 15 88 16 90 17 41 18 93 19 87 20 86 21 42 23
REMARK SMILES IDX 74 24 54 25 73 26 55 27 58 28 72 29 91 30 56 31 57 32 71 34
REMARK SMILES IDX 92 35 59 36 43 37 44 38 52 39 45 40 46 41 50 42 53 43 47 44
REMARK SMILES IDX 48 45 51 46 49 47 75 48 76 49 84 50 77 51 78 52 82 53 85 54
REMARK SMILES IDX 79 55 80 56 83 57 81 58 60 59 61 60 69 61 62 62 63 63 67 64
REMARK SMILES IDX 70 65 64 66 65 67 68 68 66 69 5 70 6 71 7 72 8 73 9 74 10 75
REMARK SMILES IDX 14 76 11 77 13 78 12 79 15 80 16 81 33 82 17 83 25 84 24 85
REMARK SMILES IDX 18 86 19 87 23 88 20 89 22 90 21 91 26 92 27 93 32 94 28 95
REMARK SMILES IDX 30 96 29 97 31 98
REMARK H PARENT 90 22 58 33
REMARK Flexibility Score: inf
ROOT
ATOM      1  C   UNL A   1      47.996  23.556  38.478  1.00  0.00     0.275 C 
ENDROOT
BRANCH   1   2
ATOM      2  O   UNL A   1      48.092  23.864  37.050  1.00  0.00    -0.458 OA
BRANCH   2   3
ATOM      3  C   UNL A   1      48.187  25.115  36.467  1.00  0.00     0.338 C 
ATOM      4  O   UNL A   1      49.055  25.914  36.795  1.00  0.00    -0.246 OA
BRANCH   3   5
ATOM      5  C   UNL A   1      46.983  25.617  35.718  1.00  0.00     0.060 A 
ATOM      6  C   UNL A   1      45.669  25.630  36.674  1.00  0.00     0.016 A 
ATOM      7  C   UNL A   1      47.170  26.801  34.455  1.00  0.00     0.016 A 
ATOM      8  C   UNL A   1      44.478  26.887  36.544  1.00  0.00     0.010 A 
ATOM      9  C   UNL A   1      46.037  28.095  34.131  1.00  0.00     0.010 A 
ATOM     10  C   UNL A   1      44.557  28.233  35.133  1.00  0.00    -0.014 A 
BRANCH  10  11
ATOM     11  C   UNL A   1      43.432  28.835  34.014  1.00  0.00     0.031 A 
ATOM     12  C   UNL A   1      43.230  28.341  32.534  1.00  0.00     0.074 A 
ATOM     13  C   UNL A   1      42.507  29.733  34.389  1.00  0.00     0.049 A 
ATOM     14  N   UNL A   1      42.177  28.552  31.754  1.00  0.00    -0.248 NA
ATOM     15  C   UNL A   1      44.267  27.574  31.820  1.00  0.00     0.031 C 
ATOM     16  C   UNL A   1      42.676  30.454  35.599  1.00  0.00     0.029 A 
ATOM     17  N   UNL A   1      41.267  30.133  33.955  1.00  0.00    -0.354 N 
ATOM     18  C   UNL A   1      42.442  27.947  30.522  1.00  0.00     0.074 A 
ATOM     19  C   UNL A   1      43.720  27.310  30.644  1.00  0.00     0.031 C 
ATOM     20  C   UNL A   1      41.510  30.941  36.024  1.00  0.00     0.029 A 
ATOM     21  C   UNL A   1      40.558  30.809  34.937  1.00  0.00     0.049 A 
ATOM     22  H   UNL A   1      40.920  29.960  33.051  1.00  0.00     0.167 HD
ATOM     23  C   UNL A   1      41.738  27.963  29.360  1.00  0.00     0.037 A 
ATOM     24  C   UNL A   1      39.314  31.326  34.975  1.00  0.00     0.037 A 
ATOM     25  C   UNL A   1      40.510  28.686  29.162  1.00  0.00     0.049 A 
ATOM     26  C   UNL A   1      38.554  31.321  33.689  1.00  0.00     0.074 A 
ATOM     27  C   UNL A   1      39.769  28.823  27.999  1.00  0.00     0.029 A 
ATOM     28  N   UNL A   1      39.866  29.427  30.137  1.00  0.00    -0.354 N 
ATOM     29  N   UNL A   1      38.849  30.714  32.567  1.00  0.00    -0.248 NA
ATOM     30  C   UNL A   1      37.350  32.157  33.631  1.00  0.00     0.031 C 
ATOM     31  C   UNL A   1      38.720  29.709  28.254  1.00  0.00     0.029 A 
ATOM     32  C   UNL A   1      38.759  30.058  29.593  1.00  0.00     0.049 A 
ATOM     33  H   UNL A   1      40.150  29.495  31.078  1.00  0.00     0.167 HD
ATOM     34  C   UNL A   1      37.909  31.147  31.651  1.00  0.00     0.074 A 
ATOM     35  C   UNL A   1      36.979  31.993  32.370  1.00  0.00     0.031 C 
ATOM     36  C   UNL A   1      37.855  30.907  30.321  1.00  0.00     0.037 A 
BRANCH  23  37
ATOM     37  C   UNL A   1      42.333  27.272  28.155  1.00  0.00     0.064 A 
ATOM     38  C   UNL A   1      43.244  27.905  27.297  1.00  0.00     0.173 A 
ATOM     39  C   UNL A   1      42.022  25.926  27.893  1.00  0.00     0.173 A 
ATOM     40  F   UNL A   1      43.567  29.193  27.489  1.00  0.00    -0.203 F 
ATOM     41  C   UNL A   1      43.812  27.222  26.219  1.00  0.00     0.198 A 
ATOM     42  C   UNL A   1      42.608  25.240  26.830  1.00  0.00     0.198 A 
ATOM     43  F   UNL A   1      41.158  25.267  28.680  1.00  0.00    -0.203 F 
ATOM     44  F   UNL A   1      44.657  27.856  25.394  1.00  0.00    -0.200 F 
ATOM     45  C   UNL A   1      43.500  25.890  25.992  1.00  0.00     0.200 A 
ATOM     46  F   UNL A   1      42.312  23.950  26.621  1.00  0.00    -0.200 F 
ATOM     47  F   UNL A   1      44.054  25.233  24.962  1.00  0.00    -0.200 F 
ENDBRANCH  23  37
BRANCH  24  48
ATOM     48  C   UNL A   1      38.791  32.032  36.188  1.00  0.00     0.064 A 
ATOM     49  C   UNL A   1      39.099  33.376  36.450  1.00  0.00     0.173 A 
ATOM     50  C   UNL A   1      37.994  31.369  37.136  1.00  0.00     0.173 A 
ATOM     51  F   UNL A   1      39.893  34.060  35.612  1.00  0.00    -0.203 F 
ATOM     52  C   UNL A   1      38.637  34.016  37.602  1.00  0.00     0.198 A 
ATOM     53  C   UNL A   1      37.474  32.026  38.247  1.00  0.00     0.198 A 
ATOM     54  F   UNL A   1      37.698  30.069  36.979  1.00  0.00    -0.203 F 
ATOM     55  F   UNL A   1      39.010  35.276  37.864  1.00  0.00    -0.200 F 
ATOM     56  C   UNL A   1      37.808  33.346  38.489  1.00  0.00     0.200 A 
ATOM     57  F   UNL A   1      36.651  31.377  39.080  1.00  0.00    -0.200 F 
ATOM     58  F   UNL A   1      37.344  33.964  39.583  1.00  0.00    -0.200 F 
ENDBRANCH  24  48
BRANCH  36  59
ATOM     59  C   UNL A   1      36.749  31.575  29.568  1.00  0.00     0.064 A 
ATOM     60  C   UNL A   1      35.644  30.851  29.097  1.00  0.00     0.173 A 
ATOM     61  C   UNL A   1      36.797  32.953  29.322  1.00  0.00     0.173 A 
ATOM     62  F   UNL A   1      35.570  29.526  29.294  1.00  0.00    -0.203 F 
ATOM     63  C   UNL A   1      34.639  31.481  28.373  1.00  0.00     0.198 A 
ATOM     64  C   UNL A   1      35.772  33.586  28.628  1.00  0.00     0.198 A 
ATOM     65  F   UNL A   1      37.834  33.683  29.757  1.00  0.00    -0.203 F 
ATOM     66  F   UNL A   1      33.623  30.764  27.876  1.00  0.00    -0.200 F 
ATOM     67  C   UNL A   1      34.701  32.849  28.145  1.00  0.00     0.200 A 
ATOM     68  F   UNL A   1      35.827  34.908  28.419  1.00  0.00    -0.200 F 
ATOM     69  F   UNL A   1      33.731  33.456  27.448  1.00  0.00    -0.200 F 
ENDBRANCH  36  59
ENDBRANCH  10  11
ENDBRANCH   3   5
ENDBRANCH   2   3
ENDBRANCH   1   2
BRANCH   1  70
ATOM     70  C   UNL A   1      46.598  23.003  38.992  1.00  0.00     0.274 C 
BRANCH  70  71
ATOM     71  O   UNL A   1      46.519  22.380  40.319  1.00  0.00    -0.461 OA
BRANCH  71  72
ATOM     72  C   UNL A   1      46.026  21.104  40.438  1.00  0.00     0.328 C 
ATOM     73  O   UNL A   1      44.927  20.887  40.942  1.00  0.00    -0.250 OA
BRANCH  72  74
ATOM     74  C   UNL A   1      46.846  19.987  39.628  1.00  0.00     0.193 C 
ATOM     75  C   UNL A   1      47.472  18.734  40.886  1.00  0.00     0.037 C 
ATOM     76  N   UNL A   1      46.107  19.306  38.231  1.00  0.00    -0.343 N 
ATOM     77  C   UNL A   1      46.381  16.825  41.187  1.00  0.00     0.005 C 
ATOM     78  C   UNL A   1      45.238  17.718  38.116  1.00  0.00     0.119 C 
ATOM     79  C   UNL A   1      45.231  16.415  39.581  1.00  0.00     0.022 C 
BRANCH  76  80
ATOM     80  C   UNL A   1      46.653  19.977  37.121  1.00  0.00     0.134 A 
ATOM     81  C   UNL A   1      47.970  19.879  36.755  1.00  0.00     0.076 A 
ATOM     82  N   UNL A   1      45.805  20.692  36.339  1.00  0.00    -0.211 NA
ATOM     83  C   UNL A   1      48.358  20.570  35.604  1.00  0.00     0.076 A 
ATOM     84  C   UNL A   1      46.283  21.449  35.335  1.00  0.00     0.162 A 
ATOM     85  N   UNL A   1      47.549  21.409  34.922  1.00  0.00    -0.228 NA
BRANCH  83  86
ATOM     86  C   UNL A   1      49.684  20.380  35.008  1.00  0.00     0.000 A 
ATOM     87  C   UNL A   1      50.008  20.903  33.748  1.00  0.00     0.010 A 
ATOM     88  C   UNL A   1      50.664  19.642  35.696  1.00  0.00     0.010 A 
ATOM     89  C   UNL A   1      51.298  20.762  33.228  1.00  0.00     0.001 A 
ATOM     90  C   UNL A   1      51.946  19.488  35.171  1.00  0.00     0.001 A 
ATOM     91  C   UNL A   1      52.269  20.066  33.947  1.00  0.00     0.000 A 
ENDBRANCH  83  86
BRANCH  84  92
ATOM     92  C   UNL A   1      45.382  22.456  34.738  1.00  0.00     0.021 A 
ATOM     93  C   UNL A   1      45.730  23.157  33.563  1.00  0.00     0.012 A 
ATOM     94  C   UNL A   1      44.130  22.744  35.300  1.00  0.00     0.032 A 
ATOM     95  C   UNL A   1      44.882  24.104  32.976  1.00  0.00     0.002 A 
ATOM     96  C   UNL A   1      43.283  23.698  34.720  1.00  0.00     0.041 A 
ATOM     97  C   UNL A   1      43.653  24.377  33.560  1.00  0.00     0.020 A 
ATOM     98  Cl  UNL A   1      41.760  24.040  35.443  1.00  0.00    -0.084 Cl
ENDBRANCH  84  92
ENDBRANCH  76  80
ENDBRANCH  72  74
ENDBRANCH  71  72
ENDBRANCH  70  71
ENDBRANCH   1  70
TORSDOF 14
ENDMDL
MODEL 2
REMARK VINA RESULT:     -12.1      7.565     13.379
REMARK SMILES O=C(OCCOC(=O)[C@H]1CCCCN1c1cc(-c2ccccc2)nc(-c2cccc(Cl)c2)n1)c1ccc(-c2c3nc(c(-c4c(F)c(F)c(F)c(F)c4F)c4ccc([nH]4)c(-c4c(F)c(F)c(F)c(F)c4F)c4nc(c(-c5c(F)c(F)c(F)c(F)c5F)c5ccc2[nH]5)C=C4)C=C3)cc1
REMARK SMILES IDX 4 1 3 2 2 3 1 4 34 5 35 6 96 7 36 8 95 9 37 10 38 11 39 12
REMARK SMILES IDX 89 13 40 14 94 15 88 16 90 17 41 18 93 19 87 20 86 21 42 23
REMARK SMILES IDX 74 24 54 25 73 26 55 27 58 28 72 29 91 30 56 31 57 32 71 34
REMARK SMILES IDX 92 35 59 36 43 37 44 38 52 39 45 40 46 41 50 42 53 43 47 44
REMARK SMILES IDX 48 45 51 46 49 47 75 48 76 49 84 50 77 51 78 52 82 53 85 54
REMARK SMILES IDX 79 55 80 56 83 57 81 58 60 59 61 60 69 61 62 62 63 63 67 64
REMARK SMILES IDX 70 65 64 66 65 67 68 68 66 69 5 70 6 71 7 72 8 73 9 74 10 75
REMARK SMILES IDX 14 76 11 77 13 78 12 79 15 80 16 81 33 82 17 83 25 84 24 85
REMARK SMILES IDX 18 86 19 87 23 88 20 89 22 90 21 91 26 92 27 93 32 94 28 95
REMARK SMILES IDX 30 96 29 97 31 98
REMARK H PARENT 90 22 58 33
REMARK Flexibility Score: inf
ROOT
ATOM      1  C   UNL A   1      35.428  21.340  24.662  1.00  0.00     0.275 C 
ENDROOT
BRANCH   1   2
ATOM      2  O   UNL A   1      36.484  21.490  25.664  1.00  0.00    -0.458 OA
BRANCH   2   3
ATOM      3  C   UNL A   1      37.851  21.444  25.453  1.00  0.00     0.338 C 
ATOM      4  O   UNL A   1      38.441  20.386  25.284  1.00  0.00    -0.246 OA
BRANCH   3   5
ATOM      5  C   UNL A   1      38.644  22.668  25.824  1.00  0.00     0.060 A 
ATOM      6  C   UNL A   1      37.701  23.990  25.834  1.00  0.00     0.016 A 
ATOM      7  C   UNL A   1      39.995  22.536  26.915  1.00  0.00     0.016 A 
ATOM      8  C   UNL A   1      37.935  25.251  27.005  1.00  0.00     0.010 A 
ATOM      9  C   UNL A   1      40.427  23.740  28.111  1.00  0.00     0.010 A 
ATOM     10  C   UNL A   1      39.447  25.236  28.239  1.00  0.00    -0.014 A 
BRANCH  10  11
ATOM     11  C   UNL A   1      40.617  26.382  28.685  1.00  0.00     0.031 A 
ATOM     12  C   UNL A   1      42.061  26.526  28.080  1.00  0.00     0.074 A 
ATOM     13  C   UNL A   1      40.313  27.372  29.540  1.00  0.00     0.049 A 
ATOM     14  N   UNL A   1      42.865  27.579  28.164  1.00  0.00    -0.248 NA
ATOM     15  C   UNL A   1      42.710  25.428  27.340  1.00  0.00     0.031 C 
ATOM     16  C   UNL A   1      39.154  27.272  30.349  1.00  0.00     0.029 A 
ATOM     17  N   UNL A   1      40.787  28.630  29.822  1.00  0.00    -0.354 N 
ATOM     18  C   UNL A   1      44.051  27.255  27.498  1.00  0.00     0.074 A 
ATOM     19  C   UNL A   1      43.872  25.937  26.961  1.00  0.00     0.031 C 
ATOM     20  C   UNL A   1      38.776  28.475  30.782  1.00  0.00     0.029 A 
ATOM     21  C   UNL A   1      39.861  29.398  30.511  1.00  0.00     0.049 A 
ATOM     22  H   UNL A   1      41.681  28.949  29.565  1.00  0.00     0.167 HD
ATOM     23  C   UNL A   1      45.218  27.940  27.387  1.00  0.00     0.037 A 
ATOM     24  C   UNL A   1      39.871  30.675  30.942  1.00  0.00     0.037 A 
ATOM     25  C   UNL A   1      45.478  29.211  28.007  1.00  0.00     0.049 A 
ATOM     26  C   UNL A   1      41.163  31.413  30.798  1.00  0.00     0.074 A 
ATOM     27  C   UNL A   1      46.656  29.942  28.014  1.00  0.00     0.029 A 
ATOM     28  N   UNL A   1      44.563  29.919  28.765  1.00  0.00    -0.354 N 
ATOM     29  N   UNL A   1      42.237  31.060  30.139  1.00  0.00    -0.248 NA
ATOM     30  C   UNL A   1      41.291  32.671  31.542  1.00  0.00     0.031 C 
ATOM     31  C   UNL A   1      46.473  31.053  28.840  1.00  0.00     0.029 A 
ATOM     32  C   UNL A   1      45.160  31.059  29.280  1.00  0.00     0.049 A 
ATOM     33  H   UNL A   1      43.626  29.655  28.916  1.00  0.00     0.167 HD
ATOM     34  C   UNL A   1      43.191  32.013  30.443  1.00  0.00     0.074 A 
ATOM     35  C   UNL A   1      42.541  33.010  31.268  1.00  0.00     0.031 C 
ATOM     36  C   UNL A   1      44.502  32.030  30.111  1.00  0.00     0.037 A 
BRANCH  23  37
ATOM     37  C   UNL A   1      46.367  27.280  26.659  1.00  0.00     0.064 A 
ATOM     38  C   UNL A   1      46.643  27.527  25.306  1.00  0.00     0.173 A 
ATOM     39  C   UNL A   1      47.240  26.424  27.353  1.00  0.00     0.173 A 
ATOM     40  F   UNL A   1      45.836  28.323  24.588  1.00  0.00    -0.203 F 
ATOM     41  C   UNL A   1      47.741  26.938  24.675  1.00  0.00     0.198 A 
ATOM     42  C   UNL A   1      48.348  25.856  26.727  1.00  0.00     0.198 A 
ATOM     43  F   UNL A   1      47.028  26.152  28.649  1.00  0.00    -0.203 F 
ATOM     44  F   UNL A   1      47.967  27.165  23.374  1.00  0.00    -0.200 F 
ATOM     45  C   UNL A   1      48.596  26.110  25.388  1.00  0.00     0.200 A 
ATOM     46  F   UNL A   1      49.178  25.066  27.422  1.00  0.00    -0.200 F 
ATOM     47  F   UNL A   1      49.655  25.553  24.783  1.00  0.00    -0.200 F 
ENDBRANCH  23  37
BRANCH  24  48
ATOM     48  C   UNL A   1      38.716  31.265  31.689  1.00  0.00     0.064 A 
ATOM     49  C   UNL A   1      37.738  32.039  31.046  1.00  0.00     0.173 A 
ATOM     50  C   UNL A   1      38.577  31.096  33.078  1.00  0.00     0.173 A 
ATOM     51  F   UNL A   1      37.829  32.280  29.729  1.00  0.00    -0.203 F 
ATOM     52  C   UNL A   1      36.683  32.616  31.758  1.00  0.00     0.198 A 
ATOM     53  C   UNL A   1      37.488  31.610  33.775  1.00  0.00     0.198 A 
ATOM     54  F   UNL A   1      39.500  30.409  33.770  1.00  0.00    -0.203 F 
ATOM     55  F   UNL A   1      35.807  33.413  31.130  1.00  0.00    -0.200 F 
ATOM     56  C   UNL A   1      36.549  32.383  33.118  1.00  0.00     0.200 A 
ATOM     57  F   UNL A   1      37.354  31.354  35.082  1.00  0.00    -0.200 F 
ATOM     58  F   UNL A   1      35.526  32.916  33.800  1.00  0.00    -0.200 F 
ENDBRANCH  24  48
BRANCH  36  59
ATOM     59  C   UNL A   1      45.310  33.167  30.648  1.00  0.00     0.064 A 
ATOM     60  C   UNL A   1      45.434  34.374  29.944  1.00  0.00     0.173 A 
ATOM     61  C   UNL A   1      45.962  33.047  31.882  1.00  0.00     0.173 A 
ATOM     62  F   UNL A   1      44.842  34.522  28.748  1.00  0.00    -0.203 F 
ATOM     63  C   UNL A   1      46.214  35.411  30.442  1.00  0.00     0.198 A 
ATOM     64  C   UNL A   1      46.712  34.099  32.394  1.00  0.00     0.198 A 
ATOM     65  F   UNL A   1      45.868  31.912  32.589  1.00  0.00    -0.203 F 
ATOM     66  F   UNL A   1      46.372  36.532  29.726  1.00  0.00    -0.200 F 
ATOM     67  C   UNL A   1      46.847  35.275  31.670  1.00  0.00     0.200 A 
ATOM     68  F   UNL A   1      47.312  33.972  33.585  1.00  0.00    -0.200 F 
ATOM     69  F   UNL A   1      47.596  36.275  32.151  1.00  0.00    -0.200 F 
ENDBRANCH  36  59
ENDBRANCH  10  11
ENDBRANCH   3   5
ENDBRANCH   2   3
ENDBRANCH   1   2
BRANCH   1  70
ATOM     70  C   UNL A   1      35.286  22.513  23.600  1.00  0.00     0.274 C 
BRANCH  70  71
ATOM     71  O   UNL A   1      34.835  23.836  24.049  1.00  0.00    -0.461 OA
BRANCH  71  72
ATOM     72  C   UNL A   1      33.959  24.551  23.272  1.00  0.00     0.328 C 
ATOM     73  O   UNL A   1      34.218  24.829  22.104  1.00  0.00    -0.250 OA
BRANCH  72  74
ATOM     74  C   UNL A   1      32.495  24.737  23.904  1.00  0.00     0.193 C 
ATOM     75  C   UNL A   1      31.554  23.133  23.610  1.00  0.00     0.037 C 
ATOM     76  N   UNL A   1      32.386  25.359  25.505  1.00  0.00    -0.343 N 
ATOM     77  C   UNL A   1      31.386  21.632  25.236  1.00  0.00     0.005 C 
ATOM     78  C   UNL A   1      32.138  24.414  27.033  1.00  0.00     0.119 C 
ATOM     79  C   UNL A   1      31.713  22.500  27.027  1.00  0.00     0.022 C 
BRANCH  76  80
ATOM     80  C   UNL A   1      32.100  26.732  25.382  1.00  0.00     0.134 A 
ATOM     81  C   UNL A   1      31.153  27.230  24.526  1.00  0.00     0.076 A 
ATOM     82  N   UNL A   1      32.747  27.586  26.215  1.00  0.00    -0.211 NA
ATOM     83  C   UNL A   1      30.949  28.612  24.546  1.00  0.00     0.076 A 
ATOM     84  C   UNL A   1      32.605  28.915  26.069  1.00  0.00     0.162 A 
ATOM     85  N   UNL A   1      31.708  29.474  25.258  1.00  0.00    -0.228 NA
BRANCH  83  86
ATOM     86  C   UNL A   1      29.834  29.232  23.823  1.00  0.00     0.000 A 
ATOM     87  C   UNL A   1      28.933  28.471  23.064  1.00  0.00     0.010 A 
ATOM     88  C   UNL A   1      29.658  30.626  23.867  1.00  0.00     0.010 A 
ATOM     89  C   UNL A   1      27.843  29.077  22.434  1.00  0.00     0.001 A 
ATOM     90  C   UNL A   1      28.578  31.233  23.226  1.00  0.00     0.001 A 
ATOM     91  C   UNL A   1      27.659  30.456  22.528  1.00  0.00     0.000 A 
ENDBRANCH  83  86
BRANCH  84  92
ATOM     92  C   UNL A   1      33.570  29.796  26.758  1.00  0.00     0.021 A 
ATOM     93  C   UNL A   1      33.186  31.048  27.284  1.00  0.00     0.012 A 
ATOM     94  C   UNL A   1      34.908  29.414  26.942  1.00  0.00     0.032 A 
ATOM     95  C   UNL A   1      34.085  31.888  27.953  1.00  0.00     0.002 A 
ATOM     96  C   UNL A   1      35.811  30.257  27.603  1.00  0.00     0.041 A 
ATOM     97  C   UNL A   1      35.406  31.490  28.110  1.00  0.00     0.020 A 
ATOM     98  Cl  UNL A   1      37.449  29.767  27.798  1.00  0.00    -0.084 Cl
ENDBRANCH  84  92
ENDBRANCH  76  80
ENDBRANCH  72  74
ENDBRANCH  71  72
ENDBRANCH  70  71
ENDBRANCH   1  70
TORSDOF 14
ENDMDL
MODEL 3
REMARK VINA RESULT:     -12.1      1.476      2.482
REMARK SMILES O=C(OCCOC(=O)[C@H]1CCCCN1c1cc(-c2ccccc2)nc(-c2cccc(Cl)c2)n1)c1ccc(-c2c3nc(c(-c4c(F)c(F)c(F)c(F)c4F)c4ccc([nH]4)c(-c4c(F)c(F)c(F)c(F)c4F)c4nc(c(-c5c(F)c(F)c(F)c(F)c5F)c5ccc2[nH]5)C=C4)C=C3)cc1
REMARK SMILES IDX 4 1 3 2 2 3 1 4 34 5 35 6 96 7 36 8 95 9 37 10 38 11 39 12
REMARK SMILES IDX 89 13 40 14 94 15 88 16 90 17 41 18 93 19 87 20 86 21 42 23
REMARK SMILES IDX 74 24 54 25 73 26 55 27 58 28 72 29 91 30 56 31 57 32 71 34
REMARK SMILES IDX 92 35 59 36 43 37 44 38 52 39 45 40 46 41 50 42 53 43 47 44
REMARK SMILES IDX 48 45 51 46 49 47 75 48 76 49 84 50 77 51 78 52 82 53 85 54
REMARK SMILES IDX 79 55 80 56 83 57 81 58 60 59 61 60 69 61 62 62 63 63 67 64
REMARK SMILES IDX 70 65 64 66 65 67 68 68 66 69 5 70 6 71 7 72 8 73 9 74 10 75
REMARK SMILES IDX 14 76 11 77 13 78 12 79 15 80 16 81 33 82 17 83 25 84 24 85
REMARK SMILES IDX 18 86 19 87 23 88 20 89 22 90 21 91 26 92 27 93 32 94 28 95
REMARK SMILES IDX 30 96 29 97 31 98
REMARK H PARENT 90 22 58 33
REMARK Flexibility Score: inf
ROOT
ATOM      1  C   UNL A   1      47.542  24.752  38.985  1.00  0.00     0.275 C 
ENDROOT
BRANCH   1   2
ATOM      2  O   UNL A   1      46.088  24.790  38.814  1.00  0.00    -0.458 OA
BRANCH   2   3
ATOM      3  C   UNL A   1      45.212  25.739  39.310  1.00  0.00     0.338 C 
ATOM      4  O   UNL A   1      44.794  25.692  40.459  1.00  0.00    -0.246 OA
BRANCH   3   5
ATOM      5  C   UNL A   1      44.485  26.592  38.307  1.00  0.00     0.060 A 
ATOM      6  C   UNL A   1      45.406  27.843  37.834  1.00  0.00     0.016 A 
ATOM      7  C   UNL A   1      43.342  25.870  37.209  1.00  0.00     0.016 A 
ATOM      8  C   UNL A   1      45.367  28.418  36.196  1.00  0.00     0.010 A 
ATOM      9  C   UNL A   1      43.114  26.365  35.545  1.00  0.00     0.010 A 
ATOM     10  C   UNL A   1      44.089  27.721  34.894  1.00  0.00    -0.014 A 
BRANCH  10  11
ATOM     11  C   UNL A   1      43.005  28.440  33.805  1.00  0.00     0.031 A 
ATOM     12  C   UNL A   1      42.759  28.010  32.312  1.00  0.00     0.074 A 
ATOM     13  C   UNL A   1      42.151  29.391  34.217  1.00  0.00     0.049 A 
ATOM     14  N   UNL A   1      41.719  28.323  31.548  1.00  0.00    -0.248 NA
ATOM     15  C   UNL A   1      43.731  27.192  31.565  1.00  0.00     0.031 C 
ATOM     16  C   UNL A   1      42.380  30.057  35.447  1.00  0.00     0.029 A 
ATOM     17  N   UNL A   1      40.942  29.894  33.806  1.00  0.00    -0.354 N 
ATOM     18  C   UNL A   1      41.931  27.741  30.295  1.00  0.00     0.074 A 
ATOM     19  C   UNL A   1      43.160  27.008  30.386  1.00  0.00     0.031 C 
ATOM     20  C   UNL A   1      41.256  30.615  35.898  1.00  0.00     0.029 A 
ATOM     21  C   UNL A   1      40.291  30.588  34.816  1.00  0.00     0.049 A 
ATOM     22  H   UNL A   1      40.578  29.777  32.900  1.00  0.00     0.167 HD
ATOM     23  C   UNL A   1      41.223  27.847  29.141  1.00  0.00     0.037 A 
ATOM     24  C   UNL A   1      39.089  31.194  34.881  1.00  0.00     0.037 A 
ATOM     25  C   UNL A   1      40.051  28.664  28.976  1.00  0.00     0.049 A 
ATOM     26  C   UNL A   1      38.322  31.287  33.601  1.00  0.00     0.074 A 
ATOM     27  C   UNL A   1      39.314  28.893  27.825  1.00  0.00     0.029 A 
ATOM     28  N   UNL A   1      39.469  29.418  29.980  1.00  0.00    -0.354 N 
ATOM     29  N   UNL A   1      38.565  30.697  32.458  1.00  0.00    -0.248 NA
ATOM     30  C   UNL A   1      37.182  32.211  33.580  1.00  0.00     0.031 C 
ATOM     31  C   UNL A   1      38.335  29.845  28.117  1.00  0.00     0.029 A 
ATOM     32  C   UNL A   1      38.408  30.147  29.466  1.00  0.00     0.049 A 
ATOM     33  H   UNL A   1      39.764  29.435  30.919  1.00  0.00     0.167 HD
ATOM     34  C   UNL A   1      37.653  31.227  31.564  1.00  0.00     0.074 A 
ATOM     35  C   UNL A   1      36.793  32.116  32.318  1.00  0.00     0.031 C 
ATOM     36  C   UNL A   1      37.573  31.035  30.228  1.00  0.00     0.037 A 
BRANCH  23  37
ATOM     37  C   UNL A   1      41.758  27.153  27.909  1.00  0.00     0.064 A 
ATOM     38  C   UNL A   1      42.696  27.752  27.055  1.00  0.00     0.173 A 
ATOM     39  C   UNL A   1      41.360  25.837  27.615  1.00  0.00     0.173 A 
ATOM     40  F   UNL A   1      43.102  29.011  27.276  1.00  0.00    -0.203 F 
ATOM     41  C   UNL A   1      43.206  27.065  25.951  1.00  0.00     0.198 A 
ATOM     42  C   UNL A   1      41.889  25.146  26.526  1.00  0.00     0.198 A 
ATOM     43  F   UNL A   1      40.468  25.212  28.397  1.00  0.00    -0.203 F 
ATOM     44  F   UNL A   1      44.078  27.668  25.131  1.00  0.00    -0.200 F 
ATOM     45  C   UNL A   1      42.809  25.761  25.693  1.00  0.00     0.200 A 
ATOM     46  F   UNL A   1      41.510  23.883  26.288  1.00  0.00    -0.200 F 
ATOM     47  F   UNL A   1      43.307  25.100  24.638  1.00  0.00    -0.200 F 
ENDBRANCH  23  37
BRANCH  24  48
ATOM     48  C   UNL A   1      38.626  31.897  36.119  1.00  0.00     0.064 A 
ATOM     49  C   UNL A   1      37.888  31.234  37.112  1.00  0.00     0.173 A 
ATOM     50  C   UNL A   1      38.883  33.263  36.327  1.00  0.00     0.173 A 
ATOM     51  F   UNL A   1      37.566  29.940  36.961  1.00  0.00    -0.203 F 
ATOM     52  C   UNL A   1      37.429  31.907  38.247  1.00  0.00     0.198 A 
ATOM     53  C   UNL A   1      38.488  33.915  37.491  1.00  0.00     0.198 A 
ATOM     54  F   UNL A   1      39.540  33.975  35.399  1.00  0.00    -0.203 F 
ATOM     55  F   UNL A   1      36.661  31.267  39.141  1.00  0.00    -0.200 F 
ATOM     56  C   UNL A   1      37.747  33.242  38.444  1.00  0.00     0.200 A 
ATOM     57  F   UNL A   1      38.826  35.196  37.683  1.00  0.00    -0.200 F 
ATOM     58  F   UNL A   1      37.327  33.884  39.543  1.00  0.00    -0.200 F 
ENDBRANCH  24  48
BRANCH  36  59
ATOM     59  C   UNL A   1      36.516  31.807  29.506  1.00  0.00     0.064 A 
ATOM     60  C   UNL A   1      36.621  33.193  29.318  1.00  0.00     0.173 A 
ATOM     61  C   UNL A   1      35.390  31.149  28.995  1.00  0.00     0.173 A 
ATOM     62  F   UNL A   1      37.674  33.863  29.811  1.00  0.00    -0.203 F 
ATOM     63  C   UNL A   1      35.615  33.900  28.671  1.00  0.00     0.198 A 
ATOM     64  C   UNL A   1      34.402  31.855  28.317  1.00  0.00     0.198 A 
ATOM     65  F   UNL A   1      35.250  29.825  29.150  1.00  0.00    -0.203 F 
ATOM     66  F   UNL A   1      35.702  35.232  28.556  1.00  0.00    -0.200 F 
ATOM     67  C   UNL A   1      34.510  33.230  28.166  1.00  0.00     0.200 A 
ATOM     68  F   UNL A   1      33.342  31.206  27.819  1.00  0.00    -0.200 F 
ATOM     69  F   UNL A   1      33.542  33.912  27.541  1.00  0.00    -0.200 F 
ENDBRANCH  36  59
ENDBRANCH  10  11
ENDBRANCH   3   5
ENDBRANCH   2   3
ENDBRANCH   1   2
BRANCH   1  70
ATOM     70  C   UNL A   1      48.212  23.312  39.035  1.00  0.00     0.274 C 
BRANCH  70  71
ATOM     71  O   UNL A   1      47.729  22.330  40.013  1.00  0.00    -0.461 OA
BRANCH  71  72
ATOM     72  C   UNL A   1      46.804  21.392  39.629  1.00  0.00     0.328 C 
ATOM     73  O   UNL A   1      45.600  21.581  39.781  1.00  0.00    -0.250 OA
BRANCH  72  74
ATOM     74  C   UNL A   1      47.388  20.198  38.730  1.00  0.00     0.193 C 
ATOM     75  C   UNL A   1      47.275  18.623  39.754  1.00  0.00     0.037 C 
ATOM     76  N   UNL A   1      46.814  20.057  37.114  1.00  0.00    -0.343 N 
ATOM     77  C   UNL A   1      45.595  17.209  39.432  1.00  0.00     0.005 C 
ATOM     78  C   UNL A   1      45.535  18.925  36.501  1.00  0.00     0.119 C 
ATOM     79  C   UNL A   1      44.777  17.498  37.610  1.00  0.00     0.022 C 
BRANCH  76  80
ATOM     80  C   UNL A   1      47.786  20.654  36.289  1.00  0.00     0.134 A 
ATOM     81  C   UNL A   1      49.068  20.183  36.174  1.00  0.00     0.076 A 
ATOM     82  N   UNL A   1      47.399  21.701  35.518  1.00  0.00    -0.211 NA
ATOM     83  C   UNL A   1      49.909  20.855  35.283  1.00  0.00     0.076 A 
ATOM     84  C   UNL A   1      48.305  22.386  34.799  1.00  0.00     0.162 A 
ATOM     85  N   UNL A   1      49.568  21.993  34.640  1.00  0.00    -0.228 NA
BRANCH  83  86
ATOM     86  C   UNL A   1      51.230  20.326  34.930  1.00  0.00     0.000 A 
ATOM     87  C   UNL A   1      51.727  20.396  33.621  1.00  0.00     0.010 A 
ATOM     88  C   UNL A   1      52.025  19.711  35.914  1.00  0.00     0.010 A 
ATOM     89  C   UNL A   1      53.014  19.940  33.322  1.00  0.00     0.001 A 
ATOM     90  C   UNL A   1      53.303  19.242  35.613  1.00  0.00     0.001 A 
ATOM     91  C   UNL A   1      53.806  19.376  34.322  1.00  0.00     0.000 A 
ENDBRANCH  83  86
BRANCH  84  92
ATOM     92  C   UNL A   1      47.907  23.701  34.254  1.00  0.00     0.021 A 
ATOM     93  C   UNL A   1      46.565  24.138  34.281  1.00  0.00     0.012 A 
ATOM     94  C   UNL A   1      48.850  24.583  33.707  1.00  0.00     0.032 A 
ATOM     95  C   UNL A   1      46.173  25.387  33.782  1.00  0.00     0.002 A 
ATOM     96  C   UNL A   1      48.459  25.829  33.200  1.00  0.00     0.041 A 
ATOM     97  C   UNL A   1      47.126  26.235  33.236  1.00  0.00     0.020 A 
ATOM     98  Cl  UNL A   1      49.638  26.883  32.520  1.00  0.00    -0.084 Cl
ENDBRANCH  84  92
ENDBRANCH  76  80
ENDBRANCH  72  74
ENDBRANCH  71  72
ENDBRANCH  70  71
ENDBRANCH   1  70
TORSDOF 14
ENDMDL
