MODEL 1
REMARK VINA RESULT:     -13.0      0.000      0.000
REMARK SMILES Cc1cc(F)cc(N[C@@](C)(C(=O)OCCOC(=O)c2ccc(-c3c4nc(c(-c5c(F)c(F)c(F)c(F)c5F)c5ccc([nH]5)c(-c5c(F)c(F)c(F)c(F)c5F)c5nc(c(-c6c(F)c(F)c(F)c(F)c6F)c6ccc3[nH]6)C=C5)C=C4)cc2)c2ccc(O)cc2)c1
REMARK SMILES IDX 14 1 13 2 11 3 12 4 9 5 10 6 8 7 7 9 1 10 2 11 3 12 89 13
REMARK SMILES IDX 4 14 5 15 6 16 82 17 83 18 88 19 84 20 87 21 85 22 86 23
REMARK SMILES IDX 15 25 16 26 17 27 18 28 19 29 20 30 81 31 21 32 80 33 22 34
REMARK SMILES IDX 23 35 24 36 74 37 25 38 79 39 73 40 75 41 26 42 78 43 72 44
REMARK SMILES IDX 71 45 27 47 59 48 39 49 58 50 40 51 43 52 57 53 76 54 41 55
REMARK SMILES IDX 42 56 56 58 77 59 44 60 28 61 29 62 37 63 30 64 31 65 35 66
REMARK SMILES IDX 38 67 32 68 33 69 36 70 34 71 60 72 61 73 69 74 62 75 63 76
REMARK SMILES IDX 67 77 70 78 64 79 65 80 68 81 66 82 45 83 46 84 54 85 47 86
REMARK SMILES IDX 48 87 52 88 55 89 49 90 50 91 53 92 51 93
REMARK H PARENT 8 8 86 24 75 46 43 57
REMARK Flexibility Score: inf
ROOT
ATOM      1  C   UNL A   1      33.522  30.185  26.608  1.00  0.00     0.274 C 
ENDROOT
BRANCH   1   2
ATOM      2  O   UNL A   1      33.484  28.782  26.969  1.00  0.00    -0.460 OA
BRANCH   2   3
ATOM      3  C   UNL A   1      32.238  28.192  26.971  1.00  0.00     0.336 C 
ATOM      4  O   UNL A   1      31.492  28.259  27.941  1.00  0.00    -0.249 OA
BRANCH   3   5
ATOM      5  C   UNL A   1      31.977  27.330  25.656  1.00  0.00     0.158 C 
ATOM      6  C   UNL A   1      31.318  26.060  26.240  1.00  0.00     0.053 C 
BRANCH   5   7
ATOM      7  N   UNL A   1      33.288  26.918  25.056  1.00  0.00    -0.366 N 
ATOM      8  H   UNL A   1      33.897  27.678  24.910  1.00  0.00     0.162 HD
BRANCH   7   9
ATOM      9  C   UNL A   1      33.837  25.713  24.661  1.00  0.00     0.038 A 
ATOM     10  C   UNL A   1      36.806  23.508  25.743  1.00  0.00     0.044 C 
ATOM     11  C   UNL A   1      35.593  23.998  25.006  1.00  0.00    -0.046 A 
ATOM     12  C   UNL A   1      35.171  23.320  23.864  1.00  0.00     0.042 A 
ATOM     13  C   UNL A   1      34.895  25.159  25.414  1.00  0.00     0.029 A 
ATOM     14  C   UNL A   1      34.125  23.839  23.122  1.00  0.00     0.125 A 
ATOM     15  F   UNL A   1      33.772  23.235  21.979  1.00  0.00    -0.207 F 
ATOM     16  C   UNL A   1      33.490  25.024  23.497  1.00  0.00     0.065 A 
ENDBRANCH   7   9
ENDBRANCH   5   7
BRANCH   5  17
ATOM     17  C   UNL A   1      31.013  28.004  24.643  1.00  0.00    -0.011 A 
ATOM     18  C   UNL A   1      30.394  27.232  23.633  1.00  0.00     0.010 A 
ATOM     19  C   UNL A   1      30.751  29.388  24.617  1.00  0.00     0.010 A 
ATOM     20  C   UNL A   1      29.692  27.827  22.577  1.00  0.00     0.046 A 
ATOM     21  C   UNL A   1      30.008  29.982  23.589  1.00  0.00     0.046 A 
ATOM     22  C   UNL A   1      29.525  29.201  22.552  1.00  0.00     0.115 A 
BRANCH  22  23
ATOM     23  O   UNL A   1      28.903  29.756  21.475  1.00  0.00    -0.508 OA
ATOM     24  H   UNL A   1      27.967  29.766  21.428  1.00  0.00     0.293 HD
ENDBRANCH  22  23
ENDBRANCH   5  17
ENDBRANCH   3   5
ENDBRANCH   2   3
ENDBRANCH   1   2
BRANCH   1  25
ATOM     25  C   UNL A   1      33.860  31.130  27.769  1.00  0.00     0.275 C 
BRANCH  25  26
ATOM     26  O   UNL A   1      35.144  31.750  27.633  1.00  0.00    -0.458 OA
BRANCH  26  27
ATOM     27  C   UNL A   1      35.961  31.412  28.646  1.00  0.00     0.338 C 
ATOM     28  O   UNL A   1      36.300  32.129  29.588  1.00  0.00    -0.246 OA
BRANCH  27  29
ATOM     29  C   UNL A   1      36.572  30.103  28.474  1.00  0.00     0.060 A 
ATOM     30  C   UNL A   1      36.726  29.337  29.634  1.00  0.00     0.016 A 
ATOM     31  C   UNL A   1      37.436  29.978  27.387  1.00  0.00     0.016 A 
ATOM     32  C   UNL A   1      37.883  28.599  29.810  1.00  0.00     0.010 A 
ATOM     33  C   UNL A   1      38.599  29.258  27.573  1.00  0.00     0.010 A 
ATOM     34  C   UNL A   1      38.857  28.660  28.817  1.00  0.00    -0.014 A 
BRANCH  34  35
ATOM     35  C   UNL A   1      40.194  28.136  29.025  1.00  0.00     0.031 A 
ATOM     36  C   UNL A   1      40.494  26.749  28.627  1.00  0.00     0.074 A 
ATOM     37  C   UNL A   1      41.168  28.903  29.566  1.00  0.00     0.049 A 
ATOM     38  N   UNL A   1      41.423  26.023  29.154  1.00  0.00    -0.248 NA
ATOM     39  C   UNL A   1      39.711  26.055  27.607  1.00  0.00     0.031 C 
ATOM     40  C   UNL A   1      42.599  28.640  29.506  1.00  0.00     0.029 A 
ATOM     41  N   UNL A   1      41.054  30.003  30.432  1.00  0.00    -0.354 N 
ATOM     42  C   UNL A   1      41.584  24.945  28.324  1.00  0.00     0.074 A 
ATOM     43  C   UNL A   1      40.421  24.933  27.463  1.00  0.00     0.031 C 
ATOM     44  C   UNL A   1      43.217  29.344  30.465  1.00  0.00     0.029 A 
ATOM     45  C   UNL A   1      42.187  29.952  31.285  1.00  0.00     0.049 A 
ATOM     46  H   UNL A   1      40.333  30.673  30.446  1.00  0.00     0.167 HD
ATOM     47  C   UNL A   1      42.780  24.294  28.276  1.00  0.00     0.037 A 
ATOM     48  C   UNL A   1      42.096  29.796  32.642  1.00  0.00     0.037 A 
ATOM     49  C   UNL A   1      43.750  24.830  29.218  1.00  0.00     0.049 A 
ATOM     50  C   UNL A   1      42.845  28.622  33.208  1.00  0.00     0.074 A 
ATOM     51  C   UNL A   1      44.759  25.770  29.075  1.00  0.00     0.029 A 
ATOM     52  N   UNL A   1      43.554  24.675  30.586  1.00  0.00    -0.354 N 
ATOM     53  N   UNL A   1      43.205  27.600  32.487  1.00  0.00    -0.248 NA
ATOM     54  C   UNL A   1      43.215  28.472  34.613  1.00  0.00     0.031 C 
ATOM     55  C   UNL A   1      45.156  26.201  30.359  1.00  0.00     0.029 A 
ATOM     56  C   UNL A   1      44.398  25.514  31.287  1.00  0.00     0.049 A 
ATOM     57  H   UNL A   1      42.907  24.056  30.996  1.00  0.00     0.167 HD
ATOM     58  C   UNL A   1      43.868  26.697  33.272  1.00  0.00     0.074 A 
ATOM     59  C   UNL A   1      43.845  27.282  34.599  1.00  0.00     0.031 C 
ATOM     60  C   UNL A   1      44.395  25.558  32.738  1.00  0.00     0.037 A 
BRANCH  47  61
ATOM     61  C   UNL A   1      43.108  23.476  27.060  1.00  0.00     0.064 A 
ATOM     62  C   UNL A   1      42.812  22.102  26.998  1.00  0.00     0.173 A 
ATOM     63  C   UNL A   1      43.841  23.998  25.981  1.00  0.00     0.173 A 
ATOM     64  F   UNL A   1      42.075  21.495  27.934  1.00  0.00    -0.203 F 
ATOM     65  C   UNL A   1      43.308  21.284  25.983  1.00  0.00     0.198 A 
ATOM     66  C   UNL A   1      44.373  23.171  24.987  1.00  0.00     0.198 A 
ATOM     67  F   UNL A   1      44.094  25.314  25.902  1.00  0.00    -0.203 F 
ATOM     68  F   UNL A   1      43.028  19.973  25.992  1.00  0.00    -0.200 F 
ATOM     69  C   UNL A   1      44.117  21.812  24.998  1.00  0.00     0.200 A 
ATOM     70  F   UNL A   1      45.167  23.692  24.042  1.00  0.00    -0.200 F 
ATOM     71  F   UNL A   1      44.654  21.012  24.067  1.00  0.00    -0.200 F 
ENDBRANCH  47  61
BRANCH  48  72
ATOM     72  C   UNL A   1      40.854  30.351  33.225  1.00  0.00     0.064 A 
ATOM     73  C   UNL A   1      40.606  31.723  33.081  1.00  0.00     0.173 A 
ATOM     74  C   UNL A   1      39.762  29.489  33.360  1.00  0.00     0.173 A 
ATOM     75  F   UNL A   1      41.631  32.583  32.974  1.00  0.00    -0.203 F 
ATOM     76  C   UNL A   1      39.308  32.199  32.916  1.00  0.00     0.198 A 
ATOM     77  C   UNL A   1      38.489  29.957  33.069  1.00  0.00     0.198 A 
ATOM     78  F   UNL A   1      39.951  28.174  33.540  1.00  0.00    -0.203 F 
ATOM     79  F   UNL A   1      39.088  33.505  32.716  1.00  0.00    -0.200 F 
ATOM     80  C   UNL A   1      38.257  31.305  32.844  1.00  0.00     0.200 A 
ATOM     81  F   UNL A   1      37.505  29.073  32.901  1.00  0.00    -0.200 F 
ATOM     82  F   UNL A   1      37.029  31.746  32.536  1.00  0.00    -0.200 F 
ENDBRANCH  48  72
BRANCH  60  83
ATOM     83  C   UNL A   1      45.079  24.447  33.482  1.00  0.00     0.064 A 
ATOM     84  C   UNL A   1      44.472  23.224  33.792  1.00  0.00     0.173 A 
ATOM     85  C   UNL A   1      46.461  24.548  33.784  1.00  0.00     0.173 A 
ATOM     86  F   UNL A   1      43.191  22.987  33.476  1.00  0.00    -0.203 F 
ATOM     87  C   UNL A   1      45.188  22.185  34.396  1.00  0.00     0.198 A 
ATOM     88  C   UNL A   1      47.179  23.495  34.340  1.00  0.00     0.198 A 
ATOM     89  F   UNL A   1      47.154  25.668  33.532  1.00  0.00    -0.203 F 
ATOM     90  F   UNL A   1      44.562  21.041  34.703  1.00  0.00    -0.200 F 
ATOM     91  C   UNL A   1      46.541  22.316  34.657  1.00  0.00     0.200 A 
ATOM     92  F   UNL A   1      48.497  23.628  34.551  1.00  0.00    -0.200 F 
ATOM     93  F   UNL A   1      47.230  21.302  35.197  1.00  0.00    -0.200 F 
ENDBRANCH  60  83
ENDBRANCH  34  35
ENDBRANCH  27  29
ENDBRANCH  26  27
ENDBRANCH  25  26
ENDBRANCH   1  25
TORSDOF 15
ENDMDL
MODEL 2
REMARK VINA RESULT:     -12.6      1.244      1.424
REMARK SMILES Cc1cc(F)cc(N[C@@](C)(C(=O)OCCOC(=O)c2ccc(-c3c4nc(c(-c5c(F)c(F)c(F)c(F)c5F)c5ccc([nH]5)c(-c5c(F)c(F)c(F)c(F)c5F)c5nc(c(-c6c(F)c(F)c(F)c(F)c6F)c6ccc3[nH]6)C=C5)C=C4)cc2)c2ccc(O)cc2)c1
REMARK SMILES IDX 14 1 13 2 11 3 12 4 9 5 10 6 8 7 7 9 1 10 2 11 3 12 89 13
REMARK SMILES IDX 4 14 5 15 6 16 82 17 83 18 88 19 84 20 87 21 85 22 86 23
REMARK SMILES IDX 15 25 16 26 17 27 18 28 19 29 20 30 81 31 21 32 80 33 22 34
REMARK SMILES IDX 23 35 24 36 74 37 25 38 79 39 73 40 75 41 26 42 78 43 72 44
REMARK SMILES IDX 71 45 27 47 59 48 39 49 58 50 40 51 43 52 57 53 76 54 41 55
REMARK SMILES IDX 42 56 56 58 77 59 44 60 28 61 29 62 37 63 30 64 31 65 35 66
REMARK SMILES IDX 38 67 32 68 33 69 36 70 34 71 60 72 61 73 69 74 62 75 63 76
REMARK SMILES IDX 67 77 70 78 64 79 65 80 68 81 66 82 45 83 46 84 54 85 47 86
REMARK SMILES IDX 48 87 52 88 55 89 49 90 50 91 53 92 51 93
REMARK H PARENT 8 8 86 24 75 46 43 57
REMARK Flexibility Score: inf
ROOT
ATOM      1  C   UNL A   1      33.269  30.245  26.416  1.00  0.00     0.274 C 
ENDROOT
BRANCH   1   2
ATOM      2  O   UNL A   1      32.633  28.960  26.629  1.00  0.00    -0.460 OA
BRANCH   2   3
ATOM      3  C   UNL A   1      33.404  27.851  26.355  1.00  0.00     0.336 C 
ATOM      4  O   UNL A   1      34.621  27.857  26.501  1.00  0.00    -0.249 OA
BRANCH   3   5
ATOM      5  C   UNL A   1      32.551  26.668  25.715  1.00  0.00     0.158 C 
ATOM      6  C   UNL A   1      31.125  27.010  26.205  1.00  0.00     0.053 C 
BRANCH   5   7
ATOM      7  N   UNL A   1      32.941  25.365  26.348  1.00  0.00    -0.366 N 
ATOM      8  H   UNL A   1      32.826  25.368  27.326  1.00  0.00     0.162 HD
BRANCH   7   9
ATOM      9  C   UNL A   1      33.424  24.163  25.871  1.00  0.00     0.038 A 
ATOM     10  C   UNL A   1      36.596  22.953  24.048  1.00  0.00     0.044 C 
ATOM     11  C   UNL A   1      35.257  22.948  24.726  1.00  0.00    -0.046 A 
ATOM     12  C   UNL A   1      34.488  21.786  24.702  1.00  0.00     0.042 A 
ATOM     13  C   UNL A   1      34.734  24.107  25.347  1.00  0.00     0.029 A 
ATOM     14  C   UNL A   1      33.207  21.817  25.226  1.00  0.00     0.125 A 
ATOM     15  F   UNL A   1      32.435  20.726  25.129  1.00  0.00    -0.207 F 
ATOM     16  C   UNL A   1      32.678  22.986  25.773  1.00  0.00     0.065 A 
ENDBRANCH   7   9
ENDBRANCH   5   7
BRANCH   5  17
ATOM     17  C   UNL A   1      32.579  26.640  24.163  1.00  0.00    -0.011 A 
ATOM     18  C   UNL A   1      31.627  25.875  23.450  1.00  0.00     0.010 A 
ATOM     19  C   UNL A   1      33.560  27.292  23.389  1.00  0.00     0.010 A 
ATOM     20  C   UNL A   1      31.745  25.651  22.072  1.00  0.00     0.046 A 
ATOM     21  C   UNL A   1      33.652  27.109  22.003  1.00  0.00     0.046 A 
ATOM     22  C   UNL A   1      32.772  26.251  21.364  1.00  0.00     0.115 A 
BRANCH  22  23
ATOM     23  O   UNL A   1      32.903  25.954  20.042  1.00  0.00    -0.508 OA
ATOM     24  H   UNL A   1      33.062  25.070  19.773  1.00  0.00     0.293 HD
ENDBRANCH  22  23
ENDBRANCH   5  17
ENDBRANCH   3   5
ENDBRANCH   2   3
ENDBRANCH   1   2
BRANCH   1  25
ATOM     25  C   UNL A   1      33.770  30.926  27.696  1.00  0.00     0.275 C 
BRANCH  25  26
ATOM     26  O   UNL A   1      35.001  31.634  27.512  1.00  0.00    -0.458 OA
BRANCH  26  27
ATOM     27  C   UNL A   1      35.878  31.358  28.492  1.00  0.00     0.338 C 
ATOM     28  O   UNL A   1      36.258  32.126  29.377  1.00  0.00    -0.246 OA
BRANCH  27  29
ATOM     29  C   UNL A   1      36.498  30.049  28.351  1.00  0.00     0.060 A 
ATOM     30  C   UNL A   1      36.654  29.311  29.529  1.00  0.00     0.016 A 
ATOM     31  C   UNL A   1      37.366  29.906  27.270  1.00  0.00     0.016 A 
ATOM     32  C   UNL A   1      37.816  28.585  29.724  1.00  0.00     0.010 A 
ATOM     33  C   UNL A   1      38.533  29.198  27.474  1.00  0.00     0.010 A 
ATOM     34  C   UNL A   1      38.792  28.630  28.732  1.00  0.00    -0.014 A 
BRANCH  34  35
ATOM     35  C   UNL A   1      40.132  28.120  28.955  1.00  0.00     0.031 A 
ATOM     36  C   UNL A   1      40.448  26.733  28.568  1.00  0.00     0.074 A 
ATOM     37  C   UNL A   1      41.094  28.899  29.499  1.00  0.00     0.049 A 
ATOM     38  N   UNL A   1      41.379  26.019  29.108  1.00  0.00    -0.248 NA
ATOM     39  C   UNL A   1      39.680  26.025  27.546  1.00  0.00     0.031 C 
ATOM     40  C   UNL A   1      42.528  28.649  29.453  1.00  0.00     0.029 A 
ATOM     41  N   UNL A   1      40.962  30.003  30.358  1.00  0.00    -0.354 N 
ATOM     42  C   UNL A   1      41.558  24.938  28.286  1.00  0.00     0.074 A 
ATOM     43  C   UNL A   1      40.402  24.909  27.415  1.00  0.00     0.031 C 
ATOM     44  C   UNL A   1      43.131  29.365  30.413  1.00  0.00     0.029 A 
ATOM     45  C   UNL A   1      42.088  29.968  31.220  1.00  0.00     0.049 A 
ATOM     46  H   UNL A   1      40.235  30.667  30.361  1.00  0.00     0.167 HD
ATOM     47  C   UNL A   1      42.759  24.298  28.253  1.00  0.00     0.037 A 
ATOM     48  C   UNL A   1      41.986  29.819  32.577  1.00  0.00     0.037 A 
ATOM     49  C   UNL A   1      43.716  24.849  29.199  1.00  0.00     0.049 A 
ATOM     50  C   UNL A   1      42.742  28.656  33.157  1.00  0.00     0.074 A 
ATOM     51  C   UNL A   1      44.718  25.797  29.060  1.00  0.00     0.029 A 
ATOM     52  N   UNL A   1      43.510  24.700  30.567  1.00  0.00    -0.354 N 
ATOM     53  N   UNL A   1      43.117  27.633  32.446  1.00  0.00    -0.248 NA
ATOM     54  C   UNL A   1      43.101  28.518  34.567  1.00  0.00     0.031 C 
ATOM     55  C   UNL A   1      45.099  26.239  30.344  1.00  0.00     0.029 A 
ATOM     56  C   UNL A   1      44.340  25.551  31.269  1.00  0.00     0.049 A 
ATOM     57  H   UNL A   1      42.865  24.077  30.975  1.00  0.00     0.167 HD
ATOM     58  C   UNL A   1      43.782  26.741  33.242  1.00  0.00     0.074 A 
ATOM     59  C   UNL A   1      43.742  27.334  34.566  1.00  0.00     0.031 C 
ATOM     60  C   UNL A   1      44.324  25.604  32.720  1.00  0.00     0.037 A 
BRANCH  47  61
ATOM     61  C   UNL A   1      43.106  23.475  27.045  1.00  0.00     0.064 A 
ATOM     62  C   UNL A   1      42.837  22.094  26.994  1.00  0.00     0.173 A 
ATOM     63  C   UNL A   1      43.830  24.001  25.962  1.00  0.00     0.173 A 
ATOM     64  F   UNL A   1      42.110  21.482  27.935  1.00  0.00    -0.203 F 
ATOM     65  C   UNL A   1      43.350  21.277  25.988  1.00  0.00     0.198 A 
ATOM     66  C   UNL A   1      44.380  23.175  24.977  1.00  0.00     0.198 A 
ATOM     67  F   UNL A   1      44.058  25.321  25.871  1.00  0.00    -0.203 F 
ATOM     68  F   UNL A   1      43.096  19.961  26.008  1.00  0.00    -0.200 F 
ATOM     69  C   UNL A   1      44.151  21.812  25.000  1.00  0.00     0.200 A 
ATOM     70  F   UNL A   1      45.166  23.703  24.028  1.00  0.00    -0.200 F 
ATOM     71  F   UNL A   1      44.705  21.014  24.077  1.00  0.00    -0.200 F 
ENDBRANCH  47  61
BRANCH  48  72
ATOM     72  C   UNL A   1      40.735  30.366  33.147  1.00  0.00     0.064 A 
ATOM     73  C   UNL A   1      40.475  31.736  32.992  1.00  0.00     0.173 A 
ATOM     74  C   UNL A   1      39.650  29.496  33.278  1.00  0.00     0.173 A 
ATOM     75  F   UNL A   1      41.493  32.604  32.887  1.00  0.00    -0.203 F 
ATOM     76  C   UNL A   1      39.174  32.197  32.812  1.00  0.00     0.198 A 
ATOM     77  C   UNL A   1      38.375  29.949  32.974  1.00  0.00     0.198 A 
ATOM     78  F   UNL A   1      39.850  28.183  33.469  1.00  0.00    -0.203 F 
ATOM     79  F   UNL A   1      38.944  33.501  32.601  1.00  0.00    -0.200 F 
ATOM     80  C   UNL A   1      38.132  31.293  32.737  1.00  0.00     0.200 A 
ATOM     81  F   UNL A   1      37.401  29.055  32.804  1.00  0.00    -0.200 F 
ATOM     82  F   UNL A   1      36.903  31.721  32.415  1.00  0.00    -0.200 F 
ENDBRANCH  48  72
BRANCH  60  83
ATOM     83  C   UNL A   1      45.012  24.504  33.477  1.00  0.00     0.064 A 
ATOM     84  C   UNL A   1      44.420  23.271  33.775  1.00  0.00     0.173 A 
ATOM     85  C   UNL A   1      46.386  24.628  33.806  1.00  0.00     0.173 A 
ATOM     86  F   UNL A   1      43.149  23.013  33.434  1.00  0.00    -0.203 F 
ATOM     87  C   UNL A   1      45.140  22.244  34.393  1.00  0.00     0.198 A 
ATOM     88  C   UNL A   1      47.111  23.587  34.376  1.00  0.00     0.198 A 
ATOM     89  F   UNL A   1      47.065  25.760  33.568  1.00  0.00    -0.203 F 
ATOM     90  F   UNL A   1      44.528  21.089  34.687  1.00  0.00    -0.200 F 
ATOM     91  C   UNL A   1      46.486  22.397  34.680  1.00  0.00     0.200 A 
ATOM     92  F   UNL A   1      48.422  23.741  34.612  1.00  0.00    -0.200 F 
ATOM     93  F   UNL A   1      47.181  21.394  35.232  1.00  0.00    -0.200 F 
ENDBRANCH  60  83
ENDBRANCH  34  35
ENDBRANCH  27  29
ENDBRANCH  26  27
ENDBRANCH  25  26
ENDBRANCH   1  25
TORSDOF 15
ENDMDL
MODEL 3
REMARK VINA RESULT:     -12.6      4.328     10.239
REMARK SMILES Cc1cc(F)cc(N[C@@](C)(C(=O)OCCOC(=O)c2ccc(-c3c4nc(c(-c5c(F)c(F)c(F)c(F)c5F)c5ccc([nH]5)c(-c5c(F)c(F)c(F)c(F)c5F)c5nc(c(-c6c(F)c(F)c(F)c(F)c6F)c6ccc3[nH]6)C=C5)C=C4)cc2)c2ccc(O)cc2)c1
REMARK SMILES IDX 14 1 13 2 11 3 12 4 9 5 10 6 8 7 7 9 1 10 2 11 3 12 89 13
REMARK SMILES IDX 4 14 5 15 6 16 82 17 83 18 88 19 84 20 87 21 85 22 86 23
REMARK SMILES IDX 15 25 16 26 17 27 18 28 19 29 20 30 81 31 21 32 80 33 22 34
REMARK SMILES IDX 23 35 24 36 74 37 25 38 79 39 73 40 75 41 26 42 78 43 72 44
REMARK SMILES IDX 71 45 27 47 59 48 39 49 58 50 40 51 43 52 57 53 76 54 41 55
REMARK SMILES IDX 42 56 56 58 77 59 44 60 28 61 29 62 37 63 30 64 31 65 35 66
REMARK SMILES IDX 38 67 32 68 33 69 36 70 34 71 60 72 61 73 69 74 62 75 63 76
REMARK SMILES IDX 67 77 70 78 64 79 65 80 68 81 66 82 45 83 46 84 54 85 47 86
REMARK SMILES IDX 48 87 52 88 55 89 49 90 50 91 53 92 51 93
REMARK H PARENT 8 8 86 24 75 46 43 57
REMARK Flexibility Score: inf
ROOT
ATOM      1  C   UNL A   1      37.920  23.012  25.970  1.00  0.00     0.274 C 
ENDROOT
BRANCH   1   2
ATOM      2  O   UNL A   1      36.840  22.119  25.605  1.00  0.00    -0.460 OA
BRANCH   2   3
ATOM      3  C   UNL A   1      36.281  22.323  24.361  1.00  0.00     0.336 C 
ATOM      4  O   UNL A   1      36.968  22.550  23.372  1.00  0.00    -0.249 OA
BRANCH   3   5
ATOM      5  C   UNL A   1      34.689  22.364  24.415  1.00  0.00     0.158 C 
ATOM      6  C   UNL A   1      34.355  23.209  23.164  1.00  0.00     0.053 C 
BRANCH   5   7
ATOM      7  N   UNL A   1      34.246  23.148  25.615  1.00  0.00    -0.366 N 
ATOM      8  H   UNL A   1      34.460  22.697  26.464  1.00  0.00     0.162 HD
BRANCH   7   9
ATOM      9  C   UNL A   1      33.607  24.358  25.799  1.00  0.00     0.038 A 
ATOM     10  C   UNL A   1      29.961  25.593  25.965  1.00  0.00     0.044 C 
ATOM     11  C   UNL A   1      31.462  25.587  25.984  1.00  0.00    -0.046 A 
ATOM     12  C   UNL A   1      32.146  26.801  26.017  1.00  0.00     0.042 A 
ATOM     13  C   UNL A   1      32.200  24.382  25.919  1.00  0.00     0.029 A 
ATOM     14  C   UNL A   1      33.526  26.796  25.916  1.00  0.00     0.125 A 
ATOM     15  F   UNL A   1      34.181  27.965  25.863  1.00  0.00    -0.207 F 
ATOM     16  C   UNL A   1      34.238  25.604  25.783  1.00  0.00     0.065 A 
ENDBRANCH   7   9
ENDBRANCH   5   7
BRANCH   5  17
ATOM     17  C   UNL A   1      34.019  20.969  24.300  1.00  0.00    -0.011 A 
ATOM     18  C   UNL A   1      32.730  20.846  23.732  1.00  0.00     0.010 A 
ATOM     19  C   UNL A   1      34.595  19.783  24.798  1.00  0.00     0.010 A 
ATOM     20  C   UNL A   1      32.005  19.650  23.802  1.00  0.00     0.046 A 
ATOM     21  C   UNL A   1      33.891  18.572  24.825  1.00  0.00     0.046 A 
ATOM     22  C   UNL A   1      32.584  18.528  24.370  1.00  0.00     0.115 A 
BRANCH  22  23
ATOM     23  O   UNL A   1      31.827  17.403  24.491  1.00  0.00    -0.508 OA
ATOM     24  H   UNL A   1      32.197  16.565  24.289  1.00  0.00     0.293 HD
ENDBRANCH  22  23
ENDBRANCH   5  17
ENDBRANCH   3   5
ENDBRANCH   2   3
ENDBRANCH   1   2
BRANCH   1  25
ATOM     25  C   UNL A   1      39.274  22.320  26.178  1.00  0.00     0.275 C 
BRANCH  25  26
ATOM     26  O   UNL A   1      39.921  22.704  27.396  1.00  0.00    -0.458 OA
BRANCH  26  27
ATOM     27  C   UNL A   1      40.681  23.800  27.224  1.00  0.00     0.338 C 
ATOM     28  O   UNL A   1      41.906  23.833  27.104  1.00  0.00    -0.246 OA
BRANCH  27  29
ATOM     29  C   UNL A   1      39.928  25.040  27.334  1.00  0.00     0.060 A 
ATOM     30  C   UNL A   1      40.386  26.110  26.557  1.00  0.00     0.016 A 
ATOM     31  C   UNL A   1      39.262  25.237  28.542  1.00  0.00     0.016 A 
ATOM     32  C   UNL A   1      40.384  27.385  27.094  1.00  0.00     0.010 A 
ATOM     33  C   UNL A   1      39.279  26.507  29.084  1.00  0.00     0.010 A 
ATOM     34  C   UNL A   1      39.929  27.547  28.400  1.00  0.00    -0.014 A 
BRANCH  34  35
ATOM     35  C   UNL A   1      40.126  28.785  29.131  1.00  0.00     0.031 A 
ATOM     36  C   UNL A   1      39.077  29.819  29.091  1.00  0.00     0.074 A 
ATOM     37  C   UNL A   1      41.250  28.997  29.852  1.00  0.00     0.049 A 
ATOM     38  N   UNL A   1      39.289  31.081  29.266  1.00  0.00    -0.248 NA
ATOM     39  C   UNL A   1      37.683  29.491  28.799  1.00  0.00     0.031 C 
ATOM     40  C   UNL A   1      41.424  30.004  30.891  1.00  0.00     0.029 A 
ATOM     41  N   UNL A   1      42.532  28.451  29.681  1.00  0.00    -0.354 N 
ATOM     42  C   UNL A   1      38.060  31.653  29.462  1.00  0.00     0.074 A 
ATOM     43  C   UNL A   1      37.093  30.667  29.031  1.00  0.00     0.031 C 
ATOM     44  C   UNL A   1      42.734  30.206  31.093  1.00  0.00     0.029 A 
ATOM     45  C   UNL A   1      43.447  29.462  30.073  1.00  0.00     0.049 A 
ATOM     46  H   UNL A   1      42.752  27.548  29.355  1.00  0.00     0.167 HD
ATOM     47  C   UNL A   1      37.951  32.806  30.178  1.00  0.00     0.037 A 
ATOM     48  C   UNL A   1      44.360  30.017  29.217  1.00  0.00     0.037 A 
ATOM     49  C   UNL A   1      39.240  33.330  30.600  1.00  0.00     0.049 A 
ATOM     50  C   UNL A   1      44.288  31.512  29.077  1.00  0.00     0.074 A 
ATOM     51  C   UNL A   1      39.957  33.188  31.779  1.00  0.00     0.029 A 
ATOM     52  N   UNL A   1      40.134  33.827  29.658  1.00  0.00    -0.354 N 
ATOM     53  N   UNL A   1      43.227  32.199  29.385  1.00  0.00    -0.248 NA
ATOM     54  C   UNL A   1      45.363  32.350  28.551  1.00  0.00     0.031 C 
ATOM     55  C   UNL A   1      41.292  33.578  31.541  1.00  0.00     0.029 A 
ATOM     56  C   UNL A   1      41.388  33.969  30.220  1.00  0.00     0.049 A 
ATOM     57  H   UNL A   1      39.906  34.046  28.726  1.00  0.00     0.167 HD
ATOM     58  C   UNL A   1      43.459  33.528  29.156  1.00  0.00     0.074 A 
ATOM     59  C   UNL A   1      44.809  33.575  28.627  1.00  0.00     0.031 C 
ATOM     60  C   UNL A   1      42.515  34.466  29.451  1.00  0.00     0.037 A 
BRANCH  47  61
ATOM     61  C   UNL A   1      36.627  33.147  30.800  1.00  0.00     0.064 A 
ATOM     62  C   UNL A   1      35.693  33.966  30.138  1.00  0.00     0.173 A 
ATOM     63  C   UNL A   1      36.301  32.783  32.117  1.00  0.00     0.173 A 
ATOM     64  F   UNL A   1      35.858  34.338  28.864  1.00  0.00    -0.203 F 
ATOM     65  C   UNL A   1      34.568  34.477  30.784  1.00  0.00     0.198 A 
ATOM     66  C   UNL A   1      35.196  33.329  32.778  1.00  0.00     0.198 A 
ATOM     67  F   UNL A   1      37.081  31.931  32.801  1.00  0.00    -0.203 F 
ATOM     68  F   UNL A   1      33.730  35.284  30.119  1.00  0.00    -0.200 F 
ATOM     69  C   UNL A   1      34.338  34.186  32.114  1.00  0.00     0.200 A 
ATOM     70  F   UNL A   1      34.990  33.050  34.072  1.00  0.00    -0.200 F 
ATOM     71  F   UNL A   1      33.299  34.737  32.753  1.00  0.00    -0.200 F 
ENDBRANCH  47  61
BRANCH  48  72
ATOM     72  C   UNL A   1      44.807  29.101  28.144  1.00  0.00     0.064 A 
ATOM     73  C   UNL A   1      45.443  27.906  28.509  1.00  0.00     0.173 A 
ATOM     74  C   UNL A   1      44.114  29.139  26.931  1.00  0.00     0.173 A 
ATOM     75  F   UNL A   1      46.138  27.839  29.656  1.00  0.00    -0.203 F 
ATOM     76  C   UNL A   1      45.256  26.744  27.766  1.00  0.00     0.198 A 
ATOM     77  C   UNL A   1      43.834  27.953  26.271  1.00  0.00     0.198 A 
ATOM     78  F   UNL A   1      43.524  30.272  26.520  1.00  0.00    -0.203 F 
ATOM     79  F   UNL A   1      45.818  25.593  28.161  1.00  0.00    -0.200 F 
ATOM     80  C   UNL A   1      44.397  26.755  26.684  1.00  0.00     0.200 A 
ATOM     81  F   UNL A   1      42.926  27.961  25.295  1.00  0.00    -0.200 F 
ATOM     82  F   UNL A   1      44.100  25.607  26.059  1.00  0.00    -0.200 F 
ENDBRANCH  48  72
BRANCH  60  83
ATOM     83  C   UNL A   1      42.598  35.942  29.187  1.00  0.00     0.064 A 
ATOM     84  C   UNL A   1      43.390  36.825  29.931  1.00  0.00     0.173 A 
ATOM     85  C   UNL A   1      41.965  36.490  28.043  1.00  0.00     0.173 A 
ATOM     86  F   UNL A   1      44.100  36.399  30.984  1.00  0.00    -0.203 F 
ATOM     87  C   UNL A   1      43.510  38.173  29.578  1.00  0.00     0.198 A 
ATOM     88  C   UNL A   1      42.126  37.820  27.669  1.00  0.00     0.198 A 
ATOM     89  F   UNL A   1      41.182  35.744  27.249  1.00  0.00    -0.203 F 
ATOM     90  F   UNL A   1      44.255  38.992  30.334  1.00  0.00    -0.200 F 
ATOM     91  C   UNL A   1      42.891  38.666  28.441  1.00  0.00     0.200 A 
ATOM     92  F   UNL A   1      41.549  38.268  26.545  1.00  0.00    -0.200 F 
ATOM     93  F   UNL A   1      43.045  39.947  28.085  1.00  0.00    -0.200 F 
ENDBRANCH  60  83
ENDBRANCH  34  35
ENDBRANCH  27  29
ENDBRANCH  26  27
ENDBRANCH  25  26
ENDBRANCH   1  25
TORSDOF 15
ENDMDL
