MODEL 1
REMARK VINA RESULT:     -12.8      0.000      0.000
REMARK SMILES COc1ccc(NC(=O)c2nn(C)cc2C(=O)OCCOC(=O)c2ccc(-c3c4nc(c(-c5c(F)c(F)c(F)c(F)c5F)c5ccc([nH]5)c(-c5c(F)c(F)c(F)c(F)c5F)c5nc(c(-c6c(F)c(F)c(F)c(F)c6F)c6ccc3[nH]6)C=C5)C=C4)cc2)c(C)c1
REMARK SMILES IDX 19 1 18 2 16 3 17 4 15 5 10 6 11 7 12 8 14 9 13 10 8 11 7 12
REMARK SMILES IDX 9 14 6 15 3 16 4 17 89 18 5 19 87 20 88 21 2 22 1 23 20 24
REMARK SMILES IDX 21 25 22 26 23 27 24 28 25 29 86 30 26 31 85 32 27 33 28 34
REMARK SMILES IDX 29 35 79 36 30 37 84 38 78 39 80 40 31 41 83 42 77 43 76 44
REMARK SMILES IDX 32 46 64 47 44 48 63 49 45 50 48 51 62 52 81 53 46 54 47 55
REMARK SMILES IDX 61 57 82 58 49 59 33 60 34 61 42 62 35 63 36 64 40 65 43 66
REMARK SMILES IDX 37 67 38 68 41 69 39 70 65 71 66 72 74 73 67 74 68 75 72 76
REMARK SMILES IDX 75 77 69 78 70 79 73 80 71 81 50 82 51 83 59 84 52 85 53 86
REMARK SMILES IDX 57 87 60 88 54 89 55 90 58 91 56 92
REMARK H PARENT 7 13 80 45 48 56
REMARK Flexibility Score: inf
ROOT
ATOM      1  C   UNL A   1      38.160  22.294  25.540  1.00  0.00     0.275 C 
ENDROOT
BRANCH   1   2
ATOM      2  O   UNL A   1      36.815  21.916  25.981  1.00  0.00    -0.458 OA
BRANCH   2   3
ATOM      3  C   UNL A   1      35.707  22.472  25.435  1.00  0.00     0.342 C 
ATOM      4  O   UNL A   1      35.715  23.626  25.013  1.00  0.00    -0.246 OA
BRANCH   3   5
ATOM      5  C   UNL A   1      34.525  21.636  25.378  1.00  0.00     0.111 A 
ATOM      6  C   UNL A   1      33.170  21.877  25.842  1.00  0.00     0.165 A 
ATOM      7  N   UNL A   1      32.384  20.828  25.512  1.00  0.00    -0.167 NA
ATOM      8  N   UNL A   1      33.190  19.944  24.926  1.00  0.00    -0.274 N 
ATOM      9  C   UNL A   1      34.481  20.355  24.845  1.00  0.00     0.125 A 
ATOM     10  C   UNL A   1      32.623  18.711  24.434  1.00  0.00     0.173 C 
BRANCH   6  11
ATOM     11  C   UNL A   1      32.554  22.930  26.695  1.00  0.00     0.277 C 
ATOM     12  N   UNL A   1      32.211  24.202  26.274  1.00  0.00    -0.320 N 
ATOM     13  H   UNL A   1      31.905  24.794  26.998  1.00  0.00     0.170 HD
ATOM     14  O   UNL A   1      32.371  22.711  27.899  1.00  0.00    -0.267 OA
BRANCH  12  15
ATOM     15  C   UNL A   1      32.219  24.803  25.009  1.00  0.00     0.044 A 
ATOM     16  C   UNL A   1      32.873  25.415  22.367  1.00  0.00     0.119 A 
ATOM     17  C   UNL A   1      31.802  24.567  22.637  1.00  0.00     0.048 A 
ATOM     18  C   UNL A   1      33.471  26.112  23.419  1.00  0.00     0.052 A 
ATOM     19  C   UNL A   1      31.468  24.271  23.960  1.00  0.00     0.030 A 
ATOM     20  C   UNL A   1      33.107  25.866  24.755  1.00  0.00    -0.024 A 
ATOM     21  C   UNL A   1      33.788  26.685  25.818  1.00  0.00     0.047 C 
BRANCH  16  22
ATOM     22  O   UNL A   1      33.425  25.622  21.132  1.00  0.00    -0.497 OA
ATOM     23  C   UNL A   1      32.510  25.656  20.043  1.00  0.00     0.278 C 
ENDBRANCH  16  22
ENDBRANCH  12  15
ENDBRANCH   6  11
ENDBRANCH   3   5
ENDBRANCH   2   3
ENDBRANCH   1   2
BRANCH   1  24
ATOM     24  C   UNL A   1      39.382  22.434  26.510  1.00  0.00     0.275 C 
BRANCH  24  25
ATOM     25  O   UNL A   1      39.468  23.455  27.552  1.00  0.00    -0.458 OA
BRANCH  25  26
ATOM     26  C   UNL A   1      40.600  24.168  27.802  1.00  0.00     0.338 C 
ATOM     27  O   UNL A   1      41.646  23.723  28.241  1.00  0.00    -0.246 OA
BRANCH  26  28
ATOM     28  C   UNL A   1      40.313  25.601  27.802  1.00  0.00     0.060 A 
ATOM     29  C   UNL A   1      40.648  26.427  26.714  1.00  0.00     0.016 A 
ATOM     30  C   UNL A   1      39.597  26.073  28.898  1.00  0.00     0.016 A 
ATOM     31  C   UNL A   1      40.244  27.752  26.721  1.00  0.00     0.010 A 
ATOM     32  C   UNL A   1      39.037  27.309  28.832  1.00  0.00     0.010 A 
ATOM     33  C   UNL A   1      39.515  28.175  27.832  1.00  0.00    -0.014 A 
BRANCH  33  34
ATOM     34  C   UNL A   1      39.810  29.449  28.468  1.00  0.00     0.031 A 
ATOM     35  C   UNL A   1      38.731  30.428  28.604  1.00  0.00     0.074 A 
ATOM     36  C   UNL A   1      40.853  29.247  29.318  1.00  0.00     0.049 A 
ATOM     37  N   UNL A   1      38.918  31.643  28.967  1.00  0.00    -0.248 NA
ATOM     38  C   UNL A   1      37.323  30.126  28.316  1.00  0.00     0.031 C 
ATOM     39  C   UNL A   1      41.100  29.706  30.674  1.00  0.00     0.029 A 
ATOM     40  N   UNL A   1      41.920  28.354  29.096  1.00  0.00    -0.354 N 
ATOM     41  C   UNL A   1      37.688  32.092  29.391  1.00  0.00     0.074 A 
ATOM     42  C   UNL A   1      36.716  31.233  28.760  1.00  0.00     0.031 C 
ATOM     43  C   UNL A   1      42.356  29.347  31.025  1.00  0.00     0.029 A 
ATOM     44  C   UNL A   1      43.011  28.763  29.859  1.00  0.00     0.049 A 
ATOM     45  H   UNL A   1      41.897  27.568  28.502  1.00  0.00     0.167 HD
ATOM     46  C   UNL A   1      37.637  32.937  30.461  1.00  0.00     0.037 A 
ATOM     47  C   UNL A   1      44.049  29.285  29.137  1.00  0.00     0.037 A 
ATOM     48  C   UNL A   1      38.977  33.083  31.047  1.00  0.00     0.049 A 
ATOM     49  C   UNL A   1      44.014  30.803  29.162  1.00  0.00     0.074 A 
ATOM     50  C   UNL A   1      39.620  32.546  32.151  1.00  0.00     0.029 A 
ATOM     51  N   UNL A   1      39.986  33.569  30.245  1.00  0.00    -0.354 N 
ATOM     52  N   UNL A   1      43.154  31.506  29.847  1.00  0.00    -0.248 NA
ATOM     53  C   UNL A   1      44.879  31.640  28.336  1.00  0.00     0.031 C 
ATOM     54  C   UNL A   1      41.032  32.729  31.978  1.00  0.00     0.029 A 
ATOM     55  C   UNL A   1      41.244  33.363  30.766  1.00  0.00     0.049 A 
ATOM     56  H   UNL A   1      39.823  34.020  29.385  1.00  0.00     0.167 HD
ATOM     57  C   UNL A   1      43.238  32.816  29.489  1.00  0.00     0.074 A 
ATOM     58  C   UNL A   1      44.345  32.855  28.545  1.00  0.00     0.031 C 
ATOM     59  C   UNL A   1      42.376  33.771  29.945  1.00  0.00     0.037 A 
BRANCH  46  60
ATOM     60  C   UNL A   1      36.378  33.413  31.140  1.00  0.00     0.064 A 
ATOM     61  C   UNL A   1      35.443  34.199  30.436  1.00  0.00     0.173 A 
ATOM     62  C   UNL A   1      35.996  33.073  32.454  1.00  0.00     0.173 A 
ATOM     63  F   UNL A   1      35.630  34.533  29.153  1.00  0.00    -0.203 F 
ATOM     64  C   UNL A   1      34.260  34.661  31.013  1.00  0.00     0.198 A 
ATOM     65  C   UNL A   1      34.829  33.571  33.047  1.00  0.00     0.198 A 
ATOM     66  F   UNL A   1      36.704  32.204  33.187  1.00  0.00    -0.203 F 
ATOM     67  F   UNL A   1      33.409  35.393  30.280  1.00  0.00    -0.200 F 
ATOM     68  C   UNL A   1      33.961  34.365  32.325  1.00  0.00     0.200 A 
ATOM     69  F   UNL A   1      34.543  33.259  34.320  1.00  0.00    -0.200 F 
ATOM     70  F   UNL A   1      32.830  34.818  32.881  1.00  0.00    -0.200 F 
ENDBRANCH  46  60
BRANCH  47  71
ATOM     71  C   UNL A   1      44.334  28.451  27.909  1.00  0.00     0.064 A 
ATOM     72  C   UNL A   1      45.013  27.220  28.069  1.00  0.00     0.173 A 
ATOM     73  C   UNL A   1      43.662  28.642  26.693  1.00  0.00     0.173 A 
ATOM     74  F   UNL A   1      45.668  26.959  29.212  1.00  0.00    -0.203 F 
ATOM     75  C   UNL A   1      44.936  26.205  27.111  1.00  0.00     0.198 A 
ATOM     76  C   UNL A   1      43.605  27.634  25.727  1.00  0.00     0.198 A 
ATOM     77  F   UNL A   1      42.964  29.763  26.466  1.00  0.00    -0.203 F 
ATOM     78  F   UNL A   1      45.504  25.014  27.344  1.00  0.00    -0.200 F 
ATOM     79  C   UNL A   1      44.214  26.409  25.948  1.00  0.00     0.200 A 
ATOM     80  F   UNL A   1      42.890  27.820  24.610  1.00  0.00    -0.200 F 
ATOM     81  F   UNL A   1      44.055  25.414  25.064  1.00  0.00    -0.200 F 
ENDBRANCH  47  71
BRANCH  59  82
ATOM     82  C   UNL A   1      42.550  35.219  29.595  1.00  0.00     0.064 A 
ATOM     83  C   UNL A   1      41.990  35.745  28.423  1.00  0.00     0.173 A 
ATOM     84  C   UNL A   1      43.377  36.094  30.334  1.00  0.00     0.173 A 
ATOM     85  F   UNL A   1      41.257  34.974  27.605  1.00  0.00    -0.203 F 
ATOM     86  C   UNL A   1      42.185  37.074  28.054  1.00  0.00     0.198 A 
ATOM     87  C   UNL A   1      43.639  37.392  29.917  1.00  0.00     0.198 A 
ATOM     88  F   UNL A   1      43.934  35.742  31.500  1.00  0.00    -0.203 F 
ATOM     89  F   UNL A   1      41.561  37.557  26.973  1.00  0.00    -0.200 F 
ATOM     90  C   UNL A   1      43.024  37.891  28.791  1.00  0.00     0.200 A 
ATOM     91  F   UNL A   1      44.486  38.155  30.624  1.00  0.00    -0.200 F 
ATOM     92  F   UNL A   1      43.234  39.159  28.418  1.00  0.00    -0.200 F 
ENDBRANCH  59  82
ENDBRANCH  33  34
ENDBRANCH  26  28
ENDBRANCH  25  26
ENDBRANCH  24  25
ENDBRANCH   1  24
TORSDOF 14
ENDMDL
MODEL 2
REMARK VINA RESULT:     -12.8      3.826     10.016
REMARK SMILES COc1ccc(NC(=O)c2nn(C)cc2C(=O)OCCOC(=O)c2ccc(-c3c4nc(c(-c5c(F)c(F)c(F)c(F)c5F)c5ccc([nH]5)c(-c5c(F)c(F)c(F)c(F)c5F)c5nc(c(-c6c(F)c(F)c(F)c(F)c6F)c6ccc3[nH]6)C=C5)C=C4)cc2)c(C)c1
REMARK SMILES IDX 19 1 18 2 16 3 17 4 15 5 10 6 11 7 12 8 14 9 13 10 8 11 7 12
REMARK SMILES IDX 9 14 6 15 3 16 4 17 89 18 5 19 87 20 88 21 2 22 1 23 20 24
REMARK SMILES IDX 21 25 22 26 23 27 24 28 25 29 86 30 26 31 85 32 27 33 28 34
REMARK SMILES IDX 29 35 79 36 30 37 84 38 78 39 80 40 31 41 83 42 77 43 76 44
REMARK SMILES IDX 32 46 64 47 44 48 63 49 45 50 48 51 62 52 81 53 46 54 47 55
REMARK SMILES IDX 61 57 82 58 49 59 33 60 34 61 42 62 35 63 36 64 40 65 43 66
REMARK SMILES IDX 37 67 38 68 41 69 39 70 65 71 66 72 74 73 67 74 68 75 72 76
REMARK SMILES IDX 75 77 69 78 70 79 73 80 71 81 50 82 51 83 59 84 52 85 53 86
REMARK SMILES IDX 57 87 60 88 54 89 55 90 58 91 56 92
REMARK H PARENT 7 13 80 45 48 56
REMARK Flexibility Score: inf
ROOT
ATOM      1  C   UNL A   1      33.545  30.080  27.383  1.00  0.00     0.275 C 
ENDROOT
BRANCH   1   2
ATOM      2  O   UNL A   1      32.898  29.940  26.075  1.00  0.00    -0.458 OA
BRANCH   2   3
ATOM      3  C   UNL A   1      32.957  28.781  25.376  1.00  0.00     0.342 C 
ATOM      4  O   UNL A   1      33.752  27.894  25.677  1.00  0.00    -0.246 OA
BRANCH   3   5
ATOM      5  C   UNL A   1      32.037  28.649  24.264  1.00  0.00     0.111 A 
ATOM      6  C   UNL A   1      32.076  27.783  23.099  1.00  0.00     0.165 A 
ATOM      7  N   UNL A   1      30.961  27.967  22.359  1.00  0.00    -0.167 NA
ATOM      8  N   UNL A   1      30.275  28.929  22.974  1.00  0.00    -0.274 N 
ATOM      9  C   UNL A   1      30.880  29.397  24.096  1.00  0.00     0.125 A 
ATOM     10  C   UNL A   1      29.003  29.333  22.422  1.00  0.00     0.173 C 
BRANCH   6  11
ATOM     11  C   UNL A   1      33.121  26.894  22.521  1.00  0.00     0.277 C 
ATOM     12  N   UNL A   1      33.406  25.610  22.948  1.00  0.00    -0.320 N 
ATOM     13  H   UNL A   1      34.192  25.209  22.513  1.00  0.00     0.170 HD
ATOM     14  O   UNL A   1      33.856  27.321  21.622  1.00  0.00    -0.267 OA
BRANCH  12  15
ATOM     15  C   UNL A   1      32.782  24.775  23.884  1.00  0.00     0.044 A 
ATOM     16  C   UNL A   1      31.296  23.887  26.071  1.00  0.00     0.119 A 
ATOM     17  C   UNL A   1      30.708  23.942  24.809  1.00  0.00     0.048 A 
ATOM     18  C   UNL A   1      32.674  24.076  26.188  1.00  0.00     0.052 A 
ATOM     19  C   UNL A   1      31.457  24.374  23.713  1.00  0.00     0.030 A 
ATOM     20  C   UNL A   1      33.453  24.459  25.081  1.00  0.00    -0.024 A 
ATOM     21  C   UNL A   1      34.934  24.613  25.300  1.00  0.00     0.047 C 
BRANCH  16  22
ATOM     22  O   UNL A   1      30.625  23.680  27.246  1.00  0.00    -0.497 OA
ATOM     23  C   UNL A   1      29.594  22.700  27.205  1.00  0.00     0.278 C 
ENDBRANCH  16  22
ENDBRANCH  12  15
ENDBRANCH   6  11
ENDBRANCH   3   5
ENDBRANCH   2   3
ENDBRANCH   1   2
BRANCH   1  24
ATOM     24  C   UNL A   1      34.557  31.222  27.730  1.00  0.00     0.275 C 
BRANCH  24  25
ATOM     25  O   UNL A   1      35.999  31.111  27.516  1.00  0.00    -0.458 OA
BRANCH  25  26
ATOM     26  C   UNL A   1      36.915  31.342  28.496  1.00  0.00     0.338 C 
ATOM     27  O   UNL A   1      37.274  32.434  28.901  1.00  0.00    -0.246 OA
BRANCH  26  28
ATOM     28  C   UNL A   1      37.677  30.127  28.781  1.00  0.00     0.060 A 
ATOM     29  C   UNL A   1      37.405  29.325  29.903  1.00  0.00     0.016 A 
ATOM     30  C   UNL A   1      38.614  29.763  27.819  1.00  0.00     0.016 A 
ATOM     31  C   UNL A   1      38.080  28.124  30.055  1.00  0.00     0.010 A 
ATOM     32  C   UNL A   1      39.140  28.511  27.857  1.00  0.00     0.010 A 
ATOM     33  C   UNL A   1      38.996  27.793  29.058  1.00  0.00    -0.014 A 
BRANCH  33  34
ATOM     34  C   UNL A   1      40.304  27.262  29.402  1.00  0.00     0.031 A 
ATOM     35  C   UNL A   1      40.698  25.964  28.854  1.00  0.00     0.074 A 
ATOM     36  C   UNL A   1      41.114  28.320  29.678  1.00  0.00     0.049 A 
ATOM     37  N   UNL A   1      41.734  25.315  29.241  1.00  0.00    -0.248 NA
ATOM     38  C   UNL A   1      39.933  25.257  27.818  1.00  0.00     0.031 C 
ATOM     39  C   UNL A   1      42.489  28.609  29.312  1.00  0.00     0.029 A 
ATOM     40  N   UNL A   1      40.701  29.519  30.294  1.00  0.00    -0.354 N 
ATOM     41  C   UNL A   1      42.001  24.416  28.233  1.00  0.00     0.074 A 
ATOM     42  C   UNL A   1      40.760  24.250  27.515  1.00  0.00     0.031 C 
ATOM     43  C   UNL A   1      42.878  29.731  29.960  1.00  0.00     0.029 A 
ATOM     44  C   UNL A   1      41.812  30.129  30.873  1.00  0.00     0.049 A 
ATOM     45  H   UNL A   1      39.781  29.868  30.311  1.00  0.00     0.167 HD
ATOM     46  C   UNL A   1      43.303  24.148  27.927  1.00  0.00     0.037 A 
ATOM     47  C   UNL A   1      41.831  30.102  32.240  1.00  0.00     0.037 A 
ATOM     48  C   UNL A   1      44.189  25.034  28.696  1.00  0.00     0.049 A 
ATOM     49  C   UNL A   1      42.725  28.982  32.745  1.00  0.00     0.074 A 
ATOM     50  C   UNL A   1      44.894  26.192  28.410  1.00  0.00     0.029 A 
ATOM     51  N   UNL A   1      44.118  24.987  30.071  1.00  0.00    -0.354 N 
ATOM     52  N   UNL A   1      43.438  28.207  31.973  1.00  0.00    -0.248 NA
ATOM     53  C   UNL A   1      42.803  28.586  34.148  1.00  0.00     0.031 C 
ATOM     54  C   UNL A   1      45.236  26.825  29.651  1.00  0.00     0.029 A 
ATOM     55  C   UNL A   1      44.728  26.059  30.685  1.00  0.00     0.049 A 
ATOM     56  H   UNL A   1      43.677  24.260  30.565  1.00  0.00     0.167 HD
ATOM     57  C   UNL A   1      43.946  27.175  32.698  1.00  0.00     0.074 A 
ATOM     58  C   UNL A   1      43.532  27.462  34.063  1.00  0.00     0.031 C 
ATOM     59  C   UNL A   1      44.629  26.134  32.137  1.00  0.00     0.037 A 
BRANCH  46  60
ATOM     60  C   UNL A   1      43.774  23.303  26.772  1.00  0.00     0.064 A 
ATOM     61  C   UNL A   1      43.415  21.942  26.692  1.00  0.00     0.173 A 
ATOM     62  C   UNL A   1      44.517  23.784  25.675  1.00  0.00     0.173 A 
ATOM     63  F   UNL A   1      42.642  21.363  27.620  1.00  0.00    -0.203 F 
ATOM     64  C   UNL A   1      43.819  21.115  25.643  1.00  0.00     0.198 A 
ATOM     65  C   UNL A   1      44.957  22.947  24.643  1.00  0.00     0.198 A 
ATOM     66  F   UNL A   1      44.793  25.088  25.533  1.00  0.00    -0.203 F 
ATOM     67  F   UNL A   1      43.429  19.833  25.624  1.00  0.00    -0.200 F 
ATOM     68  C   UNL A   1      44.606  21.612  24.627  1.00  0.00     0.200 A 
ATOM     69  F   UNL A   1      45.709  23.448  23.651  1.00  0.00    -0.200 F 
ATOM     70  F   UNL A   1      45.002  20.815  23.626  1.00  0.00    -0.200 F 
ENDBRANCH  46  60
BRANCH  47  71
ATOM     71  C   UNL A   1      40.475  30.444  32.812  1.00  0.00     0.064 A 
ATOM     72  C   UNL A   1      40.036  31.787  32.759  1.00  0.00     0.173 A 
ATOM     73  C   UNL A   1      39.492  29.473  33.059  1.00  0.00     0.173 A 
ATOM     74  F   UNL A   1      40.917  32.771  32.513  1.00  0.00    -0.203 F 
ATOM     75  C   UNL A   1      38.682  32.125  32.845  1.00  0.00     0.198 A 
ATOM     76  C   UNL A   1      38.141  29.817  33.167  1.00  0.00     0.198 A 
ATOM     77  F   UNL A   1      39.809  28.171  33.094  1.00  0.00    -0.203 F 
ATOM     78  F   UNL A   1      38.294  33.398  32.683  1.00  0.00    -0.200 F 
ATOM     79  C   UNL A   1      37.735  31.134  33.030  1.00  0.00     0.200 A 
ATOM     80  F   UNL A   1      37.220  28.857  33.324  1.00  0.00    -0.200 F 
ATOM     81  F   UNL A   1      36.428  31.432  33.021  1.00  0.00    -0.200 F 
ENDBRANCH  47  71
BRANCH  59  82
ATOM     82  C   UNL A   1      45.249  25.057  32.976  1.00  0.00     0.064 A 
ATOM     83  C   UNL A   1      46.617  25.082  33.278  1.00  0.00     0.173 A 
ATOM     84  C   UNL A   1      44.542  23.908  33.396  1.00  0.00     0.173 A 
ATOM     85  F   UNL A   1      47.396  26.088  32.853  1.00  0.00    -0.203 F 
ATOM     86  C   UNL A   1      47.221  24.064  34.011  1.00  0.00     0.198 A 
ATOM     87  C   UNL A   1      45.165  22.854  34.051  1.00  0.00     0.198 A 
ATOM     88  F   UNL A   1      43.220  23.774  33.221  1.00  0.00    -0.203 F 
ATOM     89  F   UNL A   1      48.511  24.171  34.351  1.00  0.00    -0.200 F 
ATOM     90  C   UNL A   1      46.500  22.942  34.381  1.00  0.00     0.200 A 
ATOM     91  F   UNL A   1      44.457  21.760  34.365  1.00  0.00    -0.200 F 
ATOM     92  F   UNL A   1      47.089  21.950  35.060  1.00  0.00    -0.200 F 
ENDBRANCH  59  82
ENDBRANCH  33  34
ENDBRANCH  26  28
ENDBRANCH  25  26
ENDBRANCH  24  25
ENDBRANCH   1  24
TORSDOF 14
ENDMDL
MODEL 3
REMARK VINA RESULT:     -12.4      3.963      9.531
REMARK SMILES COc1ccc(NC(=O)c2nn(C)cc2C(=O)OCCOC(=O)c2ccc(-c3c4nc(c(-c5c(F)c(F)c(F)c(F)c5F)c5ccc([nH]5)c(-c5c(F)c(F)c(F)c(F)c5F)c5nc(c(-c6c(F)c(F)c(F)c(F)c6F)c6ccc3[nH]6)C=C5)C=C4)cc2)c(C)c1
REMARK SMILES IDX 19 1 18 2 16 3 17 4 15 5 10 6 11 7 12 8 14 9 13 10 8 11 7 12
REMARK SMILES IDX 9 14 6 15 3 16 4 17 89 18 5 19 87 20 88 21 2 22 1 23 20 24
REMARK SMILES IDX 21 25 22 26 23 27 24 28 25 29 86 30 26 31 85 32 27 33 28 34
REMARK SMILES IDX 29 35 79 36 30 37 84 38 78 39 80 40 31 41 83 42 77 43 76 44
REMARK SMILES IDX 32 46 64 47 44 48 63 49 45 50 48 51 62 52 81 53 46 54 47 55
REMARK SMILES IDX 61 57 82 58 49 59 33 60 34 61 42 62 35 63 36 64 40 65 43 66
REMARK SMILES IDX 37 67 38 68 41 69 39 70 65 71 66 72 74 73 67 74 68 75 72 76
REMARK SMILES IDX 75 77 69 78 70 79 73 80 71 81 50 82 51 83 59 84 52 85 53 86
REMARK SMILES IDX 57 87 60 88 54 89 55 90 58 91 56 92
REMARK H PARENT 7 13 80 45 48 56
REMARK Flexibility Score: inf
ROOT
ATOM      1  C   UNL A   1      32.518  30.530  26.898  1.00  0.00     0.275 C 
ENDROOT
BRANCH   1   2
ATOM      2  O   UNL A   1      32.236  29.162  26.456  1.00  0.00    -0.458 OA
BRANCH   2   3
ATOM      3  C   UNL A   1      32.759  28.665  25.309  1.00  0.00     0.342 C 
ATOM      4  O   UNL A   1      33.943  28.347  25.234  1.00  0.00    -0.246 OA
BRANCH   3   5
ATOM      5  C   UNL A   1      31.849  28.532  24.189  1.00  0.00     0.111 A 
ATOM      6  C   UNL A   1      31.905  27.670  23.021  1.00  0.00     0.165 A 
ATOM      7  N   UNL A   1      30.794  27.849  22.272  1.00  0.00    -0.167 NA
ATOM      8  N   UNL A   1      30.097  28.804  22.885  1.00  0.00    -0.274 N 
ATOM      9  C   UNL A   1      30.688  29.272  24.013  1.00  0.00     0.125 A 
ATOM     10  C   UNL A   1      28.827  29.201  22.323  1.00  0.00     0.173 C 
BRANCH   6  11
ATOM     11  C   UNL A   1      32.961  26.791  22.449  1.00  0.00     0.277 C 
ATOM     12  N   UNL A   1      33.299  25.535  22.920  1.00  0.00    -0.320 N 
ATOM     13  H   UNL A   1      34.086  25.140  22.478  1.00  0.00     0.170 HD
ATOM     14  O   UNL A   1      33.656  27.202  21.511  1.00  0.00    -0.267 OA
BRANCH  12  15
ATOM     15  C   UNL A   1      32.730  24.722  23.907  1.00  0.00     0.044 A 
ATOM     16  C   UNL A   1      31.245  23.866  26.108  1.00  0.00     0.119 A 
ATOM     17  C   UNL A   1      30.724  23.728  24.824  1.00  0.00     0.048 A 
ATOM     18  C   UNL A   1      32.582  24.234  26.263  1.00  0.00     0.052 A 
ATOM     19  C   UNL A   1      31.473  24.145  23.722  1.00  0.00     0.030 A 
ATOM     20  C   UNL A   1      33.369  24.605  25.157  1.00  0.00    -0.024 A 
ATOM     21  C   UNL A   1      34.807  24.960  25.421  1.00  0.00     0.047 C 
BRANCH  16  22
ATOM     22  O   UNL A   1      30.541  23.689  27.269  1.00  0.00    -0.497 OA
ATOM     23  C   UNL A   1      29.433  22.800  27.191  1.00  0.00     0.278 C 
ENDBRANCH  16  22
ENDBRANCH  12  15
ENDBRANCH   6  11
ENDBRANCH   3   5
ENDBRANCH   2   3
ENDBRANCH   1   2
BRANCH   1  24
ATOM     24  C   UNL A   1      33.958  31.060  27.208  1.00  0.00     0.275 C 
BRANCH  24  25
ATOM     25  O   UNL A   1      34.588  30.955  28.524  1.00  0.00    -0.458 OA
BRANCH  25  26
ATOM     26  C   UNL A   1      34.909  32.038  29.282  1.00  0.00     0.338 C 
ATOM     27  O   UNL A   1      34.321  33.106  29.294  1.00  0.00    -0.246 OA
BRANCH  26  28
ATOM     28  C   UNL A   1      36.252  31.893  29.840  1.00  0.00     0.060 A 
ATOM     29  C   UNL A   1      37.365  32.547  29.280  1.00  0.00     0.016 A 
ATOM     30  C   UNL A   1      36.340  31.155  31.016  1.00  0.00     0.016 A 
ATOM     31  C   UNL A   1      38.590  32.468  29.923  1.00  0.00     0.010 A 
ATOM     32  C   UNL A   1      37.482  31.226  31.750  1.00  0.00     0.010 A 
ATOM     33  C   UNL A   1      38.625  31.732  31.106  1.00  0.00    -0.014 A 
BRANCH  33  34
ATOM     34  C   UNL A   1      39.713  30.803  31.367  1.00  0.00     0.031 A 
ATOM     35  C   UNL A   1      39.769  29.559  30.597  1.00  0.00     0.074 A 
ATOM     36  C   UNL A   1      40.763  31.527  31.841  1.00  0.00     0.049 A 
ATOM     37  N   UNL A   1      40.559  28.589  30.874  1.00  0.00    -0.248 NA
ATOM     38  C   UNL A   1      38.906  29.284  29.441  1.00  0.00     0.031 C 
ATOM     39  C   UNL A   1      42.185  31.474  31.552  1.00  0.00     0.029 A 
ATOM     40  N   UNL A   1      40.657  32.670  32.658  1.00  0.00    -0.354 N 
ATOM     41  C   UNL A   1      40.633  27.837  29.724  1.00  0.00     0.074 A 
ATOM     42  C   UNL A   1      39.443  28.152  28.970  1.00  0.00     0.031 C 
ATOM     43  C   UNL A   1      42.825  32.313  32.398  1.00  0.00     0.029 A 
ATOM     44  C   UNL A   1      41.853  32.834  33.353  1.00  0.00     0.049 A 
ATOM     45  H   UNL A   1      39.869  33.257  32.726  1.00  0.00     0.167 HD
ATOM     46  C   UNL A   1      41.828  27.268  29.392  1.00  0.00     0.037 A 
ATOM     47  C   UNL A   1      41.777  32.570  34.693  1.00  0.00     0.037 A 
ATOM     48  C   UNL A   1      42.873  27.724  30.321  1.00  0.00     0.049 A 
ATOM     49  C   UNL A   1      42.295  31.175  34.998  1.00  0.00     0.074 A 
ATOM     50  C   UNL A   1      43.885  28.668  30.259  1.00  0.00     0.029 A 
ATOM     51  N   UNL A   1      42.704  27.466  31.663  1.00  0.00    -0.354 N 
ATOM     52  N   UNL A   1      42.815  30.374  34.108  1.00  0.00    -0.248 NA
ATOM     53  C   UNL A   1      42.171  30.541  36.307  1.00  0.00     0.031 C 
ATOM     54  C   UNL A   1      44.308  28.958  31.598  1.00  0.00     0.029 A 
ATOM     55  C   UNL A   1      43.544  28.201  32.469  1.00  0.00     0.049 A 
ATOM     56  H   UNL A   1      42.049  26.819  32.011  1.00  0.00     0.167 HD
ATOM     57  C   UNL A   1      42.973  29.133  34.641  1.00  0.00     0.074 A 
ATOM     58  C   UNL A   1      42.567  29.288  36.029  1.00  0.00     0.031 C 
ATOM     59  C   UNL A   1      43.377  28.053  33.910  1.00  0.00     0.037 A 
BRANCH  46  60
ATOM     60  C   UNL A   1      42.121  26.535  28.109  1.00  0.00     0.064 A 
ATOM     61  C   UNL A   1      42.346  27.250  26.914  1.00  0.00     0.173 A 
ATOM     62  C   UNL A   1      42.268  25.137  27.997  1.00  0.00     0.173 A 
ATOM     63  F   UNL A   1      42.321  28.589  26.882  1.00  0.00    -0.203 F 
ATOM     64  C   UNL A   1      42.626  26.623  25.700  1.00  0.00     0.198 A 
ATOM     65  C   UNL A   1      42.509  24.505  26.772  1.00  0.00     0.198 A 
ATOM     66  F   UNL A   1      42.243  24.342  29.076  1.00  0.00    -0.203 F 
ATOM     67  F   UNL A   1      42.843  27.366  24.606  1.00  0.00    -0.200 F 
ATOM     68  C   UNL A   1      42.689  25.248  25.623  1.00  0.00     0.200 A 
ATOM     69  F   UNL A   1      42.585  23.166  26.716  1.00  0.00    -0.200 F 
ATOM     70  F   UNL A   1      42.949  24.647  24.455  1.00  0.00    -0.200 F 
ENDBRANCH  46  60
BRANCH  47  71
ATOM     71  C   UNL A   1      40.533  33.178  35.299  1.00  0.00     0.064 A 
ATOM     72  C   UNL A   1      39.417  32.342  35.537  1.00  0.00     0.173 A 
ATOM     73  C   UNL A   1      40.543  34.415  35.963  1.00  0.00     0.173 A 
ATOM     74  F   UNL A   1      39.345  31.138  34.947  1.00  0.00    -0.203 F 
ATOM     75  C   UNL A   1      38.425  32.681  36.461  1.00  0.00     0.198 A 
ATOM     76  C   UNL A   1      39.537  34.760  36.870  1.00  0.00     0.198 A 
ATOM     77  F   UNL A   1      41.575  35.258  35.825  1.00  0.00    -0.203 F 
ATOM     78  F   UNL A   1      37.439  31.817  36.738  1.00  0.00    -0.200 F 
ATOM     79  C   UNL A   1      38.498  33.884  37.141  1.00  0.00     0.200 A 
ATOM     80  F   UNL A   1      39.616  35.914  37.545  1.00  0.00    -0.200 F 
ATOM     81  F   UNL A   1      37.605  34.181  38.096  1.00  0.00    -0.200 F 
ENDBRANCH  47  71
BRANCH  59  82
ATOM     82  C   UNL A   1      43.622  26.718  34.548  1.00  0.00     0.064 A 
ATOM     83  C   UNL A   1      44.926  26.232  34.713  1.00  0.00     0.173 A 
ATOM     84  C   UNL A   1      42.580  25.830  34.895  1.00  0.00     0.173 A 
ATOM     85  F   UNL A   1      45.985  26.963  34.336  1.00  0.00    -0.203 F 
ATOM     86  C   UNL A   1      45.171  24.972  35.255  1.00  0.00     0.198 A 
ATOM     87  C   UNL A   1      42.827  24.543  35.353  1.00  0.00     0.198 A 
ATOM     88  F   UNL A   1      41.288  26.181  34.838  1.00  0.00    -0.203 F 
ATOM     89  F   UNL A   1      46.432  24.583  35.475  1.00  0.00    -0.200 F 
ATOM     90  C   UNL A   1      44.122  24.122  35.557  1.00  0.00     0.200 A 
ATOM     91  F   UNL A   1      41.797  23.721  35.603  1.00  0.00    -0.200 F 
ATOM     92  F   UNL A   1      44.360  22.900  36.050  1.00  0.00    -0.200 F 
ENDBRANCH  59  82
ENDBRANCH  33  34
ENDBRANCH  26  28
ENDBRANCH  25  26
ENDBRANCH  24  25
ENDBRANCH   1  24
TORSDOF 14
ENDMDL
