MODEL 1
REMARK VINA RESULT:     -12.1      0.000      0.000
REMARK SMILES O=C(OCCOC(=O)[C@@H]1[C@@H](C(=O)NCCCn2ccnc2)[C@@H]2C=C[C@H]1C2)c1ccc(-c2c3nc(c(-c4c(F)c(F)c(F)c(F)c4F)c4ccc([nH]4)c(-c4c(F)c(F)c(F)c(F)c4F)c4nc(c(-c5c(F)c(F)c(F)c(F)c5F)c5ccc2[nH]5)C=C4)C=C3)cc1
REMARK SMILES IDX 6 1 5 2 4 3 3 4 2 5 1 6 27 7 28 8 89 9 29 10 88 11 30 12
REMARK SMILES IDX 31 13 32 14 82 15 33 16 87 17 81 18 83 19 34 20 86 21 80 22
REMARK SMILES IDX 79 23 35 25 67 26 47 27 66 28 48 29 51 30 65 31 84 32 49 33
REMARK SMILES IDX 50 34 64 36 85 37 52 38 36 39 37 40 45 41 38 42 39 43 43 44
REMARK SMILES IDX 46 45 40 46 41 47 44 48 42 49 68 50 69 51 77 52 70 53 71 54
REMARK SMILES IDX 75 55 78 56 72 57 73 58 76 59 74 60 53 61 54 62 62 63 55 64
REMARK SMILES IDX 56 65 60 66 63 67 57 68 58 69 61 70 59 71 7 72 8 73 9 74
REMARK SMILES IDX 10 75 25 76 22 77 24 78 26 79 23 80 11 81 12 82 13 83 14 85
REMARK SMILES IDX 15 86 16 87 17 88 18 89 21 90 19 91 20 92
REMARK H PARENT 83 24 51 35 13 84
REMARK Flexibility Score: inf
ROOT
ATOM      1  O   UNL A   1      37.427  20.375  24.659  1.00  0.00    -0.462 OA
ENDROOT
BRANCH   1   2
ATOM      2  C   UNL A   1      38.193  19.297  25.239  1.00  0.00     0.274 C 
BRANCH   2   3
ATOM      3  C   UNL A   1      39.651  19.656  25.544  1.00  0.00     0.275 C 
BRANCH   3   4
ATOM      4  O   UNL A   1      40.619  18.593  25.588  1.00  0.00    -0.458 OA
BRANCH   4   5
ATOM      5  C   UNL A   1      41.890  18.879  25.947  1.00  0.00     0.338 C 
ATOM      6  O   UNL A   1      42.840  18.178  25.668  1.00  0.00    -0.246 OA
BRANCH   5   7
ATOM      7  C   UNL A   1      42.053  20.236  26.539  1.00  0.00     0.060 A 
ATOM      8  C   UNL A   1      42.824  21.260  25.979  1.00  0.00     0.016 A 
ATOM      9  C   UNL A   1      41.308  20.495  27.692  1.00  0.00     0.016 A 
ATOM     10  C   UNL A   1      42.896  22.510  26.592  1.00  0.00     0.010 A 
ATOM     11  C   UNL A   1      41.297  21.770  28.239  1.00  0.00     0.010 A 
ATOM     12  C   UNL A   1      42.139  22.771  27.736  1.00  0.00    -0.014 A 
BRANCH  12  13
ATOM     13  C   UNL A   1      42.240  24.070  28.426  1.00  0.00     0.031 A 
ATOM     14  C   UNL A   1      41.158  25.126  28.238  1.00  0.00     0.074 A 
ATOM     15  C   UNL A   1      43.243  24.246  29.319  1.00  0.00     0.049 A 
ATOM     16  N   UNL A   1      41.174  26.378  28.608  1.00  0.00    -0.248 NA
ATOM     17  C   UNL A   1      39.892  24.758  27.572  1.00  0.00     0.031 C 
ATOM     18  C   UNL A   1      44.279  23.300  29.765  1.00  0.00     0.029 A 
ATOM     19  N   UNL A   1      43.487  25.328  30.106  1.00  0.00    -0.354 N 
ATOM     20  C   UNL A   1      39.931  26.925  28.283  1.00  0.00     0.074 A 
ATOM     21  C   UNL A   1      39.192  25.894  27.599  1.00  0.00     0.031 C 
ATOM     22  C   UNL A   1      44.865  23.759  30.891  1.00  0.00     0.029 A 
ATOM     23  C   UNL A   1      44.386  25.104  31.137  1.00  0.00     0.049 A 
ATOM     24  H   UNL A   1      43.058  26.201  29.955  1.00  0.00     0.167 HD
ATOM     25  C   UNL A   1      39.663  28.246  28.087  1.00  0.00     0.037 A 
ATOM     26  C   UNL A   1      44.707  25.960  32.134  1.00  0.00     0.037 A 
ATOM     27  C   UNL A   1      40.754  28.926  27.473  1.00  0.00     0.049 A 
ATOM     28  C   UNL A   1      44.347  27.320  31.667  1.00  0.00     0.074 A 
ATOM     29  C   UNL A   1      41.294  28.896  26.205  1.00  0.00     0.029 A 
ATOM     30  N   UNL A   1      41.692  29.532  28.266  1.00  0.00    -0.354 N 
ATOM     31  N   UNL A   1      44.948  27.928  30.683  1.00  0.00    -0.248 NA
ATOM     32  C   UNL A   1      43.013  27.803  31.991  1.00  0.00     0.031 C 
ATOM     33  C   UNL A   1      42.699  28.958  26.423  1.00  0.00     0.029 A 
ATOM     34  C   UNL A   1      42.904  29.100  27.797  1.00  0.00     0.049 A 
ATOM     35  H   UNL A   1      41.530  30.147  29.016  1.00  0.00     0.167 HD
ATOM     36  C   UNL A   1      43.928  28.560  29.990  1.00  0.00     0.074 A 
ATOM     37  C   UNL A   1      42.770  28.509  30.883  1.00  0.00     0.031 C 
ATOM     38  C   UNL A   1      44.029  28.821  28.654  1.00  0.00     0.037 A 
BRANCH  25  39
ATOM     39  C   UNL A   1      38.739  28.958  29.034  1.00  0.00     0.064 A 
ATOM     40  C   UNL A   1      38.762  28.663  30.410  1.00  0.00     0.173 A 
ATOM     41  C   UNL A   1      37.675  29.760  28.586  1.00  0.00     0.173 A 
ATOM     42  F   UNL A   1      39.720  27.873  30.917  1.00  0.00    -0.203 F 
ATOM     43  C   UNL A   1      37.761  29.118  31.274  1.00  0.00     0.198 A 
ATOM     44  C   UNL A   1      36.707  30.256  29.457  1.00  0.00     0.198 A 
ATOM     45  F   UNL A   1      37.494  29.989  27.279  1.00  0.00    -0.203 F 
ATOM     46  F   UNL A   1      37.762  28.735  32.558  1.00  0.00    -0.200 F 
ATOM     47  C   UNL A   1      36.736  29.918  30.797  1.00  0.00     0.200 A 
ATOM     48  F   UNL A   1      35.711  31.011  28.973  1.00  0.00    -0.200 F 
ATOM     49  F   UNL A   1      35.754  30.322  31.613  1.00  0.00    -0.200 F 
ENDBRANCH  25  39
BRANCH  26  50
ATOM     50  C   UNL A   1      45.037  25.654  33.542  1.00  0.00     0.064 A 
ATOM     51  C   UNL A   1      44.047  25.232  34.441  1.00  0.00     0.173 A 
ATOM     52  C   UNL A   1      46.375  25.495  33.955  1.00  0.00     0.173 A 
ATOM     53  F   UNL A   1      42.753  25.312  34.105  1.00  0.00    -0.203 F 
ATOM     54  C   UNL A   1      44.376  24.653  35.671  1.00  0.00     0.198 A 
ATOM     55  C   UNL A   1      46.702  24.922  35.185  1.00  0.00     0.198 A 
ATOM     56  F   UNL A   1      47.389  25.802  33.132  1.00  0.00    -0.203 F 
ATOM     57  F   UNL A   1      43.406  24.201  36.477  1.00  0.00    -0.200 F 
ATOM     58  C   UNL A   1      45.702  24.487  36.036  1.00  0.00     0.200 A 
ATOM     59  F   UNL A   1      47.988  24.732  35.509  1.00  0.00    -0.200 F 
ATOM     60  F   UNL A   1      46.018  23.871  37.185  1.00  0.00    -0.200 F 
ENDBRANCH  26  50
BRANCH  38  61
ATOM     61  C   UNL A   1      45.338  28.574  27.960  1.00  0.00     0.064 A 
ATOM     62  C   UNL A   1      45.640  27.398  27.252  1.00  0.00     0.173 A 
ATOM     63  C   UNL A   1      46.222  29.652  27.821  1.00  0.00     0.173 A 
ATOM     64  F   UNL A   1      44.797  26.362  27.235  1.00  0.00    -0.203 F 
ATOM     65  C   UNL A   1      46.788  27.299  26.469  1.00  0.00     0.198 A 
ATOM     66  C   UNL A   1      47.347  29.564  27.006  1.00  0.00     0.198 A 
ATOM     67  F   UNL A   1      45.951  30.824  28.417  1.00  0.00    -0.203 F 
ATOM     68  F   UNL A   1      47.045  26.167  25.796  1.00  0.00    -0.200 F 
ATOM     69  C   UNL A   1      47.633  28.386  26.337  1.00  0.00     0.200 A 
ATOM     70  F   UNL A   1      48.127  30.640  26.833  1.00  0.00    -0.200 F 
ATOM     71  F   UNL A   1      48.705  28.312  25.536  1.00  0.00    -0.200 F 
ENDBRANCH  38  61
ENDBRANCH  12  13
ENDBRANCH   5   7
ENDBRANCH   4   5
ENDBRANCH   3   4
ENDBRANCH   2   3
ENDBRANCH   1   2
BRANCH   1  72
ATOM     72  C   UNL A   1      36.103  20.372  25.004  1.00  0.00     0.310 C 
ATOM     73  O   UNL A   1      35.326  19.472  24.704  1.00  0.00    -0.252 OA
BRANCH  72  74
ATOM     74  C   UNL A   1      35.639  21.683  25.627  1.00  0.00     0.119 C 
ATOM     75  C   UNL A   1      34.152  22.136  25.377  1.00  0.00     0.100 C 
ATOM     76  C   UNL A   1      36.437  22.890  25.063  1.00  0.00     0.027 C 
ATOM     77  C   UNL A   1      34.326  23.515  24.717  1.00  0.00     0.025 C 
ATOM     78  C   UNL A   1      36.233  22.964  23.567  1.00  0.00    -0.027 C 
ATOM     79  C   UNL A   1      35.539  24.061  25.471  1.00  0.00     0.017 C 
ATOM     80  C   UNL A   1      34.958  23.313  23.358  1.00  0.00    -0.027 C 
BRANCH  75  81
ATOM     81  C   UNL A   1      33.412  22.020  26.698  1.00  0.00     0.224 C 
ATOM     82  O   UNL A   1      34.044  21.669  27.706  1.00  0.00    -0.275 OA
ATOM     83  N   UNL A   1      32.105  22.243  26.936  1.00  0.00    -0.356 N 
ATOM     84  H   UNL A   1      31.875  22.051  27.874  1.00  0.00     0.163 HD
BRANCH  83  85
ATOM     85  C   UNL A   1      30.940  22.688  26.186  1.00  0.00     0.117 C 
BRANCH  85  86
ATOM     86  C   UNL A   1      30.514  24.126  26.516  1.00  0.00     0.043 C 
BRANCH  86  87
ATOM     87  C   UNL A   1      31.321  25.252  25.883  1.00  0.00     0.125 C 
BRANCH  87  88
ATOM     88  N   UNL A   1      30.649  26.282  25.132  1.00  0.00    -0.337 N 
ATOM     89  C   UNL A   1      29.761  26.088  24.113  1.00  0.00     0.107 A 
ATOM     90  C   UNL A   1      31.081  27.579  25.059  1.00  0.00     0.199 A 
ATOM     91  C   UNL A   1      29.698  27.299  23.461  1.00  0.00     0.130 A 
ATOM     92  N   UNL A   1      30.521  28.216  24.058  1.00  0.00    -0.245 NA
ENDBRANCH  87  88
ENDBRANCH  86  87
ENDBRANCH  85  86
ENDBRANCH  83  85
ENDBRANCH  75  81
ENDBRANCH  72  74
ENDBRANCH   1  72
TORSDOF 16
ENDMDL
MODEL 2
REMARK VINA RESULT:     -12.1      3.519      7.572
REMARK SMILES O=C(OCCOC(=O)[C@@H]1[C@@H](C(=O)NCCCn2ccnc2)[C@@H]2C=C[C@H]1C2)c1ccc(-c2c3nc(c(-c4c(F)c(F)c(F)c(F)c4F)c4ccc([nH]4)c(-c4c(F)c(F)c(F)c(F)c4F)c4nc(c(-c5c(F)c(F)c(F)c(F)c5F)c5ccc2[nH]5)C=C4)C=C3)cc1
REMARK SMILES IDX 6 1 5 2 4 3 3 4 2 5 1 6 27 7 28 8 89 9 29 10 88 11 30 12
REMARK SMILES IDX 31 13 32 14 82 15 33 16 87 17 81 18 83 19 34 20 86 21 80 22
REMARK SMILES IDX 79 23 35 25 67 26 47 27 66 28 48 29 51 30 65 31 84 32 49 33
REMARK SMILES IDX 50 34 64 36 85 37 52 38 36 39 37 40 45 41 38 42 39 43 43 44
REMARK SMILES IDX 46 45 40 46 41 47 44 48 42 49 68 50 69 51 77 52 70 53 71 54
REMARK SMILES IDX 75 55 78 56 72 57 73 58 76 59 74 60 53 61 54 62 62 63 55 64
REMARK SMILES IDX 56 65 60 66 63 67 57 68 58 69 61 70 59 71 7 72 8 73 9 74
REMARK SMILES IDX 10 75 25 76 22 77 24 78 26 79 23 80 11 81 12 82 13 83 14 85
REMARK SMILES IDX 15 86 16 87 17 88 18 89 21 90 19 91 20 92
REMARK H PARENT 83 24 51 35 13 84
REMARK Flexibility Score: inf
ROOT
ATOM      1  O   UNL A   1      33.801  28.199  26.525  1.00  0.00    -0.462 OA
ENDROOT
BRANCH   1   2
ATOM      2  C   UNL A   1      33.121  29.020  27.498  1.00  0.00     0.274 C 
BRANCH   2   3
ATOM      3  C   UNL A   1      33.206  30.524  27.218  1.00  0.00     0.275 C 
BRANCH   3   4
ATOM      4  O   UNL A   1      34.500  31.150  27.249  1.00  0.00    -0.458 OA
BRANCH   4   5
ATOM      5  C   UNL A   1      35.020  31.523  28.440  1.00  0.00     0.338 C 
ATOM      6  O   UNL A   1      34.397  32.135  29.282  1.00  0.00    -0.246 OA
BRANCH   5   7
ATOM      7  C   UNL A   1      36.363  30.940  28.714  1.00  0.00     0.060 A 
ATOM      8  C   UNL A   1      37.542  31.683  28.839  1.00  0.00     0.016 A 
ATOM      9  C   UNL A   1      36.400  29.561  28.934  1.00  0.00     0.016 A 
ATOM     10  C   UNL A   1      38.752  31.052  29.123  1.00  0.00     0.010 A 
ATOM     11  C   UNL A   1      37.585  28.951  29.322  1.00  0.00     0.010 A 
ATOM     12  C   UNL A   1      38.784  29.676  29.356  1.00  0.00    -0.014 A 
BRANCH  12  13
ATOM     13  C   UNL A   1      40.060  28.984  29.610  1.00  0.00     0.031 A 
ATOM     14  C   UNL A   1      40.651  28.951  31.015  1.00  0.00     0.074 A 
ATOM     15  C   UNL A   1      40.621  28.280  28.597  1.00  0.00     0.049 A 
ATOM     16  N   UNL A   1      41.840  28.559  31.385  1.00  0.00    -0.248 NA
ATOM     17  C   UNL A   1      39.827  29.389  32.160  1.00  0.00     0.031 C 
ATOM     18  C   UNL A   1      40.127  28.049  27.230  1.00  0.00     0.029 A 
ATOM     19  N   UNL A   1      41.750  27.524  28.625  1.00  0.00    -0.354 N 
ATOM     20  C   UNL A   1      41.892  28.644  32.778  1.00  0.00     0.074 A 
ATOM     21  C   UNL A   1      40.637  29.209  33.204  1.00  0.00     0.031 C 
ATOM     22  C   UNL A   1      40.813  27.035  26.661  1.00  0.00     0.029 A 
ATOM     23  C   UNL A   1      41.906  26.676  27.540  1.00  0.00     0.049 A 
ATOM     24  H   UNL A   1      42.405  27.574  29.359  1.00  0.00     0.167 HD
ATOM     25  C   UNL A   1      43.021  28.756  33.532  1.00  0.00     0.037 A 
ATOM     26  C   UNL A   1      42.861  25.731  27.379  1.00  0.00     0.037 A 
ATOM     27  C   UNL A   1      44.019  29.539  32.885  1.00  0.00     0.049 A 
ATOM     28  C   UNL A   1      43.982  26.093  28.279  1.00  0.00     0.074 A 
ATOM     29  C   UNL A   1      44.131  30.883  32.600  1.00  0.00     0.029 A 
ATOM     30  N   UNL A   1      44.953  28.911  32.103  1.00  0.00    -0.354 N 
ATOM     31  N   UNL A   1      44.723  27.154  28.119  1.00  0.00    -0.248 NA
ATOM     32  C   UNL A   1      43.969  25.525  29.619  1.00  0.00     0.031 C 
ATOM     33  C   UNL A   1      44.700  30.917  31.297  1.00  0.00     0.029 A 
ATOM     34  C   UNL A   1      44.964  29.599  30.919  1.00  0.00     0.049 A 
ATOM     35  H   UNL A   1      45.500  28.129  32.342  1.00  0.00     0.167 HD
ATOM     36  C   UNL A   1      44.918  27.638  29.402  1.00  0.00     0.074 A 
ATOM     37  C   UNL A   1      44.494  26.554  30.289  1.00  0.00     0.031 C 
ATOM     38  C   UNL A   1      45.142  28.964  29.638  1.00  0.00     0.037 A 
BRANCH  25  39
ATOM     39  C   UNL A   1      43.394  27.643  34.470  1.00  0.00     0.064 A 
ATOM     40  C   UNL A   1      43.400  26.307  34.024  1.00  0.00     0.173 A 
ATOM     41  C   UNL A   1      43.525  27.838  35.855  1.00  0.00     0.173 A 
ATOM     42  F   UNL A   1      43.242  26.028  32.722  1.00  0.00    -0.203 F 
ATOM     43  C   UNL A   1      43.500  25.238  34.918  1.00  0.00     0.198 A 
ATOM     44  C   UNL A   1      43.676  26.773  36.740  1.00  0.00     0.198 A 
ATOM     45  F   UNL A   1      43.402  29.061  36.389  1.00  0.00    -0.203 F 
ATOM     46  F   UNL A   1      43.402  23.979  34.468  1.00  0.00    -0.200 F 
ATOM     47  C   UNL A   1      43.642  25.471  36.276  1.00  0.00     0.200 A 
ATOM     48  F   UNL A   1      43.791  27.018  38.053  1.00  0.00    -0.200 F 
ATOM     49  F   UNL A   1      43.696  24.449  37.139  1.00  0.00    -0.200 F 
ENDBRANCH  25  39
BRANCH  26  50
ATOM     50  C   UNL A   1      42.753  24.412  26.720  1.00  0.00     0.064 A 
ATOM     51  C   UNL A   1      43.424  24.149  25.517  1.00  0.00     0.173 A 
ATOM     52  C   UNL A   1      42.224  23.300  27.404  1.00  0.00     0.173 A 
ATOM     53  F   UNL A   1      43.991  25.149  24.828  1.00  0.00    -0.203 F 
ATOM     54  C   UNL A   1      43.585  22.844  25.040  1.00  0.00     0.198 A 
ATOM     55  C   UNL A   1      42.381  21.999  26.925  1.00  0.00     0.198 A 
ATOM     56  F   UNL A   1      41.631  23.447  28.598  1.00  0.00    -0.203 F 
ATOM     57  F   UNL A   1      44.289  22.624  23.921  1.00  0.00    -0.200 F 
ATOM     58  C   UNL A   1      43.075  21.770  25.750  1.00  0.00     0.200 A 
ATOM     59  F   UNL A   1      41.916  20.966  27.640  1.00  0.00    -0.200 F 
ATOM     60  F   UNL A   1      43.288  20.515  25.329  1.00  0.00    -0.200 F 
ENDBRANCH  26  50
BRANCH  38  61
ATOM     61  C   UNL A   1      45.351  29.886  28.471  1.00  0.00     0.064 A 
ATOM     62  C   UNL A   1      44.316  30.599  27.841  1.00  0.00     0.173 A 
ATOM     63  C   UNL A   1      46.666  30.226  28.129  1.00  0.00     0.173 A 
ATOM     64  F   UNL A   1      43.039  30.421  28.188  1.00  0.00    -0.203 F 
ATOM     65  C   UNL A   1      44.589  31.583  26.893  1.00  0.00     0.198 A 
ATOM     66  C   UNL A   1      46.936  31.237  27.211  1.00  0.00     0.198 A 
ATOM     67  F   UNL A   1      47.697  29.629  28.748  1.00  0.00    -0.203 F 
ATOM     68  F   UNL A   1      43.581  32.254  26.314  1.00  0.00    -0.200 F 
ATOM     69  C   UNL A   1      45.898  31.909  26.588  1.00  0.00     0.200 A 
ATOM     70  F   UNL A   1      48.205  31.591  26.968  1.00  0.00    -0.200 F 
ATOM     71  F   UNL A   1      46.162  32.897  25.721  1.00  0.00    -0.200 F 
ENDBRANCH  38  61
ENDBRANCH  12  13
ENDBRANCH   5   7
ENDBRANCH   4   5
ENDBRANCH   3   4
ENDBRANCH   2   3
ENDBRANCH   1   2
BRANCH   1  72
ATOM     72  C   UNL A   1      33.015  27.234  25.957  1.00  0.00     0.310 C 
ATOM     73  O   UNL A   1      31.919  26.906  26.398  1.00  0.00    -0.252 OA
BRANCH  72  74
ATOM     74  C   UNL A   1      33.712  26.467  24.839  1.00  0.00     0.119 C 
ATOM     75  C   UNL A   1      32.816  25.765  23.752  1.00  0.00     0.100 C 
ATOM     76  C   UNL A   1      34.529  25.270  25.399  1.00  0.00     0.027 C 
ATOM     77  C   UNL A   1      33.252  24.292  23.856  1.00  0.00     0.025 C 
ATOM     78  C   UNL A   1      33.594  24.328  26.124  1.00  0.00    -0.027 C 
ATOM     79  C   UNL A   1      34.748  24.439  24.132  1.00  0.00     0.017 C 
ATOM     80  C   UNL A   1      32.808  23.762  25.201  1.00  0.00    -0.027 C 
BRANCH  75  81
ATOM     81  C   UNL A   1      33.008  26.518  22.447  1.00  0.00     0.224 C 
ATOM     82  O   UNL A   1      33.653  25.975  21.537  1.00  0.00    -0.275 OA
ATOM     83  N   UNL A   1      32.567  27.750  22.131  1.00  0.00    -0.356 N 
ATOM     84  H   UNL A   1      32.869  28.019  21.234  1.00  0.00     0.163 HD
BRANCH  83  85
ATOM     85  C   UNL A   1      31.767  28.795  22.754  1.00  0.00     0.117 C 
BRANCH  85  86
ATOM     86  C   UNL A   1      30.444  28.282  23.339  1.00  0.00     0.043 C 
BRANCH  86  87
ATOM     87  C   UNL A   1      29.158  28.853  22.754  1.00  0.00     0.125 C 
BRANCH  87  88
ATOM     88  N   UNL A   1      29.040  30.272  22.530  1.00  0.00    -0.337 N 
ATOM     89  C   UNL A   1      28.802  31.222  23.483  1.00  0.00     0.107 A 
ATOM     90  C   UNL A   1      28.761  30.833  21.312  1.00  0.00     0.199 A 
ATOM     91  C   UNL A   1      28.382  32.330  22.782  1.00  0.00     0.130 A 
ATOM     92  N   UNL A   1      28.362  32.077  21.437  1.00  0.00    -0.245 NA
ENDBRANCH  87  88
ENDBRANCH  86  87
ENDBRANCH  85  86
ENDBRANCH  83  85
ENDBRANCH  75  81
ENDBRANCH  72  74
ENDBRANCH   1  72
TORSDOF 16
ENDMDL
MODEL 3
REMARK VINA RESULT:     -11.9      3.401      7.929
REMARK SMILES O=C(OCCOC(=O)[C@@H]1[C@@H](C(=O)NCCCn2ccnc2)[C@@H]2C=C[C@H]1C2)c1ccc(-c2c3nc(c(-c4c(F)c(F)c(F)c(F)c4F)c4ccc([nH]4)c(-c4c(F)c(F)c(F)c(F)c4F)c4nc(c(-c5c(F)c(F)c(F)c(F)c5F)c5ccc2[nH]5)C=C4)C=C3)cc1
REMARK SMILES IDX 6 1 5 2 4 3 3 4 2 5 1 6 27 7 28 8 89 9 29 10 88 11 30 12
REMARK SMILES IDX 31 13 32 14 82 15 33 16 87 17 81 18 83 19 34 20 86 21 80 22
REMARK SMILES IDX 79 23 35 25 67 26 47 27 66 28 48 29 51 30 65 31 84 32 49 33
REMARK SMILES IDX 50 34 64 36 85 37 52 38 36 39 37 40 45 41 38 42 39 43 43 44
REMARK SMILES IDX 46 45 40 46 41 47 44 48 42 49 68 50 69 51 77 52 70 53 71 54
REMARK SMILES IDX 75 55 78 56 72 57 73 58 76 59 74 60 53 61 54 62 62 63 55 64
REMARK SMILES IDX 56 65 60 66 63 67 57 68 58 69 61 70 59 71 7 72 8 73 9 74
REMARK SMILES IDX 10 75 25 76 22 77 24 78 26 79 23 80 11 81 12 82 13 83 14 85
REMARK SMILES IDX 15 86 16 87 17 88 18 89 21 90 19 91 20 92
REMARK H PARENT 83 24 51 35 13 84
REMARK Flexibility Score: inf
ROOT
ATOM      1  O   UNL A   1      32.593  28.527  26.704  1.00  0.00    -0.462 OA
ENDROOT
BRANCH   1   2
ATOM      2  C   UNL A   1      33.632  29.521  26.567  1.00  0.00     0.274 C 
BRANCH   2   3
ATOM      3  C   UNL A   1      33.422  30.772  27.426  1.00  0.00     0.275 C 
BRANCH   3   4
ATOM      4  O   UNL A   1      34.537  31.659  27.620  1.00  0.00    -0.458 OA
BRANCH   4   5
ATOM      5  C   UNL A   1      35.052  31.803  28.861  1.00  0.00     0.338 C 
ATOM      6  O   UNL A   1      34.474  32.366  29.767  1.00  0.00    -0.246 OA
BRANCH   5   7
ATOM      7  C   UNL A   1      36.307  31.031  29.080  1.00  0.00     0.060 A 
ATOM      8  C   UNL A   1      36.368  29.643  29.245  1.00  0.00     0.016 A 
ATOM      9  C   UNL A   1      37.495  31.765  29.034  1.00  0.00     0.016 A 
ATOM     10  C   UNL A   1      37.594  29.002  29.419  1.00  0.00     0.010 A 
ATOM     11  C   UNL A   1      38.718  31.112  29.099  1.00  0.00     0.010 A 
ATOM     12  C   UNL A   1      38.780  29.736  29.358  1.00  0.00    -0.014 A 
BRANCH  12  13
ATOM     13  C   UNL A   1      40.082  29.084  29.588  1.00  0.00     0.031 A 
ATOM     14  C   UNL A   1      40.686  29.045  30.986  1.00  0.00     0.074 A 
ATOM     15  C   UNL A   1      40.656  28.417  28.558  1.00  0.00     0.049 A 
ATOM     16  N   UNL A   1      41.892  28.688  31.339  1.00  0.00    -0.248 NA
ATOM     17  C   UNL A   1      39.859  29.435  32.146  1.00  0.00     0.031 C 
ATOM     18  C   UNL A   1      40.157  28.194  27.191  1.00  0.00     0.029 A 
ATOM     19  N   UNL A   1      41.810  27.699  28.562  1.00  0.00    -0.354 N 
ATOM     20  C   UNL A   1      41.954  28.750  32.733  1.00  0.00     0.074 A 
ATOM     21  C   UNL A   1      40.684  29.265  33.180  1.00  0.00     0.031 C 
ATOM     22  C   UNL A   1      40.872  27.214  26.597  1.00  0.00     0.029 A 
ATOM     23  C   UNL A   1      41.985  26.876  27.460  1.00  0.00     0.049 A 
ATOM     24  H   UNL A   1      42.470  27.759  29.290  1.00  0.00     0.167 HD
ATOM     25  C   UNL A   1      43.085  28.887  33.479  1.00  0.00     0.037 A 
ATOM     26  C   UNL A   1      42.970  25.968  27.274  1.00  0.00     0.037 A 
ATOM     27  C   UNL A   1      44.050  29.715  32.837  1.00  0.00     0.049 A 
ATOM     28  C   UNL A   1      44.087  26.352  28.170  1.00  0.00     0.074 A 
ATOM     29  C   UNL A   1      44.114  31.067  32.575  1.00  0.00     0.029 A 
ATOM     30  N   UNL A   1      44.997  29.134  32.035  1.00  0.00    -0.354 N 
ATOM     31  N   UNL A   1      44.790  27.440  28.022  1.00  0.00    -0.248 NA
ATOM     32  C   UNL A   1      44.106  25.760  29.499  1.00  0.00     0.031 C 
ATOM     33  C   UNL A   1      44.669  31.144  31.268  1.00  0.00     0.029 A 
ATOM     34  C   UNL A   1      44.974  29.843  30.864  1.00  0.00     0.049 A 
ATOM     35  H   UNL A   1      45.573  28.367  32.255  1.00  0.00     0.167 HD
ATOM     36  C   UNL A   1      44.980  27.908  29.312  1.00  0.00     0.074 A 
ATOM     37  C   UNL A   1      44.602  26.794  30.183  1.00  0.00     0.031 C 
ATOM     38  C   UNL A   1      45.161  29.236  29.570  1.00  0.00     0.037 A 
BRANCH  25  39
ATOM     39  C   UNL A   1      43.505  27.771  34.392  1.00  0.00     0.064 A 
ATOM     40  C   UNL A   1      43.491  26.437  33.942  1.00  0.00     0.173 A 
ATOM     41  C   UNL A   1      43.702  27.961  35.771  1.00  0.00     0.173 A 
ATOM     42  F   UNL A   1      43.271  26.163  32.648  1.00  0.00    -0.203 F 
ATOM     43  C   UNL A   1      43.636  25.364  34.826  1.00  0.00     0.198 A 
ATOM     44  C   UNL A   1      43.897  26.892  36.643  1.00  0.00     0.198 A 
ATOM     45  F   UNL A   1      43.604  29.182  36.315  1.00  0.00    -0.203 F 
ATOM     46  F   UNL A   1      43.518  24.107  34.376  1.00  0.00    -0.200 F 
ATOM     47  C   UNL A   1      43.843  25.593  36.176  1.00  0.00     0.200 A 
ATOM     48  F   UNL A   1      44.076  27.133  37.950  1.00  0.00    -0.200 F 
ATOM     49  F   UNL A   1      43.940  24.567  37.031  1.00  0.00    -0.200 F 
ENDBRANCH  25  39
BRANCH  26  50
ATOM     50  C   UNL A   1      42.900  24.658  26.592  1.00  0.00     0.064 A 
ATOM     51  C   UNL A   1      43.587  24.432  25.390  1.00  0.00     0.173 A 
ATOM     52  C   UNL A   1      42.395  23.522  27.253  1.00  0.00     0.173 A 
ATOM     53  F   UNL A   1      44.134  25.458  24.723  1.00  0.00    -0.203 F 
ATOM     54  C   UNL A   1      43.785  23.140  24.893  1.00  0.00     0.198 A 
ATOM     55  C   UNL A   1      42.588  22.233  26.753  1.00  0.00     0.198 A 
ATOM     56  F   UNL A   1      41.788  23.633  28.445  1.00  0.00    -0.203 F 
ATOM     57  F   UNL A   1      44.503  22.957  23.776  1.00  0.00    -0.200 F 
ATOM     58  C   UNL A   1      43.297  22.041  25.581  1.00  0.00     0.200 A 
ATOM     59  F   UNL A   1      42.144  21.177  27.448  1.00  0.00    -0.200 F 
ATOM     60  F   UNL A   1      43.545  20.800  25.141  1.00  0.00    -0.200 F 
ENDBRANCH  26  50
BRANCH  38  61
ATOM     61  C   UNL A   1      45.327  30.185  28.418  1.00  0.00     0.064 A 
ATOM     62  C   UNL A   1      44.262  30.866  27.803  1.00  0.00     0.173 A 
ATOM     63  C   UNL A   1      46.626  30.585  28.078  1.00  0.00     0.173 A 
ATOM     64  F   UNL A   1      42.994  30.629  28.151  1.00  0.00    -0.203 F 
ATOM     65  C   UNL A   1      44.490  31.876  26.871  1.00  0.00     0.198 A 
ATOM     66  C   UNL A   1      46.851  31.622  27.176  1.00  0.00     0.198 A 
ATOM     67  F   UNL A   1      47.683  30.021  28.683  1.00  0.00    -0.203 F 
ATOM     68  F   UNL A   1      43.453  32.514  26.307  1.00  0.00    -0.200 F 
ATOM     69  C   UNL A   1      45.784  32.260  26.568  1.00  0.00     0.200 A 
ATOM     70  F   UNL A   1      48.104  32.032  26.935  1.00  0.00    -0.200 F 
ATOM     71  F   UNL A   1      46.003  33.273  25.717  1.00  0.00    -0.200 F 
ENDBRANCH  38  61
ENDBRANCH  12  13
ENDBRANCH   5   7
ENDBRANCH   4   5
ENDBRANCH   3   4
ENDBRANCH   2   3
ENDBRANCH   1   2
BRANCH   1  72
ATOM     72  C   UNL A   1      32.952  27.277  26.279  1.00  0.00     0.310 C 
ATOM     73  O   UNL A   1      34.094  26.974  25.954  1.00  0.00    -0.252 OA
BRANCH  72  74
ATOM     74  C   UNL A   1      31.762  26.350  26.060  1.00  0.00     0.119 C 
ATOM     75  C   UNL A   1      32.004  25.011  25.267  1.00  0.00     0.100 C 
ATOM     76  C   UNL A   1      30.663  27.033  25.200  1.00  0.00     0.027 C 
ATOM     77  C   UNL A   1      31.018  25.133  24.091  1.00  0.00     0.025 C 
ATOM     78  C   UNL A   1      31.245  27.404  23.855  1.00  0.00    -0.027 C 
ATOM     79  C   UNL A   1      29.832  25.826  24.761  1.00  0.00     0.017 C 
ATOM     80  C   UNL A   1      31.484  26.262  23.199  1.00  0.00    -0.027 C 
BRANCH  75  81
ATOM     81  C   UNL A   1      31.862  23.865  26.253  1.00  0.00     0.224 C 
ATOM     82  O   UNL A   1      31.131  24.019  27.243  1.00  0.00    -0.275 OA
ATOM     83  N   UNL A   1      32.456  22.657  26.208  1.00  0.00    -0.356 N 
ATOM     84  H   UNL A   1      32.227  22.117  26.998  1.00  0.00     0.163 HD
BRANCH  83  85
ATOM     85  C   UNL A   1      33.344  21.932  25.311  1.00  0.00     0.117 C 
BRANCH  85  86
ATOM     86  C   UNL A   1      33.244  20.407  25.453  1.00  0.00     0.043 C 
BRANCH  86  87
ATOM     87  C   UNL A   1      32.424  19.664  24.407  1.00  0.00     0.125 C 
BRANCH  87  88
ATOM     88  N   UNL A   1      32.584  18.240  24.249  1.00  0.00    -0.337 N 
ATOM     89  C   UNL A   1      32.685  17.323  25.256  1.00  0.00     0.107 A 
ATOM     90  C   UNL A   1      33.044  17.646  23.104  1.00  0.00     0.199 A 
ATOM     91  C   UNL A   1      33.211  16.199  24.661  1.00  0.00     0.130 A 
ATOM     92  N   UNL A   1      33.428  16.411  23.326  1.00  0.00    -0.245 NA
ENDBRANCH  87  88
ENDBRANCH  86  87
ENDBRANCH  85  86
ENDBRANCH  83  85
ENDBRANCH  75  81
ENDBRANCH  72  74
ENDBRANCH   1  72
TORSDOF 16
ENDMDL
