MODEL 1
REMARK VINA RESULT:     -10.0      0.000      0.000
REMARK SMILES CCCc1nsc(Oc2csc(C(=O)OCCOC(=O)c3ccc(-c4c5nc(c(-c6c(F)c(F)c(F)c(F)c6F)c6ccc([nH]6)c(-c6c(F)c(F)c(F)c(F)c6F)c6nc(c(-c7c(F)c(F)c(F)c(F)c7F)c7ccc4[nH]7)C=C6)C=C5)cc3)c2)n1
REMARK SMILES IDX 16 1 15 2 13 3 14 4 12 5 9 6 10 7 84 8 11 9 8 10 7 11 4 12
REMARK SMILES IDX 5 13 85 14 6 15 3 16 2 17 1 18 17 19 18 20 19 21 20 22 21 23
REMARK SMILES IDX 22 24 83 25 23 26 82 27 24 28 25 29 26 30 76 31 27 32 81 33
REMARK SMILES IDX 75 34 77 35 28 36 80 37 74 38 73 39 29 41 61 42 41 43 60 44
REMARK SMILES IDX 42 45 45 46 59 47 78 48 43 49 44 50 58 52 79 53 46 54 30 55
REMARK SMILES IDX 31 56 39 57 32 58 33 59 37 60 40 61 34 62 35 63 38 64 36 65
REMARK SMILES IDX 62 66 63 67 71 68 64 69 65 70 69 71 72 72 66 73 67 74 70 75
REMARK SMILES IDX 68 76 47 77 48 78 56 79 49 80 50 81 54 82 57 83 51 84 52 85
REMARK SMILES IDX 55 86 53 87
REMARK H PARENT 77 40 45 51
REMARK Flexibility Score: inf
ROOT
ATOM      1  C   UNL A   1      33.584  34.026  28.334  1.00  0.00     0.275 C 
ENDROOT
BRANCH   1   2
ATOM      2  O   UNL A   1      32.750  34.531  29.395  1.00  0.00    -0.458 OA
BRANCH   2   3
ATOM      3  C   UNL A   1      32.982  35.822  29.783  1.00  0.00     0.348 C 
ATOM      4  O   UNL A   1      32.726  36.799  29.095  1.00  0.00    -0.245 OA
BRANCH   3   5
ATOM      5  C   UNL A   1      33.520  35.848  31.133  1.00  0.00     0.116 A 
ATOM      6  C   UNL A   1      34.383  35.262  33.219  1.00  0.00     0.141 A 
ATOM      7  C   UNL A   1      34.088  36.590  33.428  1.00  0.00     0.112 A 
ATOM      8  C   UNL A   1      34.079  34.836  31.895  1.00  0.00     0.074 A 
ATOM      9  S   UNL A   1      33.501  37.332  32.007  1.00  0.00    -0.133 S 
BRANCH   6  10
ATOM     10  O   UNL A   1      34.973  34.477  34.150  1.00  0.00    -0.429 OA
BRANCH  10  11
ATOM     11  C   UNL A   1      36.018  33.727  33.798  1.00  0.00     0.298 A 
ATOM     12  C   UNL A   1      37.271  31.992  33.316  1.00  0.00     0.146 A 
ATOM     13  N   UNL A   1      38.190  32.903  32.982  1.00  0.00    -0.172 NA
ATOM     14  N   UNL A   1      36.032  32.412  33.789  1.00  0.00    -0.186 NA
ATOM     15  S   UNL A   1      37.485  34.400  33.226  1.00  0.00     0.025 S 
BRANCH  12  16
ATOM     16  C   UNL A   1      37.537  30.538  33.108  1.00  0.00     0.078 C 
BRANCH  16  17
ATOM     17  C   UNL A   1      38.868  30.049  33.681  1.00  0.00     0.005 C 
ATOM     18  C   UNL A   1      39.386  28.775  33.026  1.00  0.00     0.004 C 
ENDBRANCH  16  17
ENDBRANCH  12  16
ENDBRANCH  10  11
ENDBRANCH   6  10
ENDBRANCH   3   5
ENDBRANCH   2   3
ENDBRANCH   1   2
BRANCH   1  19
ATOM     19  C   UNL A   1      34.315  32.743  28.743  1.00  0.00     0.275 C 
BRANCH  19  20
ATOM     20  O   UNL A   1      34.654  31.932  27.602  1.00  0.00    -0.458 OA
BRANCH  20  21
ATOM     21  C   UNL A   1      34.619  30.596  27.817  1.00  0.00     0.338 C 
ATOM     22  O   UNL A   1      33.651  29.860  27.728  1.00  0.00    -0.246 OA
BRANCH  21  23
ATOM     23  C   UNL A   1      35.981  30.091  28.045  1.00  0.00     0.060 A 
ATOM     24  C   UNL A   1      36.267  29.571  29.308  1.00  0.00     0.016 A 
ATOM     25  C   UNL A   1      36.988  30.208  27.086  1.00  0.00     0.016 A 
ATOM     26  C   UNL A   1      37.559  29.172  29.629  1.00  0.00     0.010 A 
ATOM     27  C   UNL A   1      38.291  29.799  27.407  1.00  0.00     0.010 A 
ATOM     28  C   UNL A   1      38.587  29.291  28.686  1.00  0.00    -0.014 A 
BRANCH  28  29
ATOM     29  C   UNL A   1      39.974  28.933  29.077  1.00  0.00     0.031 A 
ATOM     30  C   UNL A   1      40.782  29.868  29.928  1.00  0.00     0.074 A 
ATOM     31  C   UNL A   1      40.493  27.748  28.702  1.00  0.00     0.049 A 
ATOM     32  N   UNL A   1      42.024  29.760  30.332  1.00  0.00    -0.248 NA
ATOM     33  C   UNL A   1      40.106  31.091  30.382  1.00  0.00     0.031 C 
ATOM     34  C   UNL A   1      39.796  26.739  27.906  1.00  0.00     0.029 A 
ATOM     35  N   UNL A   1      41.726  27.194  28.944  1.00  0.00    -0.354 N 
ATOM     36  C   UNL A   1      42.286  30.913  31.059  1.00  0.00     0.074 A 
ATOM     37  C   UNL A   1      41.080  31.713  31.032  1.00  0.00     0.031 C 
ATOM     38  C   UNL A   1      40.610  25.687  27.727  1.00  0.00     0.029 A 
ATOM     39  C   UNL A   1      41.899  25.967  28.354  1.00  0.00     0.049 A 
ATOM     40  H   UNL A   1      42.418  27.634  29.487  1.00  0.00     0.167 HD
ATOM     41  C   UNL A   1      43.430  31.268  31.694  1.00  0.00     0.037 A 
ATOM     42  C   UNL A   1      42.983  25.170  28.299  1.00  0.00     0.037 A 
ATOM     43  C   UNL A   1      44.618  30.454  31.747  1.00  0.00     0.049 A 
ATOM     44  C   UNL A   1      44.247  25.595  28.993  1.00  0.00     0.074 A 
ATOM     45  C   UNL A   1      45.811  30.710  32.402  1.00  0.00     0.029 A 
ATOM     46  N   UNL A   1      44.762  29.225  31.121  1.00  0.00    -0.354 N 
ATOM     47  N   UNL A   1      44.486  26.684  29.685  1.00  0.00    -0.248 NA
ATOM     48  C   UNL A   1      45.396  24.683  28.898  1.00  0.00     0.031 C 
ATOM     49  C   UNL A   1      46.693  29.657  32.132  1.00  0.00     0.029 A 
ATOM     50  C   UNL A   1      46.035  28.722  31.350  1.00  0.00     0.049 A 
ATOM     51  H   UNL A   1      44.065  28.775  30.592  1.00  0.00     0.167 HD
ATOM     52  C   UNL A   1      45.802  26.584  30.115  1.00  0.00     0.074 A 
ATOM     53  C   UNL A   1      46.306  25.318  29.624  1.00  0.00     0.031 C 
ATOM     54  C   UNL A   1      46.527  27.464  30.848  1.00  0.00     0.037 A 
BRANCH  41  55
ATOM     55  C   UNL A   1      43.465  32.618  32.349  1.00  0.00     0.064 A 
ATOM     56  C   UNL A   1      43.923  33.761  31.677  1.00  0.00     0.173 A 
ATOM     57  C   UNL A   1      43.015  32.770  33.671  1.00  0.00     0.173 A 
ATOM     58  F   UNL A   1      44.375  33.667  30.418  1.00  0.00    -0.203 F 
ATOM     59  C   UNL A   1      43.959  35.000  32.314  1.00  0.00     0.198 A 
ATOM     60  C   UNL A   1      43.026  34.015  34.294  1.00  0.00     0.198 A 
ATOM     61  F   UNL A   1      42.561  31.710  34.357  1.00  0.00    -0.203 F 
ATOM     62  F   UNL A   1      44.449  36.067  31.669  1.00  0.00    -0.200 F 
ATOM     63  C   UNL A   1      43.506  35.126  33.619  1.00  0.00     0.200 A 
ATOM     64  F   UNL A   1      42.577  34.137  35.551  1.00  0.00    -0.200 F 
ATOM     65  F   UNL A   1      43.542  36.319  34.229  1.00  0.00    -0.200 F 
ENDBRANCH  41  55
BRANCH  42  66
ATOM     66  C   UNL A   1      42.917  23.901  27.532  1.00  0.00     0.064 A 
ATOM     67  C   UNL A   1      42.502  22.706  28.134  1.00  0.00     0.173 A 
ATOM     68  C   UNL A   1      43.251  23.864  26.169  1.00  0.00     0.173 A 
ATOM     69  F   UNL A   1      42.199  22.685  29.440  1.00  0.00    -0.203 F 
ATOM     70  C   UNL A   1      42.427  21.521  27.403  1.00  0.00     0.198 A 
ATOM     71  C   UNL A   1      43.149  22.687  25.433  1.00  0.00     0.198 A 
ATOM     72  F   UNL A   1      43.658  24.981  25.547  1.00  0.00    -0.203 F 
ATOM     73  F   UNL A   1      42.059  20.385  28.010  1.00  0.00    -0.200 F 
ATOM     74  C   UNL A   1      42.741  21.514  26.052  1.00  0.00     0.200 A 
ATOM     75  F   UNL A   1      43.441  22.688  24.126  1.00  0.00    -0.200 F 
ATOM     76  F   UNL A   1      42.657  20.378  25.348  1.00  0.00    -0.200 F 
ENDBRANCH  42  66
BRANCH  54  77
ATOM     77  C   UNL A   1      47.941  27.083  31.175  1.00  0.00     0.064 A 
ATOM     78  C   UNL A   1      48.245  26.263  32.272  1.00  0.00     0.173 A 
ATOM     79  C   UNL A   1      49.001  27.515  30.364  1.00  0.00     0.173 A 
ATOM     80  F   UNL A   1      47.268  25.838  33.087  1.00  0.00    -0.203 F 
ATOM     81  C   UNL A   1      49.560  25.907  32.556  1.00  0.00     0.198 A 
ATOM     82  C   UNL A   1      50.313  27.136  30.636  1.00  0.00     0.198 A 
ATOM     83  F   UNL A   1      48.763  28.297  29.300  1.00  0.00    -0.203 F 
ATOM     84  F   UNL A   1      49.832  25.158  33.634  1.00  0.00    -0.200 F 
ATOM     85  C   UNL A   1      50.592  26.337  31.734  1.00  0.00     0.200 A 
ATOM     86  F   UNL A   1      51.307  27.542  29.833  1.00  0.00    -0.200 F 
ATOM     87  F   UNL A   1      51.857  25.989  32.006  1.00  0.00    -0.200 F 
ENDBRANCH  54  77
ENDBRANCH  28  29
ENDBRANCH  21  23
ENDBRANCH  20  21
ENDBRANCH  19  20
ENDBRANCH   1  19
TORSDOF 15
ENDMDL
MODEL 2
REMARK VINA RESULT:      -9.9      0.434      1.684
REMARK SMILES CCCc1nsc(Oc2csc(C(=O)OCCOC(=O)c3ccc(-c4c5nc(c(-c6c(F)c(F)c(F)c(F)c6F)c6ccc([nH]6)c(-c6c(F)c(F)c(F)c(F)c6F)c6nc(c(-c7c(F)c(F)c(F)c(F)c7F)c7ccc4[nH]7)C=C6)C=C5)cc3)c2)n1
REMARK SMILES IDX 16 1 15 2 13 3 14 4 12 5 9 6 10 7 84 8 11 9 8 10 7 11 4 12
REMARK SMILES IDX 5 13 85 14 6 15 3 16 2 17 1 18 17 19 18 20 19 21 20 22 21 23
REMARK SMILES IDX 22 24 83 25 23 26 82 27 24 28 25 29 26 30 76 31 27 32 81 33
REMARK SMILES IDX 75 34 77 35 28 36 80 37 74 38 73 39 29 41 61 42 41 43 60 44
REMARK SMILES IDX 42 45 45 46 59 47 78 48 43 49 44 50 58 52 79 53 46 54 30 55
REMARK SMILES IDX 31 56 39 57 32 58 33 59 37 60 40 61 34 62 35 63 38 64 36 65
REMARK SMILES IDX 62 66 63 67 71 68 64 69 65 70 69 71 72 72 66 73 67 74 70 75
REMARK SMILES IDX 68 76 47 77 48 78 56 79 49 80 50 81 54 82 57 83 51 84 52 85
REMARK SMILES IDX 55 86 53 87
REMARK H PARENT 77 40 45 51
REMARK Flexibility Score: inf
ROOT
ATOM      1  C   UNL A   1      33.320  33.897  28.033  1.00  0.00     0.275 C 
ENDROOT
BRANCH   1   2
ATOM      2  O   UNL A   1      32.906  34.218  29.376  1.00  0.00    -0.458 OA
BRANCH   2   3
ATOM      3  C   UNL A   1      32.905  35.545  29.706  1.00  0.00     0.348 C 
ATOM      4  O   UNL A   1      32.463  36.429  28.988  1.00  0.00    -0.245 OA
BRANCH   3   5
ATOM      5  C   UNL A   1      33.455  35.727  31.040  1.00  0.00     0.116 A 
ATOM      6  C   UNL A   1      34.348  35.386  33.167  1.00  0.00     0.141 A 
ATOM      7  C   UNL A   1      34.028  36.722  33.235  1.00  0.00     0.112 A 
ATOM      8  C   UNL A   1      34.042  34.814  31.900  1.00  0.00     0.074 A 
ATOM      9  S   UNL A   1      33.412  37.295  31.750  1.00  0.00    -0.133 S 
BRANCH   6  10
ATOM     10  O   UNL A   1      34.963  34.717  34.171  1.00  0.00    -0.429 OA
BRANCH  10  11
ATOM     11  C   UNL A   1      36.031  33.968  33.892  1.00  0.00     0.298 A 
ATOM     12  C   UNL A   1      37.390  32.255  33.732  1.00  0.00     0.146 A 
ATOM     13  N   UNL A   1      38.163  33.090  33.031  1.00  0.00    -0.172 NA
ATOM     14  N   UNL A   1      36.180  32.710  34.245  1.00  0.00    -0.186 NA
ATOM     15  S   UNL A   1      37.340  34.543  32.952  1.00  0.00     0.025 S 
BRANCH  12  16
ATOM     16  C   UNL A   1      37.780  30.823  33.898  1.00  0.00     0.078 C 
BRANCH  16  17
ATOM     17  C   UNL A   1      39.288  30.567  33.865  1.00  0.00     0.005 C 
ATOM     18  C   UNL A   1      39.670  29.230  33.243  1.00  0.00     0.004 C 
ENDBRANCH  16  17
ENDBRANCH  12  16
ENDBRANCH  10  11
ENDBRANCH   6  10
ENDBRANCH   3   5
ENDBRANCH   2   3
ENDBRANCH   1   2
BRANCH   1  19
ATOM     19  C   UNL A   1      34.570  33.011  28.016  1.00  0.00     0.275 C 
BRANCH  19  20
ATOM     20  O   UNL A   1      34.400  31.827  28.819  1.00  0.00    -0.458 OA
BRANCH  20  21
ATOM     21  C   UNL A   1      34.523  30.657  28.151  1.00  0.00     0.338 C 
ATOM     22  O   UNL A   1      33.699  30.135  27.419  1.00  0.00    -0.246 OA
BRANCH  21  23
ATOM     23  C   UNL A   1      35.888  30.133  28.308  1.00  0.00     0.060 A 
ATOM     24  C   UNL A   1      36.278  29.738  29.587  1.00  0.00     0.016 A 
ATOM     25  C   UNL A   1      36.805  30.118  27.255  1.00  0.00     0.016 A 
ATOM     26  C   UNL A   1      37.585  29.331  29.832  1.00  0.00     0.010 A 
ATOM     27  C   UNL A   1      38.121  29.701  27.499  1.00  0.00     0.010 A 
ATOM     28  C   UNL A   1      38.523  29.319  28.793  1.00  0.00    -0.014 A 
BRANCH  28  29
ATOM     29  C   UNL A   1      39.931  28.957  29.093  1.00  0.00     0.031 A 
ATOM     30  C   UNL A   1      40.805  29.904  29.864  1.00  0.00     0.074 A 
ATOM     31  C   UNL A   1      40.414  27.760  28.710  1.00  0.00     0.049 A 
ATOM     32  N   UNL A   1      42.071  29.794  30.182  1.00  0.00    -0.248 NA
ATOM     33  C   UNL A   1      40.171  31.143  30.335  1.00  0.00     0.031 C 
ATOM     34  C   UNL A   1      39.656  26.739  27.989  1.00  0.00     0.029 A 
ATOM     35  N   UNL A   1      41.657  27.200  28.877  1.00  0.00    -0.354 N 
ATOM     36  C   UNL A   1      42.392  30.961  30.861  1.00  0.00     0.074 A 
ATOM     37  C   UNL A   1      41.193  31.771  30.900  1.00  0.00     0.031 C 
ATOM     38  C   UNL A   1      40.447  25.676  27.778  1.00  0.00     0.029 A 
ATOM     39  C   UNL A   1      41.779  25.959  28.306  1.00  0.00     0.049 A 
ATOM     40  H   UNL A   1      42.389  27.647  29.361  1.00  0.00     0.167 HD
ATOM     41  C   UNL A   1      43.580  31.320  31.406  1.00  0.00     0.037 A 
ATOM     42  C   UNL A   1      42.851  25.151  28.193  1.00  0.00     0.037 A 
ATOM     43  C   UNL A   1      44.763  30.497  31.394  1.00  0.00     0.049 A 
ATOM     44  C   UNL A   1      44.164  25.581  28.787  1.00  0.00     0.074 A 
ATOM     45  C   UNL A   1      46.001  30.758  31.957  1.00  0.00     0.029 A 
ATOM     46  N   UNL A   1      44.854  29.253  30.788  1.00  0.00    -0.354 N 
ATOM     47  N   UNL A   1      44.459  26.682  29.434  1.00  0.00    -0.248 NA
ATOM     48  C   UNL A   1      45.297  24.656  28.632  1.00  0.00     0.031 C 
ATOM     49  C   UNL A   1      46.855  29.691  31.649  1.00  0.00     0.029 A 
ATOM     50  C   UNL A   1      46.136  28.744  30.938  1.00  0.00     0.049 A 
ATOM     51  H   UNL A   1      44.118  28.798  30.320  1.00  0.00     0.167 HD
ATOM     52  C   UNL A   1      45.801  26.581  29.772  1.00  0.00     0.074 A 
ATOM     53  C   UNL A   1      46.260  25.299  29.277  1.00  0.00     0.031 C 
ATOM     54  C   UNL A   1      46.582  27.471  30.432  1.00  0.00     0.037 A 
BRANCH  41  55
ATOM     55  C   UNL A   1      43.672  32.684  32.025  1.00  0.00     0.064 A 
ATOM     56  C   UNL A   1      43.347  32.916  33.369  1.00  0.00     0.173 A 
ATOM     57  C   UNL A   1      44.111  33.776  31.259  1.00  0.00     0.173 A 
ATOM     58  F   UNL A   1      42.909  31.909  34.140  1.00  0.00    -0.203 F 
ATOM     59  C   UNL A   1      43.427  34.195  33.916  1.00  0.00     0.198 A 
ATOM     60  C   UNL A   1      44.218  35.048  31.817  1.00  0.00     0.198 A 
ATOM     61  F   UNL A   1      44.442  33.609  29.969  1.00  0.00    -0.203 F 
ATOM     62  F   UNL A   1      43.060  34.401  35.188  1.00  0.00    -0.200 F 
ATOM     63  C   UNL A   1      43.866  35.258  33.140  1.00  0.00     0.200 A 
ATOM     64  F   UNL A   1      44.654  36.071  31.068  1.00  0.00    -0.200 F 
ATOM     65  F   UNL A   1      43.942  36.487  33.669  1.00  0.00    -0.200 F 
ENDBRANCH  41  55
BRANCH  42  66
ATOM     66  C   UNL A   1      42.722  23.865  27.462  1.00  0.00     0.064 A 
ATOM     67  C   UNL A   1      42.232  22.714  28.093  1.00  0.00     0.173 A 
ATOM     68  C   UNL A   1      43.069  23.769  26.106  1.00  0.00     0.173 A 
ATOM     69  F   UNL A   1      41.913  22.750  29.395  1.00  0.00    -0.203 F 
ATOM     70  C   UNL A   1      42.099  21.515  27.396  1.00  0.00     0.198 A 
ATOM     71  C   UNL A   1      42.909  22.578  25.403  1.00  0.00     0.198 A 
ATOM     72  F   UNL A   1      43.546  24.842  25.457  1.00  0.00    -0.203 F 
ATOM     73  F   UNL A   1      41.659  20.420  28.031  1.00  0.00    -0.200 F 
ATOM     74  C   UNL A   1      42.427  21.450  26.050  1.00  0.00     0.200 A 
ATOM     75  F   UNL A   1      43.216  22.524  24.101  1.00  0.00    -0.200 F 
ATOM     76  F   UNL A   1      42.287  20.299  25.378  1.00  0.00    -0.200 F 
ENDBRANCH  42  66
BRANCH  54  77
ATOM     77  C   UNL A   1      48.014  27.085  30.668  1.00  0.00     0.064 A 
ATOM     78  C   UNL A   1      49.033  27.471  29.785  1.00  0.00     0.173 A 
ATOM     79  C   UNL A   1      48.375  26.351  31.808  1.00  0.00     0.173 A 
ATOM     80  F   UNL A   1      48.736  28.160  28.673  1.00  0.00    -0.203 F 
ATOM     81  C   UNL A   1      50.358  27.117  30.023  1.00  0.00     0.198 A 
ATOM     82  C   UNL A   1      49.704  26.021  32.057  1.00  0.00     0.198 A 
ATOM     83  F   UNL A   1      47.438  25.961  32.686  1.00  0.00    -0.203 F 
ATOM     84  F   UNL A   1      51.309  27.459  29.143  1.00  0.00    -0.200 F 
ATOM     85  C   UNL A   1      50.693  26.400  31.162  1.00  0.00     0.200 A 
ATOM     86  F   UNL A   1      50.028  25.338  33.163  1.00  0.00    -0.200 F 
ATOM     87  F   UNL A   1      51.970  26.065  31.393  1.00  0.00    -0.200 F 
ENDBRANCH  54  77
ENDBRANCH  28  29
ENDBRANCH  21  23
ENDBRANCH  20  21
ENDBRANCH  19  20
ENDBRANCH   1  19
TORSDOF 15
ENDMDL
MODEL 3
REMARK VINA RESULT:      -9.8      4.825      9.951
REMARK SMILES CCCc1nsc(Oc2csc(C(=O)OCCOC(=O)c3ccc(-c4c5nc(c(-c6c(F)c(F)c(F)c(F)c6F)c6ccc([nH]6)c(-c6c(F)c(F)c(F)c(F)c6F)c6nc(c(-c7c(F)c(F)c(F)c(F)c7F)c7ccc4[nH]7)C=C6)C=C5)cc3)c2)n1
REMARK SMILES IDX 16 1 15 2 13 3 14 4 12 5 9 6 10 7 84 8 11 9 8 10 7 11 4 12
REMARK SMILES IDX 5 13 85 14 6 15 3 16 2 17 1 18 17 19 18 20 19 21 20 22 21 23
REMARK SMILES IDX 22 24 83 25 23 26 82 27 24 28 25 29 26 30 76 31 27 32 81 33
REMARK SMILES IDX 75 34 77 35 28 36 80 37 74 38 73 39 29 41 61 42 41 43 60 44
REMARK SMILES IDX 42 45 45 46 59 47 78 48 43 49 44 50 58 52 79 53 46 54 30 55
REMARK SMILES IDX 31 56 39 57 32 58 33 59 37 60 40 61 34 62 35 63 38 64 36 65
REMARK SMILES IDX 62 66 63 67 71 68 64 69 65 70 69 71 72 72 66 73 67 74 70 75
REMARK SMILES IDX 68 76 47 77 48 78 56 79 49 80 50 81 54 82 57 83 51 84 52 85
REMARK SMILES IDX 55 86 53 87
REMARK H PARENT 77 40 45 51
REMARK Flexibility Score: inf
ROOT
ATOM      1  C   UNL A   1      32.608  28.487  25.156  1.00  0.00     0.275 C 
ENDROOT
BRANCH   1   2
ATOM      2  O   UNL A   1      31.358  27.772  25.108  1.00  0.00    -0.458 OA
BRANCH   2   3
ATOM      3  C   UNL A   1      31.146  26.859  26.104  1.00  0.00     0.348 C 
ATOM      4  O   UNL A   1      30.990  27.153  27.280  1.00  0.00    -0.245 OA
BRANCH   3   5
ATOM      5  C   UNL A   1      31.085  25.518  25.547  1.00  0.00     0.116 A 
ATOM      6  C   UNL A   1      31.260  23.217  25.207  1.00  0.00     0.141 A 
ATOM      7  C   UNL A   1      30.941  23.641  23.937  1.00  0.00     0.112 A 
ATOM      8  C   UNL A   1      31.322  24.289  26.141  1.00  0.00     0.074 A 
ATOM      9  S   UNL A   1      30.659  25.324  23.890  1.00  0.00    -0.133 S 
BRANCH   6  10
ATOM     10  O   UNL A   1      31.415  21.914  25.537  1.00  0.00    -0.429 OA
BRANCH  10  11
ATOM     11  C   UNL A   1      32.585  21.319  25.299  1.00  0.00     0.298 A 
ATOM     12  C   UNL A   1      34.737  20.904  25.239  1.00  0.00     0.146 A 
ATOM     13  N   UNL A   1      34.372  19.733  24.708  1.00  0.00    -0.172 NA
ATOM     14  N   UNL A   1      33.762  21.834  25.581  1.00  0.00    -0.186 NA
ATOM     15  S   UNL A   1      32.700  19.740  24.650  1.00  0.00     0.025 S 
BRANCH  12  16
ATOM     16  C   UNL A   1      36.173  21.183  25.538  1.00  0.00     0.078 C 
BRANCH  16  17
ATOM     17  C   UNL A   1      37.026  21.509  24.311  1.00  0.00     0.005 C 
ATOM     18  C   UNL A   1      36.521  22.705  23.514  1.00  0.00     0.004 C 
ENDBRANCH  16  17
ENDBRANCH  12  16
ENDBRANCH  10  11
ENDBRANCH   6  10
ENDBRANCH   3   5
ENDBRANCH   2   3
ENDBRANCH   1   2
BRANCH   1  19
ATOM     19  C   UNL A   1      32.406  29.974  25.461  1.00  0.00     0.275 C 
BRANCH  19  20
ATOM     20  O   UNL A   1      32.567  30.261  26.863  1.00  0.00    -0.458 OA
BRANCH  20  21
ATOM     21  C   UNL A   1      33.209  31.420  27.142  1.00  0.00     0.338 C 
ATOM     22  O   UNL A   1      32.765  32.552  27.040  1.00  0.00    -0.246 OA
BRANCH  21  23
ATOM     23  C   UNL A   1      34.520  31.134  27.743  1.00  0.00     0.060 A 
ATOM     24  C   UNL A   1      34.754  29.828  28.174  1.00  0.00     0.016 A 
ATOM     25  C   UNL A   1      35.466  32.134  27.973  1.00  0.00     0.016 A 
ATOM     26  C   UNL A   1      35.928  29.508  28.846  1.00  0.00     0.010 A 
ATOM     27  C   UNL A   1      36.654  31.811  28.645  1.00  0.00     0.010 A 
ATOM     28  C   UNL A   1      36.887  30.498  29.098  1.00  0.00    -0.014 A 
BRANCH  28  29
ATOM     29  C   UNL A   1      38.096  30.151  29.885  1.00  0.00     0.031 A 
ATOM     30  C   UNL A   1      39.135  29.234  29.306  1.00  0.00     0.074 A 
ATOM     31  C   UNL A   1      38.283  30.692  31.104  1.00  0.00     0.049 A 
ATOM     32  N   UNL A   1      40.232  28.771  29.853  1.00  0.00    -0.248 NA
ATOM     33  C   UNL A   1      38.906  28.771  27.931  1.00  0.00     0.031 C 
ATOM     34  C   UNL A   1      37.367  31.623  31.760  1.00  0.00     0.029 A 
ATOM     35  N   UNL A   1      39.307  30.536  32.005  1.00  0.00    -0.354 N 
ATOM     36  C   UNL A   1      40.807  27.940  28.902  1.00  0.00     0.074 A 
ATOM     37  C   UNL A   1      39.932  27.951  27.747  1.00  0.00     0.031 C 
ATOM     38  C   UNL A   1      37.870  31.960  32.958  1.00  0.00     0.029 A 
ATOM     39  C   UNL A   1      39.118  31.232  33.173  1.00  0.00     0.049 A 
ATOM     40  H   UNL A   1      40.100  29.980  31.831  1.00  0.00     0.167 HD
ATOM     41  C   UNL A   1      41.961  27.235  28.984  1.00  0.00     0.037 A 
ATOM     42  C   UNL A   1      39.853  31.260  34.301  1.00  0.00     0.037 A 
ATOM     43  C   UNL A   1      42.845  27.252  30.122  1.00  0.00     0.049 A 
ATOM     44  C   UNL A   1      41.119  30.452  34.377  1.00  0.00     0.074 A 
ATOM     45  C   UNL A   1      44.059  26.604  30.281  1.00  0.00     0.029 A 
ATOM     46  N   UNL A   1      42.611  27.954  31.295  1.00  0.00    -0.354 N 
ATOM     47  N   UNL A   1      41.660  29.674  33.471  1.00  0.00    -0.248 NA
ATOM     48  C   UNL A   1      41.877  30.523  35.635  1.00  0.00     0.031 C 
ATOM     49  C   UNL A   1      44.534  26.876  31.570  1.00  0.00     0.029 A 
ATOM     50  C   UNL A   1      43.643  27.734  32.195  1.00  0.00     0.049 A 
ATOM     51  H   UNL A   1      41.827  28.526  31.464  1.00  0.00     0.167 HD
ATOM     52  C   UNL A   1      42.822  29.172  34.041  1.00  0.00     0.074 A 
ATOM     53  C   UNL A   1      42.921  29.751  35.365  1.00  0.00     0.031 C 
ATOM     54  C   UNL A   1      43.724  28.308  33.514  1.00  0.00     0.037 A 
BRANCH  41  55
ATOM     55  C   UNL A   1      42.313  26.349  27.825  1.00  0.00     0.064 A 
ATOM     56  C   UNL A   1      43.223  26.745  26.834  1.00  0.00     0.173 A 
ATOM     57  C   UNL A   1      41.740  25.071  27.717  1.00  0.00     0.173 A 
ATOM     58  F   UNL A   1      43.788  27.961  26.884  1.00  0.00    -0.203 F 
ATOM     59  C   UNL A   1      43.522  25.909  25.761  1.00  0.00     0.198 A 
ATOM     60  C   UNL A   1      42.064  24.227  26.658  1.00  0.00     0.198 A 
ATOM     61  F   UNL A   1      40.870  24.640  28.642  1.00  0.00    -0.203 F 
ATOM     62  F   UNL A   1      44.354  26.330  24.798  1.00  0.00    -0.200 F 
ATOM     63  C   UNL A   1      42.946  24.650  25.676  1.00  0.00     0.200 A 
ATOM     64  F   UNL A   1      41.515  23.006  26.585  1.00  0.00    -0.200 F 
ATOM     65  F   UNL A   1      43.236  23.848  24.642  1.00  0.00    -0.200 F 
ENDBRANCH  41  55
BRANCH  42  66
ATOM     66  C   UNL A   1      39.384  32.065  35.457  1.00  0.00     0.064 A 
ATOM     67  C   UNL A   1      38.513  31.528  36.414  1.00  0.00     0.173 A 
ATOM     68  C   UNL A   1      39.818  33.387  35.638  1.00  0.00     0.173 A 
ATOM     69  F   UNL A   1      38.049  30.278  36.269  1.00  0.00    -0.203 F 
ATOM     70  C   UNL A   1      38.090  32.284  37.505  1.00  0.00     0.198 A 
ATOM     71  C   UNL A   1      39.417  34.133  36.744  1.00  0.00     0.198 A 
ATOM     72  F   UNL A   1      40.650  33.948  34.748  1.00  0.00    -0.203 F 
ATOM     73  F   UNL A   1      37.230  31.758  38.388  1.00  0.00    -0.200 F 
ATOM     74  C   UNL A   1      38.550  33.582  37.675  1.00  0.00     0.200 A 
ATOM     75  F   UNL A   1      39.875  35.381  36.909  1.00  0.00    -0.200 F 
ATOM     76  F   UNL A   1      38.152  34.303  38.731  1.00  0.00    -0.200 F 
ENDBRANCH  42  66
BRANCH  54  77
ATOM     77  C   UNL A   1      44.905  27.945  34.366  1.00  0.00     0.064 A 
ATOM     78  C   UNL A   1      46.078  28.713  34.361  1.00  0.00     0.173 A 
ATOM     79  C   UNL A   1      44.850  26.835  35.223  1.00  0.00     0.173 A 
ATOM     80  F   UNL A   1      46.186  29.774  33.546  1.00  0.00    -0.203 F 
ATOM     81  C   UNL A   1      47.161  28.371  35.166  1.00  0.00     0.198 A 
ATOM     82  C   UNL A   1      45.924  26.512  36.047  1.00  0.00     0.198 A 
ATOM     83  F   UNL A   1      43.748  26.071  35.270  1.00  0.00    -0.203 F 
ATOM     84  F   UNL A   1      48.288  29.094  35.112  1.00  0.00    -0.200 F 
ATOM     85  C   UNL A   1      47.080  27.276  36.014  1.00  0.00     0.200 A 
ATOM     86  F   UNL A   1      45.840  25.460  36.874  1.00  0.00    -0.200 F 
ATOM     87  F   UNL A   1      48.122  26.952  36.793  1.00  0.00    -0.200 F 
ENDBRANCH  54  77
ENDBRANCH  28  29
ENDBRANCH  21  23
ENDBRANCH  20  21
ENDBRANCH  19  20
ENDBRANCH   1  19
TORSDOF 15
ENDMDL
