MODEL 1
REMARK VINA RESULT:     -11.9      0.000      0.000
REMARK SMILES O=C(C[C@@H]1CSCC[NH2+]1)NC[C@H]1CC[C@@H](C(=O)OCCOC(=O)c2ccc(-c3c4nc(c(-c5c(F)c(F)c(F)c(F)c5F)c5ccc([nH]5)c(-c5c(F)c(F)c(F)c(F)c5F)c5nc(c(-c6c(F)c(F)c(F)c(F)c6F)c6ccc3[nH]6)C=C5)C=C4)cc2)O1
REMARK SMILES IDX 19 1 18 2 16 3 17 4 15 5 12 6 13 7 87 8 14 9 11 10 10 11
REMARK SMILES IDX 1 12 2 13 3 15 4 16 5 17 9 18 6 19 8 20 7 23 20 24 21 25
REMARK SMILES IDX 22 26 23 27 24 28 25 29 86 30 26 31 85 32 27 33 28 34 29 35
REMARK SMILES IDX 79 36 30 37 84 38 78 39 80 40 31 41 83 42 77 43 76 44 32 46
REMARK SMILES IDX 64 47 44 48 63 49 45 50 48 51 62 52 81 53 46 54 47 55 61 57
REMARK SMILES IDX 82 58 49 59 33 60 34 61 42 62 35 63 36 64 40 65 43 66 37 67
REMARK SMILES IDX 38 68 41 69 39 70 65 71 66 72 74 73 67 74 68 75 72 76 75 77
REMARK SMILES IDX 69 78 70 79 73 80 71 81 50 82 51 83 59 84 52 85 53 86 57 87
REMARK SMILES IDX 60 88 54 89 55 90 58 91 56 92
REMARK H PARENT 10 14 9 21 9 22 80 45 48 56
REMARK Flexibility Score: inf
ROOT
ATOM      1  C   UNL A   1      32.932  29.295  24.591  1.00  0.00     0.274 C 
ENDROOT
BRANCH   1   2
ATOM      2  O   UNL A   1      32.286  28.282  23.792  1.00  0.00    -0.460 OA
BRANCH   2   3
ATOM      3  C   UNL A   1      32.588  26.996  24.118  1.00  0.00     0.335 C 
ATOM      4  O   UNL A   1      33.722  26.527  24.126  1.00  0.00    -0.249 OA
BRANCH   3   5
ATOM      5  C   UNL A   1      31.369  26.187  24.566  1.00  0.00     0.228 C 
ATOM      6  C   UNL A   1      30.802  23.994  25.175  1.00  0.00     0.138 C 
ATOM      7  C   UNL A   1      30.139  24.977  26.134  1.00  0.00     0.037 C 
ATOM      8  O   UNL A   1      31.446  24.806  24.172  1.00  0.00    -0.361 OA
ATOM      9  C   UNL A   1      31.055  26.179  26.049  1.00  0.00     0.047 C 
BRANCH   6  10
ATOM     10  C   UNL A   1      31.842  23.137  25.908  1.00  0.00     0.147 C 
BRANCH  10  11
ATOM     11  N   UNL A   1      31.750  21.709  25.673  1.00  0.00    -0.353 N 
ATOM     12  O   UNL A   1      33.428  21.842  24.129  1.00  0.00    -0.275 OA
ATOM     13  C   UNL A   1      32.580  21.168  24.712  1.00  0.00     0.226 C 
ATOM     14  H   UNL A   1      31.122  21.146  26.180  1.00  0.00     0.163 HD
BRANCH  13  15
ATOM     15  C   UNL A   1      32.446  19.684  24.461  1.00  0.00     0.165 C 
BRANCH  15  16
ATOM     16  C   UNL A   1      33.493  18.876  25.253  1.00  0.00     0.201 C 
ATOM     17  C   UNL A   1      34.572  18.162  24.408  1.00  0.00     0.135 C 
ATOM     18  N   UNL A   1      32.859  17.971  26.251  1.00  0.00    -0.342 N 
ATOM     19  S   UNL A   1      33.942  16.741  23.471  1.00  0.00    -0.150 SA
ATOM     20  C   UNL A   1      32.239  16.776  25.655  1.00  0.00     0.271 C 
ATOM     21  H   UNL A   1      32.139  18.495  26.748  1.00  0.00     0.346 HD
ATOM     22  H   UNL A   1      33.600  17.646  26.871  1.00  0.00     0.346 HD
ATOM     23  C   UNL A   1      33.196  15.871  24.876  1.00  0.00     0.131 C 
ENDBRANCH  15  16
ENDBRANCH  13  15
ENDBRANCH  10  11
ENDBRANCH   6  10
ENDBRANCH   3   5
ENDBRANCH   2   3
ENDBRANCH   1   2
BRANCH   1  24
ATOM     24  C   UNL A   1      31.926  29.994  25.503  1.00  0.00     0.275 C 
BRANCH  24  25
ATOM     25  O   UNL A   1      32.433  30.054  26.850  1.00  0.00    -0.458 OA
BRANCH  25  26
ATOM     26  C   UNL A   1      33.089  31.191  27.162  1.00  0.00     0.338 C 
ATOM     27  O   UNL A   1      32.665  32.334  27.124  1.00  0.00    -0.246 OA
BRANCH  26  28
ATOM     28  C   UNL A   1      34.472  30.909  27.572  1.00  0.00     0.060 A 
ATOM     29  C   UNL A   1      34.858  29.604  27.869  1.00  0.00     0.016 A 
ATOM     30  C   UNL A   1      35.312  31.981  27.882  1.00  0.00     0.016 A 
ATOM     31  C   UNL A   1      36.037  29.372  28.575  1.00  0.00     0.010 A 
ATOM     32  C   UNL A   1      36.527  31.742  28.531  1.00  0.00     0.010 A 
ATOM     33  C   UNL A   1      36.881  30.438  28.918  1.00  0.00    -0.014 A 
BRANCH  33  34
ATOM     34  C   UNL A   1      38.098  30.204  29.734  1.00  0.00     0.031 A 
ATOM     35  C   UNL A   1      39.254  29.438  29.166  1.00  0.00     0.074 A 
ATOM     36  C   UNL A   1      38.216  30.722  30.966  1.00  0.00     0.049 A 
ATOM     37  N   UNL A   1      40.250  28.844  29.770  1.00  0.00    -0.248 NA
ATOM     38  C   UNL A   1      39.290  29.336  27.706  1.00  0.00     0.031 C 
ATOM     39  C   UNL A   1      37.244  31.594  31.616  1.00  0.00     0.029 A 
ATOM     40  N   UNL A   1      39.233  30.601  31.877  1.00  0.00    -0.354 N 
ATOM     41  C   UNL A   1      40.962  28.195  28.768  1.00  0.00     0.074 A 
ATOM     42  C   UNL A   1      40.329  28.536  27.517  1.00  0.00     0.031 C 
ATOM     43  C   UNL A   1      37.729  31.966  32.810  1.00  0.00     0.029 A 
ATOM     44  C   UNL A   1      39.002  31.285  33.040  1.00  0.00     0.049 A 
ATOM     45  H   UNL A   1      40.047  30.073  31.713  1.00  0.00     0.167 HD
ATOM     46  C   UNL A   1      42.030  27.372  28.894  1.00  0.00     0.037 A 
ATOM     47  C   UNL A   1      39.722  31.326  34.176  1.00  0.00     0.037 A 
ATOM     48  C   UNL A   1      42.739  27.179  30.130  1.00  0.00     0.049 A 
ATOM     49  C   UNL A   1      40.979  30.511  34.283  1.00  0.00     0.074 A 
ATOM     50  C   UNL A   1      43.798  26.335  30.414  1.00  0.00     0.029 A 
ATOM     51  N   UNL A   1      42.497  27.919  31.277  1.00  0.00    -0.354 N 
ATOM     52  N   UNL A   1      41.505  29.687  33.410  1.00  0.00    -0.248 NA
ATOM     53  C   UNL A   1      41.734  30.618  35.538  1.00  0.00     0.031 C 
ATOM     54  C   UNL A   1      44.214  26.586  31.728  1.00  0.00     0.029 A 
ATOM     55  C   UNL A   1      43.423  27.597  32.252  1.00  0.00     0.049 A 
ATOM     56  H   UNL A   1      41.771  28.576  31.383  1.00  0.00     0.167 HD
ATOM     57  C   UNL A   1      42.645  29.170  34.009  1.00  0.00     0.074 A 
ATOM     58  C   UNL A   1      42.751  29.798  35.310  1.00  0.00     0.031 C 
ATOM     59  C   UNL A   1      43.515  28.245  33.533  1.00  0.00     0.037 A 
BRANCH  46  60
ATOM     60  C   UNL A   1      42.455  26.584  27.689  1.00  0.00     0.064 A 
ATOM     61  C   UNL A   1      43.466  27.017  26.820  1.00  0.00     0.173 A 
ATOM     62  C   UNL A   1      41.841  25.351  27.415  1.00  0.00     0.173 A 
ATOM     63  F   UNL A   1      44.074  28.194  27.026  1.00  0.00    -0.203 F 
ATOM     64  C   UNL A   1      43.831  26.255  25.710  1.00  0.00     0.198 A 
ATOM     65  C   UNL A   1      42.227  24.580  26.321  1.00  0.00     0.198 A 
ATOM     66  F   UNL A   1      40.871  24.886  28.217  1.00  0.00    -0.203 F 
ATOM     67  F   UNL A   1      44.774  26.707  24.872  1.00  0.00    -0.200 F 
ATOM     68  C   UNL A   1      43.217  25.035  25.466  1.00  0.00     0.200 A 
ATOM     69  F   UNL A   1      41.642  23.395  26.098  1.00  0.00    -0.200 F 
ATOM     70  F   UNL A   1      43.580  24.298  24.406  1.00  0.00    -0.200 F 
ENDBRANCH  46  60
BRANCH  47  71
ATOM     71  C   UNL A   1      39.235  32.167  35.294  1.00  0.00     0.064 A 
ATOM     72  C   UNL A   1      38.472  31.613  36.328  1.00  0.00     0.173 A 
ATOM     73  C   UNL A   1      39.601  33.517  35.396  1.00  0.00     0.173 A 
ATOM     74  F   UNL A   1      38.088  30.331  36.264  1.00  0.00    -0.203 F 
ATOM     75  C   UNL A   1      38.098  32.379  37.431  1.00  0.00     0.198 A 
ATOM     76  C   UNL A   1      39.251  34.273  36.510  1.00  0.00     0.198 A 
ATOM     77  F   UNL A   1      40.344  34.085  34.433  1.00  0.00    -0.203 F 
ATOM     78  F   UNL A   1      37.358  31.830  38.403  1.00  0.00    -0.200 F 
ATOM     79  C   UNL A   1      38.500  33.703  37.527  1.00  0.00     0.200 A 
ATOM     80  F   UNL A   1      39.660  35.546  36.609  1.00  0.00    -0.200 F 
ATOM     81  F   UNL A   1      38.165  34.430  38.601  1.00  0.00    -0.200 F 
ENDBRANCH  47  71
BRANCH  59  82
ATOM     82  C   UNL A   1      44.667  27.875  34.410  1.00  0.00     0.064 A 
ATOM     83  C   UNL A   1      44.575  26.808  35.315  1.00  0.00     0.173 A 
ATOM     84  C   UNL A   1      45.885  28.561  34.312  1.00  0.00     0.173 A 
ATOM     85  F   UNL A   1      43.425  26.131  35.447  1.00  0.00    -0.203 F 
ATOM     86  C   UNL A   1      45.664  26.450  36.105  1.00  0.00     0.198 A 
ATOM     87  C   UNL A   1      46.975  28.192  35.093  1.00  0.00     0.198 A 
ATOM     88  F   UNL A   1      46.016  29.585  33.456  1.00  0.00    -0.203 F 
ATOM     89  F   UNL A   1      45.551  25.445  36.983  1.00  0.00    -0.200 F 
ATOM     90  C   UNL A   1      46.863  27.139  35.990  1.00  0.00     0.200 A 
ATOM     91  F   UNL A   1      48.135  28.854  34.979  1.00  0.00    -0.200 F 
ATOM     92  F   UNL A   1      47.911  26.793  36.751  1.00  0.00    -0.200 F 
ENDBRANCH  59  82
ENDBRANCH  33  34
ENDBRANCH  26  28
ENDBRANCH  25  26
ENDBRANCH  24  25
ENDBRANCH   1  24
TORSDOF 15
ENDMDL
MODEL 2
REMARK VINA RESULT:     -11.9      3.034      9.005
REMARK SMILES O=C(C[C@@H]1CSCC[NH2+]1)NC[C@H]1CC[C@@H](C(=O)OCCOC(=O)c2ccc(-c3c4nc(c(-c5c(F)c(F)c(F)c(F)c5F)c5ccc([nH]5)c(-c5c(F)c(F)c(F)c(F)c5F)c5nc(c(-c6c(F)c(F)c(F)c(F)c6F)c6ccc3[nH]6)C=C5)C=C4)cc2)O1
REMARK SMILES IDX 19 1 18 2 16 3 17 4 15 5 12 6 13 7 87 8 14 9 11 10 10 11
REMARK SMILES IDX 1 12 2 13 3 15 4 16 5 17 9 18 6 19 8 20 7 23 20 24 21 25
REMARK SMILES IDX 22 26 23 27 24 28 25 29 86 30 26 31 85 32 27 33 28 34 29 35
REMARK SMILES IDX 79 36 30 37 84 38 78 39 80 40 31 41 83 42 77 43 76 44 32 46
REMARK SMILES IDX 64 47 44 48 63 49 45 50 48 51 62 52 81 53 46 54 47 55 61 57
REMARK SMILES IDX 82 58 49 59 33 60 34 61 42 62 35 63 36 64 40 65 43 66 37 67
REMARK SMILES IDX 38 68 41 69 39 70 65 71 66 72 74 73 67 74 68 75 72 76 75 77
REMARK SMILES IDX 69 78 70 79 73 80 71 81 50 82 51 83 59 84 52 85 53 86 57 87
REMARK SMILES IDX 60 88 54 89 55 90 58 91 56 92
REMARK H PARENT 10 14 9 21 9 22 80 45 48 56
REMARK Flexibility Score: inf
ROOT
ATOM      1  C   UNL A   1      34.052  35.323  28.378  1.00  0.00     0.274 C 
ENDROOT
BRANCH   1   2
ATOM      2  O   UNL A   1      33.717  33.921  28.308  1.00  0.00    -0.460 OA
BRANCH   2   3
ATOM      3  C   UNL A   1      34.745  33.086  27.997  1.00  0.00     0.335 C 
ATOM      4  O   UNL A   1      35.865  33.456  27.655  1.00  0.00    -0.249 OA
BRANCH   3   5
ATOM      5  C   UNL A   1      34.401  31.609  28.197  1.00  0.00     0.228 C 
ATOM      6  C   UNL A   1      33.126  29.917  27.190  1.00  0.00     0.138 C 
ATOM      7  C   UNL A   1      34.483  29.356  27.601  1.00  0.00     0.037 C 
ATOM      8  O   UNL A   1      33.099  31.270  27.687  1.00  0.00    -0.361 OA
ATOM      9  C   UNL A   1      35.356  30.592  27.603  1.00  0.00     0.047 C 
BRANCH   6  10
ATOM     10  C   UNL A   1      32.975  29.912  25.664  1.00  0.00     0.147 C 
BRANCH  10  11
ATOM     11  N   UNL A   1      32.773  28.608  25.062  1.00  0.00    -0.353 N 
ATOM     12  O   UNL A   1      30.788  29.311  24.176  1.00  0.00    -0.275 OA
ATOM     13  C   UNL A   1      31.600  28.406  24.363  1.00  0.00     0.226 C 
ATOM     14  H   UNL A   1      33.446  27.895  25.147  1.00  0.00     0.163 HD
BRANCH  13  15
ATOM     15  C   UNL A   1      31.395  27.031  23.770  1.00  0.00     0.165 C 
BRANCH  15  16
ATOM     16  C   UNL A   1      30.272  26.261  24.493  1.00  0.00     0.201 C 
ATOM     17  C   UNL A   1      30.549  25.895  25.968  1.00  0.00     0.135 C 
ATOM     18  N   UNL A   1      29.793  25.098  23.697  1.00  0.00    -0.342 N 
ATOM     19  S   UNL A   1      31.798  24.595  26.176  1.00  0.00    -0.150 SA
ATOM     20  C   UNL A   1      30.721  23.954  23.706  1.00  0.00     0.271 C 
ATOM     21  H   UNL A   1      29.662  25.400  22.732  1.00  0.00     0.346 HD
ATOM     22  H   UNL A   1      28.924  24.780  24.126  1.00  0.00     0.346 HD
ATOM     23  C   UNL A   1      31.017  23.371  25.090  1.00  0.00     0.131 C 
ENDBRANCH  15  16
ENDBRANCH  13  15
ENDBRANCH  10  11
ENDBRANCH   6  10
ENDBRANCH   3   5
ENDBRANCH   2   3
ENDBRANCH   1   2
BRANCH   1  24
ATOM     24  C   UNL A   1      33.000  36.096  29.170  1.00  0.00     0.275 C 
BRANCH  24  25
ATOM     25  O   UNL A   1      32.465  35.273  30.224  1.00  0.00    -0.458 OA
BRANCH  25  26
ATOM     26  C   UNL A   1      32.557  35.801  31.462  1.00  0.00     0.338 C 
ATOM     27  O   UNL A   1      31.885  36.697  31.945  1.00  0.00    -0.246 OA
BRANCH  26  28
ATOM     28  C   UNL A   1      33.631  35.159  32.234  1.00  0.00     0.060 A 
ATOM     29  C   UNL A   1      34.897  35.738  32.280  1.00  0.00     0.016 A 
ATOM     30  C   UNL A   1      33.430  33.864  32.716  1.00  0.00     0.016 A 
ATOM     31  C   UNL A   1      35.990  34.986  32.707  1.00  0.00     0.010 A 
ATOM     32  C   UNL A   1      34.515  33.133  33.207  1.00  0.00     0.010 A 
ATOM     33  C   UNL A   1      35.811  33.674  33.169  1.00  0.00    -0.014 A 
BRANCH  33  34
ATOM     34  C   UNL A   1      36.980  32.844  33.554  1.00  0.00     0.031 A 
ATOM     35  C   UNL A   1      37.563  32.951  34.930  1.00  0.00     0.074 A 
ATOM     36  C   UNL A   1      37.497  31.942  32.707  1.00  0.00     0.049 A 
ATOM     37  N   UNL A   1      38.737  32.589  35.378  1.00  0.00    -0.248 NA
ATOM     38  C   UNL A   1      36.690  33.546  35.944  1.00  0.00     0.031 C 
ATOM     39  C   UNL A   1      36.973  31.622  31.384  1.00  0.00     0.029 A 
ATOM     40  N   UNL A   1      38.576  31.110  32.860  1.00  0.00    -0.354 N 
ATOM     41  C   UNL A   1      38.785  33.026  36.698  1.00  0.00     0.074 A 
ATOM     42  C   UNL A   1      37.497  33.603  36.994  1.00  0.00     0.031 C 
ATOM     43  C   UNL A   1      37.706  30.629  30.858  1.00  0.00     0.029 A 
ATOM     44  C   UNL A   1      38.802  30.311  31.771  1.00  0.00     0.049 A 
ATOM     45  H   UNL A   1      39.133  31.089  33.671  1.00  0.00     0.167 HD
ATOM     46  C   UNL A   1      39.823  32.967  37.566  1.00  0.00     0.037 A 
ATOM     47  C   UNL A   1      39.804  29.448  31.525  1.00  0.00     0.037 A 
ATOM     48  C   UNL A   1      41.037  32.243  37.299  1.00  0.00     0.049 A 
ATOM     49  C   UNL A   1      40.900  29.282  32.540  1.00  0.00     0.074 A 
ATOM     50  C   UNL A   1      42.188  32.147  38.061  1.00  0.00     0.029 A 
ATOM     51  N   UNL A   1      41.213  31.417  36.200  1.00  0.00    -0.354 N 
ATOM     52  N   UNL A   1      41.070  29.905  33.680  1.00  0.00    -0.248 NA
ATOM     53  C   UNL A   1      41.951  28.306  32.226  1.00  0.00     0.031 C 
ATOM     54  C   UNL A   1      43.050  31.239  37.432  1.00  0.00     0.029 A 
ATOM     55  C   UNL A   1      42.425  30.761  36.291  1.00  0.00     0.049 A 
ATOM     56  H   UNL A   1      40.569  31.315  35.461  1.00  0.00     0.167 HD
ATOM     57  C   UNL A   1      42.249  29.407  34.216  1.00  0.00     0.074 A 
ATOM     58  C   UNL A   1      42.736  28.406  33.290  1.00  0.00     0.031 C 
ATOM     59  C   UNL A   1      42.881  29.760  35.363  1.00  0.00     0.037 A 
BRANCH  46  60
ATOM     60  C   UNL A   1      39.714  33.745  38.844  1.00  0.00     0.064 A 
ATOM     61  C   UNL A   1      39.102  33.228  39.994  1.00  0.00     0.173 A 
ATOM     62  C   UNL A   1      40.258  35.038  38.919  1.00  0.00     0.173 A 
ATOM     63  F   UNL A   1      38.551  32.006  39.973  1.00  0.00    -0.203 F 
ATOM     64  C   UNL A   1      39.019  33.985  41.163  1.00  0.00     0.198 A 
ATOM     65  C   UNL A   1      40.199  35.780  40.096  1.00  0.00     0.198 A 
ATOM     66  F   UNL A   1      40.861  35.580  37.849  1.00  0.00    -0.203 F 
ATOM     67  F   UNL A   1      38.396  33.484  42.239  1.00  0.00    -0.200 F 
ATOM     68  C   UNL A   1      39.574  35.255  41.215  1.00  0.00     0.200 A 
ATOM     69  F   UNL A   1      40.750  37.001  40.147  1.00  0.00    -0.200 F 
ATOM     70  F   UNL A   1      39.506  35.974  42.345  1.00  0.00    -0.200 F 
ENDBRANCH  46  60
BRANCH  47  71
ATOM     71  C   UNL A   1      39.798  28.699  30.248  1.00  0.00     0.064 A 
ATOM     72  C   UNL A   1      40.416  29.223  29.106  1.00  0.00     0.173 A 
ATOM     73  C   UNL A   1      39.257  27.407  30.169  1.00  0.00     0.173 A 
ATOM     74  F   UNL A   1      40.933  30.459  29.133  1.00  0.00    -0.203 F 
ATOM     75  C   UNL A   1      40.499  28.479  27.932  1.00  0.00     0.198 A 
ATOM     76  C   UNL A   1      39.365  26.654  29.004  1.00  0.00     0.198 A 
ATOM     77  F   UNL A   1      38.667  26.861  31.243  1.00  0.00    -0.203 F 
ATOM     78  F   UNL A   1      41.085  29.005  26.849  1.00  0.00    -0.200 F 
ATOM     79  C   UNL A   1      39.986  27.190  27.887  1.00  0.00     0.200 A 
ATOM     80  F   UNL A   1      38.887  25.402  28.972  1.00  0.00    -0.200 F 
ATOM     81  F   UNL A   1      40.093  26.464  26.766  1.00  0.00    -0.200 F 
ENDBRANCH  47  71
BRANCH  59  82
ATOM     82  C   UNL A   1      44.152  29.044  35.692  1.00  0.00     0.064 A 
ATOM     83  C   UNL A   1      45.393  29.542  35.271  1.00  0.00     0.173 A 
ATOM     84  C   UNL A   1      44.131  27.880  36.471  1.00  0.00     0.173 A 
ATOM     85  F   UNL A   1      45.456  30.648  34.516  1.00  0.00    -0.203 F 
ATOM     86  C   UNL A   1      46.573  28.885  35.610  1.00  0.00     0.198 A 
ATOM     87  C   UNL A   1      45.313  27.235  36.819  1.00  0.00     0.198 A 
ATOM     88  F   UNL A   1      42.964  27.373  36.898  1.00  0.00    -0.203 F 
ATOM     89  F   UNL A   1      47.749  29.361  35.177  1.00  0.00    -0.200 F 
ATOM     90  C   UNL A   1      46.532  27.736  36.386  1.00  0.00     0.200 A 
ATOM     91  F   UNL A   1      45.274  26.127  37.572  1.00  0.00    -0.200 F 
ATOM     92  F   UNL A   1      47.670  27.106  36.711  1.00  0.00    -0.200 F 
ENDBRANCH  59  82
ENDBRANCH  33  34
ENDBRANCH  26  28
ENDBRANCH  25  26
ENDBRANCH  24  25
ENDBRANCH   1  24
TORSDOF 15
ENDMDL
MODEL 3
REMARK VINA RESULT:     -11.8      0.865      1.930
REMARK SMILES O=C(C[C@@H]1CSCC[NH2+]1)NC[C@H]1CC[C@@H](C(=O)OCCOC(=O)c2ccc(-c3c4nc(c(-c5c(F)c(F)c(F)c(F)c5F)c5ccc([nH]5)c(-c5c(F)c(F)c(F)c(F)c5F)c5nc(c(-c6c(F)c(F)c(F)c(F)c6F)c6ccc3[nH]6)C=C5)C=C4)cc2)O1
REMARK SMILES IDX 19 1 18 2 16 3 17 4 15 5 12 6 13 7 87 8 14 9 11 10 10 11
REMARK SMILES IDX 1 12 2 13 3 15 4 16 5 17 9 18 6 19 8 20 7 23 20 24 21 25
REMARK SMILES IDX 22 26 23 27 24 28 25 29 86 30 26 31 85 32 27 33 28 34 29 35
REMARK SMILES IDX 79 36 30 37 84 38 78 39 80 40 31 41 83 42 77 43 76 44 32 46
REMARK SMILES IDX 64 47 44 48 63 49 45 50 48 51 62 52 81 53 46 54 47 55 61 57
REMARK SMILES IDX 82 58 49 59 33 60 34 61 42 62 35 63 36 64 40 65 43 66 37 67
REMARK SMILES IDX 38 68 41 69 39 70 65 71 66 72 74 73 67 74 68 75 72 76 75 77
REMARK SMILES IDX 69 78 70 79 73 80 71 81 50 82 51 83 59 84 52 85 53 86 57 87
REMARK SMILES IDX 60 88 54 89 55 90 58 91 56 92
REMARK H PARENT 10 14 9 21 9 22 80 45 48 56
REMARK Flexibility Score: inf
ROOT
ATOM      1  C   UNL A   1      31.402  29.050  25.226  1.00  0.00     0.274 C 
ENDROOT
BRANCH   1   2
ATOM      2  O   UNL A   1      31.768  27.667  25.037  1.00  0.00    -0.460 OA
BRANCH   2   3
ATOM      3  C   UNL A   1      31.947  26.946  26.176  1.00  0.00     0.335 C 
ATOM      4  O   UNL A   1      31.181  26.954  27.134  1.00  0.00    -0.249 OA
BRANCH   3   5
ATOM      5  C   UNL A   1      33.175  26.034  26.123  1.00  0.00     0.228 C 
ATOM      6  C   UNL A   1      33.727  23.799  25.674  1.00  0.00     0.138 C 
ATOM      7  C   UNL A   1      34.741  24.719  25.003  1.00  0.00     0.037 C 
ATOM      8  O   UNL A   1      32.863  24.666  26.437  1.00  0.00    -0.361 OA
ATOM      9  C   UNL A   1      33.948  25.995  24.819  1.00  0.00     0.047 C 
BRANCH   6  10
ATOM     10  C   UNL A   1      32.912  23.032  24.626  1.00  0.00     0.147 C 
BRANCH  10  11
ATOM     11  N   UNL A   1      32.894  21.590  24.782  1.00  0.00    -0.353 N 
ATOM     12  O   UNL A   1      32.078  21.358  22.661  1.00  0.00    -0.275 OA
ATOM     13  C   UNL A   1      32.407  20.842  23.729  1.00  0.00     0.226 C 
ATOM     14  H   UNL A   1      33.217  21.161  25.606  1.00  0.00     0.163 HD
BRANCH  13  15
ATOM     15  C   UNL A   1      32.368  19.345  23.925  1.00  0.00     0.165 C 
BRANCH  15  16
ATOM     16  C   UNL A   1      33.408  18.879  24.963  1.00  0.00     0.201 C 
ATOM     17  C   UNL A   1      34.634  18.129  24.396  1.00  0.00     0.135 C 
ATOM     18  N   UNL A   1      32.775  18.158  26.101  1.00  0.00    -0.342 N 
ATOM     19  S   UNL A   1      34.253  16.462  23.787  1.00  0.00    -0.150 SA
ATOM     20  C   UNL A   1      32.345  16.790  25.768  1.00  0.00     0.271 C 
ATOM     21  H   UNL A   1      31.957  18.688  26.404  1.00  0.00     0.346 HD
ATOM     22  H   UNL A   1      33.479  18.079  26.834  1.00  0.00     0.346 HD
ATOM     23  C   UNL A   1      33.464  15.855  25.302  1.00  0.00     0.131 C 
ENDBRANCH  15  16
ENDBRANCH  13  15
ENDBRANCH  10  11
ENDBRANCH   6  10
ENDBRANCH   3   5
ENDBRANCH   2   3
ENDBRANCH   1   2
BRANCH   1  24
ATOM     24  C   UNL A   1      32.629  29.898  25.552  1.00  0.00     0.275 C 
BRANCH  24  25
ATOM     25  O   UNL A   1      32.671  30.194  26.961  1.00  0.00    -0.458 OA
BRANCH  25  26
ATOM     26  C   UNL A   1      33.363  31.305  27.289  1.00  0.00     0.338 C 
ATOM     27  O   UNL A   1      32.972  32.460  27.282  1.00  0.00    -0.246 OA
BRANCH  26  28
ATOM     28  C   UNL A   1      34.743  30.975  27.677  1.00  0.00     0.060 A 
ATOM     29  C   UNL A   1      35.088  29.657  27.966  1.00  0.00     0.016 A 
ATOM     30  C   UNL A   1      35.623  32.017  27.976  1.00  0.00     0.016 A 
ATOM     31  C   UNL A   1      36.270  29.384  28.652  1.00  0.00     0.010 A 
ATOM     32  C   UNL A   1      36.839  31.735  28.605  1.00  0.00     0.010 A 
ATOM     33  C   UNL A   1      37.155  30.420  28.984  1.00  0.00    -0.014 A 
BRANCH  33  34
ATOM     34  C   UNL A   1      38.376  30.142  29.781  1.00  0.00     0.031 A 
ATOM     35  C   UNL A   1      39.495  29.337  29.193  1.00  0.00     0.074 A 
ATOM     36  C   UNL A   1      38.532  30.655  31.010  1.00  0.00     0.049 A 
ATOM     37  N   UNL A   1      40.479  28.708  29.780  1.00  0.00    -0.248 NA
ATOM     38  C   UNL A   1      39.504  29.235  27.732  1.00  0.00     0.031 C 
ATOM     39  C   UNL A   1      37.602  31.559  31.676  1.00  0.00     0.029 A 
ATOM     40  N   UNL A   1      39.558  30.497  31.905  1.00  0.00    -0.354 N 
ATOM     41  C   UNL A   1      41.152  28.035  28.767  1.00  0.00     0.074 A 
ATOM     42  C   UNL A   1      40.511  28.400  27.527  1.00  0.00     0.031 C 
ATOM     43  C   UNL A   1      38.119  31.913  32.863  1.00  0.00     0.029 A 
ATOM     44  C   UNL A   1      39.370  31.188  33.071  1.00  0.00     0.049 A 
ATOM     45  H   UNL A   1      40.351  29.941  31.727  1.00  0.00     0.167 HD
ATOM     46  C   UNL A   1      42.193  27.175  28.875  1.00  0.00     0.037 A 
ATOM     47  C   UNL A   1      40.109  31.202  34.196  1.00  0.00     0.037 A 
ATOM     48  C   UNL A   1      42.915  26.957  30.100  1.00  0.00     0.049 A 
ATOM     49  C   UNL A   1      41.339  30.344  34.282  1.00  0.00     0.074 A 
ATOM     50  C   UNL A   1      43.948  26.076  30.366  1.00  0.00     0.029 A 
ATOM     51  N   UNL A   1      42.717  27.703  31.251  1.00  0.00    -0.354 N 
ATOM     52  N   UNL A   1      41.822  29.503  33.400  1.00  0.00    -0.248 NA
ATOM     53  C   UNL A   1      42.118  30.423  35.525  1.00  0.00     0.031 C 
ATOM     54  C   UNL A   1      44.393  26.311  31.674  1.00  0.00     0.029 A 
ATOM     55  C   UNL A   1      43.646  27.348  32.210  1.00  0.00     0.049 A 
ATOM     56  H   UNL A   1      42.016  28.385  31.369  1.00  0.00     0.167 HD
ATOM     57  C   UNL A   1      42.952  28.946  33.980  1.00  0.00     0.074 A 
ATOM     58  C   UNL A   1      43.102  29.568  35.280  1.00  0.00     0.031 C 
ATOM     59  C   UNL A   1      43.782  27.992  33.490  1.00  0.00     0.037 A 
BRANCH  46  60
ATOM     60  C   UNL A   1      42.570  26.374  27.664  1.00  0.00     0.064 A 
ATOM     61  C   UNL A   1      43.572  26.778  26.771  1.00  0.00     0.173 A 
ATOM     62  C   UNL A   1      41.918  25.156  27.406  1.00  0.00     0.173 A 
ATOM     63  F   UNL A   1      44.214  27.940  26.961  1.00  0.00    -0.203 F 
ATOM     64  C   UNL A   1      43.893  26.005  25.655  1.00  0.00     0.198 A 
ATOM     65  C   UNL A   1      42.260  24.373  26.306  1.00  0.00     0.198 A 
ATOM     66  F   UNL A   1      40.955  24.719  28.231  1.00  0.00    -0.203 F 
ATOM     67  F   UNL A   1      44.828  26.431  24.795  1.00  0.00    -0.200 F 
ATOM     68  C   UNL A   1      43.242  24.801  25.428  1.00  0.00     0.200 A 
ATOM     69  F   UNL A   1      41.640  23.203  26.099  1.00  0.00    -0.200 F 
ATOM     70  F   UNL A   1      43.562  24.053  24.363  1.00  0.00    -0.200 F 
ENDBRANCH  46  60
BRANCH  47  71
ATOM     71  C   UNL A   1      39.671  32.059  35.322  1.00  0.00     0.064 A 
ATOM     72  C   UNL A   1      40.095  33.389  35.419  1.00  0.00     0.173 A 
ATOM     73  C   UNL A   1      38.748  31.591  36.270  1.00  0.00     0.173 A 
ATOM     74  F   UNL A   1      40.986  33.872  34.542  1.00  0.00    -0.203 F 
ATOM     75  C   UNL A   1      39.606  34.225  36.420  1.00  0.00     0.198 A 
ATOM     76  C   UNL A   1      38.240  32.434  37.252  1.00  0.00     0.198 A 
ATOM     77  F   UNL A   1      38.305  30.326  36.207  1.00  0.00    -0.203 F 
ATOM     78  F   UNL A   1      40.034  35.491  36.499  1.00  0.00    -0.200 F 
ATOM     79  C   UNL A   1      38.669  33.751  37.327  1.00  0.00     0.200 A 
ATOM     80  F   UNL A   1      37.318  31.979  38.112  1.00  0.00    -0.200 F 
ATOM     81  F   UNL A   1      38.176  34.564  38.271  1.00  0.00    -0.200 F 
ENDBRANCH  47  71
BRANCH  59  82
ATOM     82  C   UNL A   1      44.934  27.580  34.349  1.00  0.00     0.064 A 
ATOM     83  C   UNL A   1      46.165  28.247  34.278  1.00  0.00     0.173 A 
ATOM     84  C   UNL A   1      44.791  26.544  35.280  1.00  0.00     0.173 A 
ATOM     85  F   UNL A   1      46.346  29.238  33.394  1.00  0.00    -0.203 F 
ATOM     86  C   UNL A   1      47.222  27.876  35.105  1.00  0.00     0.198 A 
ATOM     87  C   UNL A   1      45.845  26.186  36.115  1.00  0.00     0.198 A 
ATOM     88  F   UNL A   1      43.628  25.883  35.383  1.00  0.00    -0.203 F 
ATOM     89  F   UNL A   1      48.400  28.507  35.006  1.00  0.00    -0.200 F 
ATOM     90  C   UNL A   1      47.060  26.850  36.025  1.00  0.00     0.200 A 
ATOM     91  F   UNL A   1      45.688  25.197  37.006  1.00  0.00    -0.200 F 
ATOM     92  F   UNL A   1      48.079  26.496  36.820  1.00  0.00    -0.200 F 
ENDBRANCH  59  82
ENDBRANCH  33  34
ENDBRANCH  26  28
ENDBRANCH  25  26
ENDBRANCH  24  25
ENDBRANCH   1  24
TORSDOF 15
ENDMDL
