MODEL 1
REMARK VINA RESULT:     -11.3      0.000      0.000
REMARK SMILES CC1(C)CSC[C@H](N(CCC(=O)OCCOC(=O)c2ccc(-c3c4nc(c(-c5c(F)c(F)c(F)c(F)c5F)c5ccc([nH]5)c(-c5c(F)c(F)c(F)c(F)c5F)c5nc(c(-c6c(F)c(F)c(F)c(F)c6F)c6ccc3[nH]6)C=C5)C=C4)cc2)c2ccccc2)C1
REMARK SMILES IDX 14 1 13 2 11 3 12 4 10 5 9 6 8 7 7 8 1 9 2 10 3 11 4 12
REMARK SMILES IDX 88 13 5 14 6 15 82 16 83 17 87 18 84 19 86 20 85 21 15 22
REMARK SMILES IDX 16 23 17 24 18 25 19 26 20 27 81 28 21 29 80 30 22 31 23 32
REMARK SMILES IDX 24 33 74 34 25 35 79 36 73 37 75 38 26 39 78 40 72 41 71 42
REMARK SMILES IDX 27 44 59 45 39 46 58 47 40 48 43 49 57 50 76 51 41 52 42 53
REMARK SMILES IDX 56 55 77 56 44 57 28 58 29 59 37 60 30 61 31 62 35 63 38 64
REMARK SMILES IDX 32 65 33 66 36 67 34 68 60 69 61 70 69 71 62 72 63 73 67 74
REMARK SMILES IDX 70 75 64 76 65 77 68 78 66 79 45 80 46 81 54 82 47 83 48 84
REMARK SMILES IDX 52 85 55 86 49 87 50 88 53 89 51 90
REMARK H PARENT 75 43 43 54
REMARK Flexibility Score: inf
ROOT
ATOM      1  C   UNL A   1      38.005  19.815  24.997  1.00  0.00     0.274 C 
ENDROOT
BRANCH   1   2
ATOM      2  O   UNL A   1      37.942  21.252  25.010  1.00  0.00    -0.462 OA
BRANCH   2   3
ATOM      3  C   UNL A   1      36.845  21.882  25.469  1.00  0.00     0.307 C 
ATOM      4  O   UNL A   1      36.831  23.013  25.940  1.00  0.00    -0.252 OA
BRANCH   3   5
ATOM      5  C   UNL A   1      35.615  21.007  25.389  1.00  0.00     0.144 C 
BRANCH   5   6
ATOM      6  C   UNL A   1      34.468  21.443  26.301  1.00  0.00     0.128 C 
BRANCH   6   7
ATOM      7  N   UNL A   1      33.161  21.317  25.645  1.00  0.00    -0.367 N 
BRANCH   7   8
ATOM      8  C   UNL A   1      32.387  22.542  25.352  1.00  0.00     0.092 C 
ATOM      9  C   UNL A   1      31.591  24.513  23.018  1.00  0.00     0.012 C 
ATOM     10  C   UNL A   1      32.548  24.860  24.184  1.00  0.00    -0.024 C 
ATOM     11  C   UNL A   1      33.626  25.832  23.658  1.00  0.00     0.012 C 
ATOM     12  C   UNL A   1      31.808  25.551  25.351  1.00  0.00     0.076 C 
ATOM     13  C   UNL A   1      33.283  23.596  24.679  1.00  0.00     0.033 C 
ATOM     14  S   UNL A   1      30.593  24.495  26.207  1.00  0.00    -0.159 SA
ATOM     15  C   UNL A   1      31.687  23.095  26.604  1.00  0.00     0.094 C 
ENDBRANCH   7   8
BRANCH   7  16
ATOM     16  C   UNL A   1      32.877  20.136  24.974  1.00  0.00     0.037 A 
ATOM     17  C   UNL A   1      32.559  20.171  23.609  1.00  0.00     0.026 A 
ATOM     18  C   UNL A   1      32.905  18.889  25.607  1.00  0.00     0.026 A 
ATOM     19  C   UNL A   1      32.250  19.008  22.902  1.00  0.00     0.002 A 
ATOM     20  C   UNL A   1      32.632  17.716  24.896  1.00  0.00     0.002 A 
ATOM     21  C   UNL A   1      32.296  17.776  23.546  1.00  0.00     0.000 A 
ENDBRANCH   7  16
ENDBRANCH   6   7
ENDBRANCH   5   6
ENDBRANCH   3   5
ENDBRANCH   2   3
ENDBRANCH   1   2
BRANCH   1  22
ATOM     22  C   UNL A   1      39.265  19.367  25.735  1.00  0.00     0.275 C 
BRANCH  22  23
ATOM     23  O   UNL A   1      40.091  20.520  25.963  1.00  0.00    -0.458 OA
BRANCH  23  24
ATOM     24  C   UNL A   1      40.634  20.623  27.195  1.00  0.00     0.338 C 
ATOM     25  O   UNL A   1      40.903  19.741  27.989  1.00  0.00    -0.246 OA
BRANCH  24  26
ATOM     26  C   UNL A   1      41.023  22.022  27.374  1.00  0.00     0.060 A 
ATOM     27  C   UNL A   1      40.478  22.987  26.521  1.00  0.00     0.016 A 
ATOM     28  C   UNL A   1      41.910  22.373  28.390  1.00  0.00     0.016 A 
ATOM     29  C   UNL A   1      40.817  24.323  26.687  1.00  0.00     0.010 A 
ATOM     30  C   UNL A   1      42.247  23.713  28.556  1.00  0.00     0.010 A 
ATOM     31  C   UNL A   1      41.709  24.690  27.701  1.00  0.00    -0.014 A 
BRANCH  31  32
ATOM     32  C   UNL A   1      42.145  26.095  27.828  1.00  0.00     0.031 A 
ATOM     33  C   UNL A   1      43.469  26.497  27.252  1.00  0.00     0.074 A 
ATOM     34  C   UNL A   1      41.363  26.984  28.463  1.00  0.00     0.049 A 
ATOM     35  N   UNL A   1      44.095  27.641  27.332  1.00  0.00    -0.248 NA
ATOM     36  C   UNL A   1      44.189  25.464  26.490  1.00  0.00     0.031 C 
ATOM     37  C   UNL A   1      40.045  26.696  29.027  1.00  0.00     0.029 A 
ATOM     38  N   UNL A   1      41.570  28.308  28.751  1.00  0.00    -0.354 N 
ATOM     39  C   UNL A   1      45.290  27.461  26.648  1.00  0.00     0.074 A 
ATOM     40  C   UNL A   1      45.315  26.090  26.185  1.00  0.00     0.031 C 
ATOM     41  C   UNL A   1      39.562  27.810  29.599  1.00  0.00     0.029 A 
ATOM     42  C   UNL A   1      40.556  28.873  29.482  1.00  0.00     0.049 A 
ATOM     43  H   UNL A   1      42.370  28.804  28.461  1.00  0.00     0.167 HD
ATOM     44  C   UNL A   1      46.270  28.368  26.423  1.00  0.00     0.037 A 
ATOM     45  C   UNL A   1      40.461  30.104  30.018  1.00  0.00     0.037 A 
ATOM     46  C   UNL A   1      46.222  29.728  26.892  1.00  0.00     0.049 A 
ATOM     47  C   UNL A   1      41.595  31.073  29.806  1.00  0.00     0.074 A 
ATOM     48  C   UNL A   1      47.149  30.738  26.711  1.00  0.00     0.029 A 
ATOM     49  N   UNL A   1      45.186  30.265  27.646  1.00  0.00    -0.354 N 
ATOM     50  N   UNL A   1      42.714  30.908  29.143  1.00  0.00    -0.248 NA
ATOM     51  C   UNL A   1      41.451  32.400  30.418  1.00  0.00     0.031 C 
ATOM     52  C   UNL A   1      46.704  31.867  27.404  1.00  0.00     0.029 A 
ATOM     53  C   UNL A   1      45.466  31.584  27.962  1.00  0.00     0.049 A 
ATOM     54  H   UNL A   1      44.374  29.780  27.916  1.00  0.00     0.167 HD
ATOM     55  C   UNL A   1      43.395  32.115  29.231  1.00  0.00     0.074 A 
ATOM     56  C   UNL A   1      42.551  33.009  29.999  1.00  0.00     0.031 C 
ATOM     57  C   UNL A   1      44.605  32.455  28.725  1.00  0.00     0.037 A 
BRANCH  44  58
ATOM     58  C   UNL A   1      47.483  27.906  25.670  1.00  0.00     0.064 A 
ATOM     59  C   UNL A   1      47.506  27.840  24.268  1.00  0.00     0.173 A 
ATOM     60  C   UNL A   1      48.648  27.538  26.362  1.00  0.00     0.173 A 
ATOM     61  F   UNL A   1      46.415  28.162  23.559  1.00  0.00    -0.203 F 
ATOM     62  C   UNL A   1      48.639  27.394  23.590  1.00  0.00     0.198 A 
ATOM     63  C   UNL A   1      49.789  27.126  25.678  1.00  0.00     0.198 A 
ATOM     64  F   UNL A   1      48.682  27.582  27.701  1.00  0.00    -0.203 F 
ATOM     65  F   UNL A   1      48.619  27.286  22.254  1.00  0.00    -0.200 F 
ATOM     66  C   UNL A   1      49.781  27.045  24.295  1.00  0.00     0.200 A 
ATOM     67  F   UNL A   1      50.895  26.800  26.361  1.00  0.00    -0.200 F 
ATOM     68  F   UNL A   1      50.872  26.622  23.640  1.00  0.00    -0.200 F 
ENDBRANCH  44  58
BRANCH  45  69
ATOM     69  C   UNL A   1      39.262  30.483  30.810  1.00  0.00     0.064 A 
ATOM     70  C   UNL A   1      39.192  30.225  32.186  1.00  0.00     0.173 A 
ATOM     71  C   UNL A   1      38.157  31.104  30.209  1.00  0.00     0.173 A 
ATOM     72  F   UNL A   1      40.214  29.613  32.805  1.00  0.00    -0.203 F 
ATOM     73  C   UNL A   1      38.057  30.551  32.925  1.00  0.00     0.198 A 
ATOM     74  C   UNL A   1      37.034  31.459  30.955  1.00  0.00     0.198 A 
ATOM     75  F   UNL A   1      38.169  31.374  28.895  1.00  0.00    -0.203 F 
ATOM     76  F   UNL A   1      37.997  30.244  34.228  1.00  0.00    -0.200 F 
ATOM     77  C   UNL A   1      36.981  31.174  32.310  1.00  0.00     0.200 A 
ATOM     78  F   UNL A   1      36.003  32.075  30.359  1.00  0.00    -0.200 F 
ATOM     79  F   UNL A   1      35.891  31.490  33.022  1.00  0.00    -0.200 F 
ENDBRANCH  45  69
BRANCH  57  80
ATOM     80  C   UNL A   1      45.071  33.865  28.953  1.00  0.00     0.064 A 
ATOM     81  C   UNL A   1      45.873  34.210  30.050  1.00  0.00     0.173 A 
ATOM     82  C   UNL A   1      44.738  34.876  28.038  1.00  0.00     0.173 A 
ATOM     83  F   UNL A   1      46.208  33.284  30.962  1.00  0.00    -0.203 F 
ATOM     84  C   UNL A   1      46.299  35.522  30.240  1.00  0.00     0.198 A 
ATOM     85  C   UNL A   1      45.196  36.178  28.212  1.00  0.00     0.198 A 
ATOM     86  F   UNL A   1      43.981  34.597  26.966  1.00  0.00    -0.203 F 
ATOM     87  F   UNL A   1      47.018  35.841  31.326  1.00  0.00    -0.200 F 
ATOM     88  C   UNL A   1      45.968  36.503  29.316  1.00  0.00     0.200 A 
ATOM     89  F   UNL A   1      44.890  37.121  27.309  1.00  0.00    -0.200 F 
ATOM     90  F   UNL A   1      46.386  37.763  29.497  1.00  0.00    -0.200 F 
ENDBRANCH  57  80
ENDBRANCH  31  32
ENDBRANCH  24  26
ENDBRANCH  23  24
ENDBRANCH  22  23
ENDBRANCH   1  22
TORSDOF 15
ENDMDL
MODEL 2
REMARK VINA RESULT:     -11.3      5.240      8.812
REMARK SMILES CC1(C)CSC[C@H](N(CCC(=O)OCCOC(=O)c2ccc(-c3c4nc(c(-c5c(F)c(F)c(F)c(F)c5F)c5ccc([nH]5)c(-c5c(F)c(F)c(F)c(F)c5F)c5nc(c(-c6c(F)c(F)c(F)c(F)c6F)c6ccc3[nH]6)C=C5)C=C4)cc2)c2ccccc2)C1
REMARK SMILES IDX 14 1 13 2 11 3 12 4 10 5 9 6 8 7 7 8 1 9 2 10 3 11 4 12
REMARK SMILES IDX 88 13 5 14 6 15 82 16 83 17 87 18 84 19 86 20 85 21 15 22
REMARK SMILES IDX 16 23 17 24 18 25 19 26 20 27 81 28 21 29 80 30 22 31 23 32
REMARK SMILES IDX 24 33 74 34 25 35 79 36 73 37 75 38 26 39 78 40 72 41 71 42
REMARK SMILES IDX 27 44 59 45 39 46 58 47 40 48 43 49 57 50 76 51 41 52 42 53
REMARK SMILES IDX 56 55 77 56 44 57 28 58 29 59 37 60 30 61 31 62 35 63 38 64
REMARK SMILES IDX 32 65 33 66 36 67 34 68 60 69 61 70 69 71 62 72 63 73 67 74
REMARK SMILES IDX 70 75 64 76 65 77 68 78 66 79 45 80 46 81 54 82 47 83 48 84
REMARK SMILES IDX 52 85 55 86 49 87 50 88 53 89 51 90
REMARK H PARENT 75 43 43 54
REMARK Flexibility Score: inf
ROOT
ATOM      1  C   UNL A   1      31.894  31.420  26.428  1.00  0.00     0.274 C 
ENDROOT
BRANCH   1   2
ATOM      2  O   UNL A   1      32.477  30.400  27.257  1.00  0.00    -0.462 OA
BRANCH   2   3
ATOM      3  C   UNL A   1      33.724  29.955  27.016  1.00  0.00     0.307 C 
ATOM      4  O   UNL A   1      34.749  30.483  27.429  1.00  0.00    -0.252 OA
BRANCH   3   5
ATOM      5  C   UNL A   1      33.727  28.739  26.117  1.00  0.00     0.144 C 
BRANCH   5   6
ATOM      6  C   UNL A   1      32.561  27.779  26.348  1.00  0.00     0.128 C 
BRANCH   6   7
ATOM      7  N   UNL A   1      32.161  27.087  25.117  1.00  0.00    -0.367 N 
BRANCH   7   8
ATOM      8  C   UNL A   1      32.644  25.710  24.882  1.00  0.00     0.092 C 
ATOM      9  C   UNL A   1      31.879  22.675  25.296  1.00  0.00     0.012 C 
ATOM     10  C   UNL A   1      33.006  23.418  26.054  1.00  0.00    -0.024 C 
ATOM     11  C   UNL A   1      33.099  22.835  27.482  1.00  0.00     0.012 C 
ATOM     12  C   UNL A   1      34.379  23.233  25.371  1.00  0.00     0.076 C 
ATOM     13  C   UNL A   1      32.668  24.917  26.199  1.00  0.00     0.033 C 
ATOM     14  S   UNL A   1      34.512  24.000  23.723  1.00  0.00    -0.159 SA
ATOM     15  C   UNL A   1      34.006  25.690  24.171  1.00  0.00     0.094 C 
ENDBRANCH   7   8
BRANCH   7  16
ATOM     16  C   UNL A   1      31.057  27.567  24.427  1.00  0.00     0.037 A 
ATOM     17  C   UNL A   1      31.096  28.849  23.859  1.00  0.00     0.026 A 
ATOM     18  C   UNL A   1      29.891  26.814  24.260  1.00  0.00     0.026 A 
ATOM     19  C   UNL A   1      30.002  29.376  23.172  1.00  0.00     0.002 A 
ATOM     20  C   UNL A   1      28.803  27.322  23.542  1.00  0.00     0.002 A 
ATOM     21  C   UNL A   1      28.854  28.606  23.006  1.00  0.00     0.000 A 
ENDBRANCH   7  16
ENDBRANCH   6   7
ENDBRANCH   5   6
ENDBRANCH   3   5
ENDBRANCH   2   3
ENDBRANCH   1   2
BRANCH   1  22
ATOM     22  C   UNL A   1      31.735  32.697  27.251  1.00  0.00     0.275 C 
BRANCH  22  23
ATOM     23  O   UNL A   1      32.983  33.408  27.232  1.00  0.00    -0.458 OA
BRANCH  23  24
ATOM     24  C   UNL A   1      33.208  34.237  28.273  1.00  0.00     0.338 C 
ATOM     25  O   UNL A   1      32.533  35.170  28.668  1.00  0.00    -0.246 OA
BRANCH  24  26
ATOM     26  C   UNL A   1      34.366  33.712  28.996  1.00  0.00     0.060 A 
ATOM     27  C   UNL A   1      35.630  34.242  28.718  1.00  0.00     0.016 A 
ATOM     28  C   UNL A   1      34.195  32.711  29.951  1.00  0.00     0.016 A 
ATOM     29  C   UNL A   1      36.740  33.774  29.408  1.00  0.00     0.010 A 
ATOM     30  C   UNL A   1      35.309  32.244  30.643  1.00  0.00     0.010 A 
ATOM     31  C   UNL A   1      36.584  32.767  30.368  1.00  0.00    -0.014 A 
BRANCH  31  32
ATOM     32  C   UNL A   1      37.770  32.199  31.040  1.00  0.00     0.031 A 
ATOM     33  C   UNL A   1      38.561  31.137  30.339  1.00  0.00     0.074 A 
ATOM     34  C   UNL A   1      38.113  32.627  32.266  1.00  0.00     0.049 A 
ATOM     35  N   UNL A   1      39.569  30.430  30.775  1.00  0.00    -0.248 NA
ATOM     36  C   UNL A   1      38.152  30.822  28.961  1.00  0.00     0.031 C 
ATOM     37  C   UNL A   1      37.426  33.679  33.015  1.00  0.00     0.029 A 
ATOM     38  N   UNL A   1      39.120  32.223  33.102  1.00  0.00    -0.354 N 
ATOM     39  C   UNL A   1      39.904  29.575  29.734  1.00  0.00     0.074 A 
ATOM     40  C   UNL A   1      38.973  29.829  28.655  1.00  0.00     0.031 C 
ATOM     41  C   UNL A   1      38.029  33.834  34.204  1.00  0.00     0.029 A 
ATOM     42  C   UNL A   1      39.111  32.861  34.317  1.00  0.00     0.049 A 
ATOM     43  H   UNL A   1      39.785  31.540  32.855  1.00  0.00     0.167 HD
ATOM     44  C   UNL A   1      40.907  28.666  29.687  1.00  0.00     0.037 A 
ATOM     45  C   UNL A   1      39.878  32.656  35.404  1.00  0.00     0.037 A 
ATOM     46  C   UNL A   1      41.823  28.431  30.772  1.00  0.00     0.049 A 
ATOM     47  C   UNL A   1      40.945  31.595  35.347  1.00  0.00     0.074 A 
ATOM     48  C   UNL A   1      42.885  27.548  30.830  1.00  0.00     0.029 A 
ATOM     49  N   UNL A   1      41.776  29.084  31.998  1.00  0.00    -0.354 N 
ATOM     50  N   UNL A   1      41.273  30.802  34.355  1.00  0.00    -0.248 NA
ATOM     51  C   UNL A   1      41.749  31.401  36.560  1.00  0.00     0.031 C 
ATOM     52  C   UNL A   1      43.444  27.623  32.110  1.00  0.00     0.029 A 
ATOM     53  C   UNL A   1      42.774  28.601  32.828  1.00  0.00     0.049 A 
ATOM     54  H   UNL A   1      41.129  29.785  32.239  1.00  0.00     0.167 HD
ATOM     55  C   UNL A   1      42.338  30.036  34.812  1.00  0.00     0.074 A 
ATOM     56  C   UNL A   1      42.611  30.475  36.166  1.00  0.00     0.031 C 
ATOM     57  C   UNL A   1      43.027  29.060  34.172  1.00  0.00     0.037 A 
BRANCH  44  58
ATOM     58  C   UNL A   1      41.038  27.842  28.440  1.00  0.00     0.064 A 
ATOM     59  C   UNL A   1      41.846  28.245  27.364  1.00  0.00     0.173 A 
ATOM     60  C   UNL A   1      40.356  26.620  28.323  1.00  0.00     0.173 A 
ATOM     61  F   UNL A   1      42.504  29.412  27.415  1.00  0.00    -0.203 F 
ATOM     62  C   UNL A   1      41.942  27.470  26.210  1.00  0.00     0.198 A 
ATOM     63  C   UNL A   1      40.482  25.833  27.182  1.00  0.00     0.198 A 
ATOM     64  F   UNL A   1      39.572  26.186  29.320  1.00  0.00    -0.203 F 
ATOM     65  F   UNL A   1      42.675  27.903  25.175  1.00  0.00    -0.200 F 
ATOM     66  C   UNL A   1      41.266  26.262  26.122  1.00  0.00     0.200 A 
ATOM     67  F   UNL A   1      39.838  24.660  27.104  1.00  0.00    -0.200 F 
ATOM     68  F   UNL A   1      41.365  25.516  25.014  1.00  0.00    -0.200 F 
ENDBRANCH  44  58
BRANCH  45  69
ATOM     69  C   UNL A   1      39.658  33.461  36.635  1.00  0.00     0.064 A 
ATOM     70  C   UNL A   1      38.715  33.070  37.596  1.00  0.00     0.173 A 
ATOM     71  C   UNL A   1      40.378  34.641  36.874  1.00  0.00     0.173 A 
ATOM     72  F   UNL A   1      37.984  31.961  37.405  1.00  0.00    -0.203 F 
ATOM     73  C   UNL A   1      38.485  33.839  38.735  1.00  0.00     0.198 A 
ATOM     74  C   UNL A   1      40.170  35.392  38.029  1.00  0.00     0.198 A 
ATOM     75  F   UNL A   1      41.292  35.062  35.988  1.00  0.00    -0.203 F 
ATOM     76  F   UNL A   1      37.540  33.469  39.610  1.00  0.00    -0.200 F 
ATOM     77  C   UNL A   1      39.217  34.996  38.954  1.00  0.00     0.200 A 
ATOM     78  F   UNL A   1      40.891  36.502  38.244  1.00  0.00    -0.200 F 
ATOM     79  F   UNL A   1      38.997  35.733  40.051  1.00  0.00    -0.200 F 
ENDBRANCH  45  69
BRANCH  57  80
ATOM     80  C   UNL A   1      44.168  28.427  34.917  1.00  0.00     0.064 A 
ATOM     81  C   UNL A   1      44.001  27.257  35.671  1.00  0.00     0.173 A 
ATOM     82  C   UNL A   1      45.455  28.984  34.843  1.00  0.00     0.173 A 
ATOM     83  F   UNL A   1      42.789  26.694  35.785  1.00  0.00    -0.203 F 
ATOM     84  C   UNL A   1      45.074  26.684  36.349  1.00  0.00     0.198 A 
ATOM     85  C   UNL A   1      46.532  28.388  35.492  1.00  0.00     0.198 A 
ATOM     86  F   UNL A   1      45.671  30.098  34.128  1.00  0.00    -0.203 F 
ATOM     87  F   UNL A   1      44.881  25.598  37.110  1.00  0.00    -0.200 F 
ATOM     88  C   UNL A   1      46.340  27.245  36.252  1.00  0.00     0.200 A 
ATOM     89  F   UNL A   1      47.757  28.921  35.383  1.00  0.00    -0.200 F 
ATOM     90  F   UNL A   1      47.372  26.686  36.899  1.00  0.00    -0.200 F 
ENDBRANCH  57  80
ENDBRANCH  31  32
ENDBRANCH  24  26
ENDBRANCH  23  24
ENDBRANCH  22  23
ENDBRANCH   1  22
TORSDOF 15
ENDMDL
MODEL 3
REMARK VINA RESULT:     -11.2      1.911      7.487
REMARK SMILES CC1(C)CSC[C@H](N(CCC(=O)OCCOC(=O)c2ccc(-c3c4nc(c(-c5c(F)c(F)c(F)c(F)c5F)c5ccc([nH]5)c(-c5c(F)c(F)c(F)c(F)c5F)c5nc(c(-c6c(F)c(F)c(F)c(F)c6F)c6ccc3[nH]6)C=C5)C=C4)cc2)c2ccccc2)C1
REMARK SMILES IDX 14 1 13 2 11 3 12 4 10 5 9 6 8 7 7 8 1 9 2 10 3 11 4 12
REMARK SMILES IDX 88 13 5 14 6 15 82 16 83 17 87 18 84 19 86 20 85 21 15 22
REMARK SMILES IDX 16 23 17 24 18 25 19 26 20 27 81 28 21 29 80 30 22 31 23 32
REMARK SMILES IDX 24 33 74 34 25 35 79 36 73 37 75 38 26 39 78 40 72 41 71 42
REMARK SMILES IDX 27 44 59 45 39 46 58 47 40 48 43 49 57 50 76 51 41 52 42 53
REMARK SMILES IDX 56 55 77 56 44 57 28 58 29 59 37 60 30 61 31 62 35 63 38 64
REMARK SMILES IDX 32 65 33 66 36 67 34 68 60 69 61 70 69 71 62 72 63 73 67 74
REMARK SMILES IDX 70 75 64 76 65 77 68 78 66 79 45 80 46 81 54 82 47 83 48 84
REMARK SMILES IDX 52 85 55 86 49 87 50 88 53 89 51 90
REMARK H PARENT 75 43 43 54
REMARK Flexibility Score: inf
ROOT
ATOM      1  C   UNL A   1      39.046  21.440  26.124  1.00  0.00     0.274 C 
ENDROOT
BRANCH   1   2
ATOM      2  O   UNL A   1      37.937  21.926  25.347  1.00  0.00    -0.462 OA
BRANCH   2   3
ATOM      3  C   UNL A   1      37.429  23.151  25.576  1.00  0.00     0.307 C 
ATOM      4  O   UNL A   1      38.024  24.064  26.136  1.00  0.00    -0.252 OA
BRANCH   3   5
ATOM      5  C   UNL A   1      35.997  23.266  25.106  1.00  0.00     0.144 C 
BRANCH   5   6
ATOM      6  C   UNL A   1      34.966  23.355  26.232  1.00  0.00     0.128 C 
BRANCH   6   7
ATOM      7  N   UNL A   1      33.591  23.225  25.735  1.00  0.00    -0.367 N 
BRANCH   7   8
ATOM      8  C   UNL A   1      32.782  24.446  25.542  1.00  0.00     0.092 C 
ATOM      9  C   UNL A   1      32.866  27.343  24.289  1.00  0.00     0.012 C 
ATOM     10  C   UNL A   1      32.847  27.032  25.805  1.00  0.00    -0.024 C 
ATOM     11  C   UNL A   1      33.674  28.114  26.535  1.00  0.00     0.012 C 
ATOM     12  C   UNL A   1      31.413  27.056  26.381  1.00  0.00     0.076 C 
ATOM     13  C   UNL A   1      33.525  25.676  26.091  1.00  0.00     0.033 C 
ATOM     14  S   UNL A   1      30.323  25.739  25.747  1.00  0.00    -0.159 SA
ATOM     15  C   UNL A   1      31.375  24.307  26.143  1.00  0.00     0.094 C 
ENDBRANCH   7   8
BRANCH   7  16
ATOM     16  C   UNL A   1      33.236  22.044  25.097  1.00  0.00     0.037 A 
ATOM     17  C   UNL A   1      33.285  20.832  25.802  1.00  0.00     0.026 A 
ATOM     18  C   UNL A   1      32.815  22.009  23.765  1.00  0.00     0.026 A 
ATOM     19  C   UNL A   1      32.954  19.621  25.194  1.00  0.00     0.002 A 
ATOM     20  C   UNL A   1      32.447  20.803  23.159  1.00  0.00     0.002 A 
ATOM     21  C   UNL A   1      32.525  19.608  23.870  1.00  0.00     0.000 A 
ENDBRANCH   7  16
ENDBRANCH   6   7
ENDBRANCH   5   6
ENDBRANCH   3   5
ENDBRANCH   2   3
ENDBRANCH   1   2
BRANCH   1  22
ATOM     22  C   UNL A   1      39.480  20.083  25.574  1.00  0.00     0.275 C 
BRANCH  22  23
ATOM     23  O   UNL A   1      40.450  19.519  26.472  1.00  0.00    -0.458 OA
BRANCH  23  24
ATOM     24  C   UNL A   1      41.738  19.592  26.072  1.00  0.00     0.338 C 
ATOM     25  O   UNL A   1      42.372  18.810  25.388  1.00  0.00    -0.246 OA
BRANCH  24  26
ATOM     26  C   UNL A   1      42.235  20.909  26.471  1.00  0.00     0.060 A 
ATOM     27  C   UNL A   1      42.272  21.231  27.831  1.00  0.00     0.016 A 
ATOM     28  C   UNL A   1      42.675  21.809  25.502  1.00  0.00     0.016 A 
ATOM     29  C   UNL A   1      42.760  22.467  28.233  1.00  0.00     0.010 A 
ATOM     30  C   UNL A   1      43.167  23.046  25.907  1.00  0.00     0.010 A 
ATOM     31  C   UNL A   1      43.203  23.383  27.271  1.00  0.00    -0.014 A 
BRANCH  31  32
ATOM     32  C   UNL A   1      43.639  24.732  27.682  1.00  0.00     0.031 A 
ATOM     33  C   UNL A   1      42.600  25.753  28.033  1.00  0.00     0.074 A 
ATOM     34  C   UNL A   1      44.948  25.029  27.724  1.00  0.00     0.049 A 
ATOM     35  N   UNL A   1      42.745  27.019  28.321  1.00  0.00    -0.248 NA
ATOM     36  C   UNL A   1      41.205  25.284  28.051  1.00  0.00     0.031 C 
ATOM     37  C   UNL A   1      46.034  24.093  27.433  1.00  0.00     0.029 A 
ATOM     38  N   UNL A   1      45.587  26.205  28.016  1.00  0.00    -0.354 N 
ATOM     39  C   UNL A   1      41.462  27.503  28.536  1.00  0.00     0.074 A 
ATOM     40  C   UNL A   1      40.548  26.403  28.317  1.00  0.00     0.031 C 
ATOM     41  C   UNL A   1      47.208  24.734  27.556  1.00  0.00     0.029 A 
ATOM     42  C   UNL A   1      46.951  26.133  27.887  1.00  0.00     0.049 A 
ATOM     43  H   UNL A   1      45.113  27.023  28.291  1.00  0.00     0.167 HD
ATOM     44  C   UNL A   1      41.089  28.754  28.894  1.00  0.00     0.037 A 
ATOM     45  C   UNL A   1      47.881  27.100  27.998  1.00  0.00     0.037 A 
ATOM     46  C   UNL A   1      42.017  29.834  29.109  1.00  0.00     0.049 A 
ATOM     47  C   UNL A   1      47.432  28.498  28.335  1.00  0.00     0.074 A 
ATOM     48  C   UNL A   1      41.753  31.137  29.488  1.00  0.00     0.029 A 
ATOM     49  N   UNL A   1      43.394  29.732  28.953  1.00  0.00    -0.354 N 
ATOM     50  N   UNL A   1      46.221  28.949  28.558  1.00  0.00    -0.248 NA
ATOM     51  C   UNL A   1      48.481  29.521  28.435  1.00  0.00     0.031 C 
ATOM     52  C   UNL A   1      42.963  31.838  29.504  1.00  0.00     0.029 A 
ATOM     53  C   UNL A   1      43.989  30.957  29.201  1.00  0.00     0.049 A 
ATOM     54  H   UNL A   1      43.874  28.909  28.703  1.00  0.00     0.167 HD
ATOM     55  C   UNL A   1      46.362  30.298  28.853  1.00  0.00     0.074 A 
ATOM     56  C   UNL A   1      47.781  30.587  28.798  1.00  0.00     0.031 C 
ATOM     57  C   UNL A   1      45.407  31.216  29.144  1.00  0.00     0.037 A 
BRANCH  44  58
ATOM     58  C   UNL A   1      39.620  29.026  29.038  1.00  0.00     0.064 A 
ATOM     59  C   UNL A   1      38.822  29.396  27.944  1.00  0.00     0.173 A 
ATOM     60  C   UNL A   1      38.995  28.898  30.289  1.00  0.00     0.173 A 
ATOM     61  F   UNL A   1      39.371  29.551  26.730  1.00  0.00    -0.203 F 
ATOM     62  C   UNL A   1      37.463  29.657  28.103  1.00  0.00     0.198 A 
ATOM     63  C   UNL A   1      37.630  29.126  30.436  1.00  0.00     0.198 A 
ATOM     64  F   UNL A   1      39.708  28.545  31.368  1.00  0.00    -0.203 F 
ATOM     65  F   UNL A   1      36.734  30.064  27.055  1.00  0.00    -0.200 F 
ATOM     66  C   UNL A   1      36.866  29.515  29.347  1.00  0.00     0.200 A 
ATOM     67  F   UNL A   1      37.053  28.976  31.637  1.00  0.00    -0.200 F 
ATOM     68  F   UNL A   1      35.558  29.760  29.496  1.00  0.00    -0.200 F 
ENDBRANCH  44  58
BRANCH  45  69
ATOM     69  C   UNL A   1      49.317  26.784  27.779  1.00  0.00     0.064 A 
ATOM     70  C   UNL A   1      49.854  26.715  26.486  1.00  0.00     0.173 A 
ATOM     71  C   UNL A   1      50.182  26.536  28.856  1.00  0.00     0.173 A 
ATOM     72  F   UNL A   1      49.064  26.922  25.422  1.00  0.00    -0.203 F 
ATOM     73  C   UNL A   1      51.192  26.388  26.277  1.00  0.00     0.198 A 
ATOM     74  C   UNL A   1      51.528  26.241  28.648  1.00  0.00     0.198 A 
ATOM     75  F   UNL A   1      49.721  26.589  30.114  1.00  0.00    -0.203 F 
ATOM     76  F   UNL A   1      51.665  26.278  25.029  1.00  0.00    -0.200 F 
ATOM     77  C   UNL A   1      52.030  26.158  27.358  1.00  0.00     0.200 A 
ATOM     78  F   UNL A   1      52.337  26.035  29.696  1.00  0.00    -0.200 F 
ATOM     79  F   UNL A   1      53.318  25.847  27.157  1.00  0.00    -0.200 F 
ENDBRANCH  45  69
BRANCH  57  80
ATOM     80  C   UNL A   1      45.871  32.609  29.462  1.00  0.00     0.064 A 
ATOM     81  C   UNL A   1      46.232  32.989  30.762  1.00  0.00     0.173 A 
ATOM     82  C   UNL A   1      45.991  33.565  28.441  1.00  0.00     0.173 A 
ATOM     83  F   UNL A   1      46.123  32.117  31.777  1.00  0.00    -0.203 F 
ATOM     84  C   UNL A   1      46.665  34.284  31.035  1.00  0.00     0.198 A 
ATOM     85  C   UNL A   1      46.458  34.847  28.710  1.00  0.00     0.198 A 
ATOM     86  F   UNL A   1      45.668  33.250  27.177  1.00  0.00    -0.203 F 
ATOM     87  F   UNL A   1      46.951  34.642  32.294  1.00  0.00    -0.200 F 
ATOM     88  C   UNL A   1      46.786  35.209  30.008  1.00  0.00     0.200 A 
ATOM     89  F   UNL A   1      46.593  35.734  27.714  1.00  0.00    -0.200 F 
ATOM     90  F   UNL A   1      47.211  36.452  30.271  1.00  0.00    -0.200 F 
ENDBRANCH  57  80
ENDBRANCH  31  32
ENDBRANCH  24  26
ENDBRANCH  23  24
ENDBRANCH  22  23
ENDBRANCH   1  22
TORSDOF 15
ENDMDL
