MODEL 1
REMARK VINA RESULT:     -11.0      0.000      0.000
REMARK SMILES CC[NH2+]C(C)(C)C(=O)N[C@@](C)(C(=O)OCCOC(=O)c1ccc(-c2c3nc(c(-c4c(F)c(F)c(F)c(F)c4F)c4ccc([nH]4)c(-c4c(F)c(F)c(F)c(F)c4F)c4nc(c(-c5c(F)c(F)c(F)c(F)c5F)c5ccc2[nH]5)C=C4)C=C3)cc1)C(F)(F)F
REMARK SMILES IDX 15 1 14 2 12 3 13 4 10 5 11 6 9 7 7 8 8 9 4 11 5 12 6 13
REMARK SMILES IDX 3 14 2 17 1 18 83 19 84 20 85 21 86 22 16 23 17 24 18 25
REMARK SMILES IDX 19 26 20 27 21 28 82 29 22 30 81 31 23 32 24 33 25 34 75 35
REMARK SMILES IDX 26 36 80 37 74 38 76 39 27 40 79 41 73 42 72 43 28 45 60 46
REMARK SMILES IDX 40 47 59 48 41 49 44 50 58 51 77 52 42 53 43 54 57 56 78 57
REMARK SMILES IDX 45 58 29 59 30 60 38 61 31 62 32 63 36 64 39 65 33 66 34 67
REMARK SMILES IDX 37 68 35 69 61 70 62 71 70 72 63 73 64 74 68 75 71 76 65 77
REMARK SMILES IDX 66 78 69 79 67 80 46 81 47 82 55 83 48 84 49 85 53 86 56 87
REMARK SMILES IDX 50 88 51 89 54 90 52 91
REMARK H PARENT 9 10 3 15 3 16 76 44 44 55
REMARK Flexibility Score: inf
ROOT
ATOM      1  C   UNL A   1      32.028  29.233  24.737  1.00  0.00     0.274 C 
ENDROOT
BRANCH   1   2
ATOM      2  O   UNL A   1      31.062  28.157  24.754  1.00  0.00    -0.460 OA
BRANCH   2   3
ATOM      3  C   UNL A   1      31.530  26.938  25.172  1.00  0.00     0.341 C 
ATOM      4  O   UNL A   1      32.600  26.794  25.750  1.00  0.00    -0.249 OA
BRANCH   3   5
ATOM      5  C   UNL A   1      30.680  25.788  24.616  1.00  0.00     0.231 C 
ATOM      6  C   UNL A   1      29.317  26.446  24.274  1.00  0.00     0.058 C 
BRANCH   5   7
ATOM      7  N   UNL A   1      30.356  24.761  25.692  1.00  0.00    -0.328 N 
ATOM      8  C   UNL A   1      30.890  23.753  26.434  1.00  0.00     0.281 C 
ATOM      9  O   UNL A   1      30.149  23.412  27.367  1.00  0.00    -0.268 OA
ATOM     10  H   UNL A   1      29.409  24.864  25.944  1.00  0.00     0.165 HD
BRANCH   8  11
ATOM     11  C   UNL A   1      32.275  23.069  26.197  1.00  0.00     0.169 C 
ATOM     12  C   UNL A   1      32.193  22.210  24.939  1.00  0.00     0.090 C 
ATOM     13  C   UNL A   1      32.661  22.247  27.443  1.00  0.00     0.090 C 
BRANCH  11  14
ATOM     14  N   UNL A   1      33.400  24.046  26.066  1.00  0.00    -0.334 N 
ATOM     15  H   UNL A   1      33.418  24.357  25.094  1.00  0.00     0.347 HD
ATOM     16  H   UNL A   1      33.192  24.765  26.759  1.00  0.00     0.347 HD
BRANCH  14  17
ATOM     17  C   UNL A   1      34.749  23.597  26.401  1.00  0.00     0.257 C 
ATOM     18  C   UNL A   1      35.645  23.787  25.180  1.00  0.00     0.071 C 
ENDBRANCH  14  17
ENDBRANCH  11  14
ENDBRANCH   8  11
ENDBRANCH   5   7
BRANCH   5  19
ATOM     19  C   UNL A   1      31.300  25.389  23.263  1.00  0.00     0.422 C 
ATOM     20  F   UNL A   1      32.619  25.124  23.329  1.00  0.00    -0.168 F 
ATOM     21  F   UNL A   1      30.690  24.293  22.751  1.00  0.00    -0.168 F 
ATOM     22  F   UNL A   1      31.147  26.350  22.318  1.00  0.00    -0.168 F 
ENDBRANCH   5  19
ENDBRANCH   3   5
ENDBRANCH   2   3
ENDBRANCH   1   2
BRANCH   1  23
ATOM     23  C   UNL A   1      31.603  30.368  25.661  1.00  0.00     0.275 C 
BRANCH  23  24
ATOM     24  O   UNL A   1      32.367  30.287  26.874  1.00  0.00    -0.458 OA
BRANCH  24  25
ATOM     25  C   UNL A   1      33.028  31.413  27.224  1.00  0.00     0.338 C 
ATOM     26  O   UNL A   1      32.599  32.553  27.197  1.00  0.00    -0.246 OA
BRANCH  25  27
ATOM     27  C   UNL A   1      34.383  31.076  27.715  1.00  0.00     0.060 A 
ATOM     28  C   UNL A   1      34.742  29.757  27.992  1.00  0.00     0.016 A 
ATOM     29  C   UNL A   1      35.259  32.111  28.042  1.00  0.00     0.016 A 
ATOM     30  C   UNL A   1      35.903  29.487  28.716  1.00  0.00     0.010 A 
ATOM     31  C   UNL A   1      36.479  31.825  28.662  1.00  0.00     0.010 A 
ATOM     32  C   UNL A   1      36.796  30.514  29.057  1.00  0.00    -0.014 A 
BRANCH  32  33
ATOM     33  C   UNL A   1      38.022  30.239  29.863  1.00  0.00     0.031 A 
ATOM     34  C   UNL A   1      39.144  29.414  29.282  1.00  0.00     0.074 A 
ATOM     35  C   UNL A   1      38.156  30.724  31.114  1.00  0.00     0.049 A 
ATOM     36  N   UNL A   1      40.151  28.837  29.890  1.00  0.00    -0.248 NA
ATOM     37  C   UNL A   1      39.120  29.191  27.827  1.00  0.00     0.031 C 
ATOM     38  C   UNL A   1      37.195  31.585  31.802  1.00  0.00     0.029 A 
ATOM     39  N   UNL A   1      39.167  30.563  32.031  1.00  0.00    -0.354 N 
ATOM     40  C   UNL A   1      40.822  28.112  28.912  1.00  0.00     0.074 A 
ATOM     41  C   UNL A   1      40.126  28.343  27.664  1.00  0.00     0.031 C 
ATOM     42  C   UNL A   1      37.685  31.925  33.002  1.00  0.00     0.029 A 
ATOM     43  C   UNL A   1      38.939  31.215  33.218  1.00  0.00     0.049 A 
ATOM     44  H   UNL A   1      39.976  30.032  31.854  1.00  0.00     0.167 HD
ATOM     45  C   UNL A   1      41.910  27.316  29.052  1.00  0.00     0.037 A 
ATOM     46  C   UNL A   1      39.629  31.204  34.375  1.00  0.00     0.037 A 
ATOM     47  C   UNL A   1      42.656  27.163  30.274  1.00  0.00     0.049 A 
ATOM     48  C   UNL A   1      40.839  30.327  34.505  1.00  0.00     0.074 A 
ATOM     49  C   UNL A   1      43.779  26.387  30.511  1.00  0.00     0.029 A 
ATOM     50  N   UNL A   1      42.373  27.827  31.458  1.00  0.00    -0.354 N 
ATOM     51  N   UNL A   1      41.393  29.546  33.611  1.00  0.00    -0.248 NA
ATOM     52  C   UNL A   1      41.498  30.302  35.818  1.00  0.00     0.031 C 
ATOM     53  C   UNL A   1      44.166  26.570  31.844  1.00  0.00     0.029 A 
ATOM     54  C   UNL A   1      43.301  27.481  32.427  1.00  0.00     0.049 A 
ATOM     55  H   UNL A   1      41.623  28.450  31.590  1.00  0.00     0.167 HD
ATOM     56  C   UNL A   1      42.456  28.929  34.252  1.00  0.00     0.074 A 
ATOM     57  C   UNL A   1      42.492  29.450  35.603  1.00  0.00     0.031 C 
ATOM     58  C   UNL A   1      43.317  28.003  33.768  1.00  0.00     0.037 A 
BRANCH  45  59
ATOM     59  C   UNL A   1      42.347  26.514  27.862  1.00  0.00     0.064 A 
ATOM     60  C   UNL A   1      41.791  25.265  27.558  1.00  0.00     0.173 A 
ATOM     61  C   UNL A   1      43.304  27.040  26.979  1.00  0.00     0.173 A 
ATOM     62  F   UNL A   1      40.885  24.713  28.379  1.00  0.00    -0.203 F 
ATOM     63  C   UNL A   1      42.185  24.564  26.420  1.00  0.00     0.198 A 
ATOM     64  C   UNL A   1      43.679  26.349  25.830  1.00  0.00     0.198 A 
ATOM     65  F   UNL A   1      43.864  28.235  27.222  1.00  0.00    -0.203 F 
ATOM     66  F   UNL A   1      41.663  23.357  26.164  1.00  0.00    -0.200 F 
ATOM     67  C   UNL A   1      43.122  25.110  25.554  1.00  0.00     0.200 A 
ATOM     68  F   UNL A   1      44.576  26.883  24.989  1.00  0.00    -0.200 F 
ATOM     69  F   UNL A   1      43.491  24.439  24.454  1.00  0.00    -0.200 F 
ENDBRANCH  45  59
BRANCH  46  70
ATOM     70  C   UNL A   1      39.143  32.011  35.523  1.00  0.00     0.064 A 
ATOM     71  C   UNL A   1      38.306  31.446  36.494  1.00  0.00     0.173 A 
ATOM     72  C   UNL A   1      39.528  33.350  35.688  1.00  0.00     0.173 A 
ATOM     73  F   UNL A   1      37.889  30.178  36.362  1.00  0.00    -0.203 F 
ATOM     74  C   UNL A   1      37.874  32.190  37.589  1.00  0.00     0.198 A 
ATOM     75  C   UNL A   1      39.120  34.083  36.799  1.00  0.00     0.198 A 
ATOM     76  F   UNL A   1      40.327  33.935  34.784  1.00  0.00    -0.203 F 
ATOM     77  F   UNL A   1      37.051  31.636  38.489  1.00  0.00    -0.200 F 
ATOM     78  C   UNL A   1      38.290  33.504  37.747  1.00  0.00     0.200 A 
ATOM     79  F   UNL A   1      39.536  35.347  36.955  1.00  0.00    -0.200 F 
ATOM     80  F   UNL A   1      37.888  34.213  38.810  1.00  0.00    -0.200 F 
ENDBRANCH  46  70
BRANCH  58  81
ATOM     81  C   UNL A   1      44.371  27.501  34.705  1.00  0.00     0.064 A 
ATOM     82  C   UNL A   1      44.163  26.355  35.486  1.00  0.00     0.173 A 
ATOM     83  C   UNL A   1      45.604  28.158  34.810  1.00  0.00     0.173 A 
ATOM     84  F   UNL A   1      42.991  25.704  35.431  1.00  0.00    -0.203 F 
ATOM     85  C   UNL A   1      45.148  25.897  36.357  1.00  0.00     0.198 A 
ATOM     86  C   UNL A   1      46.594  27.686  35.667  1.00  0.00     0.198 A 
ATOM     87  F   UNL A   1      45.849  29.257  34.081  1.00  0.00    -0.203 F 
ATOM     88  F   UNL A   1      44.915  24.822  37.124  1.00  0.00    -0.200 F 
ATOM     89  C   UNL A   1      46.363  26.560  36.444  1.00  0.00     0.200 A 
ATOM     90  F   UNL A   1      47.770  28.325  35.748  1.00  0.00    -0.200 F 
ATOM     91  F   UNL A   1      47.309  26.118  37.283  1.00  0.00    -0.200 F 
ENDBRANCH  58  81
ENDBRANCH  32  33
ENDBRANCH  25  27
ENDBRANCH  24  25
ENDBRANCH  23  24
ENDBRANCH   1  23
TORSDOF 16
ENDMDL
MODEL 2
REMARK VINA RESULT:     -10.9      0.490      1.695
REMARK SMILES CC[NH2+]C(C)(C)C(=O)N[C@@](C)(C(=O)OCCOC(=O)c1ccc(-c2c3nc(c(-c4c(F)c(F)c(F)c(F)c4F)c4ccc([nH]4)c(-c4c(F)c(F)c(F)c(F)c4F)c4nc(c(-c5c(F)c(F)c(F)c(F)c5F)c5ccc2[nH]5)C=C4)C=C3)cc1)C(F)(F)F
REMARK SMILES IDX 15 1 14 2 12 3 13 4 10 5 11 6 9 7 7 8 8 9 4 11 5 12 6 13
REMARK SMILES IDX 3 14 2 17 1 18 83 19 84 20 85 21 86 22 16 23 17 24 18 25
REMARK SMILES IDX 19 26 20 27 21 28 82 29 22 30 81 31 23 32 24 33 25 34 75 35
REMARK SMILES IDX 26 36 80 37 74 38 76 39 27 40 79 41 73 42 72 43 28 45 60 46
REMARK SMILES IDX 40 47 59 48 41 49 44 50 58 51 77 52 42 53 43 54 57 56 78 57
REMARK SMILES IDX 45 58 29 59 30 60 38 61 31 62 32 63 36 64 39 65 33 66 34 67
REMARK SMILES IDX 37 68 35 69 61 70 62 71 70 72 63 73 64 74 68 75 71 76 65 77
REMARK SMILES IDX 66 78 69 79 67 80 46 81 47 82 55 83 48 84 49 85 53 86 56 87
REMARK SMILES IDX 50 88 51 89 54 90 52 91
REMARK H PARENT 9 10 3 15 3 16 76 44 44 55
REMARK Flexibility Score: inf
ROOT
ATOM      1  C   UNL A   1      32.656  29.187  24.610  1.00  0.00     0.274 C 
ENDROOT
BRANCH   1   2
ATOM      2  O   UNL A   1      31.965  27.988  24.188  1.00  0.00    -0.460 OA
BRANCH   2   3
ATOM      3  C   UNL A   1      32.388  26.819  24.766  1.00  0.00     0.341 C 
ATOM      4  O   UNL A   1      33.520  26.660  25.207  1.00  0.00    -0.249 OA
BRANCH   3   5
ATOM      5  C   UNL A   1      31.365  25.692  24.568  1.00  0.00     0.231 C 
ATOM      6  C   UNL A   1      29.998  26.422  24.491  1.00  0.00     0.058 C 
BRANCH   5   7
ATOM      7  N   UNL A   1      31.264  24.806  25.802  1.00  0.00    -0.328 N 
ATOM      8  C   UNL A   1      31.919  23.851  26.516  1.00  0.00     0.281 C 
ATOM      9  O   UNL A   1      31.404  23.656  27.626  1.00  0.00    -0.268 OA
ATOM     10  H   UNL A   1      30.406  24.993  26.249  1.00  0.00     0.165 HD
BRANCH   8  11
ATOM     11  C   UNL A   1      33.186  23.060  26.052  1.00  0.00     0.169 C 
ATOM     12  C   UNL A   1      32.789  22.109  24.928  1.00  0.00     0.090 C 
ATOM     13  C   UNL A   1      33.799  22.320  27.257  1.00  0.00     0.090 C 
BRANCH  11  14
ATOM     14  N   UNL A   1      34.297  23.949  25.589  1.00  0.00    -0.334 N 
ATOM     15  H   UNL A   1      34.195  24.059  24.580  1.00  0.00     0.347 HD
ATOM     16  H   UNL A   1      34.188  24.798  26.143  1.00  0.00     0.347 HD
BRANCH  14  17
ATOM     17  C   UNL A   1      35.672  23.523  25.841  1.00  0.00     0.257 C 
ATOM     18  C   UNL A   1      36.315  23.137  24.512  1.00  0.00     0.071 C 
ENDBRANCH  14  17
ENDBRANCH  11  14
ENDBRANCH   8  11
ENDBRANCH   5   7
BRANCH   5  19
ATOM     19  C   UNL A   1      31.606  25.113  23.161  1.00  0.00     0.422 C 
ATOM     20  F   UNL A   1      32.891  24.786  22.924  1.00  0.00    -0.168 F 
ATOM     21  F   UNL A   1      30.860  24.001  22.957  1.00  0.00    -0.168 F 
ATOM     22  F   UNL A   1      31.239  25.970  22.176  1.00  0.00    -0.168 F 
ENDBRANCH   5  19
ENDBRANCH   3   5
ENDBRANCH   2   3
ENDBRANCH   1   2
BRANCH   1  23
ATOM     23  C   UNL A   1      31.764  30.055  25.491  1.00  0.00     0.275 C 
BRANCH  23  24
ATOM     24  O   UNL A   1      32.323  30.100  26.812  1.00  0.00    -0.458 OA
BRANCH  24  25
ATOM     25  C   UNL A   1      32.956  31.249  27.139  1.00  0.00     0.338 C 
ATOM     26  O   UNL A   1      32.490  32.375  27.114  1.00  0.00    -0.246 OA
BRANCH  25  27
ATOM     27  C   UNL A   1      34.331  30.958  27.602  1.00  0.00     0.060 A 
ATOM     28  C   UNL A   1      34.773  29.647  27.772  1.00  0.00     0.016 A 
ATOM     29  C   UNL A   1      35.143  32.017  28.010  1.00  0.00     0.016 A 
ATOM     30  C   UNL A   1      35.953  29.393  28.471  1.00  0.00     0.010 A 
ATOM     31  C   UNL A   1      36.382  31.759  28.605  1.00  0.00     0.010 A 
ATOM     32  C   UNL A   1      36.781  30.443  28.894  1.00  0.00    -0.014 A 
BRANCH  32  33
ATOM     33  C   UNL A   1      38.026  30.182  29.676  1.00  0.00     0.031 A 
ATOM     34  C   UNL A   1      39.128  29.334  29.088  1.00  0.00     0.074 A 
ATOM     35  C   UNL A   1      38.195  30.699  30.909  1.00  0.00     0.049 A 
ATOM     36  N   UNL A   1      40.147  28.766  29.685  1.00  0.00    -0.248 NA
ATOM     37  C   UNL A   1      39.065  29.072  27.641  1.00  0.00     0.031 C 
ATOM     38  C   UNL A   1      37.258  31.585  31.598  1.00  0.00     0.029 A 
ATOM     39  N   UNL A   1      39.229  30.556  31.803  1.00  0.00    -0.354 N 
ATOM     40  C   UNL A   1      40.788  28.010  28.710  1.00  0.00     0.074 A 
ATOM     41  C   UNL A   1      40.062  28.213  27.475  1.00  0.00     0.031 C 
ATOM     42  C   UNL A   1      37.781  31.954  32.775  1.00  0.00     0.029 A 
ATOM     43  C   UNL A   1      39.036  31.241  32.978  1.00  0.00     0.049 A 
ATOM     44  H   UNL A   1      40.031  30.014  31.620  1.00  0.00     0.167 HD
ATOM     45  C   UNL A   1      41.875  27.212  28.843  1.00  0.00     0.037 A 
ATOM     46  C   UNL A   1      39.755  31.256  34.117  1.00  0.00     0.037 A 
ATOM     47  C   UNL A   1      42.651  27.086  30.050  1.00  0.00     0.049 A 
ATOM     48  C   UNL A   1      40.964  30.375  34.239  1.00  0.00     0.074 A 
ATOM     49  C   UNL A   1      43.775  26.310  30.279  1.00  0.00     0.029 A 
ATOM     50  N   UNL A   1      42.403  27.783  31.222  1.00  0.00    -0.354 N 
ATOM     51  N   UNL A   1      41.489  29.567  33.352  1.00  0.00    -0.248 NA
ATOM     52  C   UNL A   1      41.656  30.381  35.535  1.00  0.00     0.031 C 
ATOM     53  C   UNL A   1      44.197  26.525  31.596  1.00  0.00     0.029 A 
ATOM     54  C   UNL A   1      43.354  27.458  32.176  1.00  0.00     0.049 A 
ATOM     55  H   UNL A   1      41.660  28.415  31.356  1.00  0.00     0.167 HD
ATOM     56  C   UNL A   1      42.565  28.960  33.982  1.00  0.00     0.074 A 
ATOM     57  C   UNL A   1      42.639  29.517  35.317  1.00  0.00     0.031 C 
ATOM     58  C   UNL A   1      43.407  28.015  33.501  1.00  0.00     0.037 A 
BRANCH  45  59
ATOM     59  C   UNL A   1      42.276  26.375  27.665  1.00  0.00     0.064 A 
ATOM     60  C   UNL A   1      43.272  26.779  26.766  1.00  0.00     0.173 A 
ATOM     61  C   UNL A   1      41.687  25.114  27.472  1.00  0.00     0.173 A 
ATOM     62  F   UNL A   1      43.853  27.980  26.899  1.00  0.00    -0.203 F 
ATOM     63  C   UNL A   1      43.655  25.958  25.707  1.00  0.00     0.198 A 
ATOM     64  C   UNL A   1      42.088  24.286  26.427  1.00  0.00     0.198 A 
ATOM     65  F   UNL A   1      40.733  24.679  28.308  1.00  0.00    -0.203 F 
ATOM     66  F   UNL A   1      44.587  26.376  24.841  1.00  0.00    -0.200 F 
ATOM     67  C   UNL A   1      43.069  24.710  25.544  1.00  0.00     0.200 A 
ATOM     68  F   UNL A   1      41.529  23.078  26.278  1.00  0.00    -0.200 F 
ATOM     69  F   UNL A   1      43.448  23.918  24.532  1.00  0.00    -0.200 F 
ENDBRANCH  45  59
BRANCH  46  70
ATOM     70  C   UNL A   1      39.305  32.097  35.255  1.00  0.00     0.064 A 
ATOM     71  C   UNL A   1      38.537  31.550  36.291  1.00  0.00     0.173 A 
ATOM     72  C   UNL A   1      39.656  33.453  35.344  1.00  0.00     0.173 A 
ATOM     73  F   UNL A   1      38.153  30.267  36.233  1.00  0.00    -0.203 F 
ATOM     74  C   UNL A   1      38.138  32.327  37.376  1.00  0.00     0.198 A 
ATOM     75  C   UNL A   1      39.282  34.220  36.444  1.00  0.00     0.198 A 
ATOM     76  F   UNL A   1      40.389  34.022  34.376  1.00  0.00    -0.203 F 
ATOM     77  F   UNL A   1      37.380  31.789  38.340  1.00  0.00    -0.200 F 
ATOM     78  C   UNL A   1      38.521  33.659  37.457  1.00  0.00     0.200 A 
ATOM     79  F   UNL A   1      39.667  35.501  36.526  1.00  0.00    -0.200 F 
ATOM     80  F   UNL A   1      38.152  34.400  38.510  1.00  0.00    -0.200 F 
ENDBRANCH  46  70
BRANCH  58  81
ATOM     81  C   UNL A   1      44.482  27.532  34.425  1.00  0.00     0.064 A 
ATOM     82  C   UNL A   1      45.716  28.192  34.513  1.00  0.00     0.173 A 
ATOM     83  C   UNL A   1      44.271  26.412  35.242  1.00  0.00     0.173 A 
ATOM     84  F   UNL A   1      45.968  29.258  33.737  1.00  0.00    -0.203 F 
ATOM     85  C   UNL A   1      46.710  27.735  35.373  1.00  0.00     0.198 A 
ATOM     86  C   UNL A   1      45.260  25.969  36.114  1.00  0.00     0.198 A 
ATOM     87  F   UNL A   1      43.106  25.750  35.193  1.00  0.00    -0.203 F 
ATOM     88  F   UNL A   1      47.897  28.357  35.414  1.00  0.00    -0.200 F 
ATOM     89  C   UNL A   1      46.480  26.627  36.175  1.00  0.00     0.200 A 
ATOM     90  F   UNL A   1      45.037  24.901  36.893  1.00  0.00    -0.200 F 
ATOM     91  F   UNL A   1      47.439  26.187  37.002  1.00  0.00    -0.200 F 
ENDBRANCH  58  81
ENDBRANCH  32  33
ENDBRANCH  25  27
ENDBRANCH  24  25
ENDBRANCH  23  24
ENDBRANCH   1  23
TORSDOF 16
ENDMDL
MODEL 3
REMARK VINA RESULT:     -10.8      1.217      2.422
REMARK SMILES CC[NH2+]C(C)(C)C(=O)N[C@@](C)(C(=O)OCCOC(=O)c1ccc(-c2c3nc(c(-c4c(F)c(F)c(F)c(F)c4F)c4ccc([nH]4)c(-c4c(F)c(F)c(F)c(F)c4F)c4nc(c(-c5c(F)c(F)c(F)c(F)c5F)c5ccc2[nH]5)C=C4)C=C3)cc1)C(F)(F)F
REMARK SMILES IDX 15 1 14 2 12 3 13 4 10 5 11 6 9 7 7 8 8 9 4 11 5 12 6 13
REMARK SMILES IDX 3 14 2 17 1 18 83 19 84 20 85 21 86 22 16 23 17 24 18 25
REMARK SMILES IDX 19 26 20 27 21 28 82 29 22 30 81 31 23 32 24 33 25 34 75 35
REMARK SMILES IDX 26 36 80 37 74 38 76 39 27 40 79 41 73 42 72 43 28 45 60 46
REMARK SMILES IDX 40 47 59 48 41 49 44 50 58 51 77 52 42 53 43 54 57 56 78 57
REMARK SMILES IDX 45 58 29 59 30 60 38 61 31 62 32 63 36 64 39 65 33 66 34 67
REMARK SMILES IDX 37 68 35 69 61 70 62 71 70 72 63 73 64 74 68 75 71 76 65 77
REMARK SMILES IDX 66 78 69 79 67 80 46 81 47 82 55 83 48 84 49 85 53 86 56 87
REMARK SMILES IDX 50 88 51 89 54 90 52 91
REMARK H PARENT 9 10 3 15 3 16 76 44 44 55
REMARK Flexibility Score: inf
ROOT
ATOM      1  C   UNL A   1      31.069  28.979  25.106  1.00  0.00     0.274 C 
ENDROOT
BRANCH   1   2
ATOM      2  O   UNL A   1      31.679  28.424  23.918  1.00  0.00    -0.460 OA
BRANCH   2   3
ATOM      3  C   UNL A   1      31.758  27.056  23.868  1.00  0.00     0.341 C 
ATOM      4  O   UNL A   1      30.800  26.322  24.077  1.00  0.00    -0.249 OA
BRANCH   3   5
ATOM      5  C   UNL A   1      33.213  26.580  23.765  1.00  0.00     0.231 C 
ATOM      6  C   UNL A   1      33.978  27.799  23.185  1.00  0.00     0.058 C 
BRANCH   5   7
ATOM      7  N   UNL A   1      33.371  25.488  22.717  1.00  0.00    -0.328 N 
ATOM      8  C   UNL A   1      33.142  24.168  22.473  1.00  0.00     0.281 C 
ATOM      9  O   UNL A   1      33.292  23.878  21.278  1.00  0.00    -0.268 OA
ATOM     10  H   UNL A   1      33.796  25.881  21.920  1.00  0.00     0.165 HD
BRANCH   8  11
ATOM     11  C   UNL A   1      32.728  23.094  23.530  1.00  0.00     0.169 C 
ATOM     12  C   UNL A   1      33.933  22.776  24.409  1.00  0.00     0.090 C 
ATOM     13  C   UNL A   1      32.183  21.846  22.807  1.00  0.00     0.090 C 
BRANCH  11  14
ATOM     14  N   UNL A   1      31.581  23.525  24.388  1.00  0.00    -0.334 N 
ATOM     15  H   UNL A   1      31.868  24.376  24.871  1.00  0.00     0.347 HD
ATOM     16  H   UNL A   1      30.802  23.624  23.737  1.00  0.00     0.347 HD
BRANCH  14  17
ATOM     17  C   UNL A   1      31.090  22.596  25.403  1.00  0.00     0.257 C 
ATOM     18  C   UNL A   1      31.207  23.261  26.772  1.00  0.00     0.071 C 
ENDBRANCH  14  17
ENDBRANCH  11  14
ENDBRANCH   8  11
ENDBRANCH   5   7
BRANCH   5  19
ATOM     19  C   UNL A   1      33.731  26.412  25.207  1.00  0.00     0.422 C 
ATOM     20  F   UNL A   1      34.788  25.584  25.309  1.00  0.00    -0.168 F 
ATOM     21  F   UNL A   1      34.095  27.605  25.736  1.00  0.00    -0.168 F 
ATOM     22  F   UNL A   1      32.782  25.929  26.047  1.00  0.00    -0.168 F 
ENDBRANCH   5  19
ENDBRANCH   3   5
ENDBRANCH   2   3
ENDBRANCH   1   2
BRANCH   1  23
ATOM     23  C   UNL A   1      31.673  30.335  25.453  1.00  0.00     0.275 C 
BRANCH  23  24
ATOM     24  O   UNL A   1      32.377  30.222  26.699  1.00  0.00    -0.458 OA
BRANCH  24  25
ATOM     25  C   UNL A   1      32.980  31.352  27.133  1.00  0.00     0.338 C 
ATOM     26  O   UNL A   1      32.493  32.467  27.188  1.00  0.00    -0.246 OA
BRANCH  25  27
ATOM     27  C   UNL A   1      34.350  31.048  27.602  1.00  0.00     0.060 A 
ATOM     28  C   UNL A   1      34.756  29.736  27.844  1.00  0.00     0.016 A 
ATOM     29  C   UNL A   1      35.195  32.105  27.945  1.00  0.00     0.016 A 
ATOM     30  C   UNL A   1      35.934  29.489  28.549  1.00  0.00     0.010 A 
ATOM     31  C   UNL A   1      36.430  31.845  28.546  1.00  0.00     0.010 A 
ATOM     32  C   UNL A   1      36.795  30.536  28.906  1.00  0.00    -0.014 A 
BRANCH  32  33
ATOM     33  C   UNL A   1      38.038  30.284  29.693  1.00  0.00     0.031 A 
ATOM     34  C   UNL A   1      39.163  29.474  29.096  1.00  0.00     0.074 A 
ATOM     35  C   UNL A   1      38.185  30.776  30.939  1.00  0.00     0.049 A 
ATOM     36  N   UNL A   1      40.189  28.915  29.690  1.00  0.00    -0.248 NA
ATOM     37  C   UNL A   1      39.119  29.245  27.643  1.00  0.00     0.031 C 
ATOM     38  C   UNL A   1      37.222  31.625  31.640  1.00  0.00     0.029 A 
ATOM     39  N   UNL A   1      39.213  30.635  31.840  1.00  0.00    -0.354 N 
ATOM     40  C   UNL A   1      40.855  28.196  28.704  1.00  0.00     0.074 A 
ATOM     41  C   UNL A   1      40.135  28.411  27.467  1.00  0.00     0.031 C 
ATOM     42  C   UNL A   1      37.727  31.978  32.830  1.00  0.00     0.029 A 
ATOM     43  C   UNL A   1      38.995  31.288  33.028  1.00  0.00     0.049 A 
ATOM     44  H   UNL A   1      40.028  30.115  31.652  1.00  0.00     0.167 HD
ATOM     45  C   UNL A   1      41.958  27.418  28.829  1.00  0.00     0.037 A 
ATOM     46  C   UNL A   1      39.704  31.292  34.174  1.00  0.00     0.037 A 
ATOM     47  C   UNL A   1      42.725  27.281  30.040  1.00  0.00     0.049 A 
ATOM     48  C   UNL A   1      40.930  30.435  34.287  1.00  0.00     0.074 A 
ATOM     49  C   UNL A   1      43.864  26.524  30.261  1.00  0.00     0.029 A 
ATOM     50  N   UNL A   1      42.452  27.946  31.225  1.00  0.00    -0.354 N 
ATOM     51  N   UNL A   1      41.480  29.659  33.387  1.00  0.00    -0.248 NA
ATOM     52  C   UNL A   1      41.611  30.426  35.589  1.00  0.00     0.031 C 
ATOM     53  C   UNL A   1      44.270  26.718  31.587  1.00  0.00     0.029 A 
ATOM     54  C   UNL A   1      43.401  27.619  32.181  1.00  0.00     0.049 A 
ATOM     55  H   UNL A   1      41.694  28.558  31.367  1.00  0.00     0.167 HD
ATOM     56  C   UNL A   1      42.564  29.061  34.013  1.00  0.00     0.074 A 
ATOM     57  C   UNL A   1      42.614  29.588  35.361  1.00  0.00     0.031 C 
ATOM     58  C   UNL A   1      43.431  28.146  33.518  1.00  0.00     0.037 A 
BRANCH  45  59
ATOM     59  C   UNL A   1      42.387  26.618  27.636  1.00  0.00     0.064 A 
ATOM     60  C   UNL A   1      43.382  27.064  26.755  1.00  0.00     0.173 A 
ATOM     61  C   UNL A   1      41.829  25.349  27.408  1.00  0.00     0.173 A 
ATOM     62  F   UNL A   1      43.935  28.274  26.921  1.00  0.00    -0.203 F 
ATOM     63  C   UNL A   1      43.792  26.276  25.681  1.00  0.00     0.198 A 
ATOM     64  C   UNL A   1      42.257  24.555  26.348  1.00  0.00     0.198 A 
ATOM     65  F   UNL A   1      40.877  24.874  28.226  1.00  0.00    -0.203 F 
ATOM     66  F   UNL A   1      44.722  26.735  24.833  1.00  0.00    -0.200 F 
ATOM     67  C   UNL A   1      43.235  25.020  25.484  1.00  0.00     0.200 A 
ATOM     68  F   UNL A   1      41.726  23.337  26.167  1.00  0.00    -0.200 F 
ATOM     69  F   UNL A   1      43.641  24.260  24.458  1.00  0.00    -0.200 F 
ENDBRANCH  45  59
BRANCH  46  70
ATOM     70  C   UNL A   1      39.225  32.097  35.326  1.00  0.00     0.064 A 
ATOM     71  C   UNL A   1      38.438  31.515  36.330  1.00  0.00     0.173 A 
ATOM     72  C   UNL A   1      39.567  33.451  35.464  1.00  0.00     0.173 A 
ATOM     73  F   UNL A   1      38.062  30.232  36.225  1.00  0.00    -0.203 F 
ATOM     74  C   UNL A   1      38.013  32.258  37.428  1.00  0.00     0.198 A 
ATOM     75  C   UNL A   1      39.166  34.183  36.578  1.00  0.00     0.198 A 
ATOM     76  F   UNL A   1      40.317  34.052  34.528  1.00  0.00    -0.203 F 
ATOM     77  F   UNL A   1      37.237  31.687  38.359  1.00  0.00    -0.200 F 
ATOM     78  C   UNL A   1      38.386  33.588  37.557  1.00  0.00     0.200 A 
ATOM     79  F   UNL A   1      39.542  35.463  36.706  1.00  0.00    -0.200 F 
ATOM     80  F   UNL A   1      37.992  34.296  38.624  1.00  0.00    -0.200 F 
ENDBRANCH  46  70
BRANCH  58  81
ATOM     81  C   UNL A   1      44.508  27.665  34.441  1.00  0.00     0.064 A 
ATOM     82  C   UNL A   1      45.731  28.343  34.546  1.00  0.00     0.173 A 
ATOM     83  C   UNL A   1      44.309  26.530  35.238  1.00  0.00     0.173 A 
ATOM     84  F   UNL A   1      45.971  29.424  33.788  1.00  0.00    -0.203 F 
ATOM     85  C   UNL A   1      46.727  27.887  35.405  1.00  0.00     0.198 A 
ATOM     86  C   UNL A   1      45.300  26.088  36.110  1.00  0.00     0.198 A 
ATOM     87  F   UNL A   1      43.155  25.850  35.173  1.00  0.00    -0.203 F 
ATOM     88  F   UNL A   1      47.903  28.526  35.463  1.00  0.00    -0.200 F 
ATOM     89  C   UNL A   1      46.509  26.763  36.189  1.00  0.00     0.200 A 
ATOM     90  F   UNL A   1      45.088  25.004  36.870  1.00  0.00    -0.200 F 
ATOM     91  F   UNL A   1      47.470  26.325  37.014  1.00  0.00    -0.200 F 
ENDBRANCH  58  81
ENDBRANCH  32  33
ENDBRANCH  25  27
ENDBRANCH  24  25
ENDBRANCH  23  24
ENDBRANCH   1  23
TORSDOF 16
ENDMDL
