MODEL 1
REMARK VINA RESULT:     -11.4      0.000      0.000
REMARK SMILES C[C@H](CNC(=O)Cn1cccc1C(=O)OCCOC(=O)c1ccc(-c2c3nc(c(-c4c(F)c(F)c(F)c(F)c4F)c4ccc([nH]4)c(-c4c(F)c(F)c(F)c(F)c4F)c4nc(c(-c5c(F)c(F)c(F)c(F)c5F)c5ccc2[nH]5)C=C4)C=C3)cc1)[NH+](C)C
REMARK SMILES IDX 15 1 13 2 14 3 12 4 8 5 9 6 10 7 11 8 7 9 5 10 4 11 6 13
REMARK SMILES IDX 3 14 2 15 1 16 84 17 85 18 86 19 16 21 17 22 18 23 19 24
REMARK SMILES IDX 20 25 21 26 22 27 83 28 23 29 82 30 24 31 25 32 26 33 76 34
REMARK SMILES IDX 27 35 81 36 75 37 77 38 28 39 80 40 74 41 73 42 29 44 61 45
REMARK SMILES IDX 41 46 60 47 42 48 45 49 59 50 78 51 43 52 44 53 58 55 79 56
REMARK SMILES IDX 46 57 30 58 31 59 39 60 32 61 33 62 37 63 40 64 34 65 35 66
REMARK SMILES IDX 38 67 36 68 62 69 63 70 71 71 64 72 65 73 69 74 72 75 66 76
REMARK SMILES IDX 67 77 70 78 68 79 47 80 48 81 56 82 49 83 50 84 54 85 57 86
REMARK SMILES IDX 51 87 52 88 55 89 53 90
REMARK H PARENT 4 12 84 20 77 43 45 54
REMARK Flexibility Score: inf
ROOT
ATOM      1  O   UNL A   1      36.698  21.775  25.132  1.00  0.00    -0.457 OA
ENDROOT
BRANCH   1   2
ATOM      2  C   UNL A   1      35.530  22.078  25.777  1.00  0.00     0.355 C 
ATOM      3  O   UNL A   1      35.182  21.582  26.828  1.00  0.00    -0.244 OA
BRANCH   2   4
ATOM      4  C   UNL A   1      34.804  23.144  25.084  1.00  0.00     0.128 A 
ATOM      5  N   UNL A   1      33.702  23.062  24.248  1.00  0.00    -0.333 N 
ATOM      6  C   UNL A   1      33.381  24.316  23.773  1.00  0.00     0.087 A 
ATOM      7  C   UNL A   1      34.217  25.232  24.362  1.00  0.00     0.020 A 
ATOM      8  C   UNL A   1      35.095  24.503  25.193  1.00  0.00     0.035 A 
BRANCH   5   9
ATOM      9  C   UNL A   1      32.915  21.887  23.911  1.00  0.00     0.222 C 
BRANCH   9  10
ATOM     10  C   UNL A   1      32.157  21.294  25.077  1.00  0.00     0.240 C 
ATOM     11  N   UNL A   1      32.263  19.976  25.405  1.00  0.00    -0.349 N 
ATOM     12  H   UNL A   1      31.605  19.671  26.072  1.00  0.00     0.163 HD
ATOM     13  O   UNL A   1      31.344  21.973  25.710  1.00  0.00    -0.273 OA
BRANCH  11  14
ATOM     14  C   UNL A   1      33.176  18.938  24.946  1.00  0.00     0.180 C 
BRANCH  14  15
ATOM     15  C   UNL A   1      32.505  17.802  24.096  1.00  0.00     0.199 C 
ATOM     16  C   UNL A   1      32.354  18.173  22.611  1.00  0.00     0.077 C 
BRANCH  15  17
ATOM     17  N   UNL A   1      33.126  16.473  24.341  1.00  0.00    -0.336 N 
ATOM     18  C   UNL A   1      34.582  16.558  24.505  1.00  0.00     0.332 C 
ATOM     19  C   UNL A   1      32.552  15.738  25.468  1.00  0.00     0.332 C 
ATOM     20  H   UNL A   1      32.912  15.943  23.496  1.00  0.00     0.347 HD
ENDBRANCH  15  17
ENDBRANCH  14  15
ENDBRANCH  11  14
ENDBRANCH   9  10
ENDBRANCH   5   9
ENDBRANCH   2   4
ENDBRANCH   1   2
BRANCH   1  21
ATOM     21  C   UNL A   1      37.936  21.977  25.846  1.00  0.00     0.275 C 
BRANCH  21  22
ATOM     22  C   UNL A   1      39.024  21.001  25.406  1.00  0.00     0.275 C 
BRANCH  22  23
ATOM     23  O   UNL A   1      39.865  20.690  26.511  1.00  0.00    -0.458 OA
BRANCH  23  24
ATOM     24  C   UNL A   1      40.877  19.872  26.160  1.00  0.00     0.338 C 
ATOM     25  O   UNL A   1      40.792  18.726  25.740  1.00  0.00    -0.246 OA
BRANCH  24  26
ATOM     26  C   UNL A   1      42.162  20.476  26.503  1.00  0.00     0.060 A 
ATOM     27  C   UNL A   1      42.202  20.912  27.831  1.00  0.00     0.016 A 
ATOM     28  C   UNL A   1      42.692  21.217  25.441  1.00  0.00     0.016 A 
ATOM     29  C   UNL A   1      42.416  22.246  28.048  1.00  0.00     0.010 A 
ATOM     30  C   UNL A   1      42.878  22.560  25.646  1.00  0.00     0.010 A 
ATOM     31  C   UNL A   1      42.683  23.060  26.940  1.00  0.00    -0.014 A 
BRANCH  31  32
ATOM     32  C   UNL A   1      43.054  24.436  27.224  1.00  0.00     0.031 A 
ATOM     33  C   UNL A   1      41.726  25.225  27.477  1.00  0.00     0.074 A 
ATOM     34  C   UNL A   1      44.405  24.676  27.166  1.00  0.00     0.049 A 
ATOM     35  N   UNL A   1      41.484  26.497  27.469  1.00  0.00    -0.248 NA
ATOM     36  C   UNL A   1      40.454  24.473  27.754  1.00  0.00     0.031 C 
ATOM     37  C   UNL A   1      45.480  23.673  26.907  1.00  0.00     0.029 A 
ATOM     38  N   UNL A   1      45.164  25.814  27.294  1.00  0.00    -0.354 N 
ATOM     39  C   UNL A   1      40.168  26.697  27.955  1.00  0.00     0.074 A 
ATOM     40  C   UNL A   1      39.550  25.415  28.019  1.00  0.00     0.031 C 
ATOM     41  C   UNL A   1      46.696  24.266  26.788  1.00  0.00     0.029 A 
ATOM     42  C   UNL A   1      46.551  25.696  26.974  1.00  0.00     0.049 A 
ATOM     43  H   UNL A   1      44.773  26.667  27.591  1.00  0.00     0.167 HD
ATOM     44  C   UNL A   1      39.718  27.910  28.386  1.00  0.00     0.037 A 
ATOM     45  C   UNL A   1      47.463  26.713  26.816  1.00  0.00     0.037 A 
ATOM     46  C   UNL A   1      40.710  28.896  28.132  1.00  0.00     0.049 A 
ATOM     47  C   UNL A   1      46.700  27.899  27.223  1.00  0.00     0.074 A 
ATOM     48  C   UNL A   1      41.083  29.487  26.956  1.00  0.00     0.029 A 
ATOM     49  N   UNL A   1      41.722  29.021  29.051  1.00  0.00    -0.354 N 
ATOM     50  N   UNL A   1      46.339  28.154  28.445  1.00  0.00    -0.248 NA
ATOM     51  C   UNL A   1      46.148  28.761  26.175  1.00  0.00     0.031 C 
ATOM     52  C   UNL A   1      42.488  29.449  27.032  1.00  0.00     0.029 A 
ATOM     53  C   UNL A   1      42.890  29.158  28.340  1.00  0.00     0.049 A 
ATOM     54  H   UNL A   1      41.629  29.015  30.032  1.00  0.00     0.167 HD
ATOM     55  C   UNL A   1      45.266  28.990  28.265  1.00  0.00     0.074 A 
ATOM     56  C   UNL A   1      45.393  29.548  26.934  1.00  0.00     0.031 C 
ATOM     57  C   UNL A   1      44.130  28.806  28.987  1.00  0.00     0.037 A 
BRANCH  44  58
ATOM     58  C   UNL A   1      38.528  28.342  29.189  1.00  0.00     0.064 A 
ATOM     59  C   UNL A   1      37.730  29.392  28.666  1.00  0.00     0.173 A 
ATOM     60  C   UNL A   1      38.382  28.069  30.553  1.00  0.00     0.173 A 
ATOM     61  F   UNL A   1      37.742  29.678  27.355  1.00  0.00    -0.203 F 
ATOM     62  C   UNL A   1      36.982  30.229  29.488  1.00  0.00     0.198 A 
ATOM     63  C   UNL A   1      37.583  28.880  31.368  1.00  0.00     0.198 A 
ATOM     64  F   UNL A   1      39.081  27.088  31.139  1.00  0.00    -0.203 F 
ATOM     65  F   UNL A   1      36.381  31.309  28.971  1.00  0.00    -0.200 F 
ATOM     66  C   UNL A   1      36.928  29.985  30.845  1.00  0.00     0.200 A 
ATOM     67  F   UNL A   1      37.514  28.634  32.683  1.00  0.00    -0.200 F 
ATOM     68  F   UNL A   1      36.274  30.830  31.653  1.00  0.00    -0.200 F 
ENDBRANCH  44  58
BRANCH  45  69
ATOM     69  C   UNL A   1      48.852  26.983  26.260  1.00  0.00     0.064 A 
ATOM     70  C   UNL A   1      50.032  27.134  26.996  1.00  0.00     0.173 A 
ATOM     71  C   UNL A   1      49.055  26.971  24.843  1.00  0.00     0.173 A 
ATOM     72  F   UNL A   1      49.993  27.297  28.323  1.00  0.00    -0.203 F 
ATOM     73  C   UNL A   1      51.304  27.125  26.376  1.00  0.00     0.198 A 
ATOM     74  C   UNL A   1      50.309  26.892  24.236  1.00  0.00     0.198 A 
ATOM     75  F   UNL A   1      48.028  27.020  23.985  1.00  0.00    -0.203 F 
ATOM     76  F   UNL A   1      52.411  27.264  27.119  1.00  0.00    -0.200 F 
ATOM     77  C   UNL A   1      51.441  26.948  25.007  1.00  0.00     0.200 A 
ATOM     78  F   UNL A   1      50.396  26.733  22.907  1.00  0.00    -0.200 F 
ATOM     79  F   UNL A   1      52.649  26.845  24.435  1.00  0.00    -0.200 F 
ENDBRANCH  45  69
BRANCH  57  80
ATOM     80  C   UNL A   1      44.293  27.950  30.240  1.00  0.00     0.064 A 
ATOM     81  C   UNL A   1      44.999  28.453  31.342  1.00  0.00     0.173 A 
ATOM     82  C   UNL A   1      43.865  26.614  30.362  1.00  0.00     0.173 A 
ATOM     83  F   UNL A   1      45.418  29.727  31.337  1.00  0.00    -0.203 F 
ATOM     84  C   UNL A   1      45.274  27.668  32.468  1.00  0.00     0.198 A 
ATOM     85  C   UNL A   1      44.145  25.821  31.480  1.00  0.00     0.198 A 
ATOM     86  F   UNL A   1      43.139  26.041  29.413  1.00  0.00    -0.203 F 
ATOM     87  F   UNL A   1      45.943  28.199  33.502  1.00  0.00    -0.200 F 
ATOM     88  C   UNL A   1      44.854  26.350  32.535  1.00  0.00     0.200 A 
ATOM     89  F   UNL A   1      43.709  24.552  31.530  1.00  0.00    -0.200 F 
ATOM     90  F   UNL A   1      45.106  25.605  33.620  1.00  0.00    -0.200 F 
ENDBRANCH  57  80
ENDBRANCH  31  32
ENDBRANCH  24  26
ENDBRANCH  23  24
ENDBRANCH  22  23
ENDBRANCH  21  22
ENDBRANCH   1  21
TORSDOF 16
ENDMDL
MODEL 2
REMARK VINA RESULT:     -11.3      5.917     11.407
REMARK SMILES C[C@H](CNC(=O)Cn1cccc1C(=O)OCCOC(=O)c1ccc(-c2c3nc(c(-c4c(F)c(F)c(F)c(F)c4F)c4ccc([nH]4)c(-c4c(F)c(F)c(F)c(F)c4F)c4nc(c(-c5c(F)c(F)c(F)c(F)c5F)c5ccc2[nH]5)C=C4)C=C3)cc1)[NH+](C)C
REMARK SMILES IDX 15 1 13 2 14 3 12 4 8 5 9 6 10 7 11 8 7 9 5 10 4 11 6 13
REMARK SMILES IDX 3 14 2 15 1 16 84 17 85 18 86 19 16 21 17 22 18 23 19 24
REMARK SMILES IDX 20 25 21 26 22 27 83 28 23 29 82 30 24 31 25 32 26 33 76 34
REMARK SMILES IDX 27 35 81 36 75 37 77 38 28 39 80 40 74 41 73 42 29 44 61 45
REMARK SMILES IDX 41 46 60 47 42 48 45 49 59 50 78 51 43 52 44 53 58 55 79 56
REMARK SMILES IDX 46 57 30 58 31 59 39 60 32 61 33 62 37 63 40 64 34 65 35 66
REMARK SMILES IDX 38 67 36 68 62 69 63 70 71 71 64 72 65 73 69 74 72 75 66 76
REMARK SMILES IDX 67 77 70 78 68 79 47 80 48 81 56 82 49 83 50 84 54 85 57 86
REMARK SMILES IDX 51 87 52 88 55 89 53 90
REMARK H PARENT 4 12 84 20 77 43 45 54
REMARK Flexibility Score: inf
ROOT
ATOM      1  O   UNL A   1      32.656  29.036  26.593  1.00  0.00    -0.457 OA
ENDROOT
BRANCH   1   2
ATOM      2  C   UNL A   1      32.824  28.650  25.291  1.00  0.00     0.355 C 
ATOM      3  O   UNL A   1      33.104  29.409  24.386  1.00  0.00    -0.244 OA
BRANCH   2   4
ATOM      4  C   UNL A   1      32.716  27.198  25.150  1.00  0.00     0.128 A 
ATOM      5  N   UNL A   1      31.719  26.440  24.557  1.00  0.00    -0.333 N 
ATOM      6  C   UNL A   1      32.002  25.098  24.702  1.00  0.00     0.087 A 
ATOM      7  C   UNL A   1      33.225  24.976  25.313  1.00  0.00     0.020 A 
ATOM      8  C   UNL A   1      33.679  26.285  25.579  1.00  0.00     0.035 A 
BRANCH   5   9
ATOM      9  C   UNL A   1      30.548  26.906  23.831  1.00  0.00     0.222 C 
BRANCH   9  10
ATOM     10  C   UNL A   1      30.860  27.526  22.488  1.00  0.00     0.240 C 
ATOM     11  N   UNL A   1      30.503  28.805  22.189  1.00  0.00    -0.349 N 
ATOM     12  H   UNL A   1      30.609  29.044  21.239  1.00  0.00     0.163 HD
ATOM     13  O   UNL A   1      31.367  26.852  21.586  1.00  0.00    -0.273 OA
BRANCH  11  14
ATOM     14  C   UNL A   1      29.991  29.884  23.023  1.00  0.00     0.180 C 
BRANCH  14  15
ATOM     15  C   UNL A   1      28.710  30.597  22.463  1.00  0.00     0.199 C 
ATOM     16  C   UNL A   1      27.551  30.631  23.473  1.00  0.00     0.077 C 
BRANCH  15  17
ATOM     17  N   UNL A   1      29.024  31.911  21.839  1.00  0.00    -0.336 N 
ATOM     18  C   UNL A   1      28.194  32.182  20.659  1.00  0.00     0.332 C 
ATOM     19  C   UNL A   1      28.949  33.047  22.758  1.00  0.00     0.332 C 
ATOM     20  H   UNL A   1      29.998  31.820  21.553  1.00  0.00     0.347 HD
ENDBRANCH  15  17
ENDBRANCH  14  15
ENDBRANCH  11  14
ENDBRANCH   9  10
ENDBRANCH   5   9
ENDBRANCH   2   4
ENDBRANCH   1   2
BRANCH   1  21
ATOM     21  C   UNL A   1      33.563  30.022  27.129  1.00  0.00     0.275 C 
BRANCH  21  22
ATOM     22  C   UNL A   1      32.896  31.383  27.313  1.00  0.00     0.275 C 
BRANCH  22  23
ATOM     23  O   UNL A   1      33.878  32.357  27.649  1.00  0.00    -0.458 OA
BRANCH  23  24
ATOM     24  C   UNL A   1      33.321  33.503  28.089  1.00  0.00     0.338 C 
ATOM     25  O   UNL A   1      32.319  34.055  27.654  1.00  0.00    -0.246 OA
BRANCH  24  26
ATOM     26  C   UNL A   1      34.177  34.132  29.092  1.00  0.00     0.060 A 
ATOM     27  C   UNL A   1      35.475  34.347  28.616  1.00  0.00     0.016 A 
ATOM     28  C   UNL A   1      33.907  33.662  30.381  1.00  0.00     0.016 A 
ATOM     29  C   UNL A   1      36.499  33.730  29.282  1.00  0.00     0.010 A 
ATOM     30  C   UNL A   1      34.922  33.016  31.037  1.00  0.00     0.010 A 
ATOM     31  C   UNL A   1      36.192  33.016  30.446  1.00  0.00    -0.014 A 
BRANCH  31  32
ATOM     32  C   UNL A   1      37.320  32.504  31.206  1.00  0.00     0.031 A 
ATOM     33  C   UNL A   1      37.769  31.173  30.516  1.00  0.00     0.074 A 
ATOM     34  C   UNL A   1      37.656  33.269  32.296  1.00  0.00     0.049 A 
ATOM     35  N   UNL A   1      38.503  30.200  30.954  1.00  0.00    -0.248 NA
ATOM     36  C   UNL A   1      37.301  30.860  29.122  1.00  0.00     0.031 C 
ATOM     37  C   UNL A   1      37.026  34.558  32.710  1.00  0.00     0.029 A 
ATOM     38  N   UNL A   1      38.584  33.123  33.297  1.00  0.00    -0.354 N 
ATOM     39  C   UNL A   1      38.773  29.330  29.868  1.00  0.00     0.074 A 
ATOM     40  C   UNL A   1      37.928  29.731  28.794  1.00  0.00     0.031 C 
ATOM     41  C   UNL A   1      37.509  34.986  33.905  1.00  0.00     0.029 A 
ATOM     42  C   UNL A   1      38.506  34.048  34.382  1.00  0.00     0.049 A 
ATOM     43  H   UNL A   1      39.270  32.417  33.268  1.00  0.00     0.167 HD
ATOM     44  C   UNL A   1      39.772  28.402  29.898  1.00  0.00     0.037 A 
ATOM     45  C   UNL A   1      39.166  33.984  35.587  1.00  0.00     0.037 A 
ATOM     46  C   UNL A   1      40.353  28.380  31.195  1.00  0.00     0.049 A 
ATOM     47  C   UNL A   1      40.077  32.848  35.397  1.00  0.00     0.074 A 
ATOM     48  C   UNL A   1      39.876  27.857  32.366  1.00  0.00     0.029 A 
ATOM     49  N   UNL A   1      41.313  29.323  31.470  1.00  0.00    -0.354 N 
ATOM     50  N   UNL A   1      41.112  32.862  34.612  1.00  0.00    -0.248 NA
ATOM     51  C   UNL A   1      39.704  31.558  35.980  1.00  0.00     0.031 C 
ATOM     52  C   UNL A   1      40.153  28.882  33.289  1.00  0.00     0.029 A 
ATOM     53  C   UNL A   1      41.052  29.799  32.732  1.00  0.00     0.049 A 
ATOM     54  H   UNL A   1      42.048  29.603  30.877  1.00  0.00     0.167 HD
ATOM     55  C   UNL A   1      41.301  31.528  34.354  1.00  0.00     0.074 A 
ATOM     56  C   UNL A   1      40.641  30.801  35.420  1.00  0.00     0.031 C 
ATOM     57  C   UNL A   1      41.547  31.106  33.086  1.00  0.00     0.037 A 
BRANCH  44  58
ATOM     58  C   UNL A   1      40.449  27.583  28.841  1.00  0.00     0.064 A 
ATOM     59  C   UNL A   1      41.320  28.256  27.946  1.00  0.00     0.173 A 
ATOM     60  C   UNL A   1      39.993  26.324  28.436  1.00  0.00     0.173 A 
ATOM     61  F   UNL A   1      41.872  29.434  28.279  1.00  0.00    -0.203 F 
ATOM     62  C   UNL A   1      41.565  27.785  26.661  1.00  0.00     0.198 A 
ATOM     63  C   UNL A   1      40.289  25.827  27.161  1.00  0.00     0.198 A 
ATOM     64  F   UNL A   1      39.177  25.603  29.215  1.00  0.00    -0.203 F 
ATOM     65  F   UNL A   1      42.257  28.538  25.794  1.00  0.00    -0.200 F 
ATOM     66  C   UNL A   1      41.028  26.579  26.260  1.00  0.00     0.200 A 
ATOM     67  F   UNL A   1      39.783  24.647  26.777  1.00  0.00    -0.200 F 
ATOM     68  F   UNL A   1      41.195  26.155  25.000  1.00  0.00    -0.200 F 
ENDBRANCH  44  58
BRANCH  45  69
ATOM     69  C   UNL A   1      39.144  34.585  36.982  1.00  0.00     0.064 A 
ATOM     70  C   UNL A   1      38.542  34.036  38.119  1.00  0.00     0.173 A 
ATOM     71  C   UNL A   1      39.903  35.769  37.249  1.00  0.00     0.173 A 
ATOM     72  F   UNL A   1      37.693  33.008  38.013  1.00  0.00    -0.203 F 
ATOM     73  C   UNL A   1      38.796  34.541  39.416  1.00  0.00     0.198 A 
ATOM     74  C   UNL A   1      40.211  36.227  38.531  1.00  0.00     0.198 A 
ATOM     75  F   UNL A   1      40.393  36.527  36.260  1.00  0.00    -0.203 F 
ATOM     76  F   UNL A   1      38.204  33.980  40.480  1.00  0.00    -0.200 F 
ATOM     77  C   UNL A   1      39.672  35.597  39.623  1.00  0.00     0.200 A 
ATOM     78  F   UNL A   1      41.054  37.258  38.685  1.00  0.00    -0.200 F 
ATOM     79  F   UNL A   1      39.984  36.011  40.859  1.00  0.00    -0.200 F 
ENDBRANCH  45  69
BRANCH  57  80
ATOM     80  C   UNL A   1      42.015  32.195  32.123  1.00  0.00     0.064 A 
ATOM     81  C   UNL A   1      43.254  32.820  32.324  1.00  0.00     0.173 A 
ATOM     82  C   UNL A   1      41.246  32.717  31.066  1.00  0.00     0.173 A 
ATOM     83  F   UNL A   1      44.076  32.372  33.284  1.00  0.00    -0.203 F 
ATOM     84  C   UNL A   1      43.676  33.900  31.540  1.00  0.00     0.198 A 
ATOM     85  C   UNL A   1      41.656  33.802  30.285  1.00  0.00     0.198 A 
ATOM     86  F   UNL A   1      40.080  32.177  30.738  1.00  0.00    -0.203 F 
ATOM     87  F   UNL A   1      44.875  34.456  31.763  1.00  0.00    -0.200 F 
ATOM     88  C   UNL A   1      42.875  34.396  30.524  1.00  0.00     0.200 A 
ATOM     89  F   UNL A   1      40.871  34.252  29.293  1.00  0.00    -0.200 F 
ATOM     90  F   UNL A   1      43.288  35.421  29.765  1.00  0.00    -0.200 F 
ENDBRANCH  57  80
ENDBRANCH  31  32
ENDBRANCH  24  26
ENDBRANCH  23  24
ENDBRANCH  22  23
ENDBRANCH  21  22
ENDBRANCH   1  21
TORSDOF 16
ENDMDL
MODEL 3
REMARK VINA RESULT:     -11.0      5.736     11.189
REMARK SMILES C[C@H](CNC(=O)Cn1cccc1C(=O)OCCOC(=O)c1ccc(-c2c3nc(c(-c4c(F)c(F)c(F)c(F)c4F)c4ccc([nH]4)c(-c4c(F)c(F)c(F)c(F)c4F)c4nc(c(-c5c(F)c(F)c(F)c(F)c5F)c5ccc2[nH]5)C=C4)C=C3)cc1)[NH+](C)C
REMARK SMILES IDX 15 1 13 2 14 3 12 4 8 5 9 6 10 7 11 8 7 9 5 10 4 11 6 13
REMARK SMILES IDX 3 14 2 15 1 16 84 17 85 18 86 19 16 21 17 22 18 23 19 24
REMARK SMILES IDX 20 25 21 26 22 27 83 28 23 29 82 30 24 31 25 32 26 33 76 34
REMARK SMILES IDX 27 35 81 36 75 37 77 38 28 39 80 40 74 41 73 42 29 44 61 45
REMARK SMILES IDX 41 46 60 47 42 48 45 49 59 50 78 51 43 52 44 53 58 55 79 56
REMARK SMILES IDX 46 57 30 58 31 59 39 60 32 61 33 62 37 63 40 64 34 65 35 66
REMARK SMILES IDX 38 67 36 68 62 69 63 70 71 71 64 72 65 73 69 74 72 75 66 76
REMARK SMILES IDX 67 77 70 78 68 79 47 80 48 81 56 82 49 83 50 84 54 85 57 86
REMARK SMILES IDX 51 87 52 88 55 89 53 90
REMARK H PARENT 4 12 84 20 77 43 45 54
REMARK Flexibility Score: inf
ROOT
ATOM      1  O   UNL A   1      33.521  28.656  27.199  1.00  0.00    -0.457 OA
ENDROOT
BRANCH   1   2
ATOM      2  C   UNL A   1      32.530  27.759  26.904  1.00  0.00     0.355 C 
ATOM      3  O   UNL A   1      31.442  27.744  27.442  1.00  0.00    -0.244 OA
BRANCH   2   4
ATOM      4  C   UNL A   1      32.918  26.886  25.796  1.00  0.00     0.128 A 
ATOM      5  N   UNL A   1      32.358  26.759  24.535  1.00  0.00    -0.333 N 
ATOM      6  C   UNL A   1      33.013  25.773  23.828  1.00  0.00     0.087 A 
ATOM      7  C   UNL A   1      34.056  25.311  24.593  1.00  0.00     0.020 A 
ATOM      8  C   UNL A   1      34.007  26.016  25.814  1.00  0.00     0.035 A 
BRANCH   5   9
ATOM      9  C   UNL A   1      31.279  27.539  23.948  1.00  0.00     0.222 C 
BRANCH   9  10
ATOM     10  C   UNL A   1      31.738  28.790  23.234  1.00  0.00     0.240 C 
ATOM     11  N   UNL A   1      30.904  29.848  23.036  1.00  0.00    -0.349 N 
ATOM     12  H   UNL A   1      31.258  30.532  22.422  1.00  0.00     0.163 HD
ATOM     13  O   UNL A   1      32.861  28.848  22.725  1.00  0.00    -0.273 OA
BRANCH  11  14
ATOM     14  C   UNL A   1      29.582  30.149  23.570  1.00  0.00     0.180 C 
BRANCH  14  15
ATOM     15  C   UNL A   1      28.415  30.056  22.525  1.00  0.00     0.199 C 
ATOM     16  C   UNL A   1      27.330  29.041  22.926  1.00  0.00     0.077 C 
BRANCH  15  17
ATOM     17  N   UNL A   1      27.896  31.395  22.139  1.00  0.00    -0.336 N 
ATOM     18  C   UNL A   1      28.402  32.463  23.009  1.00  0.00     0.332 C 
ATOM     19  C   UNL A   1      28.135  31.753  20.741  1.00  0.00     0.332 C 
ATOM     20  H   UNL A   1      26.887  31.311  22.259  1.00  0.00     0.347 HD
ENDBRANCH  15  17
ENDBRANCH  14  15
ENDBRANCH  11  14
ENDBRANCH   9  10
ENDBRANCH   5   9
ENDBRANCH   2   4
ENDBRANCH   1   2
BRANCH   1  21
ATOM     21  C   UNL A   1      33.524  29.915  26.493  1.00  0.00     0.275 C 
BRANCH  21  22
ATOM     22  C   UNL A   1      32.889  31.038  27.309  1.00  0.00     0.275 C 
BRANCH  22  23
ATOM     23  O   UNL A   1      33.870  32.022  27.618  1.00  0.00    -0.458 OA
BRANCH  23  24
ATOM     24  C   UNL A   1      33.313  33.168  28.056  1.00  0.00     0.338 C 
ATOM     25  O   UNL A   1      32.340  33.745  27.591  1.00  0.00    -0.246 OA
BRANCH  24  26
ATOM     26  C   UNL A   1      34.137  33.764  29.106  1.00  0.00     0.060 A 
ATOM     27  C   UNL A   1      35.327  34.298  28.602  1.00  0.00     0.016 A 
ATOM     28  C   UNL A   1      34.073  33.035  30.299  1.00  0.00     0.016 A 
ATOM     29  C   UNL A   1      36.500  33.779  29.079  1.00  0.00     0.010 A 
ATOM     30  C   UNL A   1      35.241  32.487  30.760  1.00  0.00     0.010 A 
ATOM     31  C   UNL A   1      36.432  32.829  30.105  1.00  0.00    -0.014 A 
BRANCH  31  32
ATOM     32  C   UNL A   1      37.697  32.414  30.687  1.00  0.00     0.031 A 
ATOM     33  C   UNL A   1      38.244  31.243  29.805  1.00  0.00     0.074 A 
ATOM     34  C   UNL A   1      38.046  33.105  31.822  1.00  0.00     0.049 A 
ATOM     35  N   UNL A   1      39.148  30.349  30.052  1.00  0.00    -0.248 NA
ATOM     36  C   UNL A   1      37.669  31.009  28.435  1.00  0.00     0.031 C 
ATOM     37  C   UNL A   1      37.297  34.236  32.444  1.00  0.00     0.029 A 
ATOM     38  N   UNL A   1      39.092  32.995  32.704  1.00  0.00    -0.354 N 
ATOM     39  C   UNL A   1      39.410  29.645  28.850  1.00  0.00     0.074 A 
ATOM     40  C   UNL A   1      38.403  30.025  27.918  1.00  0.00     0.031 C 
ATOM     41  C   UNL A   1      37.848  34.606  33.628  1.00  0.00     0.029 A 
ATOM     42  C   UNL A   1      39.011  33.782  33.893  1.00  0.00     0.049 A 
ATOM     43  H   UNL A   1      39.860  32.405  32.527  1.00  0.00     0.167 HD
ATOM     44  C   UNL A   1      40.524  28.878  28.673  1.00  0.00     0.037 A 
ATOM     45  C   UNL A   1      39.805  33.693  35.013  1.00  0.00     0.037 A 
ATOM     46  C   UNL A   1      41.245  28.809  29.897  1.00  0.00     0.049 A 
ATOM     47  C   UNL A   1      40.835  32.730  34.603  1.00  0.00     0.074 A 
ATOM     48  C   UNL A   1      40.978  28.103  31.039  1.00  0.00     0.029 A 
ATOM     49  N   UNL A   1      42.092  29.850  30.187  1.00  0.00    -0.354 N 
ATOM     50  N   UNL A   1      41.763  32.978  33.729  1.00  0.00    -0.248 NA
ATOM     51  C   UNL A   1      40.709  31.346  35.064  1.00  0.00     0.031 C 
ATOM     52  C   UNL A   1      41.215  29.058  32.045  1.00  0.00     0.029 A 
ATOM     53  C   UNL A   1      41.911  30.150  31.516  1.00  0.00     0.049 A 
ATOM     54  H   UNL A   1      42.710  30.295  29.563  1.00  0.00     0.167 HD
ATOM     55  C   UNL A   1      42.103  31.720  33.299  1.00  0.00     0.074 A 
ATOM     56  C   UNL A   1      41.672  30.798  34.330  1.00  0.00     0.031 C 
ATOM     57  C   UNL A   1      42.260  31.473  31.972  1.00  0.00     0.037 A 
BRANCH  44  58
ATOM     58  C   UNL A   1      41.184  28.281  27.467  1.00  0.00     0.064 A 
ATOM     59  C   UNL A   1      40.773  26.983  27.070  1.00  0.00     0.173 A 
ATOM     60  C   UNL A   1      42.410  28.728  26.963  1.00  0.00     0.173 A 
ATOM     61  F   UNL A   1      39.577  26.497  27.437  1.00  0.00    -0.203 F 
ATOM     62  C   UNL A   1      41.616  26.125  26.371  1.00  0.00     0.198 A 
ATOM     63  C   UNL A   1      43.231  27.879  26.212  1.00  0.00     0.198 A 
ATOM     64  F   UNL A   1      42.880  29.944  27.270  1.00  0.00    -0.203 F 
ATOM     65  F   UNL A   1      41.250  24.852  26.164  1.00  0.00    -0.200 F 
ATOM     66  C   UNL A   1      42.857  26.567  25.962  1.00  0.00     0.200 A 
ATOM     67  F   UNL A   1      44.430  28.313  25.798  1.00  0.00    -0.200 F 
ATOM     68  F   UNL A   1      43.705  25.724  25.358  1.00  0.00    -0.200 F 
ENDBRANCH  44  58
BRANCH  45  69
ATOM     69  C   UNL A   1      39.858  34.137  36.465  1.00  0.00     0.064 A 
ATOM     70  C   UNL A   1      40.648  35.160  36.999  1.00  0.00     0.173 A 
ATOM     71  C   UNL A   1      38.942  33.568  37.407  1.00  0.00     0.173 A 
ATOM     72  F   UNL A   1      41.643  35.698  36.284  1.00  0.00    -0.203 F 
ATOM     73  C   UNL A   1      40.437  35.663  38.304  1.00  0.00     0.198 A 
ATOM     74  C   UNL A   1      38.684  34.107  38.668  1.00  0.00     0.198 A 
ATOM     75  F   UNL A   1      38.241  32.463  37.125  1.00  0.00    -0.203 F 
ATOM     76  F   UNL A   1      41.211  36.651  38.774  1.00  0.00    -0.200 F 
ATOM     77  C   UNL A   1      39.421  35.175  39.113  1.00  0.00     0.200 A 
ATOM     78  F   UNL A   1      37.699  33.596  39.421  1.00  0.00    -0.200 F 
ATOM     79  F   UNL A   1      39.162  35.717  40.311  1.00  0.00    -0.200 F 
ENDBRANCH  45  69
BRANCH  57  80
ATOM     80  C   UNL A   1      42.463  32.712  31.104  1.00  0.00     0.064 A 
ATOM     81  C   UNL A   1      43.646  33.456  31.215  1.00  0.00     0.173 A 
ATOM     82  C   UNL A   1      41.496  33.252  30.236  1.00  0.00     0.173 A 
ATOM     83  F   UNL A   1      44.644  33.006  31.991  1.00  0.00    -0.203 F 
ATOM     84  C   UNL A   1      43.832  34.661  30.528  1.00  0.00     0.198 A 
ATOM     85  C   UNL A   1      41.670  34.460  29.553  1.00  0.00     0.198 A 
ATOM     86  F   UNL A   1      40.357  32.614  30.000  1.00  0.00    -0.203 F 
ATOM     87  F   UNL A   1      44.986  35.331  30.658  1.00  0.00    -0.200 F 
ATOM     88  C   UNL A   1      42.843  35.168  29.701  1.00  0.00     0.200 A 
ATOM     89  F   UNL A   1      40.704  34.920  28.742  1.00  0.00    -0.200 F 
ATOM     90  F   UNL A   1      43.029  36.314  29.033  1.00  0.00    -0.200 F 
ENDBRANCH  57  80
ENDBRANCH  31  32
ENDBRANCH  24  26
ENDBRANCH  23  24
ENDBRANCH  22  23
ENDBRANCH  21  22
ENDBRANCH   1  21
TORSDOF 16
ENDMDL
