MODEL 1
REMARK VINA RESULT:     -13.7      0.000      0.000
REMARK SMILES O=C(OCCOC(=O)[C@@H]1CCC[N@@H+](Cc2ccc(F)cc2Cl)C1)c1ccc(-c2c3nc(c(-c4c(F)c(F)c(F)c(F)c4F)c4ccc([nH]4)c(-c4c(F)c(F)c(F)c(F)c4F)c4nc(c(-c5c(F)c(F)c(F)c(F)c5F)c5ccc2[nH]5)C=C4)C=C3)cc1
REMARK SMILES IDX 4 1 3 2 2 3 1 4 24 5 25 6 86 7 26 8 85 9 27 10 28 11 29 12
REMARK SMILES IDX 79 13 30 14 84 15 78 16 80 17 31 18 83 19 77 20 76 21 32 23
REMARK SMILES IDX 64 24 44 25 63 26 45 27 48 28 62 29 81 30 46 31 47 32 61 34
REMARK SMILES IDX 82 35 49 36 33 37 34 38 42 39 35 40 36 41 40 42 43 43 37 44
REMARK SMILES IDX 38 45 41 46 39 47 65 48 66 49 74 50 67 51 68 52 72 53 75 54
REMARK SMILES IDX 69 55 70 56 73 57 71 58 50 59 51 60 59 61 52 62 53 63 57 64
REMARK SMILES IDX 60 65 54 66 55 67 58 68 56 69 5 70 6 71 7 72 8 73 9 74 10 75
REMARK SMILES IDX 23 76 11 77 13 78 12 79 14 81 15 82 16 83 21 84 17 85 20 86
REMARK SMILES IDX 22 87 18 88 19 89
REMARK H PARENT 80 22 48 33 13 80
REMARK Flexibility Score: inf
ROOT
ATOM      1  C   UNL A   1      31.240  30.903  25.387  1.00  0.00     0.275 C 
ENDROOT
BRANCH   1   2
ATOM      2  O   UNL A   1      31.382  31.490  26.706  1.00  0.00    -0.458 OA
BRANCH   2   3
ATOM      3  C   UNL A   1      32.365  32.246  27.256  1.00  0.00     0.338 C 
ATOM      4  O   UNL A   1      32.246  33.470  27.290  1.00  0.00    -0.246 OA
BRANCH   3   5
ATOM      5  C   UNL A   1      33.671  31.718  27.719  1.00  0.00     0.060 A 
ATOM      6  C   UNL A   1      34.090  29.985  27.647  1.00  0.00     0.016 A 
ATOM      7  C   UNL A   1      34.912  32.955  28.275  1.00  0.00     0.016 A 
ATOM      8  C   UNL A   1      35.728  29.430  28.104  1.00  0.00     0.010 A 
ATOM      9  C   UNL A   1      36.626  32.433  28.607  1.00  0.00     0.010 A 
ATOM     10  C   UNL A   1      37.012  30.653  28.561  1.00  0.00    -0.014 A 
BRANCH  10  11
ATOM     11  C   UNL A   1      38.152  30.063  29.165  1.00  0.00     0.031 A 
ATOM     12  C   UNL A   1      38.102  30.288  30.601  1.00  0.00     0.074 A 
ATOM     13  C   UNL A   1      39.166  29.465  28.553  1.00  0.00     0.049 A 
ATOM     14  N   UNL A   1      39.474  30.533  31.505  1.00  0.00    -0.248 NA
ATOM     15  C   UNL A   1      36.511  31.084  31.657  1.00  0.00     0.031 C 
ATOM     16  C   UNL A   1      39.310  29.287  27.123  1.00  0.00     0.029 A 
ATOM     17  N   UNL A   1      40.230  28.813  29.096  1.00  0.00    -0.354 N 
ATOM     18  C   UNL A   1      39.028  31.394  33.070  1.00  0.00     0.074 A 
ATOM     19  C   UNL A   1      37.154  31.786  32.996  1.00  0.00     0.031 C 
ATOM     20  C   UNL A   1      40.279  28.391  26.899  1.00  0.00     0.029 A 
ATOM     21  C   UNL A   1      40.921  28.080  28.170  1.00  0.00     0.049 A 
ATOM     22  H   UNL A   1      40.476  28.862  30.048  1.00  0.00     0.167 HD
ATOM     23  C   UNL A   1      39.761  31.361  34.212  1.00  0.00     0.037 A 
ATOM     24  C   UNL A   1      41.973  27.269  28.350  1.00  0.00     0.037 A 
ATOM     25  C   UNL A   1      40.972  30.579  34.307  1.00  0.00     0.049 A 
ATOM     26  C   UNL A   1      42.567  27.217  29.728  1.00  0.00     0.074 A 
ATOM     27  C   UNL A   1      41.801  30.411  35.398  1.00  0.00     0.029 A 
ATOM     28  N   UNL A   1      41.460  29.732  33.299  1.00  0.00    -0.354 N 
ATOM     29  N   UNL A   1      42.237  27.899  30.803  1.00  0.00    -0.248 NA
ATOM     30  C   UNL A   1      43.708  26.319  29.901  1.00  0.00     0.031 C 
ATOM     31  C   UNL A   1      42.778  29.466  35.061  1.00  0.00     0.029 A 
ATOM     32  C   UNL A   1      42.570  29.032  33.756  1.00  0.00     0.049 A 
ATOM     33  H   UNL A   1      41.072  29.648  32.397  1.00  0.00     0.167 HD
ATOM     34  C   UNL A   1      43.163  27.559  31.775  1.00  0.00     0.074 A 
ATOM     35  C   UNL A   1      44.021  26.547  31.169  1.00  0.00     0.031 C 
ATOM     36  C   UNL A   1      43.347  28.045  33.031  1.00  0.00     0.037 A 
BRANCH  23  37
ATOM     37  C   UNL A   1      39.212  32.091  35.388  1.00  0.00     0.064 A 
ATOM     38  C   UNL A   1      39.429  33.460  35.598  1.00  0.00     0.173 A 
ATOM     39  C   UNL A   1      38.426  31.408  36.328  1.00  0.00     0.173 A 
ATOM     40  F   UNL A   1      40.154  34.174  34.725  1.00  0.00    -0.203 F 
ATOM     41  C   UNL A   1      38.936  34.103  36.733  1.00  0.00     0.198 A 
ATOM     42  C   UNL A   1      37.906  32.059  37.446  1.00  0.00     0.198 A 
ATOM     43  F   UNL A   1      38.158  30.104  36.161  1.00  0.00    -0.203 F 
ATOM     44  F   UNL A   1      39.215  35.397  36.943  1.00  0.00    -0.200 F 
ATOM     45  C   UNL A   1      38.175  33.402  37.655  1.00  0.00     0.200 A 
ATOM     46  F   UNL A   1      37.151  31.384  38.324  1.00  0.00    -0.200 F 
ATOM     47  F   UNL A   1      37.705  34.020  38.748  1.00  0.00    -0.200 F 
ENDBRANCH  23  37
BRANCH  24  48
ATOM     48  C   UNL A   1      42.465  26.477  27.196  1.00  0.00     0.064 A 
ATOM     49  C   UNL A   1      43.530  26.941  26.410  1.00  0.00     0.173 A 
ATOM     50  C   UNL A   1      42.004  25.172  26.959  1.00  0.00     0.173 A 
ATOM     51  F   UNL A   1      44.006  28.181  26.592  1.00  0.00    -0.203 F 
ATOM     52  C   UNL A   1      44.124  26.125  25.449  1.00  0.00     0.198 A 
ATOM     53  C   UNL A   1      42.627  24.344  26.029  1.00  0.00     0.198 A 
ATOM     54  F   UNL A   1      41.006  24.669  27.700  1.00  0.00    -0.203 F 
ATOM     55  F   UNL A   1      45.140  26.593  24.710  1.00  0.00    -0.200 F 
ATOM     56  C   UNL A   1      43.687  24.820  25.274  1.00  0.00     0.200 A 
ATOM     57  F   UNL A   1      42.230  23.071  25.898  1.00  0.00    -0.200 F 
ATOM     58  F   UNL A   1      44.296  24.018  24.391  1.00  0.00    -0.200 F 
ENDBRANCH  24  48
BRANCH  36  59
ATOM     59  C   UNL A   1      44.546  27.485  33.742  1.00  0.00     0.064 A 
ATOM     60  C   UNL A   1      44.437  26.316  34.513  1.00  0.00     0.173 A 
ATOM     61  C   UNL A   1      45.793  28.118  33.663  1.00  0.00     0.173 A 
ATOM     62  F   UNL A   1      43.254  25.696  34.636  1.00  0.00    -0.203 F 
ATOM     63  C   UNL A   1      45.536  25.815  35.202  1.00  0.00     0.198 A 
ATOM     64  C   UNL A   1      46.894  27.600  34.338  1.00  0.00     0.198 A 
ATOM     65  F   UNL A   1      45.937  29.241  32.944  1.00  0.00    -0.203 F 
ATOM     66  F   UNL A   1      45.401  24.727  35.972  1.00  0.00    -0.200 F 
ATOM     67  C   UNL A   1      46.763  26.455  35.111  1.00  0.00     0.200 A 
ATOM     68  F   UNL A   1      48.081  28.218  34.253  1.00  0.00    -0.200 F 
ATOM     69  F   UNL A   1      47.820  25.975  35.781  1.00  0.00    -0.200 F 
ENDBRANCH  36  59
ENDBRANCH  10  11
ENDBRANCH   3   5
ENDBRANCH   2   3
ENDBRANCH   1   2
BRANCH   1  70
ATOM     70  C   UNL A   1      31.494  29.400  25.336  1.00  0.00     0.274 C 
BRANCH  70  71
ATOM     71  O   UNL A   1      32.014  29.055  24.058  1.00  0.00    -0.462 OA
BRANCH  71  72
ATOM     72  C   UNL A   1      32.660  27.871  23.942  1.00  0.00     0.314 C 
ATOM     73  O   UNL A   1      33.452  27.409  24.751  1.00  0.00    -0.252 OA
BRANCH  72  74
ATOM     74  C   UNL A   1      32.334  27.213  22.623  1.00  0.00     0.154 C 
ATOM     75  C   UNL A   1      30.850  27.086  22.426  1.00  0.00     0.027 C 
ATOM     76  C   UNL A   1      33.108  25.894  22.410  1.00  0.00     0.277 C 
ATOM     77  C   UNL A   1      30.344  26.006  23.340  1.00  0.00     0.062 C 
ATOM     78  N   UNL A   1      32.720  24.477  23.240  1.00  0.00    -0.330 N 
ATOM     79  C   UNL A   1      31.066  24.690  23.063  1.00  0.00     0.262 C 
ATOM     80  H   UNL A   1      33.174  24.231  24.119  1.00  0.00     0.348 HD
BRANCH  78  81
ATOM     81  C   UNL A   1      33.825  22.702  23.548  1.00  0.00     0.300 C 
BRANCH  81  82
ATOM     82  C   UNL A   1      35.362  22.220  24.541  1.00  0.00     0.025 A 
ATOM     83  C   UNL A   1      35.953  23.439  25.034  1.00  0.00     0.014 A 
ATOM     84  C   UNL A   1      36.104  20.755  24.933  1.00  0.00     0.052 A 
ATOM     85  C   UNL A   1      37.249  23.501  25.544  1.00  0.00     0.040 A 
ATOM     86  C   UNL A   1      37.529  21.087  25.392  1.00  0.00     0.060 A 
ATOM     87  Cl  UNL A   1      35.180  18.405  24.489  1.00  0.00    -0.084 Cl
ATOM     88  C   UNL A   1      38.026  22.366  25.653  1.00  0.00     0.124 A 
ATOM     89  F   UNL A   1      39.308  22.497  26.025  1.00  0.00    -0.207 F 
ENDBRANCH  81  82
ENDBRANCH  78  81
ENDBRANCH  72  74
ENDBRANCH  71  72
ENDBRANCH  70  71
ENDBRANCH   1  70
TORSDOF 13
ENDMDL
MODEL 2
REMARK VINA RESULT:     -13.6      1.591      2.658
REMARK SMILES O=C(OCCOC(=O)[C@@H]1CCC[N@@H+](Cc2ccc(F)cc2Cl)C1)c1ccc(-c2c3nc(c(-c4c(F)c(F)c(F)c(F)c4F)c4ccc([nH]4)c(-c4c(F)c(F)c(F)c(F)c4F)c4nc(c(-c5c(F)c(F)c(F)c(F)c5F)c5ccc2[nH]5)C=C4)C=C3)cc1
REMARK SMILES IDX 4 1 3 2 2 3 1 4 24 5 25 6 86 7 26 8 85 9 27 10 28 11 29 12
REMARK SMILES IDX 79 13 30 14 84 15 78 16 80 17 31 18 83 19 77 20 76 21 32 23
REMARK SMILES IDX 64 24 44 25 63 26 45 27 48 28 62 29 81 30 46 31 47 32 61 34
REMARK SMILES IDX 82 35 49 36 33 37 34 38 42 39 35 40 36 41 40 42 43 43 37 44
REMARK SMILES IDX 38 45 41 46 39 47 65 48 66 49 74 50 67 51 68 52 72 53 75 54
REMARK SMILES IDX 69 55 70 56 73 57 71 58 50 59 51 60 59 61 52 62 53 63 57 64
REMARK SMILES IDX 60 65 54 66 55 67 58 68 56 69 5 70 6 71 7 72 8 73 9 74 10 75
REMARK SMILES IDX 23 76 11 77 13 78 12 79 14 81 15 82 16 83 21 84 17 85 20 86
REMARK SMILES IDX 22 87 18 88 19 89
REMARK H PARENT 80 22 48 33 13 80
REMARK Flexibility Score: inf
ROOT
ATOM      1  C   UNL A   1      31.015  31.490  26.450  1.00  0.00     0.275 C 
ENDROOT
BRANCH   1   2
ATOM      2  O   UNL A   1      31.955  32.593  26.487  1.00  0.00    -0.458 OA
BRANCH   2   3
ATOM      3  C   UNL A   1      32.758  33.062  27.475  1.00  0.00     0.338 C 
ATOM      4  O   UNL A   1      32.517  34.153  27.989  1.00  0.00    -0.246 OA
BRANCH   3   5
ATOM      5  C   UNL A   1      34.014  32.411  27.916  1.00  0.00     0.060 A 
ATOM      6  C   UNL A   1      34.211  30.639  27.979  1.00  0.00     0.016 A 
ATOM      7  C   UNL A   1      35.431  33.520  28.294  1.00  0.00     0.016 A 
ATOM      8  C   UNL A   1      35.792  29.918  28.400  1.00  0.00     0.010 A 
ATOM      9  C   UNL A   1      37.084  32.811  28.583  1.00  0.00     0.010 A 
ATOM     10  C   UNL A   1      37.245  30.999  28.678  1.00  0.00    -0.014 A 
BRANCH  10  11
ATOM     11  C   UNL A   1      38.338  30.320  29.274  1.00  0.00     0.031 A 
ATOM     12  C   UNL A   1      38.292  30.511  30.714  1.00  0.00     0.074 A 
ATOM     13  C   UNL A   1      39.315  29.671  28.652  1.00  0.00     0.049 A 
ATOM     14  N   UNL A   1      39.670  30.642  31.632  1.00  0.00    -0.248 NA
ATOM     15  C   UNL A   1      36.749  31.384  31.781  1.00  0.00     0.031 C 
ATOM     16  C   UNL A   1      39.457  29.520  27.219  1.00  0.00     0.029 A 
ATOM     17  N   UNL A   1      40.329  28.936  29.184  1.00  0.00    -0.354 N 
ATOM     18  C   UNL A   1      39.271  31.491  33.216  1.00  0.00     0.074 A 
ATOM     19  C   UNL A   1      37.428  32.008  33.141  1.00  0.00     0.031 C 
ATOM     20  C   UNL A   1      40.366  28.567  26.978  1.00  0.00     0.029 A 
ATOM     21  C   UNL A   1      40.977  28.183  28.244  1.00  0.00     0.049 A 
ATOM     22  H   UNL A   1      40.571  28.945  30.139  1.00  0.00     0.167 HD
ATOM     23  C   UNL A   1      39.992  31.381  34.361  1.00  0.00     0.037 A 
ATOM     24  C   UNL A   1      41.971  27.299  28.410  1.00  0.00     0.037 A 
ATOM     25  C   UNL A   1      41.148  30.518  34.443  1.00  0.00     0.049 A 
ATOM     26  C   UNL A   1      42.550  27.173  29.789  1.00  0.00     0.074 A 
ATOM     27  C   UNL A   1      41.956  30.268  35.534  1.00  0.00     0.029 A 
ATOM     28  N   UNL A   1      41.586  29.666  33.416  1.00  0.00    -0.354 N 
ATOM     29  N   UNL A   1      42.258  27.848  30.880  1.00  0.00    -0.248 NA
ATOM     30  C   UNL A   1      43.628  26.198  29.946  1.00  0.00     0.031 C 
ATOM     31  C   UNL A   1      42.870  29.269  35.179  1.00  0.00     0.029 A 
ATOM     32  C   UNL A   1      42.644  28.882  33.862  1.00  0.00     0.049 A 
ATOM     33  H   UNL A   1      41.200  29.630  32.511  1.00  0.00     0.167 HD
ATOM     34  C   UNL A   1      43.152  27.424  31.848  1.00  0.00     0.074 A 
ATOM     35  C   UNL A   1      43.946  26.372  31.220  1.00  0.00     0.031 C 
ATOM     36  C   UNL A   1      43.359  27.865  33.117  1.00  0.00     0.037 A 
BRANCH  23  37
ATOM     37  C   UNL A   1      39.484  32.116  35.552  1.00  0.00     0.064 A 
ATOM     38  C   UNL A   1      38.631  31.529  36.498  1.00  0.00     0.173 A 
ATOM     39  C   UNL A   1      39.876  33.445  35.771  1.00  0.00     0.173 A 
ATOM     40  F   UNL A   1      38.239  30.254  36.357  1.00  0.00    -0.203 F 
ATOM     41  C   UNL A   1      38.141  32.259  37.579  1.00  0.00     0.198 A 
ATOM     42  C   UNL A   1      39.411  34.165  36.870  1.00  0.00     0.198 A 
ATOM     43  F   UNL A   1      40.716  34.049  34.917  1.00  0.00    -0.203 F 
ATOM     44  F   UNL A   1      37.275  31.693  38.430  1.00  0.00    -0.200 F 
ATOM     45  C   UNL A   1      38.531  33.576  37.765  1.00  0.00     0.200 A 
ATOM     46  F   UNL A   1      39.807  35.431  37.059  1.00  0.00    -0.200 F 
ATOM     47  F   UNL A   1      38.055  34.278  38.802  1.00  0.00    -0.200 F 
ENDBRANCH  23  37
BRANCH  24  48
ATOM     48  C   UNL A   1      42.419  26.505  27.238  1.00  0.00     0.064 A 
ATOM     49  C   UNL A   1      43.518  26.917  26.471  1.00  0.00     0.173 A 
ATOM     50  C   UNL A   1      41.875  25.240  26.965  1.00  0.00     0.173 A 
ATOM     51  F   UNL A   1      44.073  28.119  26.687  1.00  0.00    -0.203 F 
ATOM     52  C   UNL A   1      44.064  26.088  25.492  1.00  0.00     0.198 A 
ATOM     53  C   UNL A   1      42.448  24.396  26.018  1.00  0.00     0.198 A 
ATOM     54  F   UNL A   1      40.840  24.786  27.689  1.00  0.00    -0.203 F 
ATOM     55  F   UNL A   1      45.113  26.507  24.771  1.00  0.00    -0.200 F 
ATOM     56  C   UNL A   1      43.543  24.820  25.282  1.00  0.00     0.200 A 
ATOM     57  F   UNL A   1      41.969  23.155  25.853  1.00  0.00    -0.200 F 
ATOM     58  F   UNL A   1      44.104  24.001  24.382  1.00  0.00    -0.200 F 
ENDBRANCH  24  48
BRANCH  36  59
ATOM     59  C   UNL A   1      44.513  27.208  33.820  1.00  0.00     0.064 A 
ATOM     60  C   UNL A   1      45.801  27.762  33.746  1.00  0.00     0.173 A 
ATOM     61  C   UNL A   1      44.336  26.028  34.552  1.00  0.00     0.173 A 
ATOM     62  F   UNL A   1      46.017  28.877  33.030  1.00  0.00    -0.203 F 
ATOM     63  C   UNL A   1      46.879  27.138  34.363  1.00  0.00     0.198 A 
ATOM     64  C   UNL A   1      45.414  25.419  35.185  1.00  0.00     0.198 A 
ATOM     65  F   UNL A   1      43.123  25.462  34.640  1.00  0.00    -0.203 F 
ATOM     66  F   UNL A   1      48.110  27.653  34.240  1.00  0.00    -0.200 F 
ATOM     67  C   UNL A   1      46.684  25.970  35.085  1.00  0.00     0.200 A 
ATOM     68  F   UNL A   1      45.228  24.289  35.883  1.00  0.00    -0.200 F 
ATOM     69  F   UNL A   1      47.725  25.365  35.674  1.00  0.00    -0.200 F 
ENDBRANCH  36  59
ENDBRANCH  10  11
ENDBRANCH   3   5
ENDBRANCH   2   3
ENDBRANCH   1   2
BRANCH   1  70
ATOM     70  C   UNL A   1      30.931  30.777  25.105  1.00  0.00     0.274 C 
BRANCH  70  71
ATOM     71  O   UNL A   1      31.909  29.747  25.056  1.00  0.00    -0.462 OA
BRANCH  71  72
ATOM     72  C   UNL A   1      31.494  28.500  24.729  1.00  0.00     0.314 C 
ATOM     73  O   UNL A   1      31.184  28.125  23.607  1.00  0.00    -0.252 OA
BRANCH  72  74
ATOM     74  C   UNL A   1      31.387  27.634  25.960  1.00  0.00     0.154 C 
ATOM     75  C   UNL A   1      32.612  27.750  26.821  1.00  0.00     0.027 C 
ATOM     76  C   UNL A   1      30.991  26.178  25.628  1.00  0.00     0.277 C 
ATOM     77  C   UNL A   1      33.737  27.022  26.140  1.00  0.00     0.062 C 
ATOM     78  N   UNL A   1      32.070  25.088  24.927  1.00  0.00    -0.330 N 
ATOM     79  C   UNL A   1      33.358  25.566  25.890  1.00  0.00     0.262 C 
ATOM     80  H   UNL A   1      32.127  24.967  23.916  1.00  0.00     0.348 HD
BRANCH  78  81
ATOM     81  C   UNL A   1      31.740  23.253  23.932  1.00  0.00     0.300 C 
BRANCH  81  82
ATOM     82  C   UNL A   1      32.413  21.491  24.084  1.00  0.00     0.025 A 
ATOM     83  C   UNL A   1      32.158  20.825  22.832  1.00  0.00     0.014 A 
ATOM     84  C   UNL A   1      33.199  20.628  25.304  1.00  0.00     0.052 A 
ATOM     85  C   UNL A   1      32.238  19.441  22.679  1.00  0.00     0.040 A 
ATOM     86  C   UNL A   1      33.086  19.142  24.942  1.00  0.00     0.060 A 
ATOM     87  Cl  UNL A   1      34.075  21.568  27.523  1.00  0.00    -0.084 Cl
ATOM     88  C   UNL A   1      32.628  18.631  23.725  1.00  0.00     0.124 A 
ATOM     89  F   UNL A   1      32.563  17.301  23.568  1.00  0.00    -0.207 F 
ENDBRANCH  81  82
ENDBRANCH  78  81
ENDBRANCH  72  74
ENDBRANCH  71  72
ENDBRANCH  70  71
ENDBRANCH   1  70
TORSDOF 13
ENDMDL
MODEL 3
REMARK VINA RESULT:     -13.5      1.047      7.879
REMARK SMILES O=C(OCCOC(=O)[C@@H]1CCC[N@@H+](Cc2ccc(F)cc2Cl)C1)c1ccc(-c2c3nc(c(-c4c(F)c(F)c(F)c(F)c4F)c4ccc([nH]4)c(-c4c(F)c(F)c(F)c(F)c4F)c4nc(c(-c5c(F)c(F)c(F)c(F)c5F)c5ccc2[nH]5)C=C4)C=C3)cc1
REMARK SMILES IDX 4 1 3 2 2 3 1 4 24 5 25 6 86 7 26 8 85 9 27 10 28 11 29 12
REMARK SMILES IDX 79 13 30 14 84 15 78 16 80 17 31 18 83 19 77 20 76 21 32 23
REMARK SMILES IDX 64 24 44 25 63 26 45 27 48 28 62 29 81 30 46 31 47 32 61 34
REMARK SMILES IDX 82 35 49 36 33 37 34 38 42 39 35 40 36 41 40 42 43 43 37 44
REMARK SMILES IDX 38 45 41 46 39 47 65 48 66 49 74 50 67 51 68 52 72 53 75 54
REMARK SMILES IDX 69 55 70 56 73 57 71 58 50 59 51 60 59 61 52 62 53 63 57 64
REMARK SMILES IDX 60 65 54 66 55 67 58 68 56 69 5 70 6 71 7 72 8 73 9 74 10 75
REMARK SMILES IDX 23 76 11 77 13 78 12 79 14 81 15 82 16 83 21 84 17 85 20 86
REMARK SMILES IDX 22 87 18 88 19 89
REMARK H PARENT 80 22 48 33 13 80
REMARK Flexibility Score: inf
ROOT
ATOM      1  C   UNL A   1      31.377  29.334  24.527  1.00  0.00     0.275 C 
ENDROOT
BRANCH   1   2
ATOM      2  O   UNL A   1      32.434  30.134  25.115  1.00  0.00    -0.458 OA
BRANCH   2   3
ATOM      3  C   UNL A   1      32.579  30.669  26.354  1.00  0.00     0.338 C 
ATOM      4  O   UNL A   1      31.688  31.379  26.818  1.00  0.00    -0.246 OA
BRANCH   3   5
ATOM      5  C   UNL A   1      33.812  30.573  27.171  1.00  0.00     0.060 A 
ATOM      6  C   UNL A   1      34.617  29.020  27.523  1.00  0.00     0.016 A 
ATOM      7  C   UNL A   1      34.562  32.158  27.723  1.00  0.00     0.016 A 
ATOM      8  C   UNL A   1      36.170  28.985  28.409  1.00  0.00     0.010 A 
ATOM      9  C   UNL A   1      36.211  32.158  28.498  1.00  0.00     0.010 A 
ATOM     10  C   UNL A   1      36.989  30.555  28.878  1.00  0.00    -0.014 A 
BRANCH  10  11
ATOM     11  C   UNL A   1      38.045  30.376  29.808  1.00  0.00     0.031 A 
ATOM     12  C   UNL A   1      39.177  29.762  29.133  1.00  0.00     0.074 A 
ATOM     13  C   UNL A   1      38.021  30.634  31.109  1.00  0.00     0.049 A 
ATOM     14  N   UNL A   1      40.182  28.683  29.897  1.00  0.00    -0.248 NA
ATOM     15  C   UNL A   1      39.360  29.449  27.096  1.00  0.00     0.031 C 
ATOM     16  C   UNL A   1      36.895  31.166  31.850  1.00  0.00     0.029 A 
ATOM     17  N   UNL A   1      39.033  30.559  32.016  1.00  0.00    -0.354 N 
ATOM     18  C   UNL A   1      41.052  27.661  28.636  1.00  0.00     0.074 A 
ATOM     19  C   UNL A   1      40.365  28.161  26.919  1.00  0.00     0.031 C 
ATOM     20  C   UNL A   1      37.328  31.576  33.048  1.00  0.00     0.029 A 
ATOM     21  C   UNL A   1      38.718  31.168  33.200  1.00  0.00     0.049 A 
ATOM     22  H   UNL A   1      39.895  30.116  31.841  1.00  0.00     0.167 HD
ATOM     23  C   UNL A   1      42.231  27.018  28.834  1.00  0.00     0.037 A 
ATOM     24  C   UNL A   1      39.483  31.345  34.287  1.00  0.00     0.037 A 
ATOM     25  C   UNL A   1      42.947  27.129  30.085  1.00  0.00     0.049 A 
ATOM     26  C   UNL A   1      40.841  30.706  34.278  1.00  0.00     0.074 A 
ATOM     27  C   UNL A   1      44.165  26.575  30.426  1.00  0.00     0.029 A 
ATOM     28  N   UNL A   1      42.563  27.947  31.159  1.00  0.00    -0.354 N 
ATOM     29  N   UNL A   1      41.394  29.938  33.364  1.00  0.00    -0.248 NA
ATOM     30  C   UNL A   1      41.660  30.920  35.470  1.00  0.00     0.031 C 
ATOM     31  C   UNL A   1      44.522  27.058  31.692  1.00  0.00     0.029 A 
ATOM     32  C   UNL A   1      43.533  27.920  32.154  1.00  0.00     0.049 A 
ATOM     33  H   UNL A   1      41.727  28.466  31.201  1.00  0.00     0.167 HD
ATOM     34  C   UNL A   1      42.607  29.525  33.888  1.00  0.00     0.074 A 
ATOM     35  C   UNL A   1      42.732  30.199  35.176  1.00  0.00     0.031 C 
ATOM     36  C   UNL A   1      43.526  28.645  33.409  1.00  0.00     0.037 A 
BRANCH  23  37
ATOM     37  C   UNL A   1      42.797  26.273  27.676  1.00  0.00     0.064 A 
ATOM     38  C   UNL A   1      43.733  26.836  26.798  1.00  0.00     0.173 A 
ATOM     39  C   UNL A   1      42.410  24.944  27.446  1.00  0.00     0.173 A 
ATOM     40  F   UNL A   1      44.161  28.094  26.978  1.00  0.00    -0.203 F 
ATOM     41  C   UNL A   1      44.211  26.124  25.699  1.00  0.00     0.198 A 
ATOM     42  C   UNL A   1      42.912  24.222  26.365  1.00  0.00     0.198 A 
ATOM     43  F   UNL A   1      41.542  24.343  28.272  1.00  0.00    -0.203 F 
ATOM     44  F   UNL A   1      45.054  26.709  24.838  1.00  0.00    -0.200 F 
ATOM     45  C   UNL A   1      43.801  24.817  25.484  1.00  0.00     0.200 A 
ATOM     46  F   UNL A   1      42.531  22.951  26.172  1.00  0.00    -0.200 F 
ATOM     47  F   UNL A   1      44.258  24.135  24.424  1.00  0.00    -0.200 F 
ENDBRANCH  23  37
BRANCH  24  48
ATOM     48  C   UNL A   1      38.950  32.161  35.406  1.00  0.00     0.064 A 
ATOM     49  C   UNL A   1      38.297  31.553  36.488  1.00  0.00     0.173 A 
ATOM     50  C   UNL A   1      39.230  33.533  35.505  1.00  0.00     0.173 A 
ATOM     51  F   UNL A   1      38.001  30.246  36.444  1.00  0.00    -0.203 F 
ATOM     52  C   UNL A   1      37.964  32.282  37.629  1.00  0.00     0.198 A 
ATOM     53  C   UNL A   1      38.936  34.249  36.662  1.00  0.00     0.198 A 
ATOM     54  F   UNL A   1      39.878  34.158  34.510  1.00  0.00    -0.203 F 
ATOM     55  F   UNL A   1      37.338  31.678  38.649  1.00  0.00    -0.200 F 
ATOM     56  C   UNL A   1      38.303  33.623  37.724  1.00  0.00     0.200 A 
ATOM     57  F   UNL A   1      39.308  35.532  36.765  1.00  0.00    -0.200 F 
ATOM     58  F   UNL A   1      38.034  34.309  38.843  1.00  0.00    -0.200 F 
ENDBRANCH  24  48
BRANCH  36  59
ATOM     59  C   UNL A   1      44.675  28.381  34.340  1.00  0.00     0.064 A 
ATOM     60  C   UNL A   1      45.838  29.166  34.279  1.00  0.00     0.173 A 
ATOM     61  C   UNL A   1      44.619  27.344  35.280  1.00  0.00     0.173 A 
ATOM     62  F   UNL A   1      45.941  30.150  33.372  1.00  0.00    -0.203 F 
ATOM     63  C   UNL A   1      46.918  28.901  35.113  1.00  0.00     0.198 A 
ATOM     64  C   UNL A   1      45.695  27.098  36.127  1.00  0.00     0.198 A 
ATOM     65  F   UNL A   1      43.530  26.567  35.366  1.00  0.00    -0.203 F 
ATOM     66  F   UNL A   1      48.038  29.628  35.005  1.00  0.00    -0.200 F 
ATOM     67  C   UNL A   1      46.844  27.871  36.039  1.00  0.00     0.200 A 
ATOM     68  F   UNL A   1      45.626  26.101  37.022  1.00  0.00    -0.200 F 
ATOM     69  F   UNL A   1      47.888  27.613  36.838  1.00  0.00    -0.200 F 
ENDBRANCH  36  59
ENDBRANCH  10  11
ENDBRANCH   3   5
ENDBRANCH   2   3
ENDBRANCH   1   2
BRANCH   1  70
ATOM     70  C   UNL A   1      31.634  28.909  23.086  1.00  0.00     0.274 C 
BRANCH  70  71
ATOM     71  O   UNL A   1      30.850  27.763  22.785  1.00  0.00    -0.462 OA
BRANCH  71  72
ATOM     72  C   UNL A   1      31.340  26.553  23.145  1.00  0.00     0.314 C 
ATOM     73  O   UNL A   1      32.521  26.236  23.150  1.00  0.00    -0.252 OA
BRANCH  72  74
ATOM     74  C   UNL A   1      30.217  25.598  23.472  1.00  0.00     0.154 C 
ATOM     75  C   UNL A   1      29.427  26.069  24.660  1.00  0.00     0.027 C 
ATOM     76  C   UNL A   1      30.696  24.134  23.579  1.00  0.00     0.277 C 
ATOM     77  C   UNL A   1      30.259  25.857  25.894  1.00  0.00     0.062 C 
ATOM     78  N   UNL A   1      31.589  23.572  24.894  1.00  0.00    -0.330 N 
ATOM     79  C   UNL A   1      30.658  24.390  26.024  1.00  0.00     0.262 C 
ATOM     80  H   UNL A   1      32.609  23.569  24.887  1.00  0.00     0.348 HD
BRANCH  78  81
ATOM     81  C   UNL A   1      32.773  21.837  25.128  1.00  0.00     0.300 C 
BRANCH  81  82
ATOM     82  C   UNL A   1      34.621  21.477  25.327  1.00  0.00     0.025 A 
ATOM     83  C   UNL A   1      35.227  22.652  25.903  1.00  0.00     0.014 A 
ATOM     84  C   UNL A   1      35.608  20.149  24.994  1.00  0.00     0.052 A 
ATOM     85  C   UNL A   1      36.604  22.867  25.912  1.00  0.00     0.040 A 
ATOM     86  C   UNL A   1      37.054  20.658  24.990  1.00  0.00     0.060 A 
ATOM     87  Cl  UNL A   1      34.838  17.816  24.259  1.00  0.00    -0.084 Cl
ATOM     88  C   UNL A   1      37.475  21.922  25.409  1.00  0.00     0.124 A 
ATOM     89  F   UNL A   1      38.777  22.231  25.320  1.00  0.00    -0.207 F 
ENDBRANCH  81  82
ENDBRANCH  78  81
ENDBRANCH  72  74
ENDBRANCH  71  72
ENDBRANCH  70  71
ENDBRANCH   1  70
TORSDOF 13
ENDMDL
