MODEL 1
REMARK VINA RESULT:     -12.4      0.000      0.000
REMARK SMILES COc1ccc(S(=O)(=O)N2CCC[C@H](C(=O)N3CCC[C@H](C(=O)OCCOC(=O)c4ccc(-c5c6nc(c(-c7c(F)c(F)c(F)c(F)c7F)c7ccc([nH]7)c(-c7c(F)c(F)c(F)c(F)c7F)c7nc(c(-c8c(F)c(F)c(F)c(F)c8F)c8ccc5[nH]8)C=C7)C=C6)cc4)C3)C2)cc1
REMARK SMILES IDX 24 1 22 2 23 3 21 4 17 5 18 6 93 7 19 8 20 9 15 10 16 11
REMARK SMILES IDX 14 12 10 13 11 14 94 15 12 16 13 17 7 18 8 19 9 20 6 21 3 22
REMARK SMILES IDX 4 23 96 24 5 25 95 26 2 27 1 28 25 29 26 30 27 31 28 32
REMARK SMILES IDX 29 33 30 34 31 35 92 36 32 37 91 38 33 39 34 40 35 41 85 42
REMARK SMILES IDX 36 43 90 44 84 45 86 46 37 47 89 48 83 49 82 50 38 52 70 53
REMARK SMILES IDX 50 54 69 55 51 56 54 57 68 58 87 59 52 60 53 61 67 63 88 64
REMARK SMILES IDX 55 65 39 66 40 67 48 68 41 69 42 70 46 71 49 72 43 73 44 74
REMARK SMILES IDX 47 75 45 76 71 77 72 78 80 79 73 80 74 81 78 82 81 83 75 84
REMARK SMILES IDX 76 85 79 86 77 87 56 88 57 89 65 90 58 91 59 92 63 93 66 94
REMARK SMILES IDX 60 95 61 96 64 97 62 98
REMARK H PARENT 86 51 54 62
REMARK Flexibility Score: inf
ROOT
ATOM      1  O   UNL A   1      37.123  20.931  25.213  1.00  0.00    -0.462 OA
ENDROOT
BRANCH   1   2
ATOM      2  C   UNL A   1      35.776  20.838  25.309  1.00  0.00     0.310 C 
ATOM      3  O   UNL A   1      35.084  20.028  24.698  1.00  0.00    -0.252 OA
BRANCH   2   4
ATOM      4  C   UNL A   1      35.165  21.856  26.261  1.00  0.00     0.119 C 
ATOM      5  N   UNL A   1      34.409  23.429  24.553  1.00  0.00    -0.342 N 
ATOM      6  C   UNL A   1      35.239  24.519  25.056  1.00  0.00     0.119 C 
ATOM      7  C   UNL A   1      33.965  22.494  25.572  1.00  0.00     0.134 C 
ATOM      8  C   UNL A   1      36.466  24.007  25.804  1.00  0.00     0.022 C 
ATOM      9  C   UNL A   1      36.113  22.921  26.822  1.00  0.00     0.019 C 
BRANCH   5  10
ATOM     10  C   UNL A   1      34.432  23.134  23.205  1.00  0.00     0.227 C 
ATOM     11  O   UNL A   1      35.498  23.095  22.582  1.00  0.00    -0.275 OA
BRANCH  10  12
ATOM     12  C   UNL A   1      33.115  23.066  22.419  1.00  0.00     0.094 C 
ATOM     13  N   UNL A   1      32.249  25.368  22.697  1.00  0.00    -0.197 NA
ATOM     14  C   UNL A   1      31.147  24.951  23.576  1.00  0.00     0.102 C 
ATOM     15  C   UNL A   1      32.850  24.408  21.759  1.00  0.00     0.116 C 
ATOM     16  C   UNL A   1      30.815  23.464  23.559  1.00  0.00     0.018 C 
ATOM     17  C   UNL A   1      31.865  22.475  23.051  1.00  0.00     0.016 C 
BRANCH  13  18
ATOM     18  S   UNL A   1      32.362  27.022  22.328  1.00  0.00     0.243 S 
ATOM     19  O   UNL A   1      31.107  27.454  21.767  1.00  0.00    -0.207 OA
ATOM     20  O   UNL A   1      33.617  27.211  21.621  1.00  0.00    -0.207 OA
BRANCH  18  21
ATOM     21  C   UNL A   1      32.544  27.859  23.891  1.00  0.00     0.082 A 
ATOM     22  C   UNL A   1      32.787  29.346  26.243  1.00  0.00     0.118 A 
ATOM     23  C   UNL A   1      31.602  29.389  25.506  1.00  0.00     0.048 A 
ATOM     24  C   UNL A   1      33.829  28.518  25.831  1.00  0.00     0.048 A 
ATOM     25  C   UNL A   1      31.480  28.655  24.324  1.00  0.00     0.025 A 
ATOM     26  C   UNL A   1      33.711  27.781  24.653  1.00  0.00     0.025 A 
BRANCH  22  27
ATOM     27  O   UNL A   1      32.829  30.130  27.362  1.00  0.00    -0.497 OA
ATOM     28  C   UNL A   1      34.060  30.826  27.548  1.00  0.00     0.278 C 
ENDBRANCH  22  27
ENDBRANCH  18  21
ENDBRANCH  13  18
ENDBRANCH  10  12
ENDBRANCH   5  10
ENDBRANCH   2   4
ENDBRANCH   1   2
BRANCH   1  29
ATOM     29  C   UNL A   1      37.832  19.770  24.750  1.00  0.00     0.274 C 
BRANCH  29  30
ATOM     30  C   UNL A   1      38.951  19.399  25.723  1.00  0.00     0.275 C 
BRANCH  30  31
ATOM     31  O   UNL A   1      39.896  20.477  25.869  1.00  0.00    -0.458 OA
BRANCH  31  32
ATOM     32  C   UNL A   1      40.519  20.532  27.068  1.00  0.00     0.338 C 
ATOM     33  O   UNL A   1      40.891  19.603  27.764  1.00  0.00    -0.246 OA
BRANCH  32  34
ATOM     34  C   UNL A   1      40.824  21.928  27.397  1.00  0.00     0.060 A 
ATOM     35  C   UNL A   1      40.250  22.929  26.613  1.00  0.00     0.016 A 
ATOM     36  C   UNL A   1      41.758  22.245  28.382  1.00  0.00     0.016 A 
ATOM     37  C   UNL A   1      40.622  24.255  26.783  1.00  0.00     0.010 A 
ATOM     38  C   UNL A   1      42.118  23.582  28.569  1.00  0.00     0.010 A 
ATOM     39  C   UNL A   1      41.566  24.590  27.758  1.00  0.00    -0.014 A 
BRANCH  39  40
ATOM     40  C   UNL A   1      42.021  25.993  27.875  1.00  0.00     0.031 A 
ATOM     41  C   UNL A   1      43.333  26.397  27.272  1.00  0.00     0.074 A 
ATOM     42  C   UNL A   1      41.241  26.899  28.490  1.00  0.00     0.049 A 
ATOM     43  N   UNL A   1      43.970  27.537  27.361  1.00  0.00    -0.248 NA
ATOM     44  C   UNL A   1      44.020  25.383  26.458  1.00  0.00     0.031 C 
ATOM     45  C   UNL A   1      39.917  26.631  29.051  1.00  0.00     0.029 A 
ATOM     46  N   UNL A   1      41.452  28.230  28.745  1.00  0.00    -0.354 N 
ATOM     47  C   UNL A   1      45.147  27.365  26.646  1.00  0.00     0.074 A 
ATOM     48  C   UNL A   1      45.141  26.012  26.133  1.00  0.00     0.031 C 
ATOM     49  C   UNL A   1      39.430  27.764  29.583  1.00  0.00     0.029 A 
ATOM     50  C   UNL A   1      40.432  28.817  29.451  1.00  0.00     0.049 A 
ATOM     51  H   UNL A   1      42.255  28.715  28.450  1.00  0.00     0.167 HD
ATOM     52  C   UNL A   1      46.141  28.261  26.443  1.00  0.00     0.037 A 
ATOM     53  C   UNL A   1      40.337  30.058  29.964  1.00  0.00     0.037 A 
ATOM     54  C   UNL A   1      46.125  29.611  26.939  1.00  0.00     0.049 A 
ATOM     55  C   UNL A   1      41.482  31.015  29.772  1.00  0.00     0.074 A 
ATOM     56  C   UNL A   1      47.081  30.600  26.791  1.00  0.00     0.029 A 
ATOM     57  N   UNL A   1      45.089  30.164  27.680  1.00  0.00    -0.354 N 
ATOM     58  N   UNL A   1      42.609  30.838  29.127  1.00  0.00    -0.248 NA
ATOM     59  C   UNL A   1      41.344  32.341  30.389  1.00  0.00     0.031 C 
ATOM     60  C   UNL A   1      46.640  31.740  27.473  1.00  0.00     0.029 A 
ATOM     61  C   UNL A   1      45.390  31.476  28.009  1.00  0.00     0.049 A 
ATOM     62  H   UNL A   1      44.263  29.693  27.935  1.00  0.00     0.167 HD
ATOM     63  C   UNL A   1      43.307  32.031  29.244  1.00  0.00     0.074 A 
ATOM     64  C   UNL A   1      42.468  32.932  30.009  1.00  0.00     0.031 C 
ATOM     65  C   UNL A   1      44.535  32.353  28.767  1.00  0.00     0.037 A 
BRANCH  52  66
ATOM     66  C   UNL A   1      47.346  27.793  25.682  1.00  0.00     0.064 A 
ATOM     67  C   UNL A   1      47.387  27.798  24.280  1.00  0.00     0.173 A 
ATOM     68  C   UNL A   1      48.487  27.350  26.370  1.00  0.00     0.173 A 
ATOM     69  F   UNL A   1      46.315  28.195  23.577  1.00  0.00    -0.203 F 
ATOM     70  C   UNL A   1      48.515  27.354  23.595  1.00  0.00     0.198 A 
ATOM     71  C   UNL A   1      49.623  26.931  25.683  1.00  0.00     0.198 A 
ATOM     72  F   UNL A   1      48.500  27.326  27.711  1.00  0.00    -0.203 F 
ATOM     73  F   UNL A   1      48.515  27.325  22.255  1.00  0.00    -0.200 F 
ATOM     74  C   UNL A   1      49.633  26.927  24.296  1.00  0.00     0.200 A 
ATOM     75  F   UNL A   1      50.705  26.527  26.362  1.00  0.00    -0.200 F 
ATOM     76  F   UNL A   1      50.719  26.503  23.634  1.00  0.00    -0.200 F 
ENDBRANCH  52  66
BRANCH  53  77
ATOM     77  C   UNL A   1      39.129  30.452  30.732  1.00  0.00     0.064 A 
ATOM     78  C   UNL A   1      39.053  30.238  32.115  1.00  0.00     0.173 A 
ATOM     79  C   UNL A   1      38.029  31.051  30.101  1.00  0.00     0.173 A 
ATOM     80  F   UNL A   1      40.071  29.647  32.758  1.00  0.00    -0.203 F 
ATOM     81  C   UNL A   1      37.916  30.598  32.835  1.00  0.00     0.198 A 
ATOM     82  C   UNL A   1      36.904  31.435  30.827  1.00  0.00     0.198 A 
ATOM     83  F   UNL A   1      38.053  31.277  28.780  1.00  0.00    -0.203 F 
ATOM     84  F   UNL A   1      37.853  30.347  34.151  1.00  0.00    -0.200 F 
ATOM     85  C   UNL A   1      36.846  31.203  32.192  1.00  0.00     0.200 A 
ATOM     86  F   UNL A   1      35.879  32.031  30.205  1.00  0.00    -0.200 F 
ATOM     87  F   UNL A   1      35.757  31.555  32.889  1.00  0.00    -0.200 F 
ENDBRANCH  53  77
BRANCH  65  88
ATOM     88  C   UNL A   1      45.023  33.746  29.032  1.00  0.00     0.064 A 
ATOM     89  C   UNL A   1      44.699  34.811  28.178  1.00  0.00     0.173 A 
ATOM     90  C   UNL A   1      45.800  34.022  30.165  1.00  0.00     0.173 A 
ATOM     91  F   UNL A   1      43.973  34.592  27.071  1.00  0.00    -0.203 F 
ATOM     92  C   UNL A   1      45.159  36.098  28.436  1.00  0.00     0.198 A 
ATOM     93  C   UNL A   1      46.236  35.316  30.435  1.00  0.00     0.198 A 
ATOM     94  F   UNL A   1      46.132  33.038  31.014  1.00  0.00    -0.203 F 
ATOM     95  F   UNL A   1      44.879  37.093  27.583  1.00  0.00    -0.200 F 
ATOM     96  C   UNL A   1      45.922  36.351  29.568  1.00  0.00     0.200 A 
ATOM     97  F   UNL A   1      46.965  35.560  31.533  1.00  0.00    -0.200 F 
ATOM     98  F   UNL A   1      46.363  37.592  29.816  1.00  0.00    -0.200 F 
ENDBRANCH  65  88
ENDBRANCH  39  40
ENDBRANCH  32  34
ENDBRANCH  31  32
ENDBRANCH  30  31
ENDBRANCH  29  30
ENDBRANCH   1  29
TORSDOF 16
ENDMDL
MODEL 2
REMARK VINA RESULT:     -11.9      4.151     10.104
REMARK SMILES COc1ccc(S(=O)(=O)N2CCC[C@H](C(=O)N3CCC[C@H](C(=O)OCCOC(=O)c4ccc(-c5c6nc(c(-c7c(F)c(F)c(F)c(F)c7F)c7ccc([nH]7)c(-c7c(F)c(F)c(F)c(F)c7F)c7nc(c(-c8c(F)c(F)c(F)c(F)c8F)c8ccc5[nH]8)C=C7)C=C6)cc4)C3)C2)cc1
REMARK SMILES IDX 24 1 22 2 23 3 21 4 17 5 18 6 93 7 19 8 20 9 15 10 16 11
REMARK SMILES IDX 14 12 10 13 11 14 94 15 12 16 13 17 7 18 8 19 9 20 6 21 3 22
REMARK SMILES IDX 4 23 96 24 5 25 95 26 2 27 1 28 25 29 26 30 27 31 28 32
REMARK SMILES IDX 29 33 30 34 31 35 92 36 32 37 91 38 33 39 34 40 35 41 85 42
REMARK SMILES IDX 36 43 90 44 84 45 86 46 37 47 89 48 83 49 82 50 38 52 70 53
REMARK SMILES IDX 50 54 69 55 51 56 54 57 68 58 87 59 52 60 53 61 67 63 88 64
REMARK SMILES IDX 55 65 39 66 40 67 48 68 41 69 42 70 46 71 49 72 43 73 44 74
REMARK SMILES IDX 47 75 45 76 71 77 72 78 80 79 73 80 74 81 78 82 81 83 75 84
REMARK SMILES IDX 76 85 79 86 77 87 56 88 57 89 65 90 58 91 59 92 63 93 66 94
REMARK SMILES IDX 60 95 61 96 64 97 62 98
REMARK H PARENT 86 51 54 62
REMARK Flexibility Score: inf
ROOT
ATOM      1  O   UNL A   1      31.370  30.880  25.709  1.00  0.00    -0.462 OA
ENDROOT
BRANCH   1   2
ATOM      2  C   UNL A   1      32.122  29.932  26.314  1.00  0.00     0.310 C 
ATOM      3  O   UNL A   1      31.834  29.377  27.371  1.00  0.00    -0.252 OA
BRANCH   2   4
ATOM      4  C   UNL A   1      33.403  29.601  25.560  1.00  0.00     0.119 C 
ATOM      5  N   UNL A   1      32.611  27.525  24.547  1.00  0.00    -0.342 N 
ATOM      6  C   UNL A   1      33.629  26.709  25.200  1.00  0.00     0.119 C 
ATOM      7  C   UNL A   1      33.024  28.888  24.268  1.00  0.00     0.134 C 
ATOM      8  C   UNL A   1      34.121  27.337  26.501  1.00  0.00     0.022 C 
ATOM      9  C   UNL A   1      34.467  28.818  26.334  1.00  0.00     0.019 C 
BRANCH   5  10
ATOM     10  C   UNL A   1      31.291  27.123  24.602  1.00  0.00     0.227 C 
ATOM     11  O   UNL A   1      30.665  27.148  25.667  1.00  0.00    -0.275 OA
BRANCH  10  12
ATOM     12  C   UNL A   1      30.655  26.438  23.386  1.00  0.00     0.094 C 
ATOM     13  N   UNL A   1      32.018  24.379  23.204  1.00  0.00    -0.197 NA
ATOM     14  C   UNL A   1      32.680  24.811  21.965  1.00  0.00     0.102 C 
ATOM     15  C   UNL A   1      30.705  24.931  23.572  1.00  0.00     0.116 C 
ATOM     16  C   UNL A   1      32.005  25.956  21.220  1.00  0.00     0.018 C 
ATOM     17  C   UNL A   1      31.028  26.859  21.974  1.00  0.00     0.016 C 
BRANCH  13  18
ATOM     18  S   UNL A   1      32.443  22.854  23.818  1.00  0.00     0.243 S 
ATOM     19  O   UNL A   1      32.472  21.912  22.729  1.00  0.00    -0.207 OA
ATOM     20  O   UNL A   1      31.624  22.631  24.997  1.00  0.00    -0.207 OA
BRANCH  18  21
ATOM     21  C   UNL A   1      34.119  23.015  24.405  1.00  0.00     0.082 A 
ATOM     22  C   UNL A   1      36.777  23.075  25.262  1.00  0.00     0.118 A 
ATOM     23  C   UNL A   1      36.477  22.791  23.927  1.00  0.00     0.048 A 
ATOM     24  C   UNL A   1      35.750  23.380  26.152  1.00  0.00     0.048 A 
ATOM     25  C   UNL A   1      35.148  22.750  23.497  1.00  0.00     0.025 A 
ATOM     26  C   UNL A   1      34.423  23.343  25.728  1.00  0.00     0.025 A 
BRANCH  22  27
ATOM     27  O   UNL A   1      38.102  23.051  25.598  1.00  0.00    -0.497 OA
ATOM     28  C   UNL A   1      38.496  24.077  26.507  1.00  0.00     0.278 C 
ENDBRANCH  22  27
ENDBRANCH  18  21
ENDBRANCH  13  18
ENDBRANCH  10  12
ENDBRANCH   5  10
ENDBRANCH   2   4
ENDBRANCH   1   2
BRANCH   1  29
ATOM     29  C   UNL A   1      30.898  31.966  26.523  1.00  0.00     0.274 C 
BRANCH  29  30
ATOM     30  C   UNL A   1      31.960  33.062  26.628  1.00  0.00     0.275 C 
BRANCH  30  31
ATOM     31  O   UNL A   1      32.871  32.804  27.713  1.00  0.00    -0.458 OA
BRANCH  31  32
ATOM     32  C   UNL A   1      33.954  33.612  27.752  1.00  0.00     0.338 C 
ATOM     33  O   UNL A   1      34.010  34.806  27.515  1.00  0.00    -0.246 OA
BRANCH  32  34
ATOM     34  C   UNL A   1      35.106  32.861  28.265  1.00  0.00     0.060 A 
ATOM     35  C   UNL A   1      34.884  31.578  28.766  1.00  0.00     0.016 A 
ATOM     36  C   UNL A   1      36.362  33.457  28.367  1.00  0.00     0.016 A 
ATOM     37  C   UNL A   1      35.905  30.885  29.400  1.00  0.00     0.010 A 
ATOM     38  C   UNL A   1      37.397  32.751  28.986  1.00  0.00     0.010 A 
ATOM     39  C   UNL A   1      37.169  31.471  29.522  1.00  0.00    -0.014 A 
BRANCH  39  40
ATOM     40  C   UNL A   1      38.227  30.762  30.274  1.00  0.00     0.031 A 
ATOM     41  C   UNL A   1      38.404  31.036  31.738  1.00  0.00     0.074 A 
ATOM     42  C   UNL A   1      38.997  29.855  29.649  1.00  0.00     0.049 A 
ATOM     43  N   UNL A   1      39.338  30.617  32.552  1.00  0.00    -0.248 NA
ATOM     44  C   UNL A   1      37.393  31.899  32.370  1.00  0.00     0.031 C 
ATOM     45  C   UNL A   1      38.866  29.459  28.247  1.00  0.00     0.029 A 
ATOM     46  N   UNL A   1      40.044  29.101  30.115  1.00  0.00    -0.354 N 
ATOM     47  C   UNL A   1      39.049  31.192  33.782  1.00  0.00     0.074 A 
ATOM     48  C   UNL A   1      37.856  31.994  33.608  1.00  0.00     0.031 C 
ATOM     49  C   UNL A   1      39.796  28.532  27.966  1.00  0.00     0.029 A 
ATOM     50  C   UNL A   1      40.621  28.314  29.150  1.00  0.00     0.049 A 
ATOM     51  H   UNL A   1      40.349  29.122  31.050  1.00  0.00     0.167 HD
ATOM     52  C   UNL A   1      39.724  31.060  34.948  1.00  0.00     0.037 A 
ATOM     53  C   UNL A   1      41.717  27.535  29.210  1.00  0.00     0.037 A 
ATOM     54  C   UNL A   1      40.896  30.242  35.114  1.00  0.00     0.049 A 
ATOM     55  C   UNL A   1      42.482  27.452  30.503  1.00  0.00     0.074 A 
ATOM     56  C   UNL A   1      41.657  30.039  36.251  1.00  0.00     0.029 A 
ATOM     57  N   UNL A   1      41.474  29.483  34.104  1.00  0.00    -0.354 N 
ATOM     58  N   UNL A   1      42.226  28.025  31.653  1.00  0.00    -0.248 NA
ATOM     59  C   UNL A   1      43.693  26.620  30.500  1.00  0.00     0.031 C 
ATOM     60  C   UNL A   1      42.716  29.185  35.921  1.00  0.00     0.029 A 
ATOM     61  C   UNL A   1      42.591  28.822  34.590  1.00  0.00     0.049 A 
ATOM     62  H   UNL A   1      41.140  29.423  33.181  1.00  0.00     0.167 HD
ATOM     63  C   UNL A   1      43.231  27.613  32.516  1.00  0.00     0.074 A 
ATOM     64  C   UNL A   1      44.092  26.725  31.760  1.00  0.00     0.031 C 
ATOM     65  C   UNL A   1      43.429  27.941  33.817  1.00  0.00     0.037 A 
BRANCH  52  66
ATOM     66  C   UNL A   1      39.232  31.851  36.123  1.00  0.00     0.064 A 
ATOM     67  C   UNL A   1      39.700  33.145  36.395  1.00  0.00     0.173 A 
ATOM     68  C   UNL A   1      38.260  31.311  36.980  1.00  0.00     0.173 A 
ATOM     69  F   UNL A   1      40.642  33.698  35.617  1.00  0.00    -0.203 F 
ATOM     70  C   UNL A   1      39.232  33.858  37.496  1.00  0.00     0.198 A 
ATOM     71  C   UNL A   1      37.775  32.037  38.064  1.00  0.00     0.198 A 
ATOM     72  F   UNL A   1      37.778  30.078  36.763  1.00  0.00    -0.203 F 
ATOM     73  F   UNL A   1      39.727  35.076  37.763  1.00  0.00    -0.200 F 
ATOM     74  C   UNL A   1      38.266  33.307  38.325  1.00  0.00     0.200 A 
ATOM     75  F   UNL A   1      36.836  31.506  38.859  1.00  0.00    -0.200 F 
ATOM     76  F   UNL A   1      37.814  33.998  39.381  1.00  0.00    -0.200 F 
ENDBRANCH  52  66
BRANCH  53  77
ATOM     77  C   UNL A   1      42.169  26.799  28.002  1.00  0.00     0.064 A 
ATOM     78  C   UNL A   1      41.749  25.484  27.761  1.00  0.00     0.173 A 
ATOM     79  C   UNL A   1      43.027  27.395  27.066  1.00  0.00     0.173 A 
ATOM     80  F   UNL A   1      40.947  24.866  28.640  1.00  0.00    -0.203 F 
ATOM     81  C   UNL A   1      42.180  24.789  26.633  1.00  0.00     0.198 A 
ATOM     82  C   UNL A   1      43.435  26.708  25.925  1.00  0.00     0.198 A 
ATOM     83  F   UNL A   1      43.457  28.651  27.252  1.00  0.00    -0.203 F 
ATOM     84  F   UNL A   1      41.795  23.519  26.445  1.00  0.00    -0.200 F 
ATOM     85  C   UNL A   1      43.016  25.403  25.713  1.00  0.00     0.200 A 
ATOM     86  F   UNL A   1      44.231  27.310  25.032  1.00  0.00    -0.200 F 
ATOM     87  F   UNL A   1      43.424  24.735  24.625  1.00  0.00    -0.200 F 
ENDBRANCH  53  77
BRANCH  65  88
ATOM     88  C   UNL A   1      44.601  27.310  34.507  1.00  0.00     0.064 A 
ATOM     89  C   UNL A   1      44.495  26.062  35.138  1.00  0.00     0.173 A 
ATOM     90  C   UNL A   1      45.849  27.949  34.512  1.00  0.00     0.173 A 
ATOM     91  F   UNL A   1      43.317  25.421  35.174  1.00  0.00    -0.203 F 
ATOM     92  C   UNL A   1      45.592  25.489  35.775  1.00  0.00     0.198 A 
ATOM     93  C   UNL A   1      46.950  27.361  35.127  1.00  0.00     0.198 A 
ATOM     94  F   UNL A   1      46.000  29.142  33.918  1.00  0.00    -0.203 F 
ATOM     95  F   UNL A   1      45.459  24.318  36.414  1.00  0.00    -0.200 F 
ATOM     96  C   UNL A   1      46.820  26.135  35.762  1.00  0.00     0.200 A 
ATOM     97  F   UNL A   1      48.138  27.982  35.106  1.00  0.00    -0.200 F 
ATOM     98  F   UNL A   1      47.876  25.581  36.374  1.00  0.00    -0.200 F 
ENDBRANCH  65  88
ENDBRANCH  39  40
ENDBRANCH  32  34
ENDBRANCH  31  32
ENDBRANCH  30  31
ENDBRANCH  29  30
ENDBRANCH   1  29
TORSDOF 16
ENDMDL
MODEL 3
REMARK VINA RESULT:     -11.8      4.052      7.820
REMARK SMILES COc1ccc(S(=O)(=O)N2CCC[C@H](C(=O)N3CCC[C@H](C(=O)OCCOC(=O)c4ccc(-c5c6nc(c(-c7c(F)c(F)c(F)c(F)c7F)c7ccc([nH]7)c(-c7c(F)c(F)c(F)c(F)c7F)c7nc(c(-c8c(F)c(F)c(F)c(F)c8F)c8ccc5[nH]8)C=C7)C=C6)cc4)C3)C2)cc1
REMARK SMILES IDX 24 1 22 2 23 3 21 4 17 5 18 6 93 7 19 8 20 9 15 10 16 11
REMARK SMILES IDX 14 12 10 13 11 14 94 15 12 16 13 17 7 18 8 19 9 20 6 21 3 22
REMARK SMILES IDX 4 23 96 24 5 25 95 26 2 27 1 28 25 29 26 30 27 31 28 32
REMARK SMILES IDX 29 33 30 34 31 35 92 36 32 37 91 38 33 39 34 40 35 41 85 42
REMARK SMILES IDX 36 43 90 44 84 45 86 46 37 47 89 48 83 49 82 50 38 52 70 53
REMARK SMILES IDX 50 54 69 55 51 56 54 57 68 58 87 59 52 60 53 61 67 63 88 64
REMARK SMILES IDX 55 65 39 66 40 67 48 68 41 69 42 70 46 71 49 72 43 73 44 74
REMARK SMILES IDX 47 75 45 76 71 77 72 78 80 79 73 80 74 81 78 82 81 83 75 84
REMARK SMILES IDX 76 85 79 86 77 87 56 88 57 89 65 90 58 91 59 92 63 93 66 94
REMARK SMILES IDX 60 95 61 96 64 97 62 98
REMARK H PARENT 86 51 54 62
REMARK Flexibility Score: inf
ROOT
ATOM      1  O   UNL A   1      31.100  29.075  24.890  1.00  0.00    -0.462 OA
ENDROOT
BRANCH   1   2
ATOM      2  C   UNL A   1      30.559  28.791  23.683  1.00  0.00     0.310 C 
ATOM      3  O   UNL A   1      29.354  28.711  23.456  1.00  0.00    -0.252 OA
BRANCH   2   4
ATOM      4  C   UNL A   1      31.596  28.563  22.592  1.00  0.00     0.119 C 
ATOM      5  N   UNL A   1      31.909  26.174  22.989  1.00  0.00    -0.342 N 
ATOM      6  C   UNL A   1      33.324  26.318  23.314  1.00  0.00     0.119 C 
ATOM      7  C   UNL A   1      31.409  27.155  22.042  1.00  0.00     0.134 C 
ATOM      8  C   UNL A   1      33.651  27.710  23.847  1.00  0.00     0.022 C 
ATOM      9  C   UNL A   1      33.056  28.819  22.977  1.00  0.00     0.019 C 
BRANCH   5  10
ATOM     10  C   UNL A   1      31.097  25.445  23.834  1.00  0.00     0.227 C 
ATOM     11  O   UNL A   1      29.898  25.284  23.580  1.00  0.00    -0.275 OA
BRANCH  10  12
ATOM     12  C   UNL A   1      31.625  25.011  25.208  1.00  0.00     0.094 C 
ATOM     13  N   UNL A   1      31.731  22.551  24.947  1.00  0.00    -0.197 NA
ATOM     14  C   UNL A   1      30.616  22.308  25.874  1.00  0.00     0.102 C 
ATOM     15  C   UNL A   1      32.516  23.791  25.044  1.00  0.00     0.116 C 
ATOM     16  C   UNL A   1      30.248  23.473  26.785  1.00  0.00     0.018 C 
ATOM     17  C   UNL A   1      30.686  24.886  26.396  1.00  0.00     0.016 C 
BRANCH  13  18
ATOM     18  S   UNL A   1      32.471  21.190  24.252  1.00  0.00     0.243 S 
ATOM     19  O   UNL A   1      32.121  21.139  22.856  1.00  0.00    -0.207 OA
ATOM     20  O   UNL A   1      32.216  20.071  25.143  1.00  0.00    -0.207 OA
BRANCH  18  21
ATOM     21  C   UNL A   1      34.225  21.496  24.332  1.00  0.00     0.082 A 
ATOM     22  C   UNL A   1      36.953  22.003  24.660  1.00  0.00     0.118 A 
ATOM     23  C   UNL A   1      36.342  20.968  25.371  1.00  0.00     0.048 A 
ATOM     24  C   UNL A   1      36.210  22.747  23.746  1.00  0.00     0.048 A 
ATOM     25  C   UNL A   1      34.976  20.718  25.218  1.00  0.00     0.025 A 
ATOM     26  C   UNL A   1      34.847  22.500  23.588  1.00  0.00     0.025 A 
BRANCH  22  27
ATOM     27  O   UNL A   1      38.283  22.199  24.907  1.00  0.00    -0.497 OA
ATOM     28  C   UNL A   1      38.816  21.378  25.944  1.00  0.00     0.278 C 
ENDBRANCH  22  27
ENDBRANCH  18  21
ENDBRANCH  13  18
ENDBRANCH  10  12
ENDBRANCH   5  10
ENDBRANCH   2   4
ENDBRANCH   1   2
BRANCH   1  29
ATOM     29  C   UNL A   1      31.063  30.445  25.323  1.00  0.00     0.274 C 
BRANCH  29  30
ATOM     30  C   UNL A   1      31.755  30.601  26.677  1.00  0.00     0.275 C 
BRANCH  30  31
ATOM     31  O   UNL A   1      33.158  30.888  26.517  1.00  0.00    -0.458 OA
BRANCH  31  32
ATOM     32  C   UNL A   1      33.630  31.882  27.303  1.00  0.00     0.338 C 
ATOM     33  O   UNL A   1      33.075  32.921  27.614  1.00  0.00    -0.246 OA
BRANCH  32  34
ATOM     34  C   UNL A   1      34.922  31.484  27.873  1.00  0.00     0.060 A 
ATOM     35  C   UNL A   1      35.061  30.174  28.332  1.00  0.00     0.016 A 
ATOM     36  C   UNL A   1      35.938  32.417  28.066  1.00  0.00     0.016 A 
ATOM     37  C   UNL A   1      36.205  29.788  29.016  1.00  0.00     0.010 A 
ATOM     38  C   UNL A   1      37.100  32.024  28.736  1.00  0.00     0.010 A 
ATOM     39  C   UNL A   1      37.231  30.713  29.230  1.00  0.00    -0.014 A 
BRANCH  39  40
ATOM     40  C   UNL A   1      38.408  30.319  30.034  1.00  0.00     0.031 A 
ATOM     41  C   UNL A   1      39.434  29.400  29.440  1.00  0.00     0.074 A 
ATOM     42  C   UNL A   1      38.567  30.813  31.273  1.00  0.00     0.049 A 
ATOM     43  N   UNL A   1      40.471  28.839  30.007  1.00  0.00    -0.248 NA
ATOM     44  C   UNL A   1      39.270  29.068  28.016  1.00  0.00     0.031 C 
ATOM     45  C   UNL A   1      37.669  31.768  31.923  1.00  0.00     0.029 A 
ATOM     46  N   UNL A   1      39.543  30.579  32.209  1.00  0.00    -0.354 N 
ATOM     47  C   UNL A   1      41.062  28.061  29.021  1.00  0.00     0.074 A 
ATOM     48  C   UNL A   1      40.267  28.216  27.822  1.00  0.00     0.031 C 
ATOM     49  C   UNL A   1      38.136  32.041  33.152  1.00  0.00     0.029 A 
ATOM     50  C   UNL A   1      39.331  31.237  33.394  1.00  0.00     0.049 A 
ATOM     51  H   UNL A   1      40.318  29.996  32.044  1.00  0.00     0.167 HD
ATOM     52  C   UNL A   1      42.168  27.287  29.117  1.00  0.00     0.037 A 
ATOM     53  C   UNL A   1      40.007  31.168  34.556  1.00  0.00     0.037 A 
ATOM     54  C   UNL A   1      42.963  27.158  30.309  1.00  0.00     0.049 A 
ATOM     55  C   UNL A   1      41.199  30.255  34.651  1.00  0.00     0.074 A 
ATOM     56  C   UNL A   1      44.102  26.400  30.513  1.00  0.00     0.029 A 
ATOM     57  N   UNL A   1      42.700  27.815  31.503  1.00  0.00    -0.354 N 
ATOM     58  N   UNL A   1      41.733  29.493  33.728  1.00  0.00    -0.248 NA
ATOM     59  C   UNL A   1      41.874  30.186  35.954  1.00  0.00     0.031 C 
ATOM     60  C   UNL A   1      44.508  26.570  31.842  1.00  0.00     0.029 A 
ATOM     61  C   UNL A   1      43.648  27.468  32.453  1.00  0.00     0.049 A 
ATOM     62  H   UNL A   1      41.951  28.436  31.654  1.00  0.00     0.167 HD
ATOM     63  C   UNL A   1      42.816  28.868  34.330  1.00  0.00     0.074 A 
ATOM     64  C   UNL A   1      42.873  29.353  35.694  1.00  0.00     0.031 C 
ATOM     65  C   UNL A   1      43.684  27.968  33.803  1.00  0.00     0.037 A 
BRANCH  52  66
ATOM     66  C   UNL A   1      42.557  26.488  27.908  1.00  0.00     0.064 A 
ATOM     67  C   UNL A   1      43.498  26.959  26.980  1.00  0.00     0.173 A 
ATOM     68  C   UNL A   1      41.993  25.222  27.686  1.00  0.00     0.173 A 
ATOM     69  F   UNL A   1      44.052  28.171  27.138  1.00  0.00    -0.203 F 
ATOM     70  C   UNL A   1      43.840  26.203  25.862  1.00  0.00     0.198 A 
ATOM     71  C   UNL A   1      42.357  24.458  26.581  1.00  0.00     0.198 A 
ATOM     72  F   UNL A   1      41.089  24.726  28.544  1.00  0.00    -0.203 F 
ATOM     73  F   UNL A   1      44.708  26.691  24.964  1.00  0.00    -0.200 F 
ATOM     74  C   UNL A   1      43.275  24.951  25.667  1.00  0.00     0.200 A 
ATOM     75  F   UNL A   1      41.815  23.246  26.399  1.00  0.00    -0.200 F 
ATOM     76  F   UNL A   1      43.609  24.223  24.592  1.00  0.00    -0.200 F 
ENDBRANCH  52  66
BRANCH  53  77
ATOM     77  C   UNL A   1      39.554  31.963  35.725  1.00  0.00     0.064 A 
ATOM     78  C   UNL A   1      40.116  33.214  36.007  1.00  0.00     0.173 A 
ATOM     79  C   UNL A   1      38.550  31.488  36.582  1.00  0.00     0.173 A 
ATOM     80  F   UNL A   1      41.095  33.699  35.228  1.00  0.00    -0.203 F 
ATOM     81  C   UNL A   1      39.699  33.957  37.109  1.00  0.00     0.198 A 
ATOM     82  C   UNL A   1      38.114  32.244  37.668  1.00  0.00     0.198 A 
ATOM     83  F   UNL A   1      37.981  30.295  36.356  1.00  0.00    -0.203 F 
ATOM     84  F   UNL A   1      40.279  35.135  37.379  1.00  0.00    -0.200 F 
ATOM     85  C   UNL A   1      38.694  33.475  37.934  1.00  0.00     0.200 A 
ATOM     86  F   UNL A   1      37.134  31.780  38.454  1.00  0.00    -0.200 F 
ATOM     87  F   UNL A   1      38.288  34.194  38.990  1.00  0.00    -0.200 F 
ENDBRANCH  53  77
BRANCH  65  88
ATOM     88  C   UNL A   1      44.784  27.482  34.699  1.00  0.00     0.064 A 
ATOM     89  C   UNL A   1      44.659  26.296  35.436  1.00  0.00     0.173 A 
ATOM     90  C   UNL A   1      45.986  28.198  34.799  1.00  0.00     0.173 A 
ATOM     91  F   UNL A   1      43.521  25.587  35.386  1.00  0.00    -0.203 F 
ATOM     92  C   UNL A   1      45.688  25.858  36.264  1.00  0.00     0.198 A 
ATOM     93  C   UNL A   1      47.023  27.743  35.607  1.00  0.00     0.198 A 
ATOM     94  F   UNL A   1      46.154  29.336  34.109  1.00  0.00    -0.203 F 
ATOM     95  F   UNL A   1      45.530  24.747  36.997  1.00  0.00    -0.200 F 
ATOM     96  C   UNL A   1      46.872  26.577  36.343  1.00  0.00     0.200 A 
ATOM     97  F   UNL A   1      48.170  28.434  35.675  1.00  0.00    -0.200 F 
ATOM     98  F   UNL A   1      47.863  26.153  37.139  1.00  0.00    -0.200 F 
ENDBRANCH  65  88
ENDBRANCH  39  40
ENDBRANCH  32  34
ENDBRANCH  31  32
ENDBRANCH  30  31
ENDBRANCH  29  30
ENDBRANCH   1  29
TORSDOF 16
ENDMDL
