MODEL 1
REMARK VINA RESULT:     -12.1      0.000      0.000
REMARK SMILES C[C@@H](C(=O)OCCOC(=O)c1ccc(-c2c3nc(c(-c4c(F)c(F)c(F)c(F)c4F)c4ccc([nH]4)c(-c4c(F)c(F)c(F)c(F)c4F)c4nc(c(-c5c(F)c(F)c(F)c(F)c5F)c5ccc2[nH]5)C=C4)C=C3)cc1)c1ccc(C[C@@H]2CCC[C@@H]2O)cc1F
REMARK SMILES IDX 6 1 5 2 3 3 4 4 2 5 1 6 74 7 75 8 86 9 76 10 85 11 87 12
REMARK SMILES IDX 77 13 78 14 79 15 80 16 83 17 81 18 82 19 84 20 7 22 8 23
REMARK SMILES IDX 9 24 10 25 11 26 12 27 73 28 13 29 72 30 14 31 15 32 16 33
REMARK SMILES IDX 66 34 17 35 71 36 65 37 67 38 18 39 70 40 64 41 63 42 19 44
REMARK SMILES IDX 51 45 31 46 50 47 32 48 35 49 49 50 68 51 33 52 34 53 48 55
REMARK SMILES IDX 69 56 36 57 20 58 21 59 29 60 22 61 23 62 27 63 30 64 24 65
REMARK SMILES IDX 25 66 28 67 26 68 52 69 53 70 61 71 54 72 55 73 59 74 62 75
REMARK SMILES IDX 56 76 57 77 60 78 58 79 37 80 38 81 46 82 39 83 40 84 44 85
REMARK SMILES IDX 47 86 41 87 42 88 45 89 43 90
REMARK H PARENT 84 21 67 43 35 54
REMARK Flexibility Score: inf
ROOT
ATOM      1  C   UNL A   1      44.085  21.581  25.383  1.00  0.00     0.274 C 
ENDROOT
BRANCH   1   2
ATOM      2  O   UNL A   1      42.676  21.811  25.168  1.00  0.00    -0.462 OA
BRANCH   2   3
ATOM      3  C   UNL A   1      41.819  21.271  26.084  1.00  0.00     0.313 C 
ATOM      4  O   UNL A   1      41.725  20.063  26.258  1.00  0.00    -0.252 OA
BRANCH   3   5
ATOM      5  C   UNL A   1      40.948  22.343  26.795  1.00  0.00     0.129 C 
ATOM      6  C   UNL A   1      41.014  22.160  28.326  1.00  0.00     0.025 C 
BRANCH   5   7
ATOM      7  C   UNL A   1      39.513  22.394  26.265  1.00  0.00     0.002 A 
ATOM      8  C   UNL A   1      38.908  21.312  25.613  1.00  0.00     0.008 A 
ATOM      9  C   UNL A   1      38.726  23.542  26.394  1.00  0.00     0.127 A 
ATOM     10  C   UNL A   1      37.700  21.461  24.924  1.00  0.00     0.004 A 
ATOM     11  C   UNL A   1      37.561  23.716  25.645  1.00  0.00     0.043 A 
ATOM     12  F   UNL A   1      39.104  24.538  27.205  1.00  0.00    -0.207 F 
ATOM     13  C   UNL A   1      37.115  22.712  24.780  1.00  0.00    -0.045 A 
BRANCH  13  14
ATOM     14  C   UNL A   1      36.043  23.006  23.756  1.00  0.00     0.041 C 
BRANCH  14  15
ATOM     15  C   UNL A   1      34.544  23.110  24.164  1.00  0.00     0.022 C 
ATOM     16  C   UNL A   1      33.897  21.779  24.570  1.00  0.00     0.007 C 
ATOM     17  C   UNL A   1      33.507  23.736  23.222  1.00  0.00     0.117 C 
ATOM     18  C   UNL A   1      32.751  21.503  23.588  1.00  0.00     0.003 C 
ATOM     19  C   UNL A   1      32.799  22.591  22.531  1.00  0.00     0.032 C 
BRANCH  17  20
ATOM     20  O   UNL A   1      34.040  24.637  22.295  1.00  0.00    -0.393 OA
ATOM     21  H   UNL A   1      33.737  24.402  21.404  1.00  0.00     0.210 HD
ENDBRANCH  17  20
ENDBRANCH  14  15
ENDBRANCH  13  14
ENDBRANCH   5   7
ENDBRANCH   3   5
ENDBRANCH   2   3
ENDBRANCH   1   2
BRANCH   1  22
ATOM     22  C   UNL A   1      44.928  22.696  24.768  1.00  0.00     0.275 C 
BRANCH  22  23
ATOM     23  O   UNL A   1      44.124  23.873  24.563  1.00  0.00    -0.458 OA
BRANCH  23  24
ATOM     24  C   UNL A   1      44.680  25.042  24.936  1.00  0.00     0.338 C 
ATOM     25  O   UNL A   1      45.814  25.442  24.704  1.00  0.00    -0.246 OA
BRANCH  24  26
ATOM     26  C   UNL A   1      43.701  25.866  25.657  1.00  0.00     0.060 A 
ATOM     27  C   UNL A   1      44.028  27.191  25.894  1.00  0.00     0.016 A 
ATOM     28  C   UNL A   1      42.609  25.286  26.309  1.00  0.00     0.016 A 
ATOM     29  C   UNL A   1      43.351  27.887  26.893  1.00  0.00     0.010 A 
ATOM     30  C   UNL A   1      41.885  26.026  27.264  1.00  0.00     0.010 A 
ATOM     31  C   UNL A   1      42.304  27.310  27.639  1.00  0.00    -0.014 A 
BRANCH  31  32
ATOM     32  C   UNL A   1      41.796  28.038  28.856  1.00  0.00     0.031 A 
ATOM     33  C   UNL A   1      40.553  28.913  28.816  1.00  0.00     0.074 A 
ATOM     34  C   UNL A   1      42.333  27.775  30.067  1.00  0.00     0.049 A 
ATOM     35  N   UNL A   1      39.891  29.453  29.819  1.00  0.00    -0.248 NA
ATOM     36  C   UNL A   1      39.946  29.195  27.507  1.00  0.00     0.031 C 
ATOM     37  C   UNL A   1      43.467  26.882  30.312  1.00  0.00     0.029 A 
ATOM     38  N   UNL A   1      41.975  28.204  31.325  1.00  0.00    -0.354 N 
ATOM     39  C   UNL A   1      38.761  30.046  29.268  1.00  0.00     0.074 A 
ATOM     40  C   UNL A   1      38.854  29.874  27.837  1.00  0.00     0.031 C 
ATOM     41  C   UNL A   1      43.676  26.789  31.631  1.00  0.00     0.029 A 
ATOM     42  C   UNL A   1      42.781  27.711  32.321  1.00  0.00     0.049 A 
ATOM     43  H   UNL A   1      41.215  28.806  31.494  1.00  0.00     0.167 HD
ATOM     44  C   UNL A   1      37.724  30.662  29.888  1.00  0.00     0.037 A 
ATOM     45  C   UNL A   1      42.858  28.011  33.632  1.00  0.00     0.037 A 
ATOM     46  C   UNL A   1      37.668  30.982  31.289  1.00  0.00     0.049 A 
ATOM     47  C   UNL A   1      41.912  29.011  34.225  1.00  0.00     0.074 A 
ATOM     48  C   UNL A   1      36.695  31.690  31.978  1.00  0.00     0.029 A 
ATOM     49  N   UNL A   1      38.657  30.672  32.206  1.00  0.00    -0.354 N 
ATOM     50  N   UNL A   1      40.840  29.544  33.696  1.00  0.00    -0.248 NA
ATOM     51  C   UNL A   1      42.207  29.480  35.586  1.00  0.00     0.031 C 
ATOM     52  C   UNL A   1      37.145  31.892  33.289  1.00  0.00     0.029 A 
ATOM     53  C   UNL A   1      38.367  31.257  33.429  1.00  0.00     0.049 A 
ATOM     54  H   UNL A   1      39.449  30.118  32.017  1.00  0.00     0.167 HD
ATOM     55  C   UNL A   1      40.331  30.406  34.655  1.00  0.00     0.074 A 
ATOM     56  C   UNL A   1      41.200  30.314  35.808  1.00  0.00     0.031 C 
ATOM     57  C   UNL A   1      39.236  31.202  34.575  1.00  0.00     0.037 A 
BRANCH  44  58
ATOM     58  C   UNL A   1      36.558  31.090  29.045  1.00  0.00     0.064 A 
ATOM     59  C   UNL A   1      35.550  30.180  28.691  1.00  0.00     0.173 A 
ATOM     60  C   UNL A   1      36.395  32.433  28.680  1.00  0.00     0.173 A 
ATOM     61  F   UNL A   1      35.665  28.883  29.015  1.00  0.00    -0.203 F 
ATOM     62  C   UNL A   1      34.415  30.606  28.004  1.00  0.00     0.198 A 
ATOM     63  C   UNL A   1      35.255  32.855  28.001  1.00  0.00     0.198 A 
ATOM     64  F   UNL A   1      37.330  33.338  29.003  1.00  0.00    -0.203 F 
ATOM     65  F   UNL A   1      33.461  29.722  27.675  1.00  0.00    -0.200 F 
ATOM     66  C   UNL A   1      34.265  31.942  27.666  1.00  0.00     0.200 A 
ATOM     67  F   UNL A   1      35.108  34.148  27.680  1.00  0.00    -0.200 F 
ATOM     68  F   UNL A   1      33.166  32.353  27.018  1.00  0.00    -0.200 F 
ENDBRANCH  44  58
BRANCH  45  69
ATOM     69  C   UNL A   1      43.976  27.444  34.433  1.00  0.00     0.064 A 
ATOM     70  C   UNL A   1      43.845  26.247  35.143  1.00  0.00     0.173 A 
ATOM     71  C   UNL A   1      45.217  28.101  34.479  1.00  0.00     0.173 A 
ATOM     72  F   UNL A   1      42.667  25.604  35.167  1.00  0.00    -0.203 F 
ATOM     73  C   UNL A   1      44.922  25.716  35.853  1.00  0.00     0.198 A 
ATOM     74  C   UNL A   1      46.301  27.552  35.154  1.00  0.00     0.198 A 
ATOM     75  F   UNL A   1      45.386  29.266  33.835  1.00  0.00    -0.203 F 
ATOM     76  F   UNL A   1      44.768  24.583  36.552  1.00  0.00    -0.200 F 
ATOM     77  C   UNL A   1      46.152  26.359  35.844  1.00  0.00     0.200 A 
ATOM     78  F   UNL A   1      47.488  28.172  35.128  1.00  0.00    -0.200 F 
ATOM     79  F   UNL A   1      47.191  25.836  36.506  1.00  0.00    -0.200 F 
ENDBRANCH  45  69
BRANCH  57  80
ATOM     80  C   UNL A   1      38.913  32.054  35.765  1.00  0.00     0.064 A 
ATOM     81  C   UNL A   1      38.187  31.541  36.850  1.00  0.00     0.173 A 
ATOM     82  C   UNL A   1      39.344  33.387  35.835  1.00  0.00     0.173 A 
ATOM     83  F   UNL A   1      37.737  30.277  36.825  1.00  0.00    -0.203 F 
ATOM     84  C   UNL A   1      37.884  32.339  37.951  1.00  0.00     0.198 A 
ATOM     85  C   UNL A   1      39.062  34.174  36.949  1.00  0.00     0.198 A 
ATOM     86  F   UNL A   1      40.046  33.924  34.826  1.00  0.00    -0.203 F 
ATOM     87  F   UNL A   1      37.149  31.841  38.955  1.00  0.00    -0.200 F 
ATOM     88  C   UNL A   1      38.327  33.652  38.002  1.00  0.00     0.200 A 
ATOM     89  F   UNL A   1      39.500  35.440  37.001  1.00  0.00    -0.200 F 
ATOM     90  F   UNL A   1      38.035  34.418  39.062  1.00  0.00    -0.200 F 
ENDBRANCH  57  80
ENDBRANCH  31  32
ENDBRANCH  24  26
ENDBRANCH  23  24
ENDBRANCH  22  23
ENDBRANCH   1  22
TORSDOF 15
ENDMDL
MODEL 2
REMARK VINA RESULT:     -11.9      4.631      7.662
REMARK SMILES C[C@@H](C(=O)OCCOC(=O)c1ccc(-c2c3nc(c(-c4c(F)c(F)c(F)c(F)c4F)c4ccc([nH]4)c(-c4c(F)c(F)c(F)c(F)c4F)c4nc(c(-c5c(F)c(F)c(F)c(F)c5F)c5ccc2[nH]5)C=C4)C=C3)cc1)c1ccc(C[C@@H]2CCC[C@@H]2O)cc1F
REMARK SMILES IDX 6 1 5 2 3 3 4 4 2 5 1 6 74 7 75 8 86 9 76 10 85 11 87 12
REMARK SMILES IDX 77 13 78 14 79 15 80 16 83 17 81 18 82 19 84 20 7 22 8 23
REMARK SMILES IDX 9 24 10 25 11 26 12 27 73 28 13 29 72 30 14 31 15 32 16 33
REMARK SMILES IDX 66 34 17 35 71 36 65 37 67 38 18 39 70 40 64 41 63 42 19 44
REMARK SMILES IDX 51 45 31 46 50 47 32 48 35 49 49 50 68 51 33 52 34 53 48 55
REMARK SMILES IDX 69 56 36 57 20 58 21 59 29 60 22 61 23 62 27 63 30 64 24 65
REMARK SMILES IDX 25 66 28 67 26 68 52 69 53 70 61 71 54 72 55 73 59 74 62 75
REMARK SMILES IDX 56 76 57 77 60 78 58 79 37 80 38 81 46 82 39 83 40 84 44 85
REMARK SMILES IDX 47 86 41 87 42 88 45 89 43 90
REMARK H PARENT 84 21 67 43 35 54
REMARK Flexibility Score: inf
ROOT
ATOM      1  C   UNL A   1      36.262  19.962  24.966  1.00  0.00     0.274 C 
ENDROOT
BRANCH   1   2
ATOM      2  O   UNL A   1      35.774  21.299  24.732  1.00  0.00    -0.462 OA
BRANCH   2   3
ATOM      3  C   UNL A   1      34.511  21.577  25.169  1.00  0.00     0.313 C 
ATOM      4  O   UNL A   1      33.514  21.161  24.594  1.00  0.00    -0.252 OA
BRANCH   3   5
ATOM      5  C   UNL A   1      34.496  22.525  26.399  1.00  0.00     0.129 C 
ATOM      6  C   UNL A   1      33.963  21.784  27.643  1.00  0.00     0.025 C 
BRANCH   5   7
ATOM      7  C   UNL A   1      33.759  23.840  26.131  1.00  0.00     0.002 A 
ATOM      8  C   UNL A   1      34.417  25.006  25.721  1.00  0.00     0.008 A 
ATOM      9  C   UNL A   1      32.376  23.950  26.297  1.00  0.00     0.127 A 
ATOM     10  C   UNL A   1      33.770  26.246  25.723  1.00  0.00     0.004 A 
ATOM     11  C   UNL A   1      31.747  25.194  26.374  1.00  0.00     0.043 A 
ATOM     12  F   UNL A   1      31.619  22.855  26.443  1.00  0.00    -0.207 F 
ATOM     13  C   UNL A   1      32.484  26.374  26.229  1.00  0.00    -0.045 A 
BRANCH  13  14
ATOM     14  C   UNL A   1      31.876  27.705  26.607  1.00  0.00     0.041 C 
BRANCH  14  15
ATOM     15  C   UNL A   1      31.626  28.811  25.540  1.00  0.00     0.022 C 
ATOM     16  C   UNL A   1      30.905  28.329  24.275  1.00  0.00     0.007 C 
ATOM     17  C   UNL A   1      32.782  29.656  24.989  1.00  0.00     0.117 C 
ATOM     18  C   UNL A   1      31.849  28.560  23.087  1.00  0.00     0.003 C 
ATOM     19  C   UNL A   1      33.166  29.053  23.656  1.00  0.00     0.032 C 
BRANCH  17  20
ATOM     20  O   UNL A   1      33.887  29.748  25.842  1.00  0.00    -0.393 OA
ATOM     21  H   UNL A   1      33.602  30.086  26.705  1.00  0.00     0.210 HD
ENDBRANCH  17  20
ENDBRANCH  14  15
ENDBRANCH  13  14
ENDBRANCH   5   7
ENDBRANCH   3   5
ENDBRANCH   2   3
ENDBRANCH   1   2
BRANCH   1  22
ATOM     22  C   UNL A   1      37.785  19.903  24.870  1.00  0.00     0.275 C 
BRANCH  22  23
ATOM     23  O   UNL A   1      38.363  21.122  25.373  1.00  0.00    -0.458 OA
BRANCH  23  24
ATOM     24  C   UNL A   1      39.489  20.986  26.101  1.00  0.00     0.338 C 
ATOM     25  O   UNL A   1      40.234  20.016  26.159  1.00  0.00    -0.246 OA
BRANCH  24  26
ATOM     26  C   UNL A   1      39.779  22.228  26.830  1.00  0.00     0.060 A 
ATOM     27  C   UNL A   1      39.106  23.374  26.438  1.00  0.00     0.016 A 
ATOM     28  C   UNL A   1      40.871  22.319  27.698  1.00  0.00     0.016 A 
ATOM     29  C   UNL A   1      39.619  24.617  26.799  1.00  0.00     0.010 A 
ATOM     30  C   UNL A   1      41.335  23.582  28.117  1.00  0.00     0.010 A 
ATOM     31  C   UNL A   1      40.772  24.756  27.597  1.00  0.00    -0.014 A 
BRANCH  31  32
ATOM     32  C   UNL A   1      41.397  26.119  27.734  1.00  0.00     0.031 A 
ATOM     33  C   UNL A   1      40.695  27.265  28.447  1.00  0.00     0.074 A 
ATOM     34  C   UNL A   1      42.689  26.302  27.387  1.00  0.00     0.049 A 
ATOM     35  N   UNL A   1      41.180  28.436  28.805  1.00  0.00    -0.248 NA
ATOM     36  C   UNL A   1      39.293  27.076  28.848  1.00  0.00     0.031 C 
ATOM     37  C   UNL A   1      43.553  25.287  26.782  1.00  0.00     0.029 A 
ATOM     38  N   UNL A   1      43.515  27.395  27.525  1.00  0.00    -0.354 N 
ATOM     39  C   UNL A   1      40.182  29.067  29.539  1.00  0.00     0.074 A 
ATOM     40  C   UNL A   1      39.033  28.192  29.519  1.00  0.00     0.031 C 
ATOM     41  C   UNL A   1      44.789  25.782  26.651  1.00  0.00     0.029 A 
ATOM     42  C   UNL A   1      44.782  27.188  27.040  1.00  0.00     0.049 A 
ATOM     43  H   UNL A   1      43.225  28.243  27.933  1.00  0.00     0.167 HD
ATOM     44  C   UNL A   1      40.214  30.255  30.192  1.00  0.00     0.037 A 
ATOM     45  C   UNL A   1      45.811  28.038  26.849  1.00  0.00     0.037 A 
ATOM     46  C   UNL A   1      41.282  31.216  30.111  1.00  0.00     0.049 A 
ATOM     47  C   UNL A   1      45.673  29.475  27.248  1.00  0.00     0.074 A 
ATOM     48  C   UNL A   1      41.349  32.484  30.667  1.00  0.00     0.029 A 
ATOM     49  N   UNL A   1      42.443  31.041  29.380  1.00  0.00    -0.354 N 
ATOM     50  N   UNL A   1      44.734  30.047  27.958  1.00  0.00    -0.248 NA
ATOM     51  C   UNL A   1      46.722  30.397  26.786  1.00  0.00     0.031 C 
ATOM     52  C   UNL A   1      42.506  33.112  30.188  1.00  0.00     0.029 A 
ATOM     53  C   UNL A   1      43.186  32.211  29.387  1.00  0.00     0.049 A 
ATOM     54  H   UNL A   1      42.702  30.209  28.921  1.00  0.00     0.167 HD
ATOM     55  C   UNL A   1      45.076  31.389  28.032  1.00  0.00     0.074 A 
ATOM     56  C   UNL A   1      46.321  31.547  27.310  1.00  0.00     0.031 C 
ATOM     57  C   UNL A   1      44.408  32.394  28.648  1.00  0.00     0.037 A 
BRANCH  44  58
ATOM     58  C   UNL A   1      39.026  30.626  31.029  1.00  0.00     0.064 A 
ATOM     59  C   UNL A   1      38.984  30.323  32.399  1.00  0.00     0.173 A 
ATOM     60  C   UNL A   1      37.976  31.379  30.487  1.00  0.00     0.173 A 
ATOM     61  F   UNL A   1      39.965  29.600  32.963  1.00  0.00    -0.203 F 
ATOM     62  C   UNL A   1      37.930  30.767  33.196  1.00  0.00     0.198 A 
ATOM     63  C   UNL A   1      36.930  31.828  31.288  1.00  0.00     0.198 A 
ATOM     64  F   UNL A   1      37.978  31.697  29.184  1.00  0.00    -0.203 F 
ATOM     65  F   UNL A   1      37.908  30.468  34.503  1.00  0.00    -0.200 F 
ATOM     66  C   UNL A   1      36.909  31.524  32.642  1.00  0.00     0.200 A 
ATOM     67  F   UNL A   1      35.946  32.564  30.753  1.00  0.00    -0.200 F 
ATOM     68  F   UNL A   1      35.904  31.963  33.412  1.00  0.00    -0.200 F 
ENDBRANCH  44  58
BRANCH  45  69
ATOM     69  C   UNL A   1      47.012  27.556  26.117  1.00  0.00     0.064 A 
ATOM     70  C   UNL A   1      47.092  27.590  24.721  1.00  0.00     0.173 A 
ATOM     71  C   UNL A   1      48.123  27.066  26.825  1.00  0.00     0.173 A 
ATOM     72  F   UNL A   1      46.042  28.007  23.998  1.00  0.00    -0.203 F 
ATOM     73  C   UNL A   1      48.247  27.170  24.062  1.00  0.00     0.198 A 
ATOM     74  C   UNL A   1      49.287  26.686  26.170  1.00  0.00     0.198 A 
ATOM     75  F   UNL A   1      48.086  26.990  28.165  1.00  0.00    -0.203 F 
ATOM     76  F   UNL A   1      48.293  27.181  22.723  1.00  0.00    -0.200 F 
ATOM     77  C   UNL A   1      49.348  26.735  24.786  1.00  0.00     0.200 A 
ATOM     78  F   UNL A   1      50.350  26.280  26.878  1.00  0.00    -0.200 F 
ATOM     79  F   UNL A   1      50.465  26.355  24.152  1.00  0.00    -0.200 F 
ENDBRANCH  45  69
BRANCH  57  80
ATOM     80  C   UNL A   1      44.998  33.770  28.564  1.00  0.00     0.064 A 
ATOM     81  C   UNL A   1      46.029  34.172  29.426  1.00  0.00     0.173 A 
ATOM     82  C   UNL A   1      44.548  34.690  27.606  1.00  0.00     0.173 A 
ATOM     83  F   UNL A   1      46.485  33.334  30.370  1.00  0.00    -0.203 F 
ATOM     84  C   UNL A   1      46.571  35.452  29.347  1.00  0.00     0.198 A 
ATOM     85  C   UNL A   1      45.108  35.961  27.513  1.00  0.00     0.198 A 
ATOM     86  F   UNL A   1      43.567  34.354  26.755  1.00  0.00    -0.203 F 
ATOM     87  F   UNL A   1      47.523  35.830  30.212  1.00  0.00    -0.200 F 
ATOM     88  C   UNL A   1      46.114  36.343  28.388  1.00  0.00     0.200 A 
ATOM     89  F   UNL A   1      44.673  36.817  26.578  1.00  0.00    -0.200 F 
ATOM     90  F   UNL A   1      46.636  37.576  28.313  1.00  0.00    -0.200 F 
ENDBRANCH  57  80
ENDBRANCH  31  32
ENDBRANCH  24  26
ENDBRANCH  23  24
ENDBRANCH  22  23
ENDBRANCH   1  22
TORSDOF 15
ENDMDL
MODEL 3
REMARK VINA RESULT:     -11.8      2.620      8.882
REMARK SMILES C[C@@H](C(=O)OCCOC(=O)c1ccc(-c2c3nc(c(-c4c(F)c(F)c(F)c(F)c4F)c4ccc([nH]4)c(-c4c(F)c(F)c(F)c(F)c4F)c4nc(c(-c5c(F)c(F)c(F)c(F)c5F)c5ccc2[nH]5)C=C4)C=C3)cc1)c1ccc(C[C@@H]2CCC[C@@H]2O)cc1F
REMARK SMILES IDX 6 1 5 2 3 3 4 4 2 5 1 6 74 7 75 8 86 9 76 10 85 11 87 12
REMARK SMILES IDX 77 13 78 14 79 15 80 16 83 17 81 18 82 19 84 20 7 22 8 23
REMARK SMILES IDX 9 24 10 25 11 26 12 27 73 28 13 29 72 30 14 31 15 32 16 33
REMARK SMILES IDX 66 34 17 35 71 36 65 37 67 38 18 39 70 40 64 41 63 42 19 44
REMARK SMILES IDX 51 45 31 46 50 47 32 48 35 49 49 50 68 51 33 52 34 53 48 55
REMARK SMILES IDX 69 56 36 57 20 58 21 59 29 60 22 61 23 62 27 63 30 64 24 65
REMARK SMILES IDX 25 66 28 67 26 68 52 69 53 70 61 71 54 72 55 73 59 74 62 75
REMARK SMILES IDX 56 76 57 77 60 78 58 79 37 80 38 81 46 82 39 83 40 84 44 85
REMARK SMILES IDX 47 86 41 87 42 88 45 89 43 90
REMARK H PARENT 84 21 67 43 35 54
REMARK Flexibility Score: inf
ROOT
ATOM      1  C   UNL A   1      31.023  31.021  25.450  1.00  0.00     0.274 C 
ENDROOT
BRANCH   1   2
ATOM      2  O   UNL A   1      31.966  29.937  25.318  1.00  0.00    -0.462 OA
BRANCH   2   3
ATOM      3  C   UNL A   1      31.489  28.766  24.803  1.00  0.00     0.313 C 
ATOM      4  O   UNL A   1      30.768  28.733  23.815  1.00  0.00    -0.252 OA
BRANCH   3   5
ATOM      5  C   UNL A   1      31.896  27.529  25.650  1.00  0.00     0.129 C 
ATOM      6  C   UNL A   1      33.023  27.898  26.636  1.00  0.00     0.025 C 
BRANCH   5   7
ATOM      7  C   UNL A   1      32.234  26.305  24.793  1.00  0.00     0.002 A 
ATOM      8  C   UNL A   1      31.477  25.128  24.822  1.00  0.00     0.008 A 
ATOM      9  C   UNL A   1      33.339  26.296  23.937  1.00  0.00     0.127 A 
ATOM     10  C   UNL A   1      31.941  23.950  24.229  1.00  0.00     0.004 A 
ATOM     11  C   UNL A   1      33.842  25.106  23.408  1.00  0.00     0.043 A 
ATOM     12  F   UNL A   1      33.982  27.433  23.643  1.00  0.00    -0.207 F 
ATOM     13  C   UNL A   1      33.214  23.886  23.680  1.00  0.00    -0.045 A 
BRANCH  13  14
ATOM     14  C   UNL A   1      33.912  22.582  23.370  1.00  0.00     0.041 C 
BRANCH  14  15
ATOM     15  C   UNL A   1      35.125  22.095  24.216  1.00  0.00     0.022 C 
ATOM     16  C   UNL A   1      35.002  22.357  25.722  1.00  0.00     0.007 C 
ATOM     17  C   UNL A   1      36.553  22.553  23.891  1.00  0.00     0.117 C 
ATOM     18  C   UNL A   1      36.155  23.286  26.126  1.00  0.00     0.003 C 
ATOM     19  C   UNL A   1      36.879  23.677  24.851  1.00  0.00     0.032 C 
BRANCH  17  20
ATOM     20  O   UNL A   1      36.744  22.949  22.563  1.00  0.00    -0.393 OA
ATOM     21  H   UNL A   1      36.006  22.629  22.021  1.00  0.00     0.210 HD
ENDBRANCH  17  20
ENDBRANCH  14  15
ENDBRANCH  13  14
ENDBRANCH   5   7
ENDBRANCH   3   5
ENDBRANCH   2   3
ENDBRANCH   1   2
BRANCH   1  22
ATOM     22  C   UNL A   1      31.422  31.969  26.579  1.00  0.00     0.275 C 
BRANCH  22  23
ATOM     23  O   UNL A   1      32.611  31.489  27.235  1.00  0.00    -0.458 OA
BRANCH  23  24
ATOM     24  C   UNL A   1      33.485  32.431  27.640  1.00  0.00     0.338 C 
ATOM     25  O   UNL A   1      33.265  33.616  27.859  1.00  0.00    -0.246 OA
BRANCH  24  26
ATOM     26  C   UNL A   1      34.811  31.838  27.857  1.00  0.00     0.060 A 
ATOM     27  C   UNL A   1      34.875  30.472  28.077  1.00  0.00     0.016 A 
ATOM     28  C   UNL A   1      35.932  32.640  28.096  1.00  0.00     0.016 A 
ATOM     29  C   UNL A   1      36.013  29.935  28.675  1.00  0.00     0.010 A 
ATOM     30  C   UNL A   1      37.103  32.071  28.632  1.00  0.00     0.010 A 
ATOM     31  C   UNL A   1      37.129  30.723  29.018  1.00  0.00    -0.014 A 
BRANCH  31  32
ATOM     32  C   UNL A   1      38.206  30.117  29.878  1.00  0.00     0.031 A 
ATOM     33  C   UNL A   1      39.182  29.079  29.344  1.00  0.00     0.074 A 
ATOM     34  C   UNL A   1      38.450  30.625  31.106  1.00  0.00     0.049 A 
ATOM     35  N   UNL A   1      40.273  28.604  29.908  1.00  0.00    -0.248 NA
ATOM     36  C   UNL A   1      38.941  28.528  28.003  1.00  0.00     0.031 C 
ATOM     37  C   UNL A   1      37.680  31.694  31.745  1.00  0.00     0.029 A 
ATOM     38  N   UNL A   1      39.437  30.338  32.022  1.00  0.00    -0.354 N 
ATOM     39  C   UNL A   1      40.879  27.785  28.963  1.00  0.00     0.074 A 
ATOM     40  C   UNL A   1      40.006  27.759  27.813  1.00  0.00     0.031 C 
ATOM     41  C   UNL A   1      38.250  32.006  32.915  1.00  0.00     0.029 A 
ATOM     42  C   UNL A   1      39.345  31.078  33.174  1.00  0.00     0.049 A 
ATOM     43  H   UNL A   1      40.139  29.666  31.866  1.00  0.00     0.167 HD
ATOM     44  C   UNL A   1      42.063  27.127  29.026  1.00  0.00     0.037 A 
ATOM     45  C   UNL A   1      40.005  30.986  34.345  1.00  0.00     0.037 A 
ATOM     46  C   UNL A   1      42.883  27.009  30.203  1.00  0.00     0.049 A 
ATOM     47  C   UNL A   1      41.086  29.961  34.512  1.00  0.00     0.074 A 
ATOM     48  C   UNL A   1      44.049  26.280  30.375  1.00  0.00     0.029 A 
ATOM     49  N   UNL A   1      42.590  27.585  31.426  1.00  0.00    -0.354 N 
ATOM     50  N   UNL A   1      41.658  29.212  33.604  1.00  0.00    -0.248 NA
ATOM     51  C   UNL A   1      41.588  29.740  35.876  1.00  0.00     0.031 C 
ATOM     52  C   UNL A   1      44.405  26.336  31.729  1.00  0.00     0.029 A 
ATOM     53  C   UNL A   1      43.495  27.150  32.382  1.00  0.00     0.049 A 
ATOM     54  H   UNL A   1      41.848  28.210  31.593  1.00  0.00     0.167 HD
ATOM     55  C   UNL A   1      42.586  28.436  34.281  1.00  0.00     0.074 A 
ATOM     56  C   UNL A   1      42.517  28.816  35.675  1.00  0.00     0.031 C 
ATOM     57  C   UNL A   1      43.420  27.492  33.778  1.00  0.00     0.037 A 
BRANCH  44  58
ATOM     58  C   UNL A   1      42.540  26.422  27.791  1.00  0.00     0.064 A 
ATOM     59  C   UNL A   1      43.434  27.044  26.905  1.00  0.00     0.173 A 
ATOM     60  C   UNL A   1      42.188  25.088  27.547  1.00  0.00     0.173 A 
ATOM     61  F   UNL A   1      43.797  28.321  27.094  1.00  0.00    -0.203 F 
ATOM     62  C   UNL A   1      43.961  26.347  25.818  1.00  0.00     0.198 A 
ATOM     63  C   UNL A   1      42.724  24.393  26.466  1.00  0.00     0.198 A 
ATOM     64  F   UNL A   1      41.342  24.453  28.372  1.00  0.00    -0.203 F 
ATOM     65  F   UNL A   1      44.814  26.956  24.983  1.00  0.00    -0.200 F 
ATOM     66  C   UNL A   1      43.611  25.022  25.604  1.00  0.00     0.200 A 
ATOM     67  F   UNL A   1      42.390  23.111  26.263  1.00  0.00    -0.200 F 
ATOM     68  F   UNL A   1      44.130  24.349  24.568  1.00  0.00    -0.200 F 
ENDBRANCH  44  58
BRANCH  45  69
ATOM     69  C   UNL A   1      39.550  31.814  35.493  1.00  0.00     0.064 A 
ATOM     70  C   UNL A   1      40.077  33.084  35.746  1.00  0.00     0.173 A 
ATOM     71  C   UNL A   1      38.545  31.338  36.353  1.00  0.00     0.173 A 
ATOM     72  F   UNL A   1      41.068  33.565  34.980  1.00  0.00    -0.203 F 
ATOM     73  C   UNL A   1      39.602  33.856  36.805  1.00  0.00     0.198 A 
ATOM     74  C   UNL A   1      38.045  32.124  37.384  1.00  0.00     0.198 A 
ATOM     75  F   UNL A   1      38.024  30.116  36.168  1.00  0.00    -0.203 F 
ATOM     76  F   UNL A   1      40.141  35.059  37.050  1.00  0.00    -0.200 F 
ATOM     77  C   UNL A   1      38.577  33.384  37.612  1.00  0.00     0.200 A 
ATOM     78  F   UNL A   1      37.046  31.665  38.149  1.00  0.00    -0.200 F 
ATOM     79  F   UNL A   1      38.105  34.137  38.614  1.00  0.00    -0.200 F 
ENDBRANCH  45  69
BRANCH  57  80
ATOM     80  C   UNL A   1      44.324  26.785  34.741  1.00  0.00     0.064 A 
ATOM     81  C   UNL A   1      45.556  27.339  35.122  1.00  0.00     0.173 A 
ATOM     82  C   UNL A   1      43.957  25.555  35.306  1.00  0.00     0.173 A 
ATOM     83  F   UNL A   1      45.962  28.507  34.598  1.00  0.00    -0.203 F 
ATOM     84  C   UNL A   1      46.395  26.676  36.013  1.00  0.00     0.198 A 
ATOM     85  C   UNL A   1      44.786  24.907  36.216  1.00  0.00     0.198 A 
ATOM     86  F   UNL A   1      42.788  24.984  34.978  1.00  0.00    -0.203 F 
ATOM     87  F   UNL A   1      47.588  27.203  36.327  1.00  0.00    -0.200 F 
ATOM     88  C   UNL A   1      46.008  25.464  36.564  1.00  0.00     0.200 A 
ATOM     89  F   UNL A   1      44.405  23.740  36.756  1.00  0.00    -0.200 F 
ATOM     90  F   UNL A   1      46.817  24.827  37.422  1.00  0.00    -0.200 F 
ENDBRANCH  57  80
ENDBRANCH  31  32
ENDBRANCH  24  26
ENDBRANCH  23  24
ENDBRANCH  22  23
ENDBRANCH   1  22
TORSDOF 15
ENDMDL
