MODEL 1
REMARK VINA RESULT:     -12.1      0.000      0.000
REMARK SMILES C=C[C@@H]1[C@@H](O)C[C@@H]2[C@@]3(CC[C@@]4(C)[C@@H]([C@H](C)CCC=C(C)C)CC[C@@]24C)C[C@@]13CCC(=O)OCCOC(=O)c1ccc(-c2c3nc(c(-c4c(F)c(F)c(F)c(F)c4F)c4ccc([nH]4)c(-c4c(F)c(F)c(F)c(F)c4F)c4nc(c(-c5c(F)c(F)c(F)c(F)c5F)c5ccc2[nH]5)C=C4)C=C3)cc1
REMARK SMILES IDX 30 1 31 2 29 3 28 4 27 5 3 6 4 7 6 8 8 9 26 10 7 11 9 12
REMARK SMILES IDX 24 13 10 14 11 15 23 16 25 17 12 18 13 19 22 20 2 21 1 22
REMARK SMILES IDX 5 23 14 25 15 26 16 27 17 28 18 29 19 30 20 31 21 32 32 33
REMARK SMILES IDX 33 34 34 35 35 36 36 37 37 38 38 39 39 40 100 41 40 42 99 43
REMARK SMILES IDX 41 44 42 45 43 46 93 47 44 48 98 49 92 50 94 51 45 52 97 53
REMARK SMILES IDX 91 54 90 55 46 57 78 58 58 59 77 60 59 61 62 62 76 63 95 64
REMARK SMILES IDX 60 65 61 66 75 68 96 69 63 70 47 71 48 72 56 73 49 74 50 75
REMARK SMILES IDX 54 76 57 77 51 78 52 79 55 80 53 81 79 82 80 83 88 84 81 85
REMARK SMILES IDX 82 86 86 87 89 88 83 89 84 90 87 91 85 92 64 93 65 94 73 95
REMARK SMILES IDX 66 96 67 97 71 98 74 99 68 100 69 101 72 102 70 103
REMARK H PARENT 5 24 94 56 62 67
REMARK Flexibility Score: inf
ROOT
ATOM      1  C   UNL A   1      33.233  28.157  23.270  1.00  0.00     0.305 C 
ATOM      2  O   UNL A   1      32.586  28.913  22.560  1.00  0.00    -0.252 OA
ENDROOT
BRANCH   1   3
ATOM      3  C   UNL A   1      33.440  26.711  22.977  1.00  0.00     0.123 C 
BRANCH   3   4
ATOM      4  C   UNL A   1      32.142  26.028  22.535  1.00  0.00     0.020 C 
BRANCH   4   5
ATOM      5  C   UNL A   1      31.569  24.952  23.487  1.00  0.00    -0.014 C 
ATOM      6  C   UNL A   1      30.486  25.456  24.492  1.00  0.00     0.047 C 
ATOM      7  C   UNL A   1      30.595  24.733  25.863  1.00  0.00     0.122 C 
ATOM      8  C   UNL A   1      30.934  23.243  25.788  1.00  0.00     0.037 C 
ATOM      9  C   UNL A   1      32.289  23.523  23.676  1.00  0.00    -0.019 C 
ATOM     10  C   UNL A   1      31.044  23.711  22.824  1.00  0.00     0.016 C 
ATOM     11  C   UNL A   1      32.322  23.052  25.161  1.00  0.00     0.005 C 
ATOM     12  C   UNL A   1      33.365  22.924  22.787  1.00  0.00     0.008 C 
ATOM     13  C   UNL A   1      32.943  21.610  25.406  1.00  0.00    -0.023 C 
ATOM     14  C   UNL A   1      34.315  21.882  23.399  1.00  0.00     0.008 C 
ATOM     15  C   UNL A   1      34.436  21.620  24.924  1.00  0.00    -0.024 C 
ATOM     16  C   UNL A   1      33.137  21.198  26.871  1.00  0.00     0.008 C 
ATOM     17  C   UNL A   1      32.014  20.549  24.773  1.00  0.00     0.012 C 
ATOM     18  C   UNL A   1      35.115  20.183  24.900  1.00  0.00     0.012 C 
ATOM     19  C   UNL A   1      35.280  22.348  26.211  1.00  0.00    -0.002 C 
ATOM     20  C   UNL A   1      34.392  21.873  27.386  1.00  0.00     0.005 C 
BRANCH   6  21
ATOM     21  C   UNL A   1      30.355  26.955  24.703  1.00  0.00    -0.028 C 
ATOM     22  C   UNL A   1      29.553  27.775  24.008  1.00  0.00     0.004 C 
ENDBRANCH   6  21
BRANCH   7  23
ATOM     23  O   UNL A   1      29.379  24.869  26.605  1.00  0.00    -0.392 OA
ATOM     24  H   UNL A   1      29.467  25.593  27.242  1.00  0.00     0.210 HD
ENDBRANCH   7  23
BRANCH  19  25
ATOM     25  C   UNL A   1      35.793  23.852  26.572  1.00  0.00    -0.010 C 
ATOM     26  C   UNL A   1      35.187  24.938  25.628  1.00  0.00     0.008 C 
BRANCH  25  27
ATOM     27  C   UNL A   1      37.347  24.210  26.468  1.00  0.00     0.008 C 
BRANCH  27  28
ATOM     28  C   UNL A   1      38.148  23.263  25.535  1.00  0.00     0.027 C 
BRANCH  28  29
ATOM     29  C   UNL A   1      39.179  22.421  26.245  1.00  0.00    -0.028 C 
ATOM     30  C   UNL A   1      39.400  21.099  26.094  1.00  0.00    -0.080 C 
ATOM     31  C   UNL A   1      40.528  20.404  26.807  1.00  0.00     0.039 C 
ATOM     32  C   UNL A   1      38.615  20.208  25.178  1.00  0.00     0.039 C 
ENDBRANCH  28  29
ENDBRANCH  27  28
ENDBRANCH  25  27
ENDBRANCH  19  25
ENDBRANCH   4   5
ENDBRANCH   3   4
ENDBRANCH   1   3
BRANCH   1  33
ATOM     33  O   UNL A   1      33.907  28.511  24.398  1.00  0.00    -0.462 OA
BRANCH  33  34
ATOM     34  C   UNL A   1      33.043  28.677  25.512  1.00  0.00     0.274 C 
BRANCH  34  35
ATOM     35  C   UNL A   1      32.922  30.103  26.065  1.00  0.00     0.275 C 
BRANCH  35  36
ATOM     36  O   UNL A   1      33.345  30.136  27.406  1.00  0.00    -0.458 OA
BRANCH  36  37
ATOM     37  C   UNL A   1      33.839  31.356  27.669  1.00  0.00     0.338 C 
ATOM     38  O   UNL A   1      33.252  32.375  28.023  1.00  0.00    -0.246 OA
BRANCH  37  39
ATOM     39  C   UNL A   1      35.244  31.099  27.852  1.00  0.00     0.060 A 
ATOM     40  C   UNL A   1      35.680  29.770  27.810  1.00  0.00     0.016 A 
ATOM     41  C   UNL A   1      36.097  32.186  28.021  1.00  0.00     0.016 A 
ATOM     42  C   UNL A   1      36.997  29.499  28.057  1.00  0.00     0.010 A 
ATOM     43  C   UNL A   1      37.406  31.918  28.323  1.00  0.00     0.010 A 
ATOM     44  C   UNL A   1      37.804  30.576  28.423  1.00  0.00    -0.014 A 
BRANCH  44  45
ATOM     45  C   UNL A   1      38.935  30.282  29.283  1.00  0.00     0.031 A 
ATOM     46  C   UNL A   1      39.946  29.326  28.742  1.00  0.00     0.074 A 
ATOM     47  C   UNL A   1      38.972  30.859  30.484  1.00  0.00     0.049 A 
ATOM     48  N   UNL A   1      40.912  28.712  29.359  1.00  0.00    -0.248 NA
ATOM     49  C   UNL A   1      39.836  28.983  27.309  1.00  0.00     0.031 C 
ATOM     50  C   UNL A   1      38.011  31.849  30.971  1.00  0.00     0.029 A 
ATOM     51  N   UNL A   1      39.830  30.659  31.516  1.00  0.00    -0.354 N 
ATOM     52  C   UNL A   1      41.494  27.888  28.407  1.00  0.00     0.074 A 
ATOM     53  C   UNL A   1      40.770  28.059  27.172  1.00  0.00     0.031 C 
ATOM     54  C   UNL A   1      38.307  32.135  32.248  1.00  0.00     0.029 A 
ATOM     55  C   UNL A   1      39.431  31.301  32.655  1.00  0.00     0.049 A 
ATOM     56  H   UNL A   1      40.646  30.113  31.452  1.00  0.00     0.167 HD
ATOM     57  C   UNL A   1      42.541  27.055  28.584  1.00  0.00     0.037 A 
ATOM     58  C   UNL A   1      39.905  31.151  33.899  1.00  0.00     0.037 A 
ATOM     59  C   UNL A   1      43.200  26.936  29.856  1.00  0.00     0.049 A 
ATOM     60  C   UNL A   1      41.047  30.191  34.082  1.00  0.00     0.074 A 
ATOM     61  C   UNL A   1      44.283  26.160  30.207  1.00  0.00     0.029 A 
ATOM     62  N   UNL A   1      42.807  27.630  30.999  1.00  0.00    -0.354 N 
ATOM     63  N   UNL A   1      41.615  29.404  33.195  1.00  0.00    -0.248 NA
ATOM     64  C   UNL A   1      41.618  30.103  35.425  1.00  0.00     0.031 C 
ATOM     65  C   UNL A   1      44.505  26.336  31.577  1.00  0.00     0.029 A 
ATOM     66  C   UNL A   1      43.608  27.279  32.068  1.00  0.00     0.049 A 
ATOM     67  H   UNL A   1      42.066  28.277  31.040  1.00  0.00     0.167 HD
ATOM     68  C   UNL A   1      42.631  28.741  33.863  1.00  0.00     0.074 A 
ATOM     69  C   UNL A   1      42.602  29.237  35.229  1.00  0.00     0.031 C 
ATOM     70  C   UNL A   1      43.511  27.812  33.406  1.00  0.00     0.037 A 
BRANCH  57  71
ATOM     71  C   UNL A   1      42.956  26.197  27.424  1.00  0.00     0.064 A 
ATOM     72  C   UNL A   1      42.395  24.932  27.184  1.00  0.00     0.173 A 
ATOM     73  C   UNL A   1      43.964  26.635  26.551  1.00  0.00     0.173 A 
ATOM     74  F   UNL A   1      41.447  24.447  28.001  1.00  0.00    -0.203 F 
ATOM     75  C   UNL A   1      42.849  24.127  26.140  1.00  0.00     0.198 A 
ATOM     76  C   UNL A   1      44.393  25.843  25.487  1.00  0.00     0.198 A 
ATOM     77  F   UNL A   1      44.550  27.828  26.737  1.00  0.00    -0.203 F 
ATOM     78  F   UNL A   1      42.345  22.896  25.975  1.00  0.00    -0.200 F 
ATOM     79  C   UNL A   1      43.843  24.587  25.289  1.00  0.00     0.200 A 
ATOM     80  F   UNL A   1      45.349  26.292  24.663  1.00  0.00    -0.200 F 
ATOM     81  F   UNL A   1      44.281  23.812  24.287  1.00  0.00    -0.200 F 
ENDBRANCH  57  71
BRANCH  58  82
ATOM     82  C   UNL A   1      39.283  31.910  35.007  1.00  0.00     0.064 A 
ATOM     83  C   UNL A   1      38.473  31.268  35.950  1.00  0.00     0.173 A 
ATOM     84  C   UNL A   1      39.559  33.273  35.200  1.00  0.00     0.173 A 
ATOM     85  F   UNL A   1      38.187  29.966  35.810  1.00  0.00    -0.203 F 
ATOM     86  C   UNL A   1      37.949  31.963  37.037  1.00  0.00     0.198 A 
ATOM     87  C   UNL A   1      39.059  33.960  36.302  1.00  0.00     0.198 A 
ATOM     88  F   UNL A   1      40.352  33.927  34.338  1.00  0.00    -0.203 F 
ATOM     89  F   UNL A   1      37.156  31.330  37.912  1.00  0.00    -0.200 F 
ATOM     90  C   UNL A   1      38.249  33.305  37.218  1.00  0.00     0.200 A 
ATOM     91  F   UNL A   1      39.376  35.249  36.488  1.00  0.00    -0.200 F 
ATOM     92  F   UNL A   1      37.759  33.968  38.274  1.00  0.00    -0.200 F 
ENDBRANCH  58  82
BRANCH  70  93
ATOM     93  C   UNL A   1      44.517  27.313  34.398  1.00  0.00     0.064 A 
ATOM     94  C   UNL A   1      44.282  26.169  35.171  1.00  0.00     0.173 A 
ATOM     95  C   UNL A   1      45.747  27.973  34.542  1.00  0.00     0.173 A 
ATOM     96  F   UNL A   1      43.113  25.517  35.076  1.00  0.00    -0.203 F 
ATOM     97  C   UNL A   1      45.230  25.723  36.084  1.00  0.00     0.198 A 
ATOM     98  C   UNL A   1      46.709  27.499  35.424  1.00  0.00     0.198 A 
ATOM     99  F   UNL A   1      46.019  29.066  33.812  1.00  0.00    -0.203 F 
ATOM    100  F   UNL A   1      44.962  24.664  36.861  1.00  0.00    -0.200 F 
ATOM    101  C   UNL A   1      46.446  26.381  36.202  1.00  0.00     0.200 A 
ATOM    102  F   UNL A   1      47.891  28.124  35.522  1.00  0.00    -0.200 F 
ATOM    103  F   UNL A   1      47.362  25.943  37.075  1.00  0.00    -0.200 F 
ENDBRANCH  70  93
ENDBRANCH  44  45
ENDBRANCH  37  39
ENDBRANCH  36  37
ENDBRANCH  35  36
ENDBRANCH  34  35
ENDBRANCH  33  34
ENDBRANCH   1  33
TORSDOF 19
ENDMDL
MODEL 2
REMARK VINA RESULT:     -11.9      2.133      7.842
REMARK SMILES C=C[C@@H]1[C@@H](O)C[C@@H]2[C@@]3(CC[C@@]4(C)[C@@H]([C@H](C)CCC=C(C)C)CC[C@@]24C)C[C@@]13CCC(=O)OCCOC(=O)c1ccc(-c2c3nc(c(-c4c(F)c(F)c(F)c(F)c4F)c4ccc([nH]4)c(-c4c(F)c(F)c(F)c(F)c4F)c4nc(c(-c5c(F)c(F)c(F)c(F)c5F)c5ccc2[nH]5)C=C4)C=C3)cc1
REMARK SMILES IDX 30 1 31 2 29 3 28 4 27 5 3 6 4 7 6 8 8 9 26 10 7 11 9 12
REMARK SMILES IDX 24 13 10 14 11 15 23 16 25 17 12 18 13 19 22 20 2 21 1 22
REMARK SMILES IDX 5 23 14 25 15 26 16 27 17 28 18 29 19 30 20 31 21 32 32 33
REMARK SMILES IDX 33 34 34 35 35 36 36 37 37 38 38 39 39 40 100 41 40 42 99 43
REMARK SMILES IDX 41 44 42 45 43 46 93 47 44 48 98 49 92 50 94 51 45 52 97 53
REMARK SMILES IDX 91 54 90 55 46 57 78 58 58 59 77 60 59 61 62 62 76 63 95 64
REMARK SMILES IDX 60 65 61 66 75 68 96 69 63 70 47 71 48 72 56 73 49 74 50 75
REMARK SMILES IDX 54 76 57 77 51 78 52 79 55 80 53 81 79 82 80 83 88 84 81 85
REMARK SMILES IDX 82 86 86 87 89 88 83 89 84 90 87 91 85 92 64 93 65 94 73 95
REMARK SMILES IDX 66 96 67 97 71 98 74 99 68 100 69 101 72 102 70 103
REMARK H PARENT 5 24 94 56 62 67
REMARK Flexibility Score: inf
ROOT
ATOM      1  C   UNL A   1      34.746  29.386  27.564  1.00  0.00     0.305 C 
ATOM      2  O   UNL A   1      35.911  29.134  27.836  1.00  0.00    -0.252 OA
ENDROOT
BRANCH   1   3
ATOM      3  C   UNL A   1      33.917  28.582  26.623  1.00  0.00     0.123 C 
BRANCH   3   4
ATOM      4  C   UNL A   1      33.948  29.157  25.202  1.00  0.00     0.020 C 
BRANCH   4   5
ATOM      5  C   UNL A   1      32.907  28.595  24.207  1.00  0.00    -0.014 C 
ATOM      6  C   UNL A   1      31.524  29.319  24.203  1.00  0.00     0.047 C 
ATOM      7  C   UNL A   1      30.356  28.324  23.958  1.00  0.00     0.122 C 
ATOM      8  C   UNL A   1      30.644  27.222  22.937  1.00  0.00     0.037 C 
ATOM      9  C   UNL A   1      33.104  27.158  23.503  1.00  0.00    -0.019 C 
ATOM     10  C   UNL A   1      33.370  28.470  22.783  1.00  0.00     0.016 C 
ATOM     11  C   UNL A   1      31.787  26.328  23.440  1.00  0.00     0.005 C 
ATOM     12  C   UNL A   1      34.383  26.340  23.450  1.00  0.00     0.008 C 
ATOM     13  C   UNL A   1      31.893  24.936  22.681  1.00  0.00    -0.023 C 
ATOM     14  C   UNL A   1      34.264  24.818  23.271  1.00  0.00     0.008 C 
ATOM     15  C   UNL A   1      32.934  24.034  23.432  1.00  0.00    -0.024 C 
ATOM     16  C   UNL A   1      30.656  24.032  22.751  1.00  0.00     0.008 C 
ATOM     17  C   UNL A   1      32.156  25.201  21.181  1.00  0.00     0.012 C 
ATOM     18  C   UNL A   1      33.309  22.699  22.657  1.00  0.00     0.012 C 
ATOM     19  C   UNL A   1      32.058  23.402  24.748  1.00  0.00    -0.002 C 
ATOM     20  C   UNL A   1      30.653  23.344  24.101  1.00  0.00     0.005 C 
BRANCH   6  21
ATOM     21  C   UNL A   1      31.196  30.229  25.374  1.00  0.00    -0.028 C 
ATOM     22  C   UNL A   1      30.656  31.454  25.285  1.00  0.00     0.004 C 
ENDBRANCH   6  21
BRANCH   7  23
ATOM     23  O   UNL A   1      29.181  29.020  23.530  1.00  0.00    -0.392 OA
ATOM     24  H   UNL A   1      29.014  29.769  24.123  1.00  0.00     0.210 HD
ENDBRANCH   7  23
BRANCH  19  25
ATOM     25  C   UNL A   1      31.852  23.797  26.315  1.00  0.00    -0.010 C 
ATOM     26  C   UNL A   1      32.045  25.323  26.582  1.00  0.00     0.008 C 
BRANCH  25  27
ATOM     27  C   UNL A   1      32.823  23.182  27.426  1.00  0.00     0.008 C 
BRANCH  27  28
ATOM     28  C   UNL A   1      33.983  22.332  26.844  1.00  0.00     0.027 C 
BRANCH  28  29
ATOM     29  C   UNL A   1      35.220  23.124  26.501  1.00  0.00    -0.028 C 
ATOM     30  C   UNL A   1      36.213  22.768  25.660  1.00  0.00    -0.080 C 
ATOM     31  C   UNL A   1      37.349  23.702  25.345  1.00  0.00     0.039 C 
ATOM     32  C   UNL A   1      36.266  21.468  24.916  1.00  0.00     0.039 C 
ENDBRANCH  28  29
ENDBRANCH  27  28
ENDBRANCH  25  27
ENDBRANCH  19  25
ENDBRANCH   4   5
ENDBRANCH   3   4
ENDBRANCH   1   3
BRANCH   1  33
ATOM     33  O   UNL A   1      34.005  30.392  28.104  1.00  0.00    -0.462 OA
BRANCH  33  34
ATOM     34  C   UNL A   1      34.536  31.673  27.802  1.00  0.00     0.274 C 
BRANCH  34  35
ATOM     35  C   UNL A   1      33.527  32.828  27.760  1.00  0.00     0.275 C 
BRANCH  35  36
ATOM     36  O   UNL A   1      34.182  34.048  28.007  1.00  0.00    -0.458 OA
BRANCH  36  37
ATOM     37  C   UNL A   1      33.677  34.585  29.130  1.00  0.00     0.338 C 
ATOM     38  O   UNL A   1      32.528  34.942  29.375  1.00  0.00    -0.246 OA
BRANCH  37  39
ATOM     39  C   UNL A   1      34.677  34.263  30.115  1.00  0.00     0.060 A 
ATOM     40  C   UNL A   1      36.011  34.568  29.821  1.00  0.00     0.016 A 
ATOM     41  C   UNL A   1      34.260  33.704  31.319  1.00  0.00     0.016 A 
ATOM     42  C   UNL A   1      36.983  34.201  30.710  1.00  0.00     0.010 A 
ATOM     43  C   UNL A   1      35.232  33.285  32.189  1.00  0.00     0.010 A 
ATOM     44  C   UNL A   1      36.575  33.463  31.820  1.00  0.00    -0.014 A 
BRANCH  44  45
ATOM     45  C   UNL A   1      37.544  32.543  32.385  1.00  0.00     0.031 A 
ATOM     46  C   UNL A   1      38.069  32.886  33.741  1.00  0.00     0.074 A 
ATOM     47  C   UNL A   1      37.908  31.492  31.652  1.00  0.00     0.049 A 
ATOM     48  N   UNL A   1      39.088  32.391  34.378  1.00  0.00    -0.248 NA
ATOM     49  C   UNL A   1      37.367  33.962  34.471  1.00  0.00     0.031 C 
ATOM     50  C   UNL A   1      37.333  31.131  30.356  1.00  0.00     0.029 A 
ATOM     51  N   UNL A   1      38.875  30.567  31.881  1.00  0.00    -0.354 N 
ATOM     52  C   UNL A   1      39.174  33.118  35.557  1.00  0.00     0.074 A 
ATOM     53  C   UNL A   1      38.119  34.101  35.549  1.00  0.00     0.031 C 
ATOM     54  C   UNL A   1      38.005  30.075  29.872  1.00  0.00     0.029 A 
ATOM     55  C   UNL A   1      39.077  29.749  30.804  1.00  0.00     0.049 A 
ATOM     56  H   UNL A   1      39.375  30.495  32.726  1.00  0.00     0.167 HD
ATOM     57  C   UNL A   1      40.081  32.961  36.544  1.00  0.00     0.037 A 
ATOM     58  C   UNL A   1      40.080  28.885  30.598  1.00  0.00     0.037 A 
ATOM     59  C   UNL A   1      41.111  31.962  36.466  1.00  0.00     0.049 A 
ATOM     60  C   UNL A   1      41.102  28.753  31.692  1.00  0.00     0.074 A 
ATOM     61  C   UNL A   1      42.097  31.654  37.379  1.00  0.00     0.029 A 
ATOM     62  N   UNL A   1      41.279  31.106  35.379  1.00  0.00    -0.354 N 
ATOM     63  N   UNL A   1      41.200  29.427  32.817  1.00  0.00    -0.248 NA
ATOM     64  C   UNL A   1      42.140  27.742  31.499  1.00  0.00     0.031 C 
ATOM     65  C   UNL A   1      42.898  30.655  36.816  1.00  0.00     0.029 A 
ATOM     66  C   UNL A   1      42.371  30.286  35.583  1.00  0.00     0.049 A 
ATOM     67  H   UNL A   1      40.702  31.088  34.582  1.00  0.00     0.167 HD
ATOM     68  C   UNL A   1      42.298  28.908  33.482  1.00  0.00     0.074 A 
ATOM     69  C   UNL A   1      42.819  27.850  32.632  1.00  0.00     0.031 C 
ATOM     70  C   UNL A   1      42.835  29.258  34.681  1.00  0.00     0.037 A 
BRANCH  57  71
ATOM     71  C   UNL A   1      40.028  33.917  37.701  1.00  0.00     0.064 A 
ATOM     72  C   UNL A   1      39.176  33.721  38.801  1.00  0.00     0.173 A 
ATOM     73  C   UNL A   1      40.819  35.076  37.693  1.00  0.00     0.173 A 
ATOM     74  F   UNL A   1      38.373  32.647  38.851  1.00  0.00    -0.203 F 
ATOM     75  C   UNL A   1      39.095  34.661  39.827  1.00  0.00     0.198 A 
ATOM     76  C   UNL A   1      40.762  35.997  38.737  1.00  0.00     0.198 A 
ATOM     77  F   UNL A   1      41.641  35.327  36.663  1.00  0.00    -0.203 F 
ATOM     78  F   UNL A   1      38.224  34.484  40.831  1.00  0.00    -0.200 F 
ATOM     79  C   UNL A   1      39.893  35.795  39.797  1.00  0.00     0.200 A 
ATOM     80  F   UNL A   1      41.539  37.089  38.708  1.00  0.00    -0.200 F 
ATOM     81  F   UNL A   1      39.814  36.700  40.783  1.00  0.00    -0.200 F 
ENDBRANCH  57  71
BRANCH  58  82
ATOM     82  C   UNL A   1      40.137  28.134  29.324  1.00  0.00     0.064 A 
ATOM     83  C   UNL A   1      40.895  28.607  28.247  1.00  0.00     0.173 A 
ATOM     84  C   UNL A   1      39.513  26.884  29.188  1.00  0.00     0.173 A 
ATOM     85  F   UNL A   1      41.513  29.793  28.333  1.00  0.00    -0.203 F 
ATOM     86  C   UNL A   1      41.014  27.865  27.073  1.00  0.00     0.198 A 
ATOM     87  C   UNL A   1      39.656  26.130  28.026  1.00  0.00     0.198 A 
ATOM     88  F   UNL A   1      38.798  26.375  30.202  1.00  0.00    -0.203 F 
ATOM     89  F   UNL A   1      41.724  28.352  26.048  1.00  0.00    -0.200 F 
ATOM     90  C   UNL A   1      40.402  26.624  26.967  1.00  0.00     0.200 A 
ATOM     91  F   UNL A   1      39.088  24.919  27.940  1.00  0.00    -0.200 F 
ATOM     92  F   UNL A   1      40.534  25.904  25.845  1.00  0.00    -0.200 F 
ENDBRANCH  58  82
BRANCH  70  93
ATOM     93  C   UNL A   1      44.021  28.461  35.130  1.00  0.00     0.064 A 
ATOM     94  C   UNL A   1      45.330  28.865  34.841  1.00  0.00     0.173 A 
ATOM     95  C   UNL A   1      43.835  27.298  35.894  1.00  0.00     0.173 A 
ATOM     96  F   UNL A   1      45.552  29.962  34.101  1.00  0.00    -0.203 F 
ATOM     97  C   UNL A   1      46.416  28.111  35.270  1.00  0.00     0.198 A 
ATOM     98  C   UNL A   1      44.924  26.571  36.356  1.00  0.00     0.198 A 
ATOM     99  F   UNL A   1      42.599  26.881  36.204  1.00  0.00    -0.203 F 
ATOM    100  F   UNL A   1      47.659  28.478  34.930  1.00  0.00    -0.200 F 
ATOM    101  C   UNL A   1      46.213  26.971  36.035  1.00  0.00     0.200 A 
ATOM    102  F   UNL A   1      44.727  25.483  37.113  1.00  0.00    -0.200 F 
ATOM    103  F   UNL A   1      47.261  26.252  36.456  1.00  0.00    -0.200 F 
ENDBRANCH  70  93
ENDBRANCH  44  45
ENDBRANCH  37  39
ENDBRANCH  36  37
ENDBRANCH  35  36
ENDBRANCH  34  35
ENDBRANCH  33  34
ENDBRANCH   1  33
TORSDOF 19
ENDMDL
MODEL 3
REMARK VINA RESULT:     -11.9      3.946      9.526
REMARK SMILES C=C[C@@H]1[C@@H](O)C[C@@H]2[C@@]3(CC[C@@]4(C)[C@@H]([C@H](C)CCC=C(C)C)CC[C@@]24C)C[C@@]13CCC(=O)OCCOC(=O)c1ccc(-c2c3nc(c(-c4c(F)c(F)c(F)c(F)c4F)c4ccc([nH]4)c(-c4c(F)c(F)c(F)c(F)c4F)c4nc(c(-c5c(F)c(F)c(F)c(F)c5F)c5ccc2[nH]5)C=C4)C=C3)cc1
REMARK SMILES IDX 30 1 31 2 29 3 28 4 27 5 3 6 4 7 6 8 8 9 26 10 7 11 9 12
REMARK SMILES IDX 24 13 10 14 11 15 23 16 25 17 12 18 13 19 22 20 2 21 1 22
REMARK SMILES IDX 5 23 14 25 15 26 16 27 17 28 18 29 19 30 20 31 21 32 32 33
REMARK SMILES IDX 33 34 34 35 35 36 36 37 37 38 38 39 39 40 100 41 40 42 99 43
REMARK SMILES IDX 41 44 42 45 43 46 93 47 44 48 98 49 92 50 94 51 45 52 97 53
REMARK SMILES IDX 91 54 90 55 46 57 78 58 58 59 77 60 59 61 62 62 76 63 95 64
REMARK SMILES IDX 60 65 61 66 75 68 96 69 63 70 47 71 48 72 56 73 49 74 50 75
REMARK SMILES IDX 54 76 57 77 51 78 52 79 55 80 53 81 79 82 80 83 88 84 81 85
REMARK SMILES IDX 82 86 86 87 89 88 83 89 84 90 87 91 85 92 64 93 65 94 73 95
REMARK SMILES IDX 66 96 67 97 71 98 74 99 68 100 69 101 72 102 70 103
REMARK H PARENT 5 24 94 56 62 67
REMARK Flexibility Score: inf
ROOT
ATOM      1  C   UNL A   1      34.870  22.311  26.851  1.00  0.00     0.305 C 
ATOM      2  O   UNL A   1      34.726  21.224  27.390  1.00  0.00    -0.252 OA
ENDROOT
BRANCH   1   3
ATOM      3  C   UNL A   1      33.875  23.417  26.926  1.00  0.00     0.123 C 
BRANCH   3   4
ATOM      4  C   UNL A   1      32.438  22.888  26.973  1.00  0.00     0.020 C 
BRANCH   4   5
ATOM      5  C   UNL A   1      31.553  23.184  25.740  1.00  0.00    -0.014 C 
ATOM      6  C   UNL A   1      31.636  22.134  24.588  1.00  0.00     0.047 C 
ATOM      7  C   UNL A   1      31.524  22.805  23.191  1.00  0.00     0.122 C 
ATOM      8  C   UNL A   1      30.524  23.960  23.102  1.00  0.00     0.037 C 
ATOM      9  C   UNL A   1      30.888  24.634  25.508  1.00  0.00    -0.019 C 
ATOM     10  C   UNL A   1      30.101  23.442  26.029  1.00  0.00     0.016 C 
ATOM     11  C   UNL A   1      30.963  25.105  24.025  1.00  0.00     0.005 C 
ATOM     12  C   UNL A   1      30.759  25.748  26.532  1.00  0.00     0.008 C 
ATOM     13  C   UNL A   1      30.248  26.489  23.712  1.00  0.00    -0.023 C 
ATOM     14  C   UNL A   1      30.645  27.193  26.021  1.00  0.00     0.008 C 
ATOM     15  C   UNL A   1      30.944  27.614  24.557  1.00  0.00    -0.024 C 
ATOM     16  C   UNL A   1      30.453  27.052  22.299  1.00  0.00     0.008 C 
ATOM     17  C   UNL A   1      28.723  26.321  23.898  1.00  0.00     0.012 C 
ATOM     18  C   UNL A   1      30.189  29.012  24.516  1.00  0.00     0.012 C 
ATOM     19  C   UNL A   1      32.349  27.986  23.671  1.00  0.00    -0.002 C 
ATOM     20  C   UNL A   1      31.823  27.697  22.244  1.00  0.00     0.005 C 
BRANCH   6  21
ATOM     21  C   UNL A   1      32.796  21.154  24.603  1.00  0.00    -0.028 C 
ATOM     22  C   UNL A   1      32.703  19.836  24.834  1.00  0.00     0.004 C 
ENDBRANCH   6  21
BRANCH   7  23
ATOM     23  O   UNL A   1      31.170  21.842  22.194  1.00  0.00    -0.392 OA
ATOM     24  H   UNL A   1      30.510  22.224  21.595  1.00  0.00     0.210 HD
ENDBRANCH   7  23
BRANCH  19  25
ATOM     25  C   UNL A   1      33.913  27.530  23.711  1.00  0.00    -0.010 C 
ATOM     26  C   UNL A   1      34.214  26.327  22.761  1.00  0.00     0.008 C 
BRANCH  25  27
ATOM     27  C   UNL A   1      34.552  26.992  25.073  1.00  0.00     0.008 C 
BRANCH  27  28
ATOM     28  C   UNL A   1      33.932  27.621  26.348  1.00  0.00     0.027 C 
BRANCH  28  29
ATOM     29  C   UNL A   1      34.575  28.917  26.776  1.00  0.00    -0.028 C 
ATOM     30  C   UNL A   1      33.956  30.070  27.101  1.00  0.00    -0.080 C 
ATOM     31  C   UNL A   1      34.725  31.263  27.597  1.00  0.00     0.039 C 
ATOM     32  C   UNL A   1      32.470  30.271  27.068  1.00  0.00     0.039 C 
ENDBRANCH  28  29
ENDBRANCH  27  28
ENDBRANCH  25  27
ENDBRANCH  19  25
ENDBRANCH   4   5
ENDBRANCH   3   4
ENDBRANCH   1   3
BRANCH   1  33
ATOM     33  O   UNL A   1      35.965  22.709  26.148  1.00  0.00    -0.462 OA
BRANCH  33  34
ATOM     34  C   UNL A   1      36.355  21.756  25.171  1.00  0.00     0.274 C 
BRANCH  34  35
ATOM     35  C   UNL A   1      37.750  21.143  25.345  1.00  0.00     0.275 C 
BRANCH  35  36
ATOM     36  O   UNL A   1      38.721  22.159  25.376  1.00  0.00    -0.458 OA
BRANCH  36  37
ATOM     37  C   UNL A   1      39.743  21.753  26.147  1.00  0.00     0.338 C 
ATOM     38  O   UNL A   1      40.497  20.795  25.999  1.00  0.00    -0.246 OA
BRANCH  37  39
ATOM     39  C   UNL A   1      40.023  22.917  26.947  1.00  0.00     0.060 A 
ATOM     40  C   UNL A   1      39.387  24.117  26.606  1.00  0.00     0.016 A 
ATOM     41  C   UNL A   1      40.878  22.779  28.036  1.00  0.00     0.016 A 
ATOM     42  C   UNL A   1      39.698  25.250  27.305  1.00  0.00     0.010 A 
ATOM     43  C   UNL A   1      41.236  23.920  28.704  1.00  0.00     0.010 A 
ATOM     44  C   UNL A   1      40.705  25.142  28.263  1.00  0.00    -0.014 A 
BRANCH  44  45
ATOM     45  C   UNL A   1      41.484  26.337  28.530  1.00  0.00     0.031 A 
ATOM     46  C   UNL A   1      40.782  27.434  29.261  1.00  0.00     0.074 A 
ATOM     47  C   UNL A   1      42.739  26.376  28.084  1.00  0.00     0.049 A 
ATOM     48  N   UNL A   1      41.141  28.673  29.428  1.00  0.00    -0.248 NA
ATOM     49  C   UNL A   1      39.475  27.101  29.863  1.00  0.00     0.031 C 
ATOM     50  C   UNL A   1      43.434  25.266  27.432  1.00  0.00     0.029 A 
ATOM     51  N   UNL A   1      43.627  27.401  28.080  1.00  0.00    -0.354 N 
ATOM     52  C   UNL A   1      40.094  29.271  30.113  1.00  0.00     0.074 A 
ATOM     53  C   UNL A   1      39.074  28.273  30.321  1.00  0.00     0.031 C 
ATOM     54  C   UNL A   1      44.642  25.694  27.038  1.00  0.00     0.029 A 
ATOM     55  C   UNL A   1      44.755  27.110  27.364  1.00  0.00     0.049 A 
ATOM     56  H   UNL A   1      43.476  28.259  28.540  1.00  0.00     0.167 HD
ATOM     57  C   UNL A   1      40.014  30.558  30.512  1.00  0.00     0.037 A 
ATOM     58  C   UNL A   1      45.725  27.947  26.971  1.00  0.00     0.037 A 
ATOM     59  C   UNL A   1      41.074  31.492  30.253  1.00  0.00     0.049 A 
ATOM     60  C   UNL A   1      45.598  29.383  27.393  1.00  0.00     0.074 A 
ATOM     61  C   UNL A   1      41.168  32.823  30.601  1.00  0.00     0.029 A 
ATOM     62  N   UNL A   1      42.238  31.169  29.557  1.00  0.00    -0.354 N 
ATOM     63  N   UNL A   1      44.618  29.970  28.045  1.00  0.00    -0.248 NA
ATOM     64  C   UNL A   1      46.706  30.269  27.039  1.00  0.00     0.031 C 
ATOM     65  C   UNL A   1      42.359  33.319  30.060  1.00  0.00     0.029 A 
ATOM     66  C   UNL A   1      43.046  32.283  29.438  1.00  0.00     0.049 A 
ATOM     67  H   UNL A   1      42.453  30.277  29.202  1.00  0.00     0.167 HD
ATOM     68  C   UNL A   1      44.998  31.292  28.203  1.00  0.00     0.074 A 
ATOM     69  C   UNL A   1      46.310  31.409  27.587  1.00  0.00     0.031 C 
ATOM     70  C   UNL A   1      44.340  32.321  28.799  1.00  0.00     0.037 A 
BRANCH  57  71
ATOM     71  C   UNL A   1      38.744  31.006  31.178  1.00  0.00     0.064 A 
ATOM     72  C   UNL A   1      37.664  31.540  30.456  1.00  0.00     0.173 A 
ATOM     73  C   UNL A   1      38.618  30.933  32.573  1.00  0.00     0.173 A 
ATOM     74  F   UNL A   1      37.736  31.661  29.121  1.00  0.00    -0.203 F 
ATOM     75  C   UNL A   1      36.525  32.013  31.106  1.00  0.00     0.198 A 
ATOM     76  C   UNL A   1      37.465  31.375  33.219  1.00  0.00     0.198 A 
ATOM     77  F   UNL A   1      39.622  30.447  33.319  1.00  0.00    -0.203 F 
ATOM     78  F   UNL A   1      35.537  32.581  30.400  1.00  0.00    -0.200 F 
ATOM     79  C   UNL A   1      36.424  31.924  32.486  1.00  0.00     0.200 A 
ATOM     80  F   UNL A   1      37.368  31.282  34.552  1.00  0.00    -0.200 F 
ATOM     81  F   UNL A   1      35.330  32.381  33.112  1.00  0.00    -0.200 F 
ENDBRANCH  57  71
BRANCH  58  82
ATOM     82  C   UNL A   1      46.837  27.427  26.145  1.00  0.00     0.064 A 
ATOM     83  C   UNL A   1      46.845  27.607  24.758  1.00  0.00     0.173 A 
ATOM     84  C   UNL A   1      47.959  26.822  26.734  1.00  0.00     0.173 A 
ATOM     85  F   UNL A   1      45.798  28.184  24.152  1.00  0.00    -0.203 F 
ATOM     86  C   UNL A   1      47.927  27.187  23.986  1.00  0.00     0.198 A 
ATOM     87  C   UNL A   1      49.052  26.430  25.967  1.00  0.00     0.198 A 
ATOM     88  F   UNL A   1      48.011  26.652  28.064  1.00  0.00    -0.203 F 
ATOM     89  F   UNL A   1      47.898  27.349  22.657  1.00  0.00    -0.200 F 
ATOM     90  C   UNL A   1      49.033  26.608  24.592  1.00  0.00     0.200 A 
ATOM     91  F   UNL A   1      50.130  25.898  26.559  1.00  0.00    -0.200 F 
ATOM     92  F   UNL A   1      50.080  26.223  23.850  1.00  0.00    -0.200 F 
ENDBRANCH  58  82
BRANCH  70  93
ATOM     93  C   UNL A   1      45.059  33.636  28.826  1.00  0.00     0.064 A 
ATOM     94  C   UNL A   1      45.961  33.959  29.848  1.00  0.00     0.173 A 
ATOM     95  C   UNL A   1      44.865  34.562  27.790  1.00  0.00     0.173 A 
ATOM     96  F   UNL A   1      46.164  33.109  30.865  1.00  0.00    -0.203 F 
ATOM     97  C   UNL A   1      46.618  35.184  29.852  1.00  0.00     0.198 A 
ATOM     98  C   UNL A   1      45.555  35.767  27.776  1.00  0.00     0.198 A 
ATOM     99  F   UNL A   1      44.019  34.288  26.785  1.00  0.00    -0.203 F 
ATOM    100  F   UNL A   1      47.429  35.503  30.870  1.00  0.00    -0.200 F 
ATOM    101  C   UNL A   1      46.423  36.082  28.811  1.00  0.00     0.200 A 
ATOM    102  F   UNL A   1      45.382  36.624  26.760  1.00  0.00    -0.200 F 
ATOM    103  F   UNL A   1      47.065  37.257  28.813  1.00  0.00    -0.200 F 
ENDBRANCH  70  93
ENDBRANCH  44  45
ENDBRANCH  37  39
ENDBRANCH  36  37
ENDBRANCH  35  36
ENDBRANCH  34  35
ENDBRANCH  33  34
ENDBRANCH   1  33
TORSDOF 19
ENDMDL
