MODEL 1
REMARK VINA RESULT:     -12.2      0.000      0.000
REMARK SMILES CC(=O)Nc1cccc(-c2ccc(F)c(C(=O)OCCOC(=O)c3ccc(-c4c5nc(c(-c6c(F)c(F)c(F)c(F)c6F)c6ccc([nH]6)c(-c6c(F)c(F)c(F)c(F)c6F)c6nc(c(-c7c(F)c(F)c(F)c(F)c7F)c7ccc4[nH]7)C=C6)C=C5)cc3)c2)c1
REMARK SMILES IDX 19 1 18 2 16 3 17 4 15 5 10 6 11 7 87 8 12 9 13 10 14 11
REMARK SMILES IDX 9 12 5 13 6 14 88 15 7 16 8 17 4 18 1 19 2 20 3 21 20 23
REMARK SMILES IDX 21 24 22 25 23 26 24 27 25 28 86 29 26 30 85 31 27 32 28 33
REMARK SMILES IDX 29 34 79 35 30 36 84 37 78 38 80 39 31 40 83 41 77 42 76 43
REMARK SMILES IDX 32 45 64 46 44 47 63 48 45 49 48 50 62 51 81 52 46 53 47 54
REMARK SMILES IDX 61 56 82 57 49 58 33 59 34 60 42 61 35 62 36 63 40 64 43 65
REMARK SMILES IDX 37 66 38 67 41 68 39 69 65 70 66 71 74 72 67 73 68 74 72 75
REMARK SMILES IDX 75 76 69 77 70 78 73 79 71 80 50 81 51 82 59 83 52 84 53 85
REMARK SMILES IDX 57 86 60 87 54 88 55 89 58 90 56 91
REMARK H PARENT 4 22 80 44 48 55
REMARK Flexibility Score: inf
ROOT
ATOM      1  C   UNL A   1      41.550  19.026  25.790  1.00  0.00     0.275 C 
ENDROOT
BRANCH   1   2
ATOM      2  O   UNL A   1      41.211  20.427  25.859  1.00  0.00    -0.458 OA
BRANCH   2   3
ATOM      3  C   UNL A   1      40.572  20.853  26.979  1.00  0.00     0.341 C 
ATOM      4  O   UNL A   1      40.779  20.464  28.116  1.00  0.00    -0.246 OA
BRANCH   3   5
ATOM      5  C   UNL A   1      39.636  21.951  26.632  1.00  0.00     0.096 A 
ATOM      6  C   UNL A   1      37.634  22.768  25.506  1.00  0.00    -0.017 A 
ATOM      7  C   UNL A   1      37.944  24.073  25.914  1.00  0.00     0.012 A 
ATOM      8  C   UNL A   1      38.528  21.724  25.815  1.00  0.00     0.027 A 
ATOM      9  C   UNL A   1      39.047  24.305  26.732  1.00  0.00     0.041 A 
ATOM     10  C   UNL A   1      39.844  23.237  27.135  1.00  0.00     0.137 A 
ATOM     11  F   UNL A   1      40.836  23.498  27.998  1.00  0.00    -0.206 F 
BRANCH   6  12
ATOM     12  C   UNL A   1      36.316  22.450  24.953  1.00  0.00    -0.016 A 
ATOM     13  C   UNL A   1      34.312  21.056  25.143  1.00  0.00     0.041 A 
ATOM     14  C   UNL A   1      33.772  21.714  24.037  1.00  0.00     0.026 A 
ATOM     15  C   UNL A   1      35.585  21.416  25.568  1.00  0.00     0.034 A 
ATOM     16  C   UNL A   1      34.471  22.761  23.423  1.00  0.00     0.003 A 
ATOM     17  C   UNL A   1      35.736  23.135  23.885  1.00  0.00     0.009 A 
BRANCH  13  18
ATOM     18  N   UNL A   1      33.581  20.014  25.734  1.00  0.00    -0.326 N 
ATOM     19  C   UNL A   1      34.201  18.100  24.250  1.00  0.00     0.114 C 
ATOM     20  C   UNL A   1      33.343  18.733  25.316  1.00  0.00     0.221 C 
ATOM     21  O   UNL A   1      32.457  18.079  25.872  1.00  0.00    -0.275 OA
ATOM     22  H   UNL A   1      33.168  20.245  26.596  1.00  0.00     0.169 HD
ENDBRANCH  13  18
ENDBRANCH   6  12
ENDBRANCH   3   5
ENDBRANCH   2   3
ENDBRANCH   1   2
BRANCH   1  23
ATOM     23  C   UNL A   1      43.062  18.840  25.641  1.00  0.00     0.275 C 
BRANCH  23  24
ATOM     24  O   UNL A   1      43.514  19.342  24.368  1.00  0.00    -0.458 OA
BRANCH  24  25
ATOM     25  C   UNL A   1      44.847  19.543  24.270  1.00  0.00     0.338 C 
ATOM     26  O   UNL A   1      45.698  18.753  23.900  1.00  0.00    -0.246 OA
BRANCH  25  27
ATOM     27  C   UNL A   1      45.148  20.962  24.508  1.00  0.00     0.060 A 
ATOM     28  C   UNL A   1      45.676  21.280  25.750  1.00  0.00     0.016 A 
ATOM     29  C   UNL A   1      44.792  21.976  23.625  1.00  0.00     0.016 A 
ATOM     30  C   UNL A   1      45.801  22.597  26.164  1.00  0.00     0.010 A 
ATOM     31  C   UNL A   1      44.988  23.313  24.009  1.00  0.00     0.010 A 
ATOM     32  C   UNL A   1      45.472  23.639  25.293  1.00  0.00    -0.014 A 
BRANCH  32  33
ATOM     33  C   UNL A   1      45.605  25.047  25.760  1.00  0.00     0.031 A 
ATOM     34  C   UNL A   1      46.921  25.767  25.642  1.00  0.00     0.074 A 
ATOM     35  C   UNL A   1      44.534  25.705  26.246  1.00  0.00     0.049 A 
ATOM     36  N   UNL A   1      47.265  26.951  26.085  1.00  0.00    -0.248 NA
ATOM     37  C   UNL A   1      47.997  25.056  24.935  1.00  0.00     0.031 C 
ATOM     38  C   UNL A   1      43.183  25.152  26.360  1.00  0.00     0.029 A 
ATOM     39  N   UNL A   1      44.407  26.985  26.727  1.00  0.00    -0.354 N 
ATOM     40  C   UNL A   1      48.605  27.107  25.753  1.00  0.00     0.074 A 
ATOM     41  C   UNL A   1      49.016  25.889  25.087  1.00  0.00     0.031 C 
ATOM     42  C   UNL A   1      42.361  26.093  26.849  1.00  0.00     0.029 A 
ATOM     43  C   UNL A   1      43.140  27.284  27.166  1.00  0.00     0.049 A 
ATOM     44  H   UNL A   1      45.153  27.628  26.755  1.00  0.00     0.167 HD
ATOM     45  C   UNL A   1      49.416  28.168  25.985  1.00  0.00     0.037 A 
ATOM     46  C   UNL A   1      42.661  28.374  27.796  1.00  0.00     0.037 A 
ATOM     47  C   UNL A   1      48.991  29.390  26.621  1.00  0.00     0.049 A 
ATOM     48  C   UNL A   1      43.594  29.512  28.099  1.00  0.00     0.074 A 
ATOM     49  C   UNL A   1      49.732  30.530  26.882  1.00  0.00     0.029 A 
ATOM     50  N   UNL A   1      47.710  29.632  27.100  1.00  0.00    -0.354 N 
ATOM     51  N   UNL A   1      44.865  29.642  27.808  1.00  0.00    -0.248 NA
ATOM     52  C   UNL A   1      43.026  30.654  28.828  1.00  0.00     0.031 C 
ATOM     53  C   UNL A   1      48.917  31.436  27.572  1.00  0.00     0.029 A 
ATOM     54  C   UNL A   1      47.649  30.889  27.682  1.00  0.00     0.049 A 
ATOM     55  H   UNL A   1      46.956  29.002  27.034  1.00  0.00     0.167 HD
ATOM     56  C   UNL A   1      45.247  30.881  28.303  1.00  0.00     0.074 A 
ATOM     57  C   UNL A   1      44.065  31.475  28.893  1.00  0.00     0.031 C 
ATOM     58  C   UNL A   1      46.469  31.470  28.274  1.00  0.00     0.037 A 
BRANCH  45  59
ATOM     59  C   UNL A   1      50.862  28.032  25.594  1.00  0.00     0.064 A 
ATOM     60  C   UNL A   1      51.305  28.223  24.276  1.00  0.00     0.173 A 
ATOM     61  C   UNL A   1      51.825  27.710  26.564  1.00  0.00     0.173 A 
ATOM     62  F   UNL A   1      50.428  28.523  23.306  1.00  0.00    -0.203 F 
ATOM     63  C   UNL A   1      52.646  28.052  23.937  1.00  0.00     0.198 A 
ATOM     64  C   UNL A   1      53.170  27.578  26.229  1.00  0.00     0.198 A 
ATOM     65  F   UNL A   1      51.462  27.525  27.843  1.00  0.00    -0.203 F 
ATOM     66  F   UNL A   1      53.033  28.174  22.660  1.00  0.00    -0.200 F 
ATOM     67  C   UNL A   1      53.578  27.736  24.914  1.00  0.00     0.200 A 
ATOM     68  F   UNL A   1      54.071  27.287  27.179  1.00  0.00    -0.200 F 
ATOM     69  F   UNL A   1      54.866  27.571  24.586  1.00  0.00    -0.200 F 
ENDBRANCH  45  59
BRANCH  46  70
ATOM     70  C   UNL A   1      41.235  28.413  28.216  1.00  0.00     0.064 A 
ATOM     71  C   UNL A   1      40.840  27.977  29.487  1.00  0.00     0.173 A 
ATOM     72  C   UNL A   1      40.239  28.907  27.358  1.00  0.00     0.173 A 
ATOM     73  F   UNL A   1      41.749  27.471  30.334  1.00  0.00    -0.203 F 
ATOM     74  C   UNL A   1      39.505  28.028  29.882  1.00  0.00     0.198 A 
ATOM     75  C   UNL A   1      38.911  28.989  27.766  1.00  0.00     0.198 A 
ATOM     76  F   UNL A   1      40.564  29.334  26.128  1.00  0.00    -0.203 F 
ATOM     77  F   UNL A   1      39.147  27.566  31.088  1.00  0.00    -0.200 F 
ATOM     78  C   UNL A   1      38.544  28.544  29.026  1.00  0.00     0.200 A 
ATOM     79  F   UNL A   1      37.990  29.504  26.940  1.00  0.00    -0.200 F 
ATOM     80  F   UNL A   1      37.262  28.605  29.412  1.00  0.00    -0.200 F 
ENDBRANCH  46  70
BRANCH  58  81
ATOM     81  C   UNL A   1      46.580  32.844  28.871  1.00  0.00     0.064 A 
ATOM     82  C   UNL A   1      46.939  33.041  30.214  1.00  0.00     0.173 A 
ATOM     83  C   UNL A   1      46.346  33.982  28.084  1.00  0.00     0.173 A 
ATOM     84  F   UNL A   1      47.158  31.987  31.015  1.00  0.00    -0.203 F 
ATOM     85  C   UNL A   1      47.025  34.322  30.753  1.00  0.00     0.198 A 
ATOM     86  C   UNL A   1      46.469  35.263  28.617  1.00  0.00     0.198 A 
ATOM     87  F   UNL A   1      46.007  33.853  26.793  1.00  0.00    -0.203 F 
ATOM     88  F   UNL A   1      47.309  34.482  32.053  1.00  0.00    -0.200 F 
ATOM     89  C   UNL A   1      46.797  35.431  29.953  1.00  0.00     0.200 A 
ATOM     90  F   UNL A   1      46.264  36.333  27.837  1.00  0.00    -0.200 F 
ATOM     91  F   UNL A   1      46.885  36.664  30.472  1.00  0.00    -0.200 F 
ENDBRANCH  58  81
ENDBRANCH  32  33
ENDBRANCH  25  27
ENDBRANCH  24  25
ENDBRANCH  23  24
ENDBRANCH   1  23
TORSDOF 13
ENDMDL
MODEL 2
REMARK VINA RESULT:     -12.2      7.787     12.964
REMARK SMILES CC(=O)Nc1cccc(-c2ccc(F)c(C(=O)OCCOC(=O)c3ccc(-c4c5nc(c(-c6c(F)c(F)c(F)c(F)c6F)c6ccc([nH]6)c(-c6c(F)c(F)c(F)c(F)c6F)c6nc(c(-c7c(F)c(F)c(F)c(F)c7F)c7ccc4[nH]7)C=C6)C=C5)cc3)c2)c1
REMARK SMILES IDX 19 1 18 2 16 3 17 4 15 5 10 6 11 7 87 8 12 9 13 10 14 11
REMARK SMILES IDX 9 12 5 13 6 14 88 15 7 16 8 17 4 18 1 19 2 20 3 21 20 23
REMARK SMILES IDX 21 24 22 25 23 26 24 27 25 28 86 29 26 30 85 31 27 32 28 33
REMARK SMILES IDX 29 34 79 35 30 36 84 37 78 38 80 39 31 40 83 41 77 42 76 43
REMARK SMILES IDX 32 45 64 46 44 47 63 48 45 49 48 50 62 51 81 52 46 53 47 54
REMARK SMILES IDX 61 56 82 57 49 58 33 59 34 60 42 61 35 62 36 63 40 64 43 65
REMARK SMILES IDX 37 66 38 67 41 68 39 69 65 70 66 71 74 72 67 73 68 74 72 75
REMARK SMILES IDX 75 76 69 77 70 78 73 79 71 80 50 81 51 82 59 83 52 84 53 85
REMARK SMILES IDX 57 86 60 87 54 88 55 89 58 90 56 91
REMARK H PARENT 4 22 80 44 48 55
REMARK Flexibility Score: inf
ROOT
ATOM      1  C   UNL A   1      34.019  35.347  28.829  1.00  0.00     0.275 C 
ENDROOT
BRANCH   1   2
ATOM      2  O   UNL A   1      33.878  33.922  29.010  1.00  0.00    -0.458 OA
BRANCH   2   3
ATOM      3  C   UNL A   1      33.285  33.229  28.005  1.00  0.00     0.341 C 
ATOM      4  O   UNL A   1      32.372  33.625  27.299  1.00  0.00    -0.246 OA
BRANCH   3   5
ATOM      5  C   UNL A   1      33.982  31.933  27.814  1.00  0.00     0.096 A 
ATOM      6  C   UNL A   1      33.935  29.526  27.427  1.00  0.00    -0.017 A 
ATOM      7  C   UNL A   1      35.330  29.484  27.559  1.00  0.00     0.012 A 
ATOM      8  C   UNL A   1      33.266  30.749  27.626  1.00  0.00     0.027 A 
ATOM      9  C   UNL A   1      36.050  30.661  27.745  1.00  0.00     0.041 A 
ATOM     10  C   UNL A   1      35.377  31.878  27.806  1.00  0.00     0.137 A 
ATOM     11  F   UNL A   1      36.120  32.992  27.889  1.00  0.00    -0.206 F 
BRANCH   6  12
ATOM     12  C   UNL A   1      33.199  28.378  26.892  1.00  0.00    -0.016 A 
ATOM     13  C   UNL A   1      33.299  26.367  25.500  1.00  0.00     0.041 A 
ATOM     14  C   UNL A   1      31.955  26.125  25.786  1.00  0.00     0.026 A 
ATOM     15  C   UNL A   1      33.894  27.502  26.036  1.00  0.00     0.034 A 
ATOM     16  C   UNL A   1      31.250  26.969  26.653  1.00  0.00     0.003 A 
ATOM     17  C   UNL A   1      31.873  28.089  27.212  1.00  0.00     0.009 A 
BRANCH  13  18
ATOM     18  N   UNL A   1      33.973  25.496  24.630  1.00  0.00    -0.326 N 
ATOM     19  C   UNL A   1      33.350  26.469  22.413  1.00  0.00     0.114 C 
ATOM     20  C   UNL A   1      33.918  25.366  23.269  1.00  0.00     0.221 C 
ATOM     21  O   UNL A   1      34.403  24.359  22.747  1.00  0.00    -0.275 OA
ATOM     22  H   UNL A   1      34.590  24.873  25.075  1.00  0.00     0.169 HD
ENDBRANCH  13  18
ENDBRANCH   6  12
ENDBRANCH   3   5
ENDBRANCH   2   3
ENDBRANCH   1   2
BRANCH   1  23
ATOM     23  C   UNL A   1      32.904  36.100  29.558  1.00  0.00     0.275 C 
BRANCH  23  24
ATOM     24  O   UNL A   1      32.409  35.328  30.669  1.00  0.00    -0.458 OA
BRANCH  24  25
ATOM     25  C   UNL A   1      32.689  35.834  31.892  1.00  0.00     0.338 C 
ATOM     26  O   UNL A   1      32.070  36.683  32.509  1.00  0.00    -0.246 OA
BRANCH  25  27
ATOM     27  C   UNL A   1      33.790  35.071  32.498  1.00  0.00     0.060 A 
ATOM     28  C   UNL A   1      35.053  35.637  32.408  1.00  0.00     0.016 A 
ATOM     29  C   UNL A   1      33.640  33.784  33.000  1.00  0.00     0.016 A 
ATOM     30  C   UNL A   1      36.189  34.921  32.752  1.00  0.00     0.010 A 
ATOM     31  C   UNL A   1      34.781  33.081  33.423  1.00  0.00     0.010 A 
ATOM     32  C   UNL A   1      36.071  33.633  33.280  1.00  0.00    -0.014 A 
BRANCH  32  33
ATOM     33  C   UNL A   1      37.304  32.877  33.634  1.00  0.00     0.031 A 
ATOM     34  C   UNL A   1      37.989  33.113  34.953  1.00  0.00     0.074 A 
ATOM     35  C   UNL A   1      37.787  31.936  32.799  1.00  0.00     0.049 A 
ATOM     36  N   UNL A   1      39.125  32.635  35.398  1.00  0.00    -0.248 NA
ATOM     37  C   UNL A   1      37.308  34.015  35.894  1.00  0.00     0.031 C 
ATOM     38  C   UNL A   1      37.190  31.557  31.517  1.00  0.00     0.029 A 
ATOM     39  N   UNL A   1      38.886  31.118  32.903  1.00  0.00    -0.354 N 
ATOM     40  C   UNL A   1      39.317  33.213  36.647  1.00  0.00     0.074 A 
ATOM     41  C   UNL A   1      38.189  34.090  36.881  1.00  0.00     0.031 C 
ATOM     42  C   UNL A   1      37.910  30.566  30.971  1.00  0.00     0.029 A 
ATOM     43  C   UNL A   1      39.067  30.300  31.816  1.00  0.00     0.049 A 
ATOM     44  H   UNL A   1      39.487  31.120  33.684  1.00  0.00     0.167 HD
ATOM     45  C   UNL A   1      40.340  33.028  37.517  1.00  0.00     0.037 A 
ATOM     46  C   UNL A   1      40.073  29.460  31.505  1.00  0.00     0.037 A 
ATOM     47  C   UNL A   1      41.444  32.128  37.291  1.00  0.00     0.049 A 
ATOM     48  C   UNL A   1      41.229  29.319  32.455  1.00  0.00     0.074 A 
ATOM     49  C   UNL A   1      42.519  31.855  38.120  1.00  0.00     0.029 A 
ATOM     50  N   UNL A   1      41.618  31.356  36.150  1.00  0.00    -0.354 N 
ATOM     51  N   UNL A   1      41.419  29.888  33.620  1.00  0.00    -0.248 NA
ATOM     52  C   UNL A   1      42.318  28.424  32.040  1.00  0.00     0.031 C 
ATOM     53  C   UNL A   1      43.372  30.966  37.455  1.00  0.00     0.029 A 
ATOM     54  C   UNL A   1      42.797  30.631  36.241  1.00  0.00     0.049 A 
ATOM     55  H   UNL A   1      40.994  31.327  35.389  1.00  0.00     0.167 HD
ATOM     56  C   UNL A   1      42.636  29.412  34.086  1.00  0.00     0.074 A 
ATOM     57  C   UNL A   1      43.130  28.488  33.086  1.00  0.00     0.031 C 
ATOM     58  C   UNL A   1      43.285  29.718  35.237  1.00  0.00     0.037 A 
BRANCH  45  59
ATOM     59  C   UNL A   1      40.340  33.856  38.772  1.00  0.00     0.064 A 
ATOM     60  C   UNL A   1      39.649  33.465  39.930  1.00  0.00     0.173 A 
ATOM     61  C   UNL A   1      41.054  35.065  38.817  1.00  0.00     0.173 A 
ATOM     62  F   UNL A   1      38.942  32.324  39.941  1.00  0.00    -0.203 F 
ATOM     63  C   UNL A   1      39.636  34.272  41.065  1.00  0.00     0.198 A 
ATOM     64  C   UNL A   1      41.070  35.851  39.966  1.00  0.00     0.198 A 
ATOM     65  F   UNL A   1      41.741  35.486  37.744  1.00  0.00    -0.203 F 
ATOM     66  F   UNL A   1      38.914  33.910  42.135  1.00  0.00    -0.200 F 
ATOM     67  C   UNL A   1      40.350  35.461  41.085  1.00  0.00     0.200 A 
ATOM     68  F   UNL A   1      41.774  36.991  39.987  1.00  0.00    -0.200 F 
ATOM     69  F   UNL A   1      40.336  36.236  42.178  1.00  0.00    -0.200 F 
ENDBRANCH  45  59
BRANCH  46  70
ATOM     70  C   UNL A   1      40.043  28.723  30.213  1.00  0.00     0.064 A 
ATOM     71  C   UNL A   1      40.632  29.256  29.059  1.00  0.00     0.173 A 
ATOM     72  C   UNL A   1      39.440  27.459  30.113  1.00  0.00     0.173 A 
ATOM     73  F   UNL A   1      41.197  30.472  29.095  1.00  0.00    -0.203 F 
ATOM     74  C   UNL A   1      40.613  28.556  27.854  1.00  0.00     0.198 A 
ATOM     75  C   UNL A   1      39.452  26.747  28.917  1.00  0.00     0.198 A 
ATOM     76  F   UNL A   1      38.858  26.905  31.187  1.00  0.00    -0.203 F 
ATOM     77  F   UNL A   1      41.146  29.106  26.754  1.00  0.00    -0.200 F 
ATOM     78  C   UNL A   1      40.033  27.298  27.787  1.00  0.00     0.200 A 
ATOM     79  F   UNL A   1      38.904  25.525  28.862  1.00  0.00    -0.200 F 
ATOM     80  F   UNL A   1      40.028  26.621  26.630  1.00  0.00    -0.200 F 
ENDBRANCH  46  70
BRANCH  58  81
ATOM     81  C   UNL A   1      44.591  29.020  35.492  1.00  0.00     0.064 A 
ATOM     82  C   UNL A   1      44.652  27.778  36.142  1.00  0.00     0.173 A 
ATOM     83  C   UNL A   1      45.799  29.591  35.060  1.00  0.00     0.173 A 
ATOM     84  F   UNL A   1      43.529  27.195  36.590  1.00  0.00    -0.203 F 
ATOM     85  C   UNL A   1      45.873  27.151  36.381  1.00  0.00     0.198 A 
ATOM     86  C   UNL A   1      47.014  28.944  35.268  1.00  0.00     0.198 A 
ATOM     87  F   UNL A   1      45.799  30.773  34.427  1.00  0.00    -0.203 F 
ATOM     88  F   UNL A   1      45.909  25.995  37.057  1.00  0.00    -0.200 F 
ATOM     89  C   UNL A   1      47.051  27.731  35.937  1.00  0.00     0.200 A 
ATOM     90  F   UNL A   1      48.150  29.499  34.824  1.00  0.00    -0.200 F 
ATOM     91  F   UNL A   1      48.225  27.125  36.162  1.00  0.00    -0.200 F 
ENDBRANCH  58  81
ENDBRANCH  32  33
ENDBRANCH  25  27
ENDBRANCH  24  25
ENDBRANCH  23  24
ENDBRANCH   1  23
TORSDOF 13
ENDMDL
MODEL 3
REMARK VINA RESULT:     -12.1      5.686      9.590
REMARK SMILES CC(=O)Nc1cccc(-c2ccc(F)c(C(=O)OCCOC(=O)c3ccc(-c4c5nc(c(-c6c(F)c(F)c(F)c(F)c6F)c6ccc([nH]6)c(-c6c(F)c(F)c(F)c(F)c6F)c6nc(c(-c7c(F)c(F)c(F)c(F)c7F)c7ccc4[nH]7)C=C6)C=C5)cc3)c2)c1
REMARK SMILES IDX 19 1 18 2 16 3 17 4 15 5 10 6 11 7 87 8 12 9 13 10 14 11
REMARK SMILES IDX 9 12 5 13 6 14 88 15 7 16 8 17 4 18 1 19 2 20 3 21 20 23
REMARK SMILES IDX 21 24 22 25 23 26 24 27 25 28 86 29 26 30 85 31 27 32 28 33
REMARK SMILES IDX 29 34 79 35 30 36 84 37 78 38 80 39 31 40 83 41 77 42 76 43
REMARK SMILES IDX 32 45 64 46 44 47 63 48 45 49 48 50 62 51 81 52 46 53 47 54
REMARK SMILES IDX 61 56 82 57 49 58 33 59 34 60 42 61 35 62 36 63 40 64 43 65
REMARK SMILES IDX 37 66 38 67 41 68 39 69 65 70 66 71 74 72 67 73 68 74 72 75
REMARK SMILES IDX 75 76 69 77 70 78 73 79 71 80 50 81 51 82 59 83 52 84 53 85
REMARK SMILES IDX 57 86 60 87 54 88 55 89 58 90 56 91
REMARK H PARENT 4 22 80 44 48 55
REMARK Flexibility Score: inf
ROOT
ATOM      1  C   UNL A   1      31.735  28.859  27.247  1.00  0.00     0.275 C 
ENDROOT
BRANCH   1   2
ATOM      2  O   UNL A   1      32.528  27.706  26.894  1.00  0.00    -0.458 OA
BRANCH   2   3
ATOM      3  C   UNL A   1      31.860  26.606  26.462  1.00  0.00     0.341 C 
ATOM      4  O   UNL A   1      30.782  26.211  26.876  1.00  0.00    -0.246 OA
BRANCH   3   5
ATOM      5  C   UNL A   1      32.589  25.993  25.325  1.00  0.00     0.096 A 
ATOM      6  C   UNL A   1      34.171  24.362  24.440  1.00  0.00    -0.017 A 
ATOM      7  C   UNL A   1      34.028  24.925  23.163  1.00  0.00     0.012 A 
ATOM      8  C   UNL A   1      33.496  24.951  25.526  1.00  0.00     0.027 A 
ATOM      9  C   UNL A   1      33.123  25.963  22.956  1.00  0.00     0.041 A 
ATOM     10  C   UNL A   1      32.368  26.443  24.021  1.00  0.00     0.137 A 
ATOM     11  F   UNL A   1      31.443  27.375  23.752  1.00  0.00    -0.206 F 
BRANCH   6  12
ATOM     12  C   UNL A   1      34.836  23.069  24.617  1.00  0.00    -0.016 A 
ATOM     13  C   UNL A   1      34.575  20.715  25.236  1.00  0.00     0.041 A 
ATOM     14  C   UNL A   1      35.937  20.521  25.001  1.00  0.00     0.026 A 
ATOM     15  C   UNL A   1      34.050  21.990  25.065  1.00  0.00     0.034 A 
ATOM     16  C   UNL A   1      36.733  21.574  24.533  1.00  0.00     0.003 A 
ATOM     17  C   UNL A   1      36.183  22.843  24.333  1.00  0.00     0.009 A 
BRANCH  13  18
ATOM     18  N   UNL A   1      33.809  19.635  25.700  1.00  0.00    -0.326 N 
ATOM     19  C   UNL A   1      32.838  18.788  23.558  1.00  0.00     0.114 C 
ATOM     20  C   UNL A   1      32.891  18.844  25.064  1.00  0.00     0.221 C 
ATOM     21  O   UNL A   1      32.153  18.124  25.740  1.00  0.00    -0.275 OA
ATOM     22  H   UNL A   1      33.956  19.409  26.646  1.00  0.00     0.169 HD
ENDBRANCH  13  18
ENDBRANCH   6  12
ENDBRANCH   3   5
ENDBRANCH   2   3
ENDBRANCH   1   2
BRANCH   1  23
ATOM     23  C   UNL A   1      31.936  29.987  26.233  1.00  0.00     0.275 C 
BRANCH  23  24
ATOM     24  O   UNL A   1      33.308  30.428  26.226  1.00  0.00    -0.458 OA
BRANCH  24  25
ATOM     25  C   UNL A   1      33.615  31.371  27.145  1.00  0.00     0.338 C 
ATOM     26  O   UNL A   1      32.899  32.261  27.571  1.00  0.00    -0.246 OA
BRANCH  25  27
ATOM     27  C   UNL A   1      34.929  31.075  27.733  1.00  0.00     0.060 A 
ATOM     28  C   UNL A   1      35.131  29.772  28.165  1.00  0.00     0.016 A 
ATOM     29  C   UNL A   1      35.882  32.051  28.001  1.00  0.00     0.016 A 
ATOM     30  C   UNL A   1      36.241  29.428  28.920  1.00  0.00     0.010 A 
ATOM     31  C   UNL A   1      37.047  31.691  28.699  1.00  0.00     0.010 A 
ATOM     32  C   UNL A   1      37.227  30.380  29.188  1.00  0.00    -0.014 A 
BRANCH  32  33
ATOM     33  C   UNL A   1      38.408  29.993  30.009  1.00  0.00     0.031 A 
ATOM     34  C   UNL A   1      39.464  29.083  29.442  1.00  0.00     0.074 A 
ATOM     35  C   UNL A   1      38.567  30.495  31.250  1.00  0.00     0.049 A 
ATOM     36  N   UNL A   1      40.506  28.549  30.030  1.00  0.00    -0.248 NA
ATOM     37  C   UNL A   1      39.326  28.721  28.023  1.00  0.00     0.031 C 
ATOM     38  C   UNL A   1      37.655  31.436  31.903  1.00  0.00     0.029 A 
ATOM     39  N   UNL A   1      39.556  30.294  32.183  1.00  0.00    -0.354 N 
ATOM     40  C   UNL A   1      41.118  27.752  29.069  1.00  0.00     0.074 A 
ATOM     41  C   UNL A   1      40.320  27.861  27.866  1.00  0.00     0.031 C 
ATOM     42  C   UNL A   1      38.140  31.751  33.114  1.00  0.00     0.029 A 
ATOM     43  C   UNL A   1      39.346  30.970  33.359  1.00  0.00     0.049 A 
ATOM     44  H   UNL A   1      40.339  29.719  32.022  1.00  0.00     0.167 HD
ATOM     45  C   UNL A   1      42.240  27.001  29.183  1.00  0.00     0.037 A 
ATOM     46  C   UNL A   1      40.019  30.935  34.525  1.00  0.00     0.037 A 
ATOM     47  C   UNL A   1      43.047  26.923  30.376  1.00  0.00     0.049 A 
ATOM     48  C   UNL A   1      41.224  30.045  34.649  1.00  0.00     0.074 A 
ATOM     49  C   UNL A   1      44.213  26.206  30.585  1.00  0.00     0.029 A 
ATOM     50  N   UNL A   1      42.769  27.583  31.566  1.00  0.00    -0.354 N 
ATOM     51  N   UNL A   1      41.781  29.274  33.747  1.00  0.00    -0.248 NA
ATOM     52  C   UNL A   1      41.889  30.013  35.958  1.00  0.00     0.031 C 
ATOM     53  C   UNL A   1      44.606  26.384  31.916  1.00  0.00     0.029 A 
ATOM     54  C   UNL A   1      43.725  27.265  32.520  1.00  0.00     0.049 A 
ATOM     55  H   UNL A   1      42.007  28.189  31.710  1.00  0.00     0.167 HD
ATOM     56  C   UNL A   1      42.867  28.678  34.371  1.00  0.00     0.074 A 
ATOM     57  C   UNL A   1      42.905  29.195  35.723  1.00  0.00     0.031 C 
ATOM     58  C   UNL A   1      43.750  27.780  33.867  1.00  0.00     0.037 A 
BRANCH  45  59
ATOM     59  C   UNL A   1      42.632  26.159  28.000  1.00  0.00     0.064 A 
ATOM     60  C   UNL A   1      42.152  24.853  27.815  1.00  0.00     0.173 A 
ATOM     61  C   UNL A   1      43.503  26.676  27.028  1.00  0.00     0.173 A 
ATOM     62  F   UNL A   1      41.324  24.304  28.718  1.00  0.00    -0.203 F 
ATOM     63  C   UNL A   1      42.563  24.084  26.730  1.00  0.00     0.198 A 
ATOM     64  C   UNL A   1      43.883  25.917  25.924  1.00  0.00     0.198 A 
ATOM     65  F   UNL A   1      43.988  27.921  27.146  1.00  0.00    -0.203 F 
ATOM     66  F   UNL A   1      42.144  22.816  26.611  1.00  0.00    -0.200 F 
ATOM     67  C   UNL A   1      43.424  24.617  25.782  1.00  0.00     0.200 A 
ATOM     68  F   UNL A   1      44.703  26.442  25.001  1.00  0.00    -0.200 F 
ATOM     69  F   UNL A   1      43.819  23.875  24.739  1.00  0.00    -0.200 F 
ENDBRANCH  45  59
BRANCH  46  70
ATOM     70  C   UNL A   1      39.536  31.741  35.678  1.00  0.00     0.064 A 
ATOM     71  C   UNL A   1      38.528  31.263  36.527  1.00  0.00     0.173 A 
ATOM     72  C   UNL A   1      40.086  33.000  35.965  1.00  0.00     0.173 A 
ATOM     73  F   UNL A   1      37.950  30.078  36.280  1.00  0.00    -0.203 F 
ATOM     74  C   UNL A   1      38.086  32.016  37.613  1.00  0.00     0.198 A 
ATOM     75  C   UNL A   1      39.668  33.735  37.071  1.00  0.00     0.198 A 
ATOM     76  F   UNL A   1      41.050  33.506  35.182  1.00  0.00    -0.203 F 
ATOM     77  F   UNL A   1      37.092  31.554  38.385  1.00  0.00    -0.200 F 
ATOM     78  C   UNL A   1      38.664  33.245  37.891  1.00  0.00     0.200 A 
ATOM     79  F   UNL A   1      40.241  34.915  37.343  1.00  0.00    -0.200 F 
ATOM     80  F   UNL A   1      38.248  33.961  38.944  1.00  0.00    -0.200 F 
ENDBRANCH  46  70
BRANCH  58  81
ATOM     81  C   UNL A   1      44.855  27.323  34.778  1.00  0.00     0.064 A 
ATOM     82  C   UNL A   1      46.069  28.021  34.878  1.00  0.00     0.173 A 
ATOM     83  C   UNL A   1      44.690  26.181  35.578  1.00  0.00     0.173 A 
ATOM     84  F   UNL A   1      46.285  29.109  34.123  1.00  0.00    -0.203 F 
ATOM     85  C   UNL A   1      47.086  27.575  35.718  1.00  0.00     0.198 A 
ATOM     86  C   UNL A   1      45.696  25.759  36.443  1.00  0.00     0.198 A 
ATOM     87  F   UNL A   1      43.549  25.479  35.526  1.00  0.00    -0.203 F 
ATOM     88  F   UNL A   1      48.257  28.224  35.751  1.00  0.00    -0.200 F 
ATOM     89  C   UNL A   1      46.896  26.449  36.505  1.00  0.00     0.200 A 
ATOM     90  F   UNL A   1      45.503  24.680  37.214  1.00  0.00    -0.200 F 
ATOM     91  F   UNL A   1      47.874  26.024  37.317  1.00  0.00    -0.200 F 
ENDBRANCH  58  81
ENDBRANCH  32  33
ENDBRANCH  25  27
ENDBRANCH  24  25
ENDBRANCH  23  24
ENDBRANCH   1  23
TORSDOF 13
ENDMDL
