MODEL 1
REMARK VINA RESULT:     -12.4      0.000      0.000
REMARK SMILES O=C(/C=C/c1ccccc1)Nc1ccc(O)cc1C(=O)OCCOC(=O)c1ccc(-c2c3nc(c(-c4c(F)c(F)c(F)c(F)c4F)c4ccc([nH]4)c(-c4c(F)c(F)c(F)c(F)c4F)c4nc(c(-c5c(F)c(F)c(F)c(F)c5F)c5ccc2[nH]5)C=C4)C=C3)cc1
REMARK SMILES IDX 22 1 21 2 19 3 20 4 18 5 12 6 13 7 14 8 17 9 15 10 11 11
REMARK SMILES IDX 1 12 2 13 3 15 4 16 5 17 6 18 10 19 7 20 9 21 8 22 16 23
REMARK SMILES IDX 23 25 24 26 25 27 26 28 27 29 28 30 89 31 29 32 88 33 30 34
REMARK SMILES IDX 31 35 32 36 82 37 33 38 87 39 81 40 83 41 34 42 86 43 80 44
REMARK SMILES IDX 79 45 35 47 67 48 47 49 66 50 48 51 51 52 65 53 84 54 49 55
REMARK SMILES IDX 50 56 64 58 85 59 52 60 36 61 37 62 45 63 38 64 39 65 43 66
REMARK SMILES IDX 46 67 40 68 41 69 44 70 42 71 68 72 69 73 77 74 70 75 71 76
REMARK SMILES IDX 75 77 78 78 72 79 73 80 76 81 74 82 53 83 54 84 62 85 55 86
REMARK SMILES IDX 56 87 60 88 63 89 57 90 58 91 61 92 59 93
REMARK H PARENT 11 14 16 24 83 46 51 57
REMARK Flexibility Score: inf
ROOT
ATOM      1  C   UNL A   1      33.567  28.476  24.710  1.00  0.00     0.275 C 
ENDROOT
BRANCH   1   2
ATOM      2  O   UNL A   1      33.217  27.413  25.618  1.00  0.00    -0.458 OA
BRANCH   2   3
ATOM      3  C   UNL A   1      33.395  26.145  25.161  1.00  0.00     0.340 C 
ATOM      4  O   UNL A   1      34.401  25.702  24.627  1.00  0.00    -0.246 OA
BRANCH   3   5
ATOM      5  C   UNL A   1      32.261  25.281  25.584  1.00  0.00     0.087 A 
ATOM      6  C   UNL A   1      30.898  25.616  25.461  1.00  0.00     0.056 A 
ATOM      7  C   UNL A   1      29.948  24.821  26.126  1.00  0.00     0.031 A 
ATOM      8  C   UNL A   1      30.333  23.680  26.835  1.00  0.00     0.048 A 
ATOM      9  C   UNL A   1      32.631  24.099  26.254  1.00  0.00     0.064 A 
ATOM     10  C   UNL A   1      31.670  23.320  26.883  1.00  0.00     0.116 A 
BRANCH   6  11
ATOM     11  N   UNL A   1      30.369  26.690  24.706  1.00  0.00    -0.322 N 
ATOM     12  O   UNL A   1      30.774  25.940  22.554  1.00  0.00    -0.270 OA
ATOM     13  C   UNL A   1      30.456  26.824  23.341  1.00  0.00     0.248 C 
ATOM     14  H   UNL A   1      29.898  27.399  25.199  1.00  0.00     0.170 HD
BRANCH  13  15
ATOM     15  C   UNL A   1      30.050  28.141  22.788  1.00  0.00     0.072 C 
ATOM     16  C   UNL A   1      28.969  28.852  23.146  1.00  0.00     0.014 C 
BRANCH  16  17
ATOM     17  C   UNL A   1      28.648  30.190  22.615  1.00  0.00    -0.025 A 
ATOM     18  C   UNL A   1      28.333  30.315  21.255  1.00  0.00     0.008 A 
ATOM     19  C   UNL A   1      28.675  31.349  23.403  1.00  0.00     0.008 A 
ATOM     20  C   UNL A   1      28.031  31.563  20.702  1.00  0.00     0.001 A 
ATOM     21  C   UNL A   1      28.368  32.596  22.852  1.00  0.00     0.001 A 
ATOM     22  C   UNL A   1      28.045  32.702  21.502  1.00  0.00     0.000 A 
ENDBRANCH  16  17
ENDBRANCH  13  15
ENDBRANCH   6  11
BRANCH  10  23
ATOM     23  O   UNL A   1      32.002  22.201  27.583  1.00  0.00    -0.508 OA
ATOM     24  H   UNL A   1      31.814  21.353  27.229  1.00  0.00     0.293 HD
ENDBRANCH  10  23
ENDBRANCH   3   5
ENDBRANCH   2   3
ENDBRANCH   1   2
BRANCH   1  25
ATOM     25  C   UNL A   1      32.766  29.735  25.021  1.00  0.00     0.275 C 
BRANCH  25  26
ATOM     26  O   UNL A   1      32.643  29.873  26.445  1.00  0.00    -0.458 OA
BRANCH  26  27
ATOM     27  C   UNL A   1      33.098  31.028  26.968  1.00  0.00     0.338 C 
ATOM     28  O   UNL A   1      32.529  32.108  27.038  1.00  0.00    -0.246 OA
BRANCH  27  29
ATOM     29  C   UNL A   1      34.420  30.779  27.547  1.00  0.00     0.060 A 
ATOM     30  C   UNL A   1      34.710  29.492  27.993  1.00  0.00     0.016 A 
ATOM     31  C   UNL A   1      35.325  31.819  27.740  1.00  0.00     0.016 A 
ATOM     32  C   UNL A   1      35.887  29.239  28.689  1.00  0.00     0.010 A 
ATOM     33  C   UNL A   1      36.537  31.553  28.387  1.00  0.00     0.010 A 
ATOM     34  C   UNL A   1      36.814  30.268  28.895  1.00  0.00    -0.014 A 
BRANCH  34  35
ATOM     35  C   UNL A   1      38.034  30.024  29.710  1.00  0.00     0.031 A 
ATOM     36  C   UNL A   1      39.142  29.179  29.146  1.00  0.00     0.074 A 
ATOM     37  C   UNL A   1      38.165  30.565  30.935  1.00  0.00     0.049 A 
ATOM     38  N   UNL A   1      40.194  28.681  29.744  1.00  0.00    -0.248 NA
ATOM     39  C   UNL A   1      39.045  28.836  27.719  1.00  0.00     0.031 C 
ATOM     40  C   UNL A   1      37.194  31.451  31.579  1.00  0.00     0.029 A 
ATOM     41  N   UNL A   1      39.173  30.447  31.860  1.00  0.00    -0.354 N 
ATOM     42  C   UNL A   1      40.843  27.912  28.787  1.00  0.00     0.074 A 
ATOM     43  C   UNL A   1      40.075  28.018  27.565  1.00  0.00     0.031 C 
ATOM     44  C   UNL A   1      37.663  31.814  32.782  1.00  0.00     0.029 A 
ATOM     45  C   UNL A   1      38.927  31.126  33.028  1.00  0.00     0.049 A 
ATOM     46  H   UNL A   1      39.994  29.928  31.701  1.00  0.00     0.167 HD
ATOM     47  C   UNL A   1      41.973  27.178  28.924  1.00  0.00     0.037 A 
ATOM     48  C   UNL A   1      39.619  31.155  34.184  1.00  0.00     0.037 A 
ATOM     49  C   UNL A   1      42.769  27.131  30.121  1.00  0.00     0.049 A 
ATOM     50  C   UNL A   1      40.872  30.334  34.312  1.00  0.00     0.074 A 
ATOM     51  C   UNL A   1      43.944  26.437  30.352  1.00  0.00     0.029 A 
ATOM     52  N   UNL A   1      42.479  27.825  31.287  1.00  0.00    -0.354 N 
ATOM     53  N   UNL A   1      41.443  29.556  33.426  1.00  0.00    -0.248 NA
ATOM     54  C   UNL A   1      41.563  30.378  35.607  1.00  0.00     0.031 C 
ATOM     55  C   UNL A   1      44.350  26.689  31.668  1.00  0.00     0.029 A 
ATOM     56  C   UNL A   1      43.448  27.570  32.243  1.00  0.00     0.049 A 
ATOM     57  H   UNL A   1      41.699  28.413  31.415  1.00  0.00     0.167 HD
ATOM     58  C   UNL A   1      42.560  29.020  34.052  1.00  0.00     0.074 A 
ATOM     59  C   UNL A   1      42.599  29.581  35.386  1.00  0.00     0.031 C 
ATOM     60  C   UNL A   1      43.466  28.137  33.567  1.00  0.00     0.037 A 
BRANCH  47  61
ATOM     61  C   UNL A   1      42.390  26.329  27.760  1.00  0.00     0.064 A 
ATOM     62  C   UNL A   1      43.378  26.738  26.853  1.00  0.00     0.173 A 
ATOM     63  C   UNL A   1      41.801  25.069  27.565  1.00  0.00     0.173 A 
ATOM     64  F   UNL A   1      43.960  27.939  26.985  1.00  0.00    -0.203 F 
ATOM     65  C   UNL A   1      43.742  25.928  25.780  1.00  0.00     0.198 A 
ATOM     66  C   UNL A   1      42.186  24.251  26.508  1.00  0.00     0.198 A 
ATOM     67  F   UNL A   1      40.854  24.630  28.407  1.00  0.00    -0.203 F 
ATOM     68  F   UNL A   1      44.655  26.359  24.898  1.00  0.00    -0.200 F 
ATOM     69  C   UNL A   1      43.151  24.685  25.610  1.00  0.00     0.200 A 
ATOM     70  F   UNL A   1      41.620  23.046  26.352  1.00  0.00    -0.200 F 
ATOM     71  F   UNL A   1      43.505  23.906  24.578  1.00  0.00    -0.200 F 
ENDBRANCH  47  61
BRANCH  48  72
ATOM     72  C   UNL A   1      39.111  31.962  35.322  1.00  0.00     0.064 A 
ATOM     73  C   UNL A   1      38.340  31.378  36.336  1.00  0.00     0.173 A 
ATOM     74  C   UNL A   1      39.404  33.330  35.431  1.00  0.00     0.173 A 
ATOM     75  F   UNL A   1      38.009  30.080  36.261  1.00  0.00    -0.203 F 
ATOM     76  C   UNL A   1      37.881  32.132  37.415  1.00  0.00     0.198 A 
ATOM     77  C   UNL A   1      38.969  34.076  36.524  1.00  0.00     0.198 A 
ATOM     78  F   UNL A   1      40.136  33.937  34.484  1.00  0.00    -0.203 F 
ATOM     79  F   UNL A   1      37.119  31.556  38.355  1.00  0.00    -0.200 F 
ATOM     80  C   UNL A   1      38.204  33.476  37.513  1.00  0.00     0.200 A 
ATOM     81  F   UNL A   1      39.294  35.372  36.620  1.00  0.00    -0.200 F 
ATOM     82  F   UNL A   1      37.774  34.197  38.558  1.00  0.00    -0.200 F 
ENDBRANCH  48  72
BRANCH  60  83
ATOM     83  C   UNL A   1      44.585  27.737  34.481  1.00  0.00     0.064 A 
ATOM     84  C   UNL A   1      45.776  28.475  34.544  1.00  0.00     0.173 A 
ATOM     85  C   UNL A   1      44.449  26.628  35.329  1.00  0.00     0.173 A 
ATOM     86  F   UNL A   1      45.957  29.534  33.741  1.00  0.00    -0.203 F 
ATOM     87  C   UNL A   1      46.800  28.103  35.411  1.00  0.00     0.198 A 
ATOM     88  C   UNL A   1      45.466  26.273  36.210  1.00  0.00     0.198 A 
ATOM     89  F   UNL A   1      43.326  25.894  35.307  1.00  0.00    -0.203 F 
ATOM     90  F   UNL A   1      47.945  28.799  35.429  1.00  0.00    -0.200 F 
ATOM     91  C   UNL A   1      46.642  27.007  36.246  1.00  0.00     0.200 A 
ATOM     92  F   UNL A   1      45.309  25.219  37.022  1.00  0.00    -0.200 F 
ATOM     93  F   UNL A   1      47.628  26.654  37.082  1.00  0.00    -0.200 F 
ENDBRANCH  60  83
ENDBRANCH  34  35
ENDBRANCH  27  29
ENDBRANCH  26  27
ENDBRANCH  25  26
ENDBRANCH   1  25
TORSDOF 15
ENDMDL
MODEL 2
REMARK VINA RESULT:     -12.4      0.336      2.041
REMARK SMILES O=C(/C=C/c1ccccc1)Nc1ccc(O)cc1C(=O)OCCOC(=O)c1ccc(-c2c3nc(c(-c4c(F)c(F)c(F)c(F)c4F)c4ccc([nH]4)c(-c4c(F)c(F)c(F)c(F)c4F)c4nc(c(-c5c(F)c(F)c(F)c(F)c5F)c5ccc2[nH]5)C=C4)C=C3)cc1
REMARK SMILES IDX 22 1 21 2 19 3 20 4 18 5 12 6 13 7 14 8 17 9 15 10 11 11
REMARK SMILES IDX 1 12 2 13 3 15 4 16 5 17 6 18 10 19 7 20 9 21 8 22 16 23
REMARK SMILES IDX 23 25 24 26 25 27 26 28 27 29 28 30 89 31 29 32 88 33 30 34
REMARK SMILES IDX 31 35 32 36 82 37 33 38 87 39 81 40 83 41 34 42 86 43 80 44
REMARK SMILES IDX 79 45 35 47 67 48 47 49 66 50 48 51 51 52 65 53 84 54 49 55
REMARK SMILES IDX 50 56 64 58 85 59 52 60 36 61 37 62 45 63 38 64 39 65 43 66
REMARK SMILES IDX 46 67 40 68 41 69 44 70 42 71 68 72 69 73 77 74 70 75 71 76
REMARK SMILES IDX 75 77 78 78 72 79 73 80 76 81 74 82 53 83 54 84 62 85 55 86
REMARK SMILES IDX 56 87 60 88 63 89 57 90 58 91 61 92 59 93
REMARK H PARENT 11 14 16 24 83 46 51 57
REMARK Flexibility Score: inf
ROOT
ATOM      1  C   UNL A   1      33.389  28.617  25.038  1.00  0.00     0.275 C 
ENDROOT
BRANCH   1   2
ATOM      2  O   UNL A   1      33.087  27.554  25.964  1.00  0.00    -0.458 OA
BRANCH   2   3
ATOM      3  C   UNL A   1      33.408  26.296  25.562  1.00  0.00     0.340 C 
ATOM      4  O   UNL A   1      34.507  25.912  25.191  1.00  0.00    -0.246 OA
BRANCH   3   5
ATOM      5  C   UNL A   1      32.279  25.366  25.831  1.00  0.00     0.087 A 
ATOM      6  C   UNL A   1      30.922  25.643  25.569  1.00  0.00     0.056 A 
ATOM      7  C   UNL A   1      29.946  24.781  26.101  1.00  0.00     0.031 A 
ATOM      8  C   UNL A   1      30.308  23.635  26.813  1.00  0.00     0.048 A 
ATOM      9  C   UNL A   1      32.632  24.179  26.502  1.00  0.00     0.064 A 
ATOM     10  C   UNL A   1      31.648  23.335  26.998  1.00  0.00     0.116 A 
BRANCH   6  11
ATOM     11  N   UNL A   1      30.426  26.718  24.793  1.00  0.00    -0.322 N 
ATOM     12  O   UNL A   1      30.961  25.989  22.663  1.00  0.00    -0.270 OA
ATOM     13  C   UNL A   1      30.589  26.863  23.437  1.00  0.00     0.248 C 
ATOM     14  H   UNL A   1      29.921  27.418  25.265  1.00  0.00     0.170 HD
BRANCH  13  15
ATOM     15  C   UNL A   1      30.202  28.180  22.872  1.00  0.00     0.072 C 
ATOM     16  C   UNL A   1      29.056  28.838  23.107  1.00  0.00     0.014 C 
BRANCH  16  17
ATOM     17  C   UNL A   1      28.748  30.179  22.576  1.00  0.00    -0.025 A 
ATOM     18  C   UNL A   1      28.811  31.277  23.445  1.00  0.00     0.008 A 
ATOM     19  C   UNL A   1      28.361  30.402  21.247  1.00  0.00     0.008 A 
ATOM     20  C   UNL A   1      28.519  32.566  22.991  1.00  0.00     0.001 A 
ATOM     21  C   UNL A   1      28.075  31.691  20.791  1.00  0.00     0.001 A 
ATOM     22  C   UNL A   1      28.155  32.773  21.663  1.00  0.00     0.000 A 
ENDBRANCH  16  17
ENDBRANCH  13  15
ENDBRANCH   6  11
BRANCH  10  23
ATOM     23  O   UNL A   1      31.957  22.208  27.695  1.00  0.00    -0.508 OA
ATOM     24  H   UNL A   1      31.273  21.657  28.024  1.00  0.00     0.293 HD
ENDBRANCH  10  23
ENDBRANCH   3   5
ENDBRANCH   2   3
ENDBRANCH   1   2
BRANCH   1  25
ATOM     25  C   UNL A   1      32.635  29.888  25.414  1.00  0.00     0.275 C 
BRANCH  25  26
ATOM     26  O   UNL A   1      32.735  30.091  26.832  1.00  0.00    -0.458 OA
BRANCH  26  27
ATOM     27  C   UNL A   1      33.275  31.261  27.224  1.00  0.00     0.338 C 
ATOM     28  O   UNL A   1      32.769  32.374  27.217  1.00  0.00    -0.246 OA
BRANCH  27  29
ATOM     29  C   UNL A   1      34.609  30.990  27.766  1.00  0.00     0.060 A 
ATOM     30  C   UNL A   1      34.902  29.690  28.171  1.00  0.00     0.016 A 
ATOM     31  C   UNL A   1      35.525  32.020  27.966  1.00  0.00     0.016 A 
ATOM     32  C   UNL A   1      36.093  29.413  28.833  1.00  0.00     0.010 A 
ATOM     33  C   UNL A   1      36.749  31.731  28.578  1.00  0.00     0.010 A 
ATOM     34  C   UNL A   1      37.030  30.432  29.045  1.00  0.00    -0.014 A 
BRANCH  34  35
ATOM     35  C   UNL A   1      38.267  30.160  29.825  1.00  0.00     0.031 A 
ATOM     36  C   UNL A   1      39.336  29.284  29.234  1.00  0.00     0.074 A 
ATOM     37  C   UNL A   1      38.447  30.703  31.043  1.00  0.00     0.049 A 
ATOM     38  N   UNL A   1      40.392  28.762  29.803  1.00  0.00    -0.248 NA
ATOM     39  C   UNL A   1      39.188  28.938  27.812  1.00  0.00     0.031 C 
ATOM     40  C   UNL A   1      37.519  31.617  31.710  1.00  0.00     0.029 A 
ATOM     41  N   UNL A   1      39.480  30.564  31.939  1.00  0.00    -0.354 N 
ATOM     42  C   UNL A   1      40.993  27.972  28.832  1.00  0.00     0.074 A 
ATOM     43  C   UNL A   1      40.192  28.092  27.632  1.00  0.00     0.031 C 
ATOM     44  C   UNL A   1      38.032  31.973  32.897  1.00  0.00     0.029 A 
ATOM     45  C   UNL A   1      39.285  31.254  33.110  1.00  0.00     0.049 A 
ATOM     46  H   UNL A   1      40.281  30.022  31.758  1.00  0.00     0.167 HD
ATOM     47  C   UNL A   1      42.107  27.210  28.939  1.00  0.00     0.037 A 
ATOM     48  C   UNL A   1      40.011  31.270  34.244  1.00  0.00     0.037 A 
ATOM     49  C   UNL A   1      42.936  27.148  30.113  1.00  0.00     0.049 A 
ATOM     50  C   UNL A   1      41.246  30.418  34.341  1.00  0.00     0.074 A 
ATOM     51  C   UNL A   1      44.100  26.425  30.314  1.00  0.00     0.029 A 
ATOM     52  N   UNL A   1      42.699  27.855  31.283  1.00  0.00    -0.354 N 
ATOM     53  N   UNL A   1      41.771  29.621  33.442  1.00  0.00    -0.248 NA
ATOM     54  C   UNL A   1      41.976  30.450  35.615  1.00  0.00     0.031 C 
ATOM     55  C   UNL A   1      44.550  26.672  31.616  1.00  0.00     0.029 A 
ATOM     56  C   UNL A   1      43.688  27.579  32.212  1.00  0.00     0.049 A 
ATOM     57  H   UNL A   1      41.938  28.463  31.431  1.00  0.00     0.167 HD
ATOM     58  C   UNL A   1      42.891  29.060  34.038  1.00  0.00     0.074 A 
ATOM     59  C   UNL A   1      42.984  29.626  35.368  1.00  0.00     0.031 C 
ATOM     60  C   UNL A   1      43.760  28.152  33.532  1.00  0.00     0.037 A 
BRANCH  47  61
ATOM     61  C   UNL A   1      42.468  26.344  27.768  1.00  0.00     0.064 A 
ATOM     62  C   UNL A   1      41.856  25.104  27.540  1.00  0.00     0.173 A 
ATOM     63  C   UNL A   1      43.432  26.782  26.845  1.00  0.00     0.173 A 
ATOM     64  F   UNL A   1      40.941  24.634  28.401  1.00  0.00    -0.203 F 
ATOM     65  C   UNL A   1      42.215  24.321  26.445  1.00  0.00     0.198 A 
ATOM     66  C   UNL A   1      43.768  26.009  25.738  1.00  0.00     0.198 A 
ATOM     67  F   UNL A   1      44.044  27.963  27.016  1.00  0.00    -0.203 F 
ATOM     68  F   UNL A   1      41.651  23.117  26.271  1.00  0.00    -0.200 F 
ATOM     69  C   UNL A   1      43.165  24.776  25.543  1.00  0.00     0.200 A 
ATOM     70  F   UNL A   1      44.680  26.455  24.863  1.00  0.00    -0.200 F 
ATOM     71  F   UNL A   1      43.506  24.022  24.487  1.00  0.00    -0.200 F 
ENDBRANCH  47  61
BRANCH  48  72
ATOM     72  C   UNL A   1      39.558  32.096  35.393  1.00  0.00     0.064 A 
ATOM     73  C   UNL A   1      39.985  33.421  35.545  1.00  0.00     0.173 A 
ATOM     74  C   UNL A   1      38.670  31.582  36.352  1.00  0.00     0.173 A 
ATOM     75  F   UNL A   1      40.856  33.947  34.670  1.00  0.00    -0.203 F 
ATOM     76  C   UNL A   1      39.543  34.202  36.611  1.00  0.00     0.198 A 
ATOM     77  C   UNL A   1      38.207  32.372  37.400  1.00  0.00     0.198 A 
ATOM     78  F   UNL A   1      38.234  30.317  36.253  1.00  0.00    -0.203 F 
ATOM     79  F   UNL A   1      39.991  35.456  36.750  1.00  0.00    -0.200 F 
ATOM     80  C   UNL A   1      38.647  33.680  37.532  1.00  0.00     0.200 A 
ATOM     81  F   UNL A   1      37.332  31.867  38.281  1.00  0.00    -0.200 F 
ATOM     82  F   UNL A   1      38.211  34.436  38.548  1.00  0.00    -0.200 F 
ENDBRANCH  48  72
BRANCH  60  83
ATOM     83  C   UNL A   1      44.895  27.727  34.415  1.00  0.00     0.064 A 
ATOM     84  C   UNL A   1      44.786  26.611  35.257  1.00  0.00     0.173 A 
ATOM     85  C   UNL A   1      46.114  28.420  34.389  1.00  0.00     0.173 A 
ATOM     86  F   UNL A   1      43.635  25.926  35.325  1.00  0.00    -0.203 F 
ATOM     87  C   UNL A   1      45.855  26.216  36.058  1.00  0.00     0.198 A 
ATOM     88  C   UNL A   1      47.186  28.009  35.176  1.00  0.00     0.198 A 
ATOM     89  F   UNL A   1      46.266  29.492  33.596  1.00  0.00    -0.203 F 
ATOM     90  F   UNL A   1      45.718  25.170  36.884  1.00  0.00    -0.200 F 
ATOM     91  C   UNL A   1      47.054  26.911  36.013  1.00  0.00     0.200 A 
ATOM     92  F   UNL A   1      48.347  28.676  35.125  1.00  0.00    -0.200 F 
ATOM     93  F   UNL A   1      48.081  26.527  36.783  1.00  0.00    -0.200 F 
ENDBRANCH  60  83
ENDBRANCH  34  35
ENDBRANCH  27  29
ENDBRANCH  26  27
ENDBRANCH  25  26
ENDBRANCH   1  25
TORSDOF 15
ENDMDL
MODEL 3
REMARK VINA RESULT:     -12.4      1.355      4.008
REMARK SMILES O=C(/C=C/c1ccccc1)Nc1ccc(O)cc1C(=O)OCCOC(=O)c1ccc(-c2c3nc(c(-c4c(F)c(F)c(F)c(F)c4F)c4ccc([nH]4)c(-c4c(F)c(F)c(F)c(F)c4F)c4nc(c(-c5c(F)c(F)c(F)c(F)c5F)c5ccc2[nH]5)C=C4)C=C3)cc1
REMARK SMILES IDX 22 1 21 2 19 3 20 4 18 5 12 6 13 7 14 8 17 9 15 10 11 11
REMARK SMILES IDX 1 12 2 13 3 15 4 16 5 17 6 18 10 19 7 20 9 21 8 22 16 23
REMARK SMILES IDX 23 25 24 26 25 27 26 28 27 29 28 30 89 31 29 32 88 33 30 34
REMARK SMILES IDX 31 35 32 36 82 37 33 38 87 39 81 40 83 41 34 42 86 43 80 44
REMARK SMILES IDX 79 45 35 47 67 48 47 49 66 50 48 51 51 52 65 53 84 54 49 55
REMARK SMILES IDX 50 56 64 58 85 59 52 60 36 61 37 62 45 63 38 64 39 65 43 66
REMARK SMILES IDX 46 67 40 68 41 69 44 70 42 71 68 72 69 73 77 74 70 75 71 76
REMARK SMILES IDX 75 77 78 78 72 79 73 80 76 81 74 82 53 83 54 84 62 85 55 86
REMARK SMILES IDX 56 87 60 88 63 89 57 90 58 91 61 92 59 93
REMARK H PARENT 11 14 16 24 83 46 51 57
REMARK Flexibility Score: inf
ROOT
ATOM      1  C   UNL A   1      32.272  28.800  24.592  1.00  0.00     0.275 C 
ENDROOT
BRANCH   1   2
ATOM      2  O   UNL A   1      31.844  28.931  23.221  1.00  0.00    -0.458 OA
BRANCH   2   3
ATOM      3  C   UNL A   1      31.193  27.864  22.689  1.00  0.00     0.340 C 
ATOM      4  O   UNL A   1      31.698  26.949  22.055  1.00  0.00    -0.246 OA
BRANCH   3   5
ATOM      5  C   UNL A   1      29.782  27.836  23.157  1.00  0.00     0.087 A 
ATOM      6  C   UNL A   1      29.133  26.713  23.709  1.00  0.00     0.056 A 
ATOM      7  C   UNL A   1      27.737  26.757  23.873  1.00  0.00     0.031 A 
ATOM      8  C   UNL A   1      27.012  27.911  23.568  1.00  0.00     0.048 A 
ATOM      9  C   UNL A   1      29.047  29.012  22.905  1.00  0.00     0.064 A 
ATOM     10  C   UNL A   1      27.673  29.034  23.098  1.00  0.00     0.116 A 
BRANCH   6  11
ATOM     11  N   UNL A   1      29.758  25.518  24.139  1.00  0.00    -0.322 N 
ATOM     12  O   UNL A   1      30.334  26.094  26.305  1.00  0.00    -0.270 OA
ATOM     13  C   UNL A   1      30.407  25.345  25.338  1.00  0.00     0.248 C 
ATOM     14  H   UNL A   1      29.724  24.747  23.529  1.00  0.00     0.170 HD
BRANCH  13  15
ATOM     15  C   UNL A   1      31.197  24.096  25.477  1.00  0.00     0.072 C 
ATOM     16  C   UNL A   1      31.717  23.371  24.474  1.00  0.00     0.014 C 
BRANCH  16  17
ATOM     17  C   UNL A   1      32.555  22.173  24.669  1.00  0.00    -0.025 A 
ATOM     18  C   UNL A   1      33.941  22.287  24.494  1.00  0.00     0.008 A 
ATOM     19  C   UNL A   1      32.025  20.915  24.987  1.00  0.00     0.008 A 
ATOM     20  C   UNL A   1      34.777  21.179  24.658  1.00  0.00     0.001 A 
ATOM     21  C   UNL A   1      32.860  19.808  25.157  1.00  0.00     0.001 A 
ATOM     22  C   UNL A   1      34.236  19.940  24.993  1.00  0.00     0.000 A 
ENDBRANCH  16  17
ENDBRANCH  13  15
ENDBRANCH   6  11
BRANCH  10  23
ATOM     23  O   UNL A   1      26.930  30.138  22.815  1.00  0.00    -0.508 OA
ATOM     24  H   UNL A   1      26.089  30.253  23.214  1.00  0.00     0.293 HD
ENDBRANCH  10  23
ENDBRANCH   3   5
ENDBRANCH   2   3
ENDBRANCH   1   2
BRANCH   1  25
ATOM     25  C   UNL A   1      31.930  30.057  25.385  1.00  0.00     0.275 C 
BRANCH  25  26
ATOM     26  O   UNL A   1      32.630  30.025  26.639  1.00  0.00    -0.458 OA
BRANCH  26  27
ATOM     27  C   UNL A   1      33.123  31.202  27.069  1.00  0.00     0.338 C 
ATOM     28  O   UNL A   1      32.579  32.297  27.080  1.00  0.00    -0.246 OA
BRANCH  27  29
ATOM     29  C   UNL A   1      34.456  30.963  27.628  1.00  0.00     0.060 A 
ATOM     30  C   UNL A   1      34.813  29.653  27.939  1.00  0.00     0.016 A 
ATOM     31  C   UNL A   1      35.305  32.023  27.936  1.00  0.00     0.016 A 
ATOM     32  C   UNL A   1      36.000  29.390  28.613  1.00  0.00     0.010 A 
ATOM     33  C   UNL A   1      36.527  31.754  28.561  1.00  0.00     0.010 A 
ATOM     34  C   UNL A   1      36.871  30.439  28.933  1.00  0.00    -0.014 A 
BRANCH  34  35
ATOM     35  C   UNL A   1      38.100  30.175  29.726  1.00  0.00     0.031 A 
ATOM     36  C   UNL A   1      39.184  29.310  29.145  1.00  0.00     0.074 A 
ATOM     37  C   UNL A   1      38.262  30.715  30.948  1.00  0.00     0.049 A 
ATOM     38  N   UNL A   1      40.237  28.795  29.725  1.00  0.00    -0.248 NA
ATOM     39  C   UNL A   1      39.056  28.967  27.720  1.00  0.00     0.031 C 
ATOM     40  C   UNL A   1      37.318  31.618  31.608  1.00  0.00     0.029 A 
ATOM     41  N   UNL A   1      39.285  30.581  31.856  1.00  0.00    -0.354 N 
ATOM     42  C   UNL A   1      40.856  28.013  28.758  1.00  0.00     0.074 A 
ATOM     43  C   UNL A   1      40.068  28.130  27.550  1.00  0.00     0.031 C 
ATOM     44  C   UNL A   1      37.815  31.975  32.802  1.00  0.00     0.029 A 
ATOM     45  C   UNL A   1      39.071  31.265  33.027  1.00  0.00     0.049 A 
ATOM     46  H   UNL A   1      40.093  30.047  31.683  1.00  0.00     0.167 HD
ATOM     47  C   UNL A   1      41.975  27.260  28.876  1.00  0.00     0.037 A 
ATOM     48  C   UNL A   1      39.783  31.283  34.170  1.00  0.00     0.037 A 
ATOM     49  C   UNL A   1      42.791  27.200  30.059  1.00  0.00     0.049 A 
ATOM     50  C   UNL A   1      41.023  30.441  34.278  1.00  0.00     0.074 A 
ATOM     51  C   UNL A   1      43.958  26.486  30.271  1.00  0.00     0.029 A 
ATOM     52  N   UNL A   1      42.534  27.901  31.229  1.00  0.00    -0.354 N 
ATOM     53  N   UNL A   1      41.566  29.652  33.383  1.00  0.00    -0.248 NA
ATOM     54  C   UNL A   1      41.738  30.475  35.561  1.00  0.00     0.031 C 
ATOM     55  C   UNL A   1      44.391  26.733  31.579  1.00  0.00     0.029 A 
ATOM     56  C   UNL A   1      43.514  27.630  32.169  1.00  0.00     0.049 A 
ATOM     57  H   UNL A   1      41.767  28.502  31.370  1.00  0.00     0.167 HD
ATOM     58  C   UNL A   1      42.684  29.097  33.990  1.00  0.00     0.074 A 
ATOM     59  C   UNL A   1      42.756  29.659  35.323  1.00  0.00     0.031 C 
ATOM     60  C   UNL A   1      43.566  28.198  33.491  1.00  0.00     0.037 A 
BRANCH  47  61
ATOM     61  C   UNL A   1      42.357  26.402  27.706  1.00  0.00     0.064 A 
ATOM     62  C   UNL A   1      43.330  26.796  26.777  1.00  0.00     0.173 A 
ATOM     63  C   UNL A   1      41.749  25.149  27.529  1.00  0.00     0.173 A 
ATOM     64  F   UNL A   1      43.928  27.991  26.893  1.00  0.00    -0.203 F 
ATOM     65  C   UNL A   1      43.661  25.979  25.699  1.00  0.00     0.198 A 
ATOM     66  C   UNL A   1      42.102  24.323  26.466  1.00  0.00     0.198 A 
ATOM     67  F   UNL A   1      40.815  24.723  28.392  1.00  0.00    -0.203 F 
ATOM     68  F   UNL A   1      44.560  26.395  24.796  1.00  0.00    -0.200 F 
ATOM     69  C   UNL A   1      43.052  24.742  25.546  1.00  0.00     0.200 A 
ATOM     70  F   UNL A   1      41.518  23.124  26.327  1.00  0.00    -0.200 F 
ATOM     71  F   UNL A   1      43.375  23.956  24.510  1.00  0.00    -0.200 F 
ENDBRANCH  47  61
BRANCH  48  72
ATOM     72  C   UNL A   1      39.309  32.101  35.316  1.00  0.00     0.064 A 
ATOM     73  C   UNL A   1      39.638  33.458  35.421  1.00  0.00     0.173 A 
ATOM     74  C   UNL A   1      38.499  31.545  36.319  1.00  0.00     0.173 A 
ATOM     75  F   UNL A   1      40.434  34.026  34.503  1.00  0.00    -0.203 F 
ATOM     76  C   UNL A   1      39.176  34.230  36.486  1.00  0.00     0.198 A 
ATOM     77  C   UNL A   1      38.015  32.324  37.367  1.00  0.00     0.198 A 
ATOM     78  F   UNL A   1      38.159  30.249  36.266  1.00  0.00    -0.203 F 
ATOM     79  F   UNL A   1      39.531  35.518  36.579  1.00  0.00    -0.200 F 
ATOM     80  C   UNL A   1      38.357  33.665  37.451  1.00  0.00     0.200 A 
ATOM     81  F   UNL A   1      37.213  31.777  38.291  1.00  0.00    -0.200 F 
ATOM     82  F   UNL A   1      37.902  34.411  38.467  1.00  0.00    -0.200 F 
ENDBRANCH  48  72
BRANCH  60  83
ATOM     83  C   UNL A   1      44.694  27.780  34.386  1.00  0.00     0.064 A 
ATOM     84  C   UNL A   1      45.896  28.499  34.430  1.00  0.00     0.173 A 
ATOM     85  C   UNL A   1      44.555  26.671  35.235  1.00  0.00     0.173 A 
ATOM     86  F   UNL A   1      46.080  29.557  33.626  1.00  0.00    -0.203 F 
ATOM     87  C   UNL A   1      46.929  28.111  35.280  1.00  0.00     0.198 A 
ATOM     88  C   UNL A   1      45.581  26.300  36.098  1.00  0.00     0.198 A 
ATOM     89  F   UNL A   1      43.420  25.955  35.230  1.00  0.00    -0.203 F 
ATOM     90  F   UNL A   1      48.085  28.789  35.279  1.00  0.00    -0.200 F 
ATOM     91  C   UNL A   1      46.768  27.016  36.116  1.00  0.00     0.200 A 
ATOM     92  F   UNL A   1      45.422  25.247  36.911  1.00  0.00    -0.200 F 
ATOM     93  F   UNL A   1      47.762  26.646  36.935  1.00  0.00    -0.200 F 
ENDBRANCH  60  83
ENDBRANCH  34  35
ENDBRANCH  27  29
ENDBRANCH  26  27
ENDBRANCH  25  26
ENDBRANCH   1  25
TORSDOF 15
ENDMDL
