MODEL 1
REMARK VINA RESULT:     -11.3      0.000      0.000
REMARK SMILES O=C(CSc1ccnc(C(=O)OCCOC(=O)c2ccc(-c3c4nc(c(-c5c(F)c(F)c(F)c(F)c5F)c5ccc([nH]5)c(-c5c(F)c(F)c(F)c(F)c5F)c5nc(c(-c6c(F)c(F)c(F)c(F)c6F)c6ccc3[nH]6)C=C5)C=C4)cc2)c1)NNc1ccccn1
REMARK SMILES IDX 12 1 10 2 11 3 9 4 5 5 6 6 81 7 7 8 8 9 4 10 3 11 2 12 1 13
REMARK SMILES IDX 82 14 83 16 84 18 85 19 89 20 86 21 88 22 87 23 13 24 14 25
REMARK SMILES IDX 15 26 16 27 17 28 18 29 19 30 80 31 20 32 79 33 21 34 22 35
REMARK SMILES IDX 23 36 73 37 24 38 78 39 72 40 74 41 25 42 77 43 71 44 70 45
REMARK SMILES IDX 26 47 58 48 38 49 57 50 39 51 42 52 56 53 75 54 40 55 41 56
REMARK SMILES IDX 55 58 76 59 43 60 27 61 28 62 36 63 29 64 30 65 34 66 37 67
REMARK SMILES IDX 31 68 32 69 35 70 33 71 59 72 60 73 68 74 61 75 62 76 66 77
REMARK SMILES IDX 69 78 63 79 64 80 67 81 65 82 44 83 45 84 53 85 46 86 47 87
REMARK SMILES IDX 51 88 54 89 48 90 49 91 52 92 50 93
REMARK H PARENT 82 15 83 17 74 46 42 57
REMARK Flexibility Score: inf
ROOT
ATOM      1  O   UNL A   1      33.687  33.870  29.112  1.00  0.00    -0.457 OA
ENDROOT
BRANCH   1   2
ATOM      2  C   UNL A   1      34.933  33.417  28.806  1.00  0.00     0.357 C 
ATOM      3  O   UNL A   1      35.977  34.019  29.007  1.00  0.00    -0.244 OA
BRANCH   2   4
ATOM      4  C   UNL A   1      34.881  32.019  28.277  1.00  0.00     0.149 A 
ATOM      5  C   UNL A   1      33.766  30.069  27.475  1.00  0.00     0.012 A 
ATOM      6  C   UNL A   1      35.015  29.483  27.273  1.00  0.00     0.035 A 
ATOM      7  C   UNL A   1      33.691  31.363  28.001  1.00  0.00     0.051 A 
ATOM      8  C   UNL A   1      36.145  30.206  27.585  1.00  0.00     0.113 A 
ATOM      9  N   UNL A   1      36.101  31.464  28.048  1.00  0.00    -0.249 NA
BRANCH   5  10
ATOM     10  S   UNL A   1      32.279  29.243  26.925  1.00  0.00    -0.116 SA
BRANCH  10  11
ATOM     11  C   UNL A   1      32.935  28.120  25.643  1.00  0.00     0.176 C 
BRANCH  11  12
ATOM     12  C   UNL A   1      32.124  28.111  24.361  1.00  0.00     0.248 C 
ATOM     13  O   UNL A   1      31.546  27.094  23.975  1.00  0.00    -0.272 OA
ATOM     14  N   UNL A   1      32.023  29.330  23.713  1.00  0.00    -0.268 N 
ATOM     15  H   UNL A   1      32.457  30.136  24.075  1.00  0.00     0.191 HD
BRANCH  14  16
ATOM     16  N   UNL A   1      31.288  29.375  22.536  1.00  0.00    -0.282 N 
ATOM     17  H   UNL A   1      31.670  29.008  21.705  1.00  0.00     0.190 HD
BRANCH  16  18
ATOM     18  C   UNL A   1      30.014  29.938  22.525  1.00  0.00     0.144 A 
ATOM     19  C   UNL A   1      29.514  30.687  23.588  1.00  0.00     0.048 A 
ATOM     20  N   UNL A   1      29.292  29.734  21.404  1.00  0.00    -0.238 NA
ATOM     21  C   UNL A   1      28.231  31.227  23.501  1.00  0.00     0.005 A 
ATOM     22  C   UNL A   1      28.046  30.257  21.344  1.00  0.00     0.113 A 
ATOM     23  C   UNL A   1      27.476  31.001  22.359  1.00  0.00     0.020 A 
ENDBRANCH  16  18
ENDBRANCH  14  16
ENDBRANCH  11  12
ENDBRANCH  10  11
ENDBRANCH   5  10
ENDBRANCH   2   4
ENDBRANCH   1   2
BRANCH   1  24
ATOM     24  C   UNL A   1      33.352  35.158  28.557  1.00  0.00     0.275 C 
BRANCH  24  25
ATOM     25  C   UNL A   1      32.903  36.144  29.641  1.00  0.00     0.275 C 
BRANCH  25  26
ATOM     26  O   UNL A   1      32.293  35.463  30.753  1.00  0.00    -0.458 OA
BRANCH  26  27
ATOM     27  C   UNL A   1      32.656  35.907  31.979  1.00  0.00     0.338 C 
ATOM     28  O   UNL A   1      32.119  36.773  32.646  1.00  0.00    -0.246 OA
BRANCH  27  29
ATOM     29  C   UNL A   1      33.801  35.121  32.463  1.00  0.00     0.060 A 
ATOM     30  C   UNL A   1      35.066  35.695  32.384  1.00  0.00     0.016 A 
ATOM     31  C   UNL A   1      33.653  33.806  32.900  1.00  0.00     0.016 A 
ATOM     32  C   UNL A   1      36.199  34.960  32.713  1.00  0.00     0.010 A 
ATOM     33  C   UNL A   1      34.790  33.077  33.277  1.00  0.00     0.010 A 
ATOM     34  C   UNL A   1      36.073  33.647  33.178  1.00  0.00    -0.014 A 
BRANCH  34  35
ATOM     35  C   UNL A   1      37.287  32.886  33.567  1.00  0.00     0.031 A 
ATOM     36  C   UNL A   1      37.960  33.149  34.882  1.00  0.00     0.074 A 
ATOM     37  C   UNL A   1      37.768  31.934  32.745  1.00  0.00     0.049 A 
ATOM     38  N   UNL A   1      39.090  32.675  35.344  1.00  0.00    -0.248 NA
ATOM     39  C   UNL A   1      37.272  34.067  35.803  1.00  0.00     0.031 C 
ATOM     40  C   UNL A   1      37.169  31.540  31.470  1.00  0.00     0.029 A 
ATOM     41  N   UNL A   1      38.870  31.123  32.861  1.00  0.00    -0.354 N 
ATOM     42  C   UNL A   1      39.264  33.257  36.591  1.00  0.00     0.074 A 
ATOM     43  C   UNL A   1      38.127  34.125  36.816  1.00  0.00     0.031 C 
ATOM     44  C   UNL A   1      37.900  30.554  30.928  1.00  0.00     0.029 A 
ATOM     45  C   UNL A   1      39.054  30.295  31.781  1.00  0.00     0.049 A 
ATOM     46  H   UNL A   1      39.469  31.135  33.642  1.00  0.00     0.167 HD
ATOM     47  C   UNL A   1      40.283  33.081  37.467  1.00  0.00     0.037 A 
ATOM     48  C   UNL A   1      40.062  29.452  31.491  1.00  0.00     0.037 A 
ATOM     49  C   UNL A   1      41.396  32.194  37.253  1.00  0.00     0.049 A 
ATOM     50  C   UNL A   1      41.219  29.333  32.442  1.00  0.00     0.074 A 
ATOM     51  C   UNL A   1      42.465  31.929  38.092  1.00  0.00     0.029 A 
ATOM     52  N   UNL A   1      41.581  31.420  36.116  1.00  0.00    -0.354 N 
ATOM     53  N   UNL A   1      41.394  29.913  33.605  1.00  0.00    -0.248 NA
ATOM     54  C   UNL A   1      42.328  28.461  32.032  1.00  0.00     0.031 C 
ATOM     55  C   UNL A   1      43.317  31.026  37.446  1.00  0.00     0.029 A 
ATOM     56  C   UNL A   1      42.761  30.701  36.219  1.00  0.00     0.049 A 
ATOM     57  H   UNL A   1      40.965  31.389  35.348  1.00  0.00     0.167 HD
ATOM     58  C   UNL A   1      42.627  29.476  34.066  1.00  0.00     0.074 A 
ATOM     59  C   UNL A   1      43.149  28.566  33.068  1.00  0.00     0.031 C 
ATOM     60  C   UNL A   1      43.271  29.808  35.212  1.00  0.00     0.037 A 
BRANCH  47  61
ATOM     61  C   UNL A   1      40.261  33.893  38.727  1.00  0.00     0.064 A 
ATOM     62  C   UNL A   1      39.571  33.465  39.870  1.00  0.00     0.173 A 
ATOM     63  C   UNL A   1      40.975  35.098  38.801  1.00  0.00     0.173 A 
ATOM     64  F   UNL A   1      38.865  32.326  39.845  1.00  0.00    -0.203 F 
ATOM     65  C   UNL A   1      39.581  34.226  41.036  1.00  0.00     0.198 A 
ATOM     66  C   UNL A   1      41.002  35.846  39.975  1.00  0.00     0.198 A 
ATOM     67  F   UNL A   1      41.656  35.547  37.736  1.00  0.00    -0.203 F 
ATOM     68  F   UNL A   1      38.888  33.817  42.108  1.00  0.00    -0.200 F 
ATOM     69  C   UNL A   1      40.301  35.412  41.090  1.00  0.00     0.200 A 
ATOM     70  F   UNL A   1      41.706  36.984  40.028  1.00  0.00    -0.200 F 
ATOM     71  F   UNL A   1      40.314  36.139  42.215  1.00  0.00    -0.200 F 
ENDBRANCH  47  61
BRANCH  48  72
ATOM     72  C   UNL A   1      40.039  28.691  30.216  1.00  0.00     0.064 A 
ATOM     73  C   UNL A   1      40.628  29.209  29.056  1.00  0.00     0.173 A 
ATOM     74  C   UNL A   1      39.440  27.425  30.136  1.00  0.00     0.173 A 
ATOM     75  F   UNL A   1      41.188  30.427  29.075  1.00  0.00    -0.203 F 
ATOM     76  C   UNL A   1      40.618  28.488  27.863  1.00  0.00     0.198 A 
ATOM     77  C   UNL A   1      39.453  26.695  28.952  1.00  0.00     0.198 A 
ATOM     78  F   UNL A   1      38.856  26.889  31.219  1.00  0.00    -0.203 F 
ATOM     79  F   UNL A   1      41.160  29.018  26.757  1.00  0.00    -0.200 F 
ATOM     80  C   UNL A   1      40.039  27.228  27.814  1.00  0.00     0.200 A 
ATOM     81  F   UNL A   1      38.901  25.474  28.912  1.00  0.00    -0.200 F 
ATOM     82  F   UNL A   1      40.038  26.533  26.668  1.00  0.00    -0.200 F 
ENDBRANCH  48  72
BRANCH  60  83
ATOM     83  C   UNL A   1      44.611  29.178  35.447  1.00  0.00     0.064 A 
ATOM     84  C   UNL A   1      45.794  29.812  35.040  1.00  0.00     0.173 A 
ATOM     85  C   UNL A   1      44.716  27.951  36.118  1.00  0.00     0.173 A 
ATOM     86  F   UNL A   1      45.741  30.978  34.377  1.00  0.00    -0.203 F 
ATOM     87  C   UNL A   1      47.035  29.231  35.284  1.00  0.00     0.198 A 
ATOM     88  C   UNL A   1      45.960  27.384  36.380  1.00  0.00     0.198 A 
ATOM     89  F   UNL A   1      43.612  27.309  36.528  1.00  0.00    -0.203 F 
ATOM     90  F   UNL A   1      48.151  29.837  34.856  1.00  0.00    -0.200 F 
ATOM     91  C   UNL A   1      47.117  28.022  35.960  1.00  0.00     0.200 A 
ATOM     92  F   UNL A   1      46.038  26.220  37.038  1.00  0.00    -0.200 F 
ATOM     93  F   UNL A   1      48.313  27.468  36.199  1.00  0.00    -0.200 F 
ENDBRANCH  60  83
ENDBRANCH  34  35
ENDBRANCH  27  29
ENDBRANCH  26  27
ENDBRANCH  25  26
ENDBRANCH  24  25
ENDBRANCH   1  24
TORSDOF 16
ENDMDL
MODEL 2
REMARK VINA RESULT:     -11.1      8.101     12.824
REMARK SMILES O=C(CSc1ccnc(C(=O)OCCOC(=O)c2ccc(-c3c4nc(c(-c5c(F)c(F)c(F)c(F)c5F)c5ccc([nH]5)c(-c5c(F)c(F)c(F)c(F)c5F)c5nc(c(-c6c(F)c(F)c(F)c(F)c6F)c6ccc3[nH]6)C=C5)C=C4)cc2)c1)NNc1ccccn1
REMARK SMILES IDX 12 1 10 2 11 3 9 4 5 5 6 6 81 7 7 8 8 9 4 10 3 11 2 12 1 13
REMARK SMILES IDX 82 14 83 16 84 18 85 19 89 20 86 21 88 22 87 23 13 24 14 25
REMARK SMILES IDX 15 26 16 27 17 28 18 29 19 30 80 31 20 32 79 33 21 34 22 35
REMARK SMILES IDX 23 36 73 37 24 38 78 39 72 40 74 41 25 42 77 43 71 44 70 45
REMARK SMILES IDX 26 47 58 48 38 49 57 50 39 51 42 52 56 53 75 54 40 55 41 56
REMARK SMILES IDX 55 58 76 59 43 60 27 61 28 62 36 63 29 64 30 65 34 66 37 67
REMARK SMILES IDX 31 68 32 69 35 70 33 71 59 72 60 73 68 74 61 75 62 76 66 77
REMARK SMILES IDX 69 78 63 79 64 80 67 81 65 82 44 83 45 84 53 85 46 86 47 87
REMARK SMILES IDX 51 88 54 89 48 90 49 91 52 92 50 93
REMARK H PARENT 82 15 83 17 74 46 42 57
REMARK Flexibility Score: inf
ROOT
ATOM      1  O   UNL A   1      41.575  20.316  26.216  1.00  0.00    -0.457 OA
ENDROOT
BRANCH   1   2
ATOM      2  C   UNL A   1      40.245  20.258  25.941  1.00  0.00     0.357 C 
ATOM      3  O   UNL A   1      39.625  19.251  25.634  1.00  0.00    -0.244 OA
BRANCH   2   4
ATOM      4  C   UNL A   1      39.592  21.585  26.166  1.00  0.00     0.149 A 
ATOM      5  C   UNL A   1      37.828  23.174  25.935  1.00  0.00     0.012 A 
ATOM      6  C   UNL A   1      38.559  24.048  26.738  1.00  0.00     0.035 A 
ATOM      7  C   UNL A   1      38.356  21.916  25.628  1.00  0.00     0.051 A 
ATOM      8  C   UNL A   1      39.783  23.639  27.220  1.00  0.00     0.113 A 
ATOM      9  N   UNL A   1      40.292  22.422  26.977  1.00  0.00    -0.249 NA
BRANCH   5  10
ATOM     10  S   UNL A   1      36.164  23.588  25.430  1.00  0.00    -0.116 SA
BRANCH  10  11
ATOM     11  C   UNL A   1      35.172  22.468  26.477  1.00  0.00     0.176 C 
BRANCH  11  12
ATOM     12  C   UNL A   1      34.094  21.714  25.722  1.00  0.00     0.248 C 
ATOM     13  O   UNL A   1      33.784  22.020  24.570  1.00  0.00    -0.272 OA
ATOM     14  N   UNL A   1      33.551  20.629  26.388  1.00  0.00    -0.268 N 
ATOM     15  H   UNL A   1      33.855  20.382  27.291  1.00  0.00     0.191 HD
BRANCH  14  16
ATOM     16  N   UNL A   1      32.561  19.903  25.738  1.00  0.00    -0.282 N 
ATOM     17  H   UNL A   1      31.652  20.275  25.659  1.00  0.00     0.190 HD
BRANCH  16  18
ATOM     18  C   UNL A   1      32.849  18.652  25.199  1.00  0.00     0.144 A 
ATOM     19  C   UNL A   1      33.561  18.490  24.012  1.00  0.00     0.048 A 
ATOM     20  N   UNL A   1      32.414  17.592  25.911  1.00  0.00    -0.238 NA
ATOM     21  C   UNL A   1      33.817  17.203  23.538  1.00  0.00     0.005 A 
ATOM     22  C   UNL A   1      32.663  16.354  25.429  1.00  0.00     0.113 A 
ATOM     23  C   UNL A   1      33.352  16.111  24.256  1.00  0.00     0.020 A 
ENDBRANCH  16  18
ENDBRANCH  14  16
ENDBRANCH  11  12
ENDBRANCH  10  11
ENDBRANCH   5  10
ENDBRANCH   2   4
ENDBRANCH   1   2
BRANCH   1  24
ATOM     24  C   UNL A   1      42.158  19.080  26.679  1.00  0.00     0.275 C 
BRANCH  24  25
ATOM     25  C   UNL A   1      43.261  18.585  25.737  1.00  0.00     0.275 C 
BRANCH  25  26
ATOM     26  O   UNL A   1      43.350  19.400  24.554  1.00  0.00    -0.458 OA
BRANCH  26  27
ATOM     27  C   UNL A   1      44.591  19.839  24.239  1.00  0.00     0.338 C 
ATOM     28  O   UNL A   1      45.421  19.287  23.539  1.00  0.00    -0.246 OA
BRANCH  27  29
ATOM     29  C   UNL A   1      44.798  21.173  24.823  1.00  0.00     0.060 A 
ATOM     30  C   UNL A   1      44.554  22.282  24.018  1.00  0.00     0.016 A 
ATOM     31  C   UNL A   1      45.313  21.338  26.107  1.00  0.00     0.016 A 
ATOM     32  C   UNL A   1      44.845  23.564  24.471  1.00  0.00     0.010 A 
ATOM     33  C   UNL A   1      45.563  22.633  26.584  1.00  0.00     0.010 A 
ATOM     34  C   UNL A   1      45.338  23.755  25.765  1.00  0.00    -0.014 A 
BRANCH  34  35
ATOM     35  C   UNL A   1      45.604  25.132  26.254  1.00  0.00     0.031 A 
ATOM     36  C   UNL A   1      44.507  25.942  26.878  1.00  0.00     0.074 A 
ATOM     37  C   UNL A   1      46.847  25.643  26.160  1.00  0.00     0.049 A 
ATOM     38  N   UNL A   1      44.515  27.197  27.253  1.00  0.00    -0.248 NA
ATOM     39  C   UNL A   1      43.230  25.252  27.113  1.00  0.00     0.031 C 
ATOM     40  C   UNL A   1      48.013  24.933  25.632  1.00  0.00     0.029 A 
ATOM     41  N   UNL A   1      47.338  26.876  26.509  1.00  0.00    -0.354 N 
ATOM     42  C   UNL A   1      43.242  27.456  27.739  1.00  0.00     0.074 A 
ATOM     43  C   UNL A   1      42.482  26.229  27.608  1.00  0.00     0.031 C 
ATOM     44  C   UNL A   1      49.085  25.737  25.705  1.00  0.00     0.029 A 
ATOM     45  C   UNL A   1      48.670  27.037  26.219  1.00  0.00     0.049 A 
ATOM     46  H   UNL A   1      46.786  27.578  26.927  1.00  0.00     0.167 HD
ATOM     47  C   UNL A   1      42.754  28.612  28.248  1.00  0.00     0.037 A 
ATOM     48  C   UNL A   1      49.460  28.123  26.316  1.00  0.00     0.037 A 
ATOM     49  C   UNL A   1      43.521  29.820  28.404  1.00  0.00     0.049 A 
ATOM     50  C   UNL A   1      48.874  29.416  26.810  1.00  0.00     0.074 A 
ATOM     51  C   UNL A   1      43.122  31.037  28.932  1.00  0.00     0.029 A 
ATOM     52  N   UNL A   1      44.852  29.963  28.037  1.00  0.00    -0.354 N 
ATOM     53  N   UNL A   1      47.659  29.662  27.236  1.00  0.00    -0.248 NA
ATOM     54  C   UNL A   1      49.762  30.586  26.815  1.00  0.00     0.031 C 
ATOM     55  C   UNL A   1      44.200  31.927  28.847  1.00  0.00     0.029 A 
ATOM     56  C   UNL A   1      45.280  31.255  28.299  1.00  0.00     0.049 A 
ATOM     57  H   UNL A   1      45.409  29.251  27.646  1.00  0.00     0.167 HD
ATOM     58  C   UNL A   1      47.637  31.010  27.562  1.00  0.00     0.074 A 
ATOM     59  C   UNL A   1      48.965  31.526  27.305  1.00  0.00     0.031 C 
ATOM     60  C   UNL A   1      46.603  31.754  28.026  1.00  0.00     0.037 A 
BRANCH  47  61
ATOM     61  C   UNL A   1      41.308  28.641  28.641  1.00  0.00     0.064 A 
ATOM     62  C   UNL A   1      40.304  29.023  27.739  1.00  0.00     0.173 A 
ATOM     63  C   UNL A   1      40.919  28.242  29.928  1.00  0.00     0.173 A 
ATOM     64  F   UNL A   1      40.626  29.422  26.500  1.00  0.00    -0.203 F 
ATOM     65  C   UNL A   1      38.964  29.023  28.120  1.00  0.00     0.198 A 
ATOM     66  C   UNL A   1      39.577  28.222  30.299  1.00  0.00     0.198 A 
ATOM     67  F   UNL A   1      41.842  27.862  30.825  1.00  0.00    -0.203 F 
ATOM     68  F   UNL A   1      38.022  29.423  27.255  1.00  0.00    -0.200 F 
ATOM     69  C   UNL A   1      38.602  28.617  29.397  1.00  0.00     0.200 A 
ATOM     70  F   UNL A   1      39.229  27.819  31.529  1.00  0.00    -0.200 F 
ATOM     71  F   UNL A   1      37.312  28.612  29.759  1.00  0.00    -0.200 F 
ENDBRANCH  47  61
BRANCH  48  72
ATOM     72  C   UNL A   1      50.879  28.039  25.890  1.00  0.00     0.064 A 
ATOM     73  C   UNL A   1      51.905  27.869  26.828  1.00  0.00     0.173 A 
ATOM     74  C   UNL A   1      51.236  28.114  24.535  1.00  0.00     0.173 A 
ATOM     75  F   UNL A   1      51.617  27.821  28.136  1.00  0.00    -0.203 F 
ATOM     76  C   UNL A   1      53.237  27.777  26.426  1.00  0.00     0.198 A 
ATOM     77  C   UNL A   1      52.563  27.997  24.133  1.00  0.00     0.198 A 
ATOM     78  F   UNL A   1      50.290  28.285  23.600  1.00  0.00    -0.203 F 
ATOM     79  F   UNL A   1      54.204  27.646  27.344  1.00  0.00    -0.200 F 
ATOM     80  C   UNL A   1      53.564  27.832  25.078  1.00  0.00     0.200 A 
ATOM     81  F   UNL A   1      52.873  28.041  22.829  1.00  0.00    -0.200 F 
ATOM     82  F   UNL A   1      54.843  27.735  24.692  1.00  0.00    -0.200 F 
ENDBRANCH  48  72
BRANCH  60  83
ATOM     83  C   UNL A   1      46.872  33.205  28.288  1.00  0.00     0.064 A 
ATOM     84  C   UNL A   1      47.375  33.640  29.523  1.00  0.00     0.173 A 
ATOM     85  C   UNL A   1      46.661  34.162  27.286  1.00  0.00     0.173 A 
ATOM     86  F   UNL A   1      47.574  32.762  30.518  1.00  0.00    -0.203 F 
ATOM     87  C   UNL A   1      47.645  34.987  29.748  1.00  0.00     0.198 A 
ATOM     88  C   UNL A   1      46.953  35.505  27.508  1.00  0.00     0.198 A 
ATOM     89  F   UNL A   1      46.182  33.794  26.089  1.00  0.00    -0.203 F 
ATOM     90  F   UNL A   1      48.093  35.386  30.947  1.00  0.00    -0.200 F 
ATOM     91  C   UNL A   1      47.440  35.917  28.740  1.00  0.00     0.200 A 
ATOM     92  F   UNL A   1      46.761  36.402  26.531  1.00  0.00    -0.200 F 
ATOM     93  F   UNL A   1      47.706  37.212  28.957  1.00  0.00    -0.200 F 
ENDBRANCH  60  83
ENDBRANCH  34  35
ENDBRANCH  27  29
ENDBRANCH  26  27
ENDBRANCH  25  26
ENDBRANCH  24  25
ENDBRANCH   1  24
TORSDOF 16
ENDMDL
MODEL 3
REMARK VINA RESULT:     -11.1      5.352     10.112
REMARK SMILES O=C(CSc1ccnc(C(=O)OCCOC(=O)c2ccc(-c3c4nc(c(-c5c(F)c(F)c(F)c(F)c5F)c5ccc([nH]5)c(-c5c(F)c(F)c(F)c(F)c5F)c5nc(c(-c6c(F)c(F)c(F)c(F)c6F)c6ccc3[nH]6)C=C5)C=C4)cc2)c1)NNc1ccccn1
REMARK SMILES IDX 12 1 10 2 11 3 9 4 5 5 6 6 81 7 7 8 8 9 4 10 3 11 2 12 1 13
REMARK SMILES IDX 82 14 83 16 84 18 85 19 89 20 86 21 88 22 87 23 13 24 14 25
REMARK SMILES IDX 15 26 16 27 17 28 18 29 19 30 80 31 20 32 79 33 21 34 22 35
REMARK SMILES IDX 23 36 73 37 24 38 78 39 72 40 74 41 25 42 77 43 71 44 70 45
REMARK SMILES IDX 26 47 58 48 38 49 57 50 39 51 42 52 56 53 75 54 40 55 41 56
REMARK SMILES IDX 55 58 76 59 43 60 27 61 28 62 36 63 29 64 30 65 34 66 37 67
REMARK SMILES IDX 31 68 32 69 35 70 33 71 59 72 60 73 68 74 61 75 62 76 66 77
REMARK SMILES IDX 69 78 63 79 64 80 67 81 65 82 44 83 45 84 53 85 46 86 47 87
REMARK SMILES IDX 51 88 54 89 48 90 49 91 52 92 50 93
REMARK H PARENT 82 15 83 17 74 46 42 57
REMARK Flexibility Score: inf
ROOT
ATOM      1  O   UNL A   1      41.555  21.217  25.714  1.00  0.00    -0.457 OA
ENDROOT
BRANCH   1   2
ATOM      2  C   UNL A   1      40.656  21.215  26.734  1.00  0.00     0.357 C 
ATOM      3  O   UNL A   1      40.773  20.600  27.784  1.00  0.00    -0.244 OA
BRANCH   2   4
ATOM      4  C   UNL A   1      39.529  22.159  26.459  1.00  0.00     0.149 A 
ATOM      5  C   UNL A   1      37.448  22.786  25.476  1.00  0.00     0.012 A 
ATOM      6  C   UNL A   1      37.552  24.014  26.128  1.00  0.00     0.035 A 
ATOM      7  C   UNL A   1      38.463  21.836  25.632  1.00  0.00     0.051 A 
ATOM      8  C   UNL A   1      38.652  24.252  26.923  1.00  0.00     0.113 A 
ATOM      9  N   UNL A   1      39.617  23.342  27.123  1.00  0.00    -0.249 NA
BRANCH   5  10
ATOM     10  S   UNL A   1      35.962  22.362  24.577  1.00  0.00    -0.116 SA
BRANCH  10  11
ATOM     11  C   UNL A   1      34.666  22.769  25.797  1.00  0.00     0.176 C 
BRANCH  11  12
ATOM     12  C   UNL A   1      33.530  21.764  25.844  1.00  0.00     0.248 C 
ATOM     13  O   UNL A   1      32.362  22.106  25.660  1.00  0.00    -0.272 OA
ATOM     14  N   UNL A   1      33.912  20.446  26.031  1.00  0.00    -0.268 N 
ATOM     15  H   UNL A   1      34.859  20.199  26.126  1.00  0.00     0.191 HD
BRANCH  14  16
ATOM     16  N   UNL A   1      32.909  19.486  26.079  1.00  0.00    -0.282 N 
ATOM     17  H   UNL A   1      32.097  19.652  26.611  1.00  0.00     0.190 HD
BRANCH  16  18
ATOM     18  C   UNL A   1      33.048  18.290  25.379  1.00  0.00     0.144 A 
ATOM     19  C   UNL A   1      33.526  18.235  24.072  1.00  0.00     0.048 A 
ATOM     20  N   UNL A   1      32.712  17.172  26.055  1.00  0.00    -0.238 NA
ATOM     21  C   UNL A   1      33.646  16.998  23.438  1.00  0.00     0.005 A 
ATOM     22  C   UNL A   1      32.825  15.984  25.420  1.00  0.00     0.113 A 
ATOM     23  C   UNL A   1      33.280  15.848  24.122  1.00  0.00     0.020 A 
ENDBRANCH  16  18
ENDBRANCH  14  16
ENDBRANCH  11  12
ENDBRANCH  10  11
ENDBRANCH   5  10
ENDBRANCH   2   4
ENDBRANCH   1   2
BRANCH   1  24
ATOM     24  C   UNL A   1      42.900  20.850  26.083  1.00  0.00     0.275 C 
BRANCH  24  25
ATOM     25  C   UNL A   1      43.939  21.759  25.419  1.00  0.00     0.275 C 
BRANCH  25  26
ATOM     26  O   UNL A   1      43.360  23.012  25.012  1.00  0.00    -0.458 OA
BRANCH  26  27
ATOM     27  C   UNL A   1      44.150  24.100  25.171  1.00  0.00     0.338 C 
ATOM     28  O   UNL A   1      45.143  24.399  24.530  1.00  0.00    -0.246 OA
BRANCH  27  29
ATOM     29  C   UNL A   1      43.591  24.959  26.225  1.00  0.00     0.060 A 
ATOM     30  C   UNL A   1      43.926  26.310  26.212  1.00  0.00     0.016 A 
ATOM     31  C   UNL A   1      42.826  24.436  27.266  1.00  0.00     0.016 A 
ATOM     32  C   UNL A   1      43.527  27.148  27.246  1.00  0.00     0.010 A 
ATOM     33  C   UNL A   1      42.383  25.289  28.286  1.00  0.00     0.010 A 
ATOM     34  C   UNL A   1      42.738  26.651  28.287  1.00  0.00    -0.014 A 
BRANCH  34  35
ATOM     35  C   UNL A   1      42.282  27.566  29.364  1.00  0.00     0.031 A 
ATOM     36  C   UNL A   1      43.066  27.692  30.637  1.00  0.00     0.074 A 
ATOM     37  C   UNL A   1      41.171  28.307  29.182  1.00  0.00     0.049 A 
ATOM     38  N   UNL A   1      42.766  28.343  31.733  1.00  0.00    -0.248 NA
ATOM     39  C   UNL A   1      44.359  26.995  30.687  1.00  0.00     0.031 C 
ATOM     40  C   UNL A   1      40.358  28.322  27.967  1.00  0.00     0.029 A 
ATOM     41  N   UNL A   1      40.538  29.193  30.018  1.00  0.00    -0.354 N 
ATOM     42  C   UNL A   1      43.814  28.111  32.611  1.00  0.00     0.074 A 
ATOM     43  C   UNL A   1      44.760  27.254  31.924  1.00  0.00     0.031 C 
ATOM     44  C   UNL A   1      39.342  29.184  28.129  1.00  0.00     0.029 A 
ATOM     45  C   UNL A   1      39.395  29.729  29.481  1.00  0.00     0.049 A 
ATOM     46  H   UNL A   1      40.873  29.421  30.916  1.00  0.00     0.167 HD
ATOM     47  C   UNL A   1      43.972  28.573  33.875  1.00  0.00     0.037 A 
ATOM     48  C   UNL A   1      38.468  30.536  30.030  1.00  0.00     0.037 A 
ATOM     49  C   UNL A   1      43.045  29.449  34.543  1.00  0.00     0.049 A 
ATOM     50  C   UNL A   1      38.625  30.971  31.460  1.00  0.00     0.074 A 
ATOM     51  C   UNL A   1      43.130  29.990  35.814  1.00  0.00     0.029 A 
ATOM     52  N   UNL A   1      41.863  29.918  33.988  1.00  0.00    -0.354 N 
ATOM     53  N   UNL A   1      39.603  30.719  32.296  1.00  0.00    -0.248 NA
ATOM     54  C   UNL A   1      37.541  31.782  32.030  1.00  0.00     0.031 C 
ATOM     55  C   UNL A   1      41.979  30.754  36.044  1.00  0.00     0.029 A 
ATOM     56  C   UNL A   1      41.195  30.717  34.902  1.00  0.00     0.049 A 
ATOM     57  H   UNL A   1      41.545  29.711  33.079  1.00  0.00     0.167 HD
ATOM     58  C   UNL A   1      39.256  31.341  33.486  1.00  0.00     0.074 A 
ATOM     59  C   UNL A   1      37.986  32.000  33.259  1.00  0.00     0.031 C 
ATOM     60  C   UNL A   1      39.928  31.356  34.663  1.00  0.00     0.037 A 
BRANCH  47  61
ATOM     61  C   UNL A   1      45.177  28.109  34.637  1.00  0.00     0.064 A 
ATOM     62  C   UNL A   1      46.342  28.885  34.721  1.00  0.00     0.173 A 
ATOM     63  C   UNL A   1      45.148  26.887  35.324  1.00  0.00     0.173 A 
ATOM     64  F   UNL A   1      46.421  30.056  34.073  1.00  0.00    -0.203 F 
ATOM     65  C   UNL A   1      47.442  28.443  35.452  1.00  0.00     0.198 A 
ATOM     66  C   UNL A   1      46.242  26.458  36.072  1.00  0.00     0.198 A 
ATOM     67  F   UNL A   1      44.055  26.111  35.280  1.00  0.00    -0.203 F 
ATOM     68  F   UNL A   1      48.559  29.183  35.492  1.00  0.00    -0.200 F 
ATOM     69  C   UNL A   1      47.390  27.234  36.130  1.00  0.00     0.200 A 
ATOM     70  F   UNL A   1      46.185  25.296  36.735  1.00  0.00    -0.200 F 
ATOM     71  F   UNL A   1      48.448  26.814  36.837  1.00  0.00    -0.200 F 
ENDBRANCH  47  61
BRANCH  48  72
ATOM     72  C   UNL A   1      37.284  30.944  29.233  1.00  0.00     0.064 A 
ATOM     73  C   UNL A   1      36.241  30.044  28.977  1.00  0.00     0.173 A 
ATOM     74  C   UNL A   1      37.164  32.245  28.723  1.00  0.00     0.173 A 
ATOM     75  F   UNL A   1      36.323  28.780  29.419  1.00  0.00    -0.203 F 
ATOM     76  C   UNL A   1      35.123  30.431  28.240  1.00  0.00     0.198 A 
ATOM     77  C   UNL A   1      36.036  32.639  28.010  1.00  0.00     0.198 A 
ATOM     78  F   UNL A   1      38.139  33.142  28.936  1.00  0.00    -0.203 F 
ATOM     79  F   UNL A   1      34.154  29.543  27.981  1.00  0.00    -0.200 F 
ATOM     80  C   UNL A   1      35.018  31.731  27.765  1.00  0.00     0.200 A 
ATOM     81  F   UNL A   1      35.934  33.898  27.561  1.00  0.00    -0.200 F 
ATOM     82  F   UNL A   1      33.938  32.104  27.064  1.00  0.00    -0.200 F 
ENDBRANCH  48  72
BRANCH  60  83
ATOM     83  C   UNL A   1      39.301  32.114  35.795  1.00  0.00     0.064 A 
ATOM     84  C   UNL A   1      38.430  31.485  36.697  1.00  0.00     0.173 A 
ATOM     85  C   UNL A   1      39.603  33.467  36.002  1.00  0.00     0.173 A 
ATOM     86  F   UNL A   1      38.098  30.196  36.526  1.00  0.00    -0.203 F 
ATOM     87  C   UNL A   1      37.872  32.190  37.759  1.00  0.00     0.198 A 
ATOM     88  C   UNL A   1      39.060  34.163  37.079  1.00  0.00     0.198 A 
ATOM     89  F   UNL A   1      40.432  34.110  35.167  1.00  0.00    -0.203 F 
ATOM     90  F   UNL A   1      37.015  31.580  38.589  1.00  0.00    -0.200 F 
ATOM     91  C   UNL A   1      38.193  33.526  37.953  1.00  0.00     0.200 A 
ATOM     92  F   UNL A   1      39.375  35.452  37.269  1.00  0.00    -0.200 F 
ATOM     93  F   UNL A   1      37.659  34.202  38.980  1.00  0.00    -0.200 F 
ENDBRANCH  60  83
ENDBRANCH  34  35
ENDBRANCH  27  29
ENDBRANCH  26  27
ENDBRANCH  25  26
ENDBRANCH  24  25
ENDBRANCH   1  24
TORSDOF 16
ENDMDL
