MODEL 1
REMARK VINA RESULT:     -12.7      0.000      0.000
REMARK SMILES COc1ccc(C(=O)N[C@H](C(=O)OCCOC(=O)c2ccc(-c3c4nc(c(-c5c(F)c(F)c(F)c(F)c5F)c5ccc([nH]5)c(-c5c(F)c(F)c(F)c(F)c5F)c5nc(c(-c6c(F)c(F)c(F)c(F)c6F)c6ccc3[nH]6)C=C5)C=C4)cc2)C2=C(C)N=N[C@H]2C)c(F)c1F
REMARK SMILES IDX 14 1 13 2 11 3 12 4 10 5 9 6 7 7 8 8 6 10 3 11 4 12 91 13
REMARK SMILES IDX 5 14 89 15 92 16 90 17 2 18 1 19 82 20 83 21 87 22 84 23
REMARK SMILES IDX 85 24 86 25 88 26 15 27 16 28 17 29 18 30 19 31 20 32 81 33
REMARK SMILES IDX 21 34 80 35 22 36 23 37 24 38 74 39 25 40 79 41 73 42 75 43
REMARK SMILES IDX 26 44 78 45 72 46 71 47 27 49 59 50 39 51 58 52 40 53 43 54
REMARK SMILES IDX 57 55 76 56 41 57 42 58 56 60 77 61 44 62 28 63 29 64 37 65
REMARK SMILES IDX 30 66 31 67 35 68 38 69 32 70 33 71 36 72 34 73 60 74 61 75
REMARK SMILES IDX 69 76 62 77 63 78 67 79 70 80 64 81 65 82 68 83 66 84 45 85
REMARK SMILES IDX 46 86 54 87 47 88 48 89 52 90 55 91 49 92 50 93 53 94 51 95
REMARK H PARENT 9 9 75 48 43 59
REMARK Flexibility Score: inf
ROOT
ATOM      1  C   UNL A   1      32.982  29.044  25.179  1.00  0.00     0.274 C 
ENDROOT
BRANCH   1   2
ATOM      2  O   UNL A   1      33.027  27.769  25.875  1.00  0.00    -0.460 OA
BRANCH   2   3
ATOM      3  C   UNL A   1      31.916  27.066  26.206  1.00  0.00     0.333 C 
ATOM      4  O   UNL A   1      31.090  27.437  27.029  1.00  0.00    -0.249 OA
BRANCH   3   5
ATOM      5  C   UNL A   1      31.764  25.756  25.367  1.00  0.00     0.223 C 
BRANCH   5   6
ATOM      6  N   UNL A   1      31.970  25.814  23.913  1.00  0.00    -0.335 N 
ATOM      7  C   UNL A   1      31.465  26.510  22.849  1.00  0.00     0.255 C 
ATOM      8  O   UNL A   1      31.976  26.274  21.751  1.00  0.00    -0.269 OA
ATOM      9  H   UNL A   1      32.661  25.174  23.625  1.00  0.00     0.165 HD
BRANCH   7  10
ATOM     10  C   UNL A   1      30.333  27.462  22.874  1.00  0.00     0.078 A 
ATOM     11  C   UNL A   1      28.309  29.425  22.871  1.00  0.00     0.157 A 
ATOM     12  C   UNL A   1      29.582  29.742  22.400  1.00  0.00     0.050 A 
ATOM     13  C   UNL A   1      28.072  28.153  23.386  1.00  0.00     0.201 A 
ATOM     14  C   UNL A   1      30.586  28.765  22.404  1.00  0.00     0.021 A 
ATOM     15  C   UNL A   1      29.072  27.184  23.384  1.00  0.00     0.175 A 
ATOM     16  F   UNL A   1      26.861  27.838  23.869  1.00  0.00    -0.200 F 
ATOM     17  F   UNL A   1      28.774  25.982  23.878  1.00  0.00    -0.203 F 
BRANCH  11  18
ATOM     18  O   UNL A   1      27.278  30.321  22.911  1.00  0.00    -0.494 OA
ATOM     19  C   UNL A   1      27.631  31.574  23.490  1.00  0.00     0.278 C 
ENDBRANCH  11  18
ENDBRANCH   7  10
ENDBRANCH   5   6
BRANCH   5  20
ATOM     20  C   UNL A   1      32.265  24.462  25.974  1.00  0.00     0.012 C 
ATOM     21  C   UNL A   1      31.685  23.406  26.575  1.00  0.00     0.064 C 
ATOM     22  C   UNL A   1      33.744  24.239  26.212  1.00  0.00     0.156 C 
ATOM     23  C   UNL A   1      30.261  23.071  26.877  1.00  0.00     0.069 C 
ATOM     24  N   UNL A   1      32.600  22.507  27.069  1.00  0.00    -0.160 NA
ATOM     25  N   UNL A   1      33.769  22.929  26.911  1.00  0.00    -0.181 NA
ATOM     26  C   UNL A   1      34.695  24.123  25.031  1.00  0.00     0.040 C 
ENDBRANCH   5  20
ENDBRANCH   3   5
ENDBRANCH   2   3
ENDBRANCH   1   2
BRANCH   1  27
ATOM     27  C   UNL A   1      32.057  30.148  25.697  1.00  0.00     0.275 C 
BRANCH  27  28
ATOM     28  O   UNL A   1      32.350  30.425  27.071  1.00  0.00    -0.458 OA
BRANCH  28  29
ATOM     29  C   UNL A   1      33.103  31.541  27.251  1.00  0.00     0.338 C 
ATOM     30  O   UNL A   1      32.758  32.688  27.021  1.00  0.00    -0.246 OA
BRANCH  29  31
ATOM     31  C   UNL A   1      34.428  31.184  27.820  1.00  0.00     0.060 A 
ATOM     32  C   UNL A   1      34.730  29.865  28.161  1.00  0.00     0.016 A 
ATOM     33  C   UNL A   1      35.342  32.195  28.122  1.00  0.00     0.016 A 
ATOM     34  C   UNL A   1      35.905  29.556  28.847  1.00  0.00     0.010 A 
ATOM     35  C   UNL A   1      36.552  31.877  28.752  1.00  0.00     0.010 A 
ATOM     36  C   UNL A   1      36.835  30.557  29.148  1.00  0.00    -0.014 A 
BRANCH  36  37
ATOM     37  C   UNL A   1      38.056  30.251  29.947  1.00  0.00     0.031 A 
ATOM     38  C   UNL A   1      39.150  29.414  29.340  1.00  0.00     0.074 A 
ATOM     39  C   UNL A   1      38.217  30.733  31.194  1.00  0.00     0.049 A 
ATOM     40  N   UNL A   1      40.173  28.835  29.918  1.00  0.00    -0.248 NA
ATOM     41  C   UNL A   1      39.081  29.196  27.886  1.00  0.00     0.031 C 
ATOM     42  C   UNL A   1      37.295  31.639  31.880  1.00  0.00     0.029 A 
ATOM     43  N   UNL A   1      39.225  30.533  32.107  1.00  0.00    -0.354 N 
ATOM     44  C   UNL A   1      40.830  28.138  28.913  1.00  0.00     0.074 A 
ATOM     45  C   UNL A   1      40.099  28.370  27.686  1.00  0.00     0.031 C 
ATOM     46  C   UNL A   1      37.798  31.946  33.086  1.00  0.00     0.029 A 
ATOM     47  C   UNL A   1      39.027  31.185  33.300  1.00  0.00     0.049 A 
ATOM     48  H   UNL A   1      40.016  29.974  31.923  1.00  0.00     0.167 HD
ATOM     49  C   UNL A   1      41.943  27.371  29.010  1.00  0.00     0.037 A 
ATOM     50  C   UNL A   1      39.725  31.140  34.452  1.00  0.00     0.037 A 
ATOM     51  C   UNL A   1      42.706  27.196  30.217  1.00  0.00     0.049 A 
ATOM     52  C   UNL A   1      40.919  30.231  34.557  1.00  0.00     0.074 A 
ATOM     53  C   UNL A   1      43.836  26.424  30.419  1.00  0.00     0.029 A 
ATOM     54  N   UNL A   1      42.430  27.825  31.422  1.00  0.00    -0.354 N 
ATOM     55  N   UNL A   1      41.470  29.478  33.637  1.00  0.00    -0.248 NA
ATOM     56  C   UNL A   1      41.569  30.136  35.874  1.00  0.00     0.031 C 
ATOM     57  C   UNL A   1      44.228  26.560  31.754  1.00  0.00     0.029 A 
ATOM     58  C   UNL A   1      43.364  27.449  32.374  1.00  0.00     0.049 A 
ATOM     59  H   UNL A   1      41.682  28.445  31.579  1.00  0.00     0.167 HD
ATOM     60  C   UNL A   1      42.526  28.825  34.257  1.00  0.00     0.074 A 
ATOM     61  C   UNL A   1      42.556  29.286  35.629  1.00  0.00     0.031 C 
ATOM     62  C   UNL A   1      43.385  27.917  33.735  1.00  0.00     0.037 A 
BRANCH  49  63
ATOM     63  C   UNL A   1      42.390  26.628  27.787  1.00  0.00     0.064 A 
ATOM     64  C   UNL A   1      41.870  25.352  27.513  1.00  0.00     0.173 A 
ATOM     65  C   UNL A   1      43.372  27.136  26.927  1.00  0.00     0.173 A 
ATOM     66  F   UNL A   1      40.934  24.818  28.310  1.00  0.00    -0.203 F 
ATOM     67  C   UNL A   1      42.328  24.609  26.429  1.00  0.00     0.198 A 
ATOM     68  C   UNL A   1      43.809  26.400  25.827  1.00  0.00     0.198 A 
ATOM     69  F   UNL A   1      43.890  28.356  27.138  1.00  0.00    -0.203 F 
ATOM     70  F   UNL A   1      41.841  23.381  26.206  1.00  0.00    -0.200 F 
ATOM     71  C   UNL A   1      43.294  25.135  25.585  1.00  0.00     0.200 A 
ATOM     72  F   UNL A   1      44.727  26.918  24.998  1.00  0.00    -0.200 F 
ATOM     73  F   UNL A   1      43.728  24.423  24.536  1.00  0.00    -0.200 F 
ENDBRANCH  49  63
BRANCH  50  74
ATOM     74  C   UNL A   1      39.277  31.950  35.615  1.00  0.00     0.064 A 
ATOM     75  C   UNL A   1      38.386  31.432  36.568  1.00  0.00     0.173 A 
ATOM     76  C   UNL A   1      39.716  33.269  35.786  1.00  0.00     0.173 A 
ATOM     77  F   UNL A   1      37.943  30.171  36.457  1.00  0.00    -0.203 F 
ATOM     78  C   UNL A   1      37.923  32.213  37.623  1.00  0.00     0.198 A 
ATOM     79  C   UNL A   1      39.277  34.042  36.861  1.00  0.00     0.198 A 
ATOM     80  F   UNL A   1      40.596  33.800  34.923  1.00  0.00    -0.203 F 
ATOM     81  F   UNL A   1      37.039  31.706  38.493  1.00  0.00    -0.200 F 
ATOM     82  C   UNL A   1      38.372  33.517  37.771  1.00  0.00     0.200 A 
ATOM     83  F   UNL A   1      39.736  35.290  37.018  1.00  0.00    -0.200 F 
ATOM     84  F   UNL A   1      37.935  34.266  38.792  1.00  0.00    -0.200 F 
ENDBRANCH  50  74
BRANCH  62  85
ATOM     85  C   UNL A   1      44.444  27.360  34.638  1.00  0.00     0.064 A 
ATOM     86  C   UNL A   1      44.207  26.196  35.384  1.00  0.00     0.173 A 
ATOM     87  C   UNL A   1      45.661  28.030  34.832  1.00  0.00     0.173 A 
ATOM     88  F   UNL A   1      43.055  25.524  35.239  1.00  0.00    -0.203 F 
ATOM     89  C   UNL A   1      45.142  25.733  36.305  1.00  0.00     0.198 A 
ATOM     90  C   UNL A   1      46.604  27.551  35.738  1.00  0.00     0.198 A 
ATOM     91  F   UNL A   1      45.938  29.141  34.134  1.00  0.00    -0.203 F 
ATOM     92  F   UNL A   1      44.880  24.637  37.031  1.00  0.00    -0.200 F 
ATOM     93  C   UNL A   1      46.339  26.409  36.480  1.00  0.00     0.200 A 
ATOM     94  F   UNL A   1      47.769  28.195  35.893  1.00  0.00    -0.200 F 
ATOM     95  F   UNL A   1      47.239  25.961  37.365  1.00  0.00    -0.200 F 
ENDBRANCH  62  85
ENDBRANCH  36  37
ENDBRANCH  29  31
ENDBRANCH  28  29
ENDBRANCH  27  28
ENDBRANCH   1  27
TORSDOF 15
ENDMDL
MODEL 2
REMARK VINA RESULT:     -12.7      2.009      3.601
REMARK SMILES COc1ccc(C(=O)N[C@H](C(=O)OCCOC(=O)c2ccc(-c3c4nc(c(-c5c(F)c(F)c(F)c(F)c5F)c5ccc([nH]5)c(-c5c(F)c(F)c(F)c(F)c5F)c5nc(c(-c6c(F)c(F)c(F)c(F)c6F)c6ccc3[nH]6)C=C5)C=C4)cc2)C2=C(C)N=N[C@H]2C)c(F)c1F
REMARK SMILES IDX 14 1 13 2 11 3 12 4 10 5 9 6 7 7 8 8 6 10 3 11 4 12 91 13
REMARK SMILES IDX 5 14 89 15 92 16 90 17 2 18 1 19 82 20 83 21 87 22 84 23
REMARK SMILES IDX 85 24 86 25 88 26 15 27 16 28 17 29 18 30 19 31 20 32 81 33
REMARK SMILES IDX 21 34 80 35 22 36 23 37 24 38 74 39 25 40 79 41 73 42 75 43
REMARK SMILES IDX 26 44 78 45 72 46 71 47 27 49 59 50 39 51 58 52 40 53 43 54
REMARK SMILES IDX 57 55 76 56 41 57 42 58 56 60 77 61 44 62 28 63 29 64 37 65
REMARK SMILES IDX 30 66 31 67 35 68 38 69 32 70 33 71 36 72 34 73 60 74 61 75
REMARK SMILES IDX 69 76 62 77 63 78 67 79 70 80 64 81 65 82 68 83 66 84 45 85
REMARK SMILES IDX 46 86 54 87 47 88 48 89 52 90 55 91 49 92 50 93 53 94 51 95
REMARK H PARENT 9 9 75 48 43 59
REMARK Flexibility Score: inf
ROOT
ATOM      1  C   UNL A   1      32.118  28.111  27.225  1.00  0.00     0.274 C 
ENDROOT
BRANCH   1   2
ATOM      2  O   UNL A   1      31.334  26.936  26.888  1.00  0.00    -0.460 OA
BRANCH   2   3
ATOM      3  C   UNL A   1      31.889  25.768  26.477  1.00  0.00     0.333 C 
ATOM      4  O   UNL A   1      31.520  24.665  26.854  1.00  0.00    -0.249 OA
BRANCH   3   5
ATOM      5  C   UNL A   1      33.012  25.981  25.411  1.00  0.00     0.223 C 
BRANCH   5   6
ATOM      6  N   UNL A   1      34.326  25.358  25.626  1.00  0.00    -0.335 N 
ATOM      7  C   UNL A   1      34.868  24.104  25.578  1.00  0.00     0.255 C 
ATOM      8  O   UNL A   1      36.081  24.025  25.791  1.00  0.00    -0.269 OA
ATOM      9  H   UNL A   1      35.002  26.030  25.875  1.00  0.00     0.165 HD
BRANCH   7  10
ATOM     10  C   UNL A   1      34.138  22.835  25.363  1.00  0.00     0.078 A 
ATOM     11  C   UNL A   1      32.800  20.362  25.146  1.00  0.00     0.157 A 
ATOM     12  C   UNL A   1      33.300  20.774  26.381  1.00  0.00     0.050 A 
ATOM     13  C   UNL A   1      33.018  21.160  24.025  1.00  0.00     0.201 A 
ATOM     14  C   UNL A   1      33.965  22.002  26.485  1.00  0.00     0.021 A 
ATOM     15  C   UNL A   1      33.677  22.382  24.135  1.00  0.00     0.175 A 
ATOM     16  F   UNL A   1      32.569  20.767  22.824  1.00  0.00    -0.200 F 
ATOM     17  F   UNL A   1      33.838  23.102  23.025  1.00  0.00    -0.203 F 
BRANCH  11  18
ATOM     18  O   UNL A   1      32.149  19.176  24.957  1.00  0.00    -0.494 OA
ATOM     19  C   UNL A   1      32.684  18.101  25.723  1.00  0.00     0.278 C 
ENDBRANCH  11  18
ENDBRANCH   7  10
ENDBRANCH   5   6
BRANCH   5  20
ATOM     20  C   UNL A   1      32.611  26.001  23.951  1.00  0.00     0.012 C 
ATOM     21  C   UNL A   1      31.685  25.364  23.209  1.00  0.00     0.064 C 
ATOM     22  C   UNL A   1      33.473  26.699  22.919  1.00  0.00     0.156 C 
ATOM     23  C   UNL A   1      30.634  24.359  23.550  1.00  0.00     0.069 C 
ATOM     24  N   UNL A   1      31.791  25.646  21.868  1.00  0.00    -0.160 NA
ATOM     25  N   UNL A   1      32.785  26.375  21.643  1.00  0.00    -0.181 NA
ATOM     26  C   UNL A   1      33.630  28.211  22.958  1.00  0.00     0.040 C 
ENDBRANCH   5  20
ENDBRANCH   3   5
ENDBRANCH   2   3
ENDBRANCH   1   2
BRANCH   1  27
ATOM     27  C   UNL A   1      31.776  29.453  26.571  1.00  0.00     0.275 C 
BRANCH  27  28
ATOM     28  O   UNL A   1      32.979  30.112  26.156  1.00  0.00    -0.458 OA
BRANCH  28  29
ATOM     29  C   UNL A   1      33.355  31.123  26.982  1.00  0.00     0.338 C 
ATOM     30  O   UNL A   1      32.699  32.115  27.254  1.00  0.00    -0.246 OA
BRANCH  29  31
ATOM     31  C   UNL A   1      34.693  30.843  27.564  1.00  0.00     0.060 A 
ATOM     32  C   UNL A   1      35.117  29.532  27.789  1.00  0.00     0.016 A 
ATOM     33  C   UNL A   1      35.491  31.903  27.996  1.00  0.00     0.016 A 
ATOM     34  C   UNL A   1      36.297  29.274  28.486  1.00  0.00     0.010 A 
ATOM     35  C   UNL A   1      36.709  31.645  28.639  1.00  0.00     0.010 A 
ATOM     36  C   UNL A   1      37.113  30.326  28.917  1.00  0.00    -0.014 A 
BRANCH  36  37
ATOM     37  C   UNL A   1      38.335  30.064  29.728  1.00  0.00     0.031 A 
ATOM     38  C   UNL A   1      39.440  29.216  29.156  1.00  0.00     0.074 A 
ATOM     39  C   UNL A   1      38.488  30.594  30.957  1.00  0.00     0.049 A 
ATOM     40  N   UNL A   1      40.467  28.671  29.757  1.00  0.00    -0.248 NA
ATOM     41  C   UNL A   1      39.375  28.942  27.711  1.00  0.00     0.031 C 
ATOM     42  C   UNL A   1      37.555  31.515  31.606  1.00  0.00     0.029 A 
ATOM     43  N   UNL A   1      39.496  30.439  31.879  1.00  0.00    -0.354 N 
ATOM     44  C   UNL A   1      41.134  27.943  28.780  1.00  0.00     0.074 A 
ATOM     45  C   UNL A   1      40.402  28.120  27.544  1.00  0.00     0.031 C 
ATOM     46  C   UNL A   1      38.052  31.873  32.801  1.00  0.00     0.029 A 
ATOM     47  C   UNL A   1      39.289  31.134  33.046  1.00  0.00     0.049 A 
ATOM     48  H   UNL A   1      40.293  29.882  31.718  1.00  0.00     0.167 HD
ATOM     49  C   UNL A   1      42.254  27.192  28.908  1.00  0.00     0.037 A 
ATOM     50  C   UNL A   1      39.984  31.140  34.200  1.00  0.00     0.037 A 
ATOM     51  C   UNL A   1      43.017  27.071  30.123  1.00  0.00     0.049 A 
ATOM     52  C   UNL A   1      41.189  30.248  34.342  1.00  0.00     0.074 A 
ATOM     53  C   UNL A   1      44.155  26.319  30.355  1.00  0.00     0.029 A 
ATOM     54  N   UNL A   1      42.732  27.742  31.302  1.00  0.00    -0.354 N 
ATOM     55  N   UNL A   1      41.749  29.467  33.451  1.00  0.00    -0.248 NA
ATOM     56  C   UNL A   1      41.836  30.210  35.662  1.00  0.00     0.031 C 
ATOM     57  C   UNL A   1      44.542  26.510  31.685  1.00  0.00     0.029 A 
ATOM     58  C   UNL A   1      43.668  27.413  32.269  1.00  0.00     0.049 A 
ATOM     59  H   UNL A   1      41.977  28.359  31.434  1.00  0.00     0.167 HD
ATOM     60  C   UNL A   1      42.811  28.849  34.097  1.00  0.00     0.074 A 
ATOM     61  C   UNL A   1      42.833  29.361  35.451  1.00  0.00     0.031 C 
ATOM     62  C   UNL A   1      43.681  27.931  33.612  1.00  0.00     0.037 A 
BRANCH  49  63
ATOM     63  C   UNL A   1      42.713  26.409  27.715  1.00  0.00     0.064 A 
ATOM     64  C   UNL A   1      42.202  25.120  27.485  1.00  0.00     0.173 A 
ATOM     65  C   UNL A   1      43.695  26.892  26.841  1.00  0.00     0.173 A 
ATOM     66  F   UNL A   1      41.266  24.609  28.296  1.00  0.00    -0.203 F 
ATOM     67  C   UNL A   1      42.670  24.341  26.431  1.00  0.00     0.198 A 
ATOM     68  C   UNL A   1      44.142  26.119  25.770  1.00  0.00     0.198 A 
ATOM     69  F   UNL A   1      44.204  28.122  27.010  1.00  0.00    -0.203 F 
ATOM     70  F   UNL A   1      42.191  23.103  26.249  1.00  0.00    -0.200 F 
ATOM     71  C   UNL A   1      43.636  24.843  25.572  1.00  0.00     0.200 A 
ATOM     72  F   UNL A   1      45.060  26.613  24.928  1.00  0.00    -0.200 F 
ATOM     73  F   UNL A   1      44.080  24.096  24.551  1.00  0.00    -0.200 F 
ENDBRANCH  49  63
BRANCH  50  74
ATOM     74  C   UNL A   1      39.525  31.988  35.331  1.00  0.00     0.064 A 
ATOM     75  C   UNL A   1      38.617  31.505  36.286  1.00  0.00     0.173 A 
ATOM     76  C   UNL A   1      39.972  33.309  35.468  1.00  0.00     0.173 A 
ATOM     77  F   UNL A   1      38.167  30.244  36.207  1.00  0.00    -0.203 F 
ATOM     78  C   UNL A   1      38.145  32.322  37.310  1.00  0.00     0.198 A 
ATOM     79  C   UNL A   1      39.522  34.117  36.512  1.00  0.00     0.198 A 
ATOM     80  F   UNL A   1      40.867  33.807  34.602  1.00  0.00    -0.203 F 
ATOM     81  F   UNL A   1      37.244  31.848  38.182  1.00  0.00    -0.200 F 
ATOM     82  C   UNL A   1      38.600  33.626  37.424  1.00  0.00     0.200 A 
ATOM     83  F   UNL A   1      39.988  35.366  36.638  1.00  0.00    -0.200 F 
ATOM     84  F   UNL A   1      38.154  34.409  38.416  1.00  0.00    -0.200 F 
ENDBRANCH  50  74
BRANCH  62  85
ATOM     85  C   UNL A   1      44.744  27.420  34.537  1.00  0.00     0.064 A 
ATOM     86  C   UNL A   1      44.510  26.294  35.340  1.00  0.00     0.173 A 
ATOM     87  C   UNL A   1      45.961  28.100  34.693  1.00  0.00     0.173 A 
ATOM     88  F   UNL A   1      43.359  25.615  35.233  1.00  0.00    -0.203 F 
ATOM     89  C   UNL A   1      45.449  25.877  36.279  1.00  0.00     0.198 A 
ATOM     90  C   UNL A   1      46.907  27.667  35.618  1.00  0.00     0.198 A 
ATOM     91  F   UNL A   1      46.234  29.175  33.939  1.00  0.00    -0.203 F 
ATOM     92  F   UNL A   1      45.191  24.819  37.060  1.00  0.00    -0.200 F 
ATOM     93  C   UNL A   1      46.647  26.563  36.416  1.00  0.00     0.200 A 
ATOM     94  F   UNL A   1      48.072  28.318  35.737  1.00  0.00    -0.200 F 
ATOM     95  F   UNL A   1      47.551  26.159  37.319  1.00  0.00    -0.200 F 
ENDBRANCH  62  85
ENDBRANCH  36  37
ENDBRANCH  29  31
ENDBRANCH  28  29
ENDBRANCH  27  28
ENDBRANCH   1  27
TORSDOF 15
ENDMDL
MODEL 3
REMARK VINA RESULT:     -12.7      1.873      3.747
REMARK SMILES COc1ccc(C(=O)N[C@H](C(=O)OCCOC(=O)c2ccc(-c3c4nc(c(-c5c(F)c(F)c(F)c(F)c5F)c5ccc([nH]5)c(-c5c(F)c(F)c(F)c(F)c5F)c5nc(c(-c6c(F)c(F)c(F)c(F)c6F)c6ccc3[nH]6)C=C5)C=C4)cc2)C2=C(C)N=N[C@H]2C)c(F)c1F
REMARK SMILES IDX 14 1 13 2 11 3 12 4 10 5 9 6 7 7 8 8 6 10 3 11 4 12 91 13
REMARK SMILES IDX 5 14 89 15 92 16 90 17 2 18 1 19 82 20 83 21 87 22 84 23
REMARK SMILES IDX 85 24 86 25 88 26 15 27 16 28 17 29 18 30 19 31 20 32 81 33
REMARK SMILES IDX 21 34 80 35 22 36 23 37 24 38 74 39 25 40 79 41 73 42 75 43
REMARK SMILES IDX 26 44 78 45 72 46 71 47 27 49 59 50 39 51 58 52 40 53 43 54
REMARK SMILES IDX 57 55 76 56 41 57 42 58 56 60 77 61 44 62 28 63 29 64 37 65
REMARK SMILES IDX 30 66 31 67 35 68 38 69 32 70 33 71 36 72 34 73 60 74 61 75
REMARK SMILES IDX 69 76 62 77 63 78 67 79 70 80 64 81 65 82 68 83 66 84 45 85
REMARK SMILES IDX 46 86 54 87 47 88 48 89 52 90 55 91 49 92 50 93 53 94 51 95
REMARK H PARENT 9 9 75 48 43 59
REMARK Flexibility Score: inf
ROOT
ATOM      1  C   UNL A   1      33.209  28.635  23.917  1.00  0.00     0.274 C 
ENDROOT
BRANCH   1   2
ATOM      2  O   UNL A   1      32.590  27.853  22.860  1.00  0.00    -0.460 OA
BRANCH   2   3
ATOM      3  C   UNL A   1      32.989  26.597  22.537  1.00  0.00     0.333 C 
ATOM      4  O   UNL A   1      34.028  26.339  21.947  1.00  0.00    -0.249 OA
BRANCH   3   5
ATOM      5  C   UNL A   1      32.005  25.503  23.065  1.00  0.00     0.223 C 
BRANCH   5   6
ATOM      6  N   UNL A   1      32.080  24.147  22.502  1.00  0.00    -0.335 N 
ATOM      7  C   UNL A   1      32.837  23.022  22.675  1.00  0.00     0.255 C 
ATOM      8  O   UNL A   1      32.519  22.040  21.999  1.00  0.00    -0.269 OA
ATOM      9  H   UNL A   1      31.396  24.013  21.806  1.00  0.00     0.165 HD
BRANCH   7  10
ATOM     10  C   UNL A   1      34.032  22.887  23.538  1.00  0.00     0.078 A 
ATOM     11  C   UNL A   1      36.424  22.676  25.016  1.00  0.00     0.157 A 
ATOM     12  C   UNL A   1      36.455  23.172  23.714  1.00  0.00     0.050 A 
ATOM     13  C   UNL A   1      35.212  22.241  25.548  1.00  0.00     0.201 A 
ATOM     14  C   UNL A   1      35.266  23.275  22.982  1.00  0.00     0.021 A 
ATOM     15  C   UNL A   1      34.032  22.349  24.817  1.00  0.00     0.175 A 
ATOM     16  F   UNL A   1      35.166  21.733  26.789  1.00  0.00    -0.200 F 
ATOM     17  F   UNL A   1      32.904  21.928  25.392  1.00  0.00    -0.203 F 
BRANCH  11  18
ATOM     18  O   UNL A   1      37.539  22.533  25.794  1.00  0.00    -0.494 OA
ATOM     19  C   UNL A   1      38.044  23.765  26.301  1.00  0.00     0.278 C 
ENDBRANCH  11  18
ENDBRANCH   7  10
ENDBRANCH   5   6
BRANCH   5  20
ATOM     20  C   UNL A   1      31.671  25.500  24.542  1.00  0.00     0.012 C 
ATOM     21  C   UNL A   1      32.387  25.580  25.680  1.00  0.00     0.064 C 
ATOM     22  C   UNL A   1      30.280  25.140  25.022  1.00  0.00     0.156 C 
ATOM     23  C   UNL A   1      33.850  25.726  25.946  1.00  0.00     0.069 C 
ATOM     24  N   UNL A   1      31.616  25.416  26.806  1.00  0.00    -0.160 NA
ATOM     25  N   UNL A   1      30.431  25.149  26.500  1.00  0.00    -0.181 NA
ATOM     26  C   UNL A   1      29.105  26.049  24.697  1.00  0.00     0.040 C 
ENDBRANCH   5  20
ENDBRANCH   3   5
ENDBRANCH   2   3
ENDBRANCH   1   2
BRANCH   1  27
ATOM     27  C   UNL A   1      32.370  29.668  24.674  1.00  0.00     0.275 C 
BRANCH  27  28
ATOM     28  O   UNL A   1      32.534  29.488  26.086  1.00  0.00    -0.458 OA
BRANCH  28  29
ATOM     29  C   UNL A   1      32.936  30.613  26.733  1.00  0.00     0.338 C 
ATOM     30  O   UNL A   1      32.287  31.636  26.871  1.00  0.00    -0.246 OA
BRANCH  29  31
ATOM     31  C   UNL A   1      34.294  30.423  27.304  1.00  0.00     0.060 A 
ATOM     32  C   UNL A   1      34.843  29.146  27.436  1.00  0.00     0.016 A 
ATOM     33  C   UNL A   1      34.985  31.521  27.818  1.00  0.00     0.016 A 
ATOM     34  C   UNL A   1      36.043  28.953  28.123  1.00  0.00     0.010 A 
ATOM     35  C   UNL A   1      36.221  31.335  28.450  1.00  0.00     0.010 A 
ATOM     36  C   UNL A   1      36.751  30.045  28.636  1.00  0.00    -0.014 A 
BRANCH  36  37
ATOM     37  C   UNL A   1      37.992  29.845  29.436  1.00  0.00     0.031 A 
ATOM     38  C   UNL A   1      39.120  29.026  28.866  1.00  0.00     0.074 A 
ATOM     39  C   UNL A   1      38.141  30.405  30.652  1.00  0.00     0.049 A 
ATOM     40  N   UNL A   1      40.174  28.531  29.464  1.00  0.00    -0.248 NA
ATOM     41  C   UNL A   1      39.048  28.721  27.428  1.00  0.00     0.031 C 
ATOM     42  C   UNL A   1      37.183  31.304  31.295  1.00  0.00     0.029 A 
ATOM     43  N   UNL A   1      39.166  30.306  31.563  1.00  0.00    -0.354 N 
ATOM     44  C   UNL A   1      40.856  27.809  28.493  1.00  0.00     0.074 A 
ATOM     45  C   UNL A   1      40.103  27.934  27.264  1.00  0.00     0.031 C 
ATOM     46  C   UNL A   1      37.681  31.704  32.475  1.00  0.00     0.029 A 
ATOM     47  C   UNL A   1      38.947  31.016  32.718  1.00  0.00     0.049 A 
ATOM     48  H   UNL A   1      39.980  29.775  31.403  1.00  0.00     0.167 HD
ATOM     49  C   UNL A   1      42.004  27.102  28.621  1.00  0.00     0.037 A 
ATOM     50  C   UNL A   1      39.656  31.071  33.863  1.00  0.00     0.037 A 
ATOM     51  C   UNL A   1      42.785  27.033  29.828  1.00  0.00     0.049 A 
ATOM     52  C   UNL A   1      40.894  30.226  34.007  1.00  0.00     0.074 A 
ATOM     53  C   UNL A   1      43.953  26.329  30.060  1.00  0.00     0.029 A 
ATOM     54  N   UNL A   1      42.491  27.717  30.998  1.00  0.00    -0.354 N 
ATOM     55  N   UNL A   1      41.472  29.449  33.125  1.00  0.00    -0.248 NA
ATOM     56  C   UNL A   1      41.559  30.239  35.319  1.00  0.00     0.031 C 
ATOM     57  C   UNL A   1      44.350  26.561  31.381  1.00  0.00     0.029 A 
ATOM     58  C   UNL A   1      43.450  27.442  31.959  1.00  0.00     0.049 A 
ATOM     59  H   UNL A   1      41.715  28.309  31.127  1.00  0.00     0.167 HD
ATOM     60  C   UNL A   1      42.564  28.883  33.769  1.00  0.00     0.074 A 
ATOM     61  C   UNL A   1      42.584  29.423  35.112  1.00  0.00     0.031 C 
ATOM     62  C   UNL A   1      43.461  27.988  33.291  1.00  0.00     0.037 A 
BRANCH  49  63
ATOM     63  C   UNL A   1      42.476  26.312  27.438  1.00  0.00     0.064 A 
ATOM     64  C   UNL A   1      41.969  25.021  27.210  1.00  0.00     0.173 A 
ATOM     65  C   UNL A   1      43.468  26.791  26.572  1.00  0.00     0.173 A 
ATOM     66  F   UNL A   1      41.025  24.514  28.015  1.00  0.00    -0.203 F 
ATOM     67  C   UNL A   1      42.450  24.237  26.166  1.00  0.00     0.198 A 
ATOM     68  C   UNL A   1      43.926  26.012  25.511  1.00  0.00     0.198 A 
ATOM     69  F   UNL A   1      43.973  28.022  26.739  1.00  0.00    -0.203 F 
ATOM     70  F   UNL A   1      41.974  22.996  25.987  1.00  0.00    -0.200 F 
ATOM     71  C   UNL A   1      43.424  24.734  25.315  1.00  0.00     0.200 A 
ATOM     72  F   UNL A   1      44.853  26.501  24.675  1.00  0.00    -0.200 F 
ATOM     73  F   UNL A   1      43.880  23.981  24.304  1.00  0.00    -0.200 F 
ENDBRANCH  49  63
BRANCH  50  74
ATOM     74  C   UNL A   1      39.180  31.924  34.983  1.00  0.00     0.064 A 
ATOM     75  C   UNL A   1      38.429  31.391  36.042  1.00  0.00     0.173 A 
ATOM     76  C   UNL A   1      39.451  33.299  35.006  1.00  0.00     0.173 A 
ATOM     77  F   UNL A   1      38.152  30.079  36.074  1.00  0.00    -0.203 F 
ATOM     78  C   UNL A   1      37.936  32.204  37.058  1.00  0.00     0.198 A 
ATOM     79  C   UNL A   1      38.983  34.108  36.041  1.00  0.00     0.198 A 
ATOM     80  F   UNL A   1      40.195  33.852  34.037  1.00  0.00    -0.203 F 
ATOM     81  F   UNL A   1      37.184  31.675  38.033  1.00  0.00    -0.200 F 
ATOM     82  C   UNL A   1      38.216  33.562  37.058  1.00  0.00     0.200 A 
ATOM     83  F   UNL A   1      39.282  35.414  36.055  1.00  0.00    -0.200 F 
ATOM     84  F   UNL A   1      37.750  34.343  38.042  1.00  0.00    -0.200 F 
ENDBRANCH  50  74
BRANCH  62  85
ATOM     85  C   UNL A   1      44.553  27.535  34.211  1.00  0.00     0.064 A 
ATOM     86  C   UNL A   1      45.784  28.208  34.245  1.00  0.00     0.173 A 
ATOM     87  C   UNL A   1      44.413  26.380  34.995  1.00  0.00     0.173 A 
ATOM     88  F   UNL A   1      45.969  29.313  33.507  1.00  0.00    -0.203 F 
ATOM     89  C   UNL A   1      46.840  27.732  35.015  1.00  0.00     0.198 A 
ATOM     90  C   UNL A   1      45.464  25.919  35.782  1.00  0.00     0.198 A 
ATOM     91  F   UNL A   1      43.251  25.709  35.005  1.00  0.00    -0.203 F 
ATOM     92  F   UNL A   1      48.017  28.371  35.006  1.00  0.00    -0.200 F 
ATOM     93  C   UNL A   1      46.679  26.589  35.784  1.00  0.00     0.200 A 
ATOM     94  F   UNL A   1      45.302  24.826  36.540  1.00  0.00    -0.200 F 
ATOM     95  F   UNL A   1      47.696  26.132  36.527  1.00  0.00    -0.200 F 
ENDBRANCH  62  85
ENDBRANCH  36  37
ENDBRANCH  29  31
ENDBRANCH  28  29
ENDBRANCH  27  28
ENDBRANCH   1  27
TORSDOF 15
ENDMDL
