MODEL 1
REMARK VINA RESULT:     -12.2      0.000      0.000
REMARK SMILES NC(=O)C[C@H](C(=O)OCCOC(=O)c1ccc(-c2c3nc(c(-c4c(F)c(F)c(F)c(F)c4F)c4ccc([nH]4)c(-c4c(F)c(F)c(F)c(F)c4F)c4nc(c(-c5c(F)c(F)c(F)c(F)c5F)c5ccc2[nH]5)C=C4)C=C3)cc1)N1C(=O)/C(=C/c2ccccc2)SC1=S
REMARK SMILES IDX 9 1 8 2 6 3 7 4 5 5 4 6 2 7 1 8 3 11 77 12 78 13 89 14 79 15
REMARK SMILES IDX 80 16 88 17 90 18 81 19 82 20 83 21 87 22 84 23 86 24 85 25
REMARK SMILES IDX 10 26 11 27 12 28 13 29 14 30 15 31 76 32 16 33 75 34 17 35
REMARK SMILES IDX 18 36 19 37 69 38 20 39 74 40 68 41 70 42 21 43 73 44 67 45
REMARK SMILES IDX 66 46 22 48 54 49 34 50 53 51 35 52 38 53 52 54 71 55 36 56
REMARK SMILES IDX 37 57 51 59 72 60 39 61 23 62 24 63 32 64 25 65 26 66 30 67
REMARK SMILES IDX 33 68 27 69 28 70 31 71 29 72 55 73 56 74 64 75 57 76 58 77
REMARK SMILES IDX 62 78 65 79 59 80 60 81 63 82 61 83 40 84 41 85 49 86 42 87
REMARK SMILES IDX 43 88 47 89 50 90 44 91 45 92 48 93 46 94
REMARK H PARENT 1 9 1 10 70 47 38 58
REMARK Flexibility Score: inf
ROOT
ATOM      1  C   UNL A   1      36.155  20.440  25.130  1.00  0.00     0.274 C 
ENDROOT
BRANCH   1   2
ATOM      2  O   UNL A   1      35.750  21.395  26.135  1.00  0.00    -0.461 OA
BRANCH   2   3
ATOM      3  C   UNL A   1      34.431  21.403  26.487  1.00  0.00     0.329 C 
ATOM      4  O   UNL A   1      34.031  21.377  27.643  1.00  0.00    -0.250 OA
BRANCH   3   5
ATOM      5  C   UNL A   1      33.525  21.522  25.239  1.00  0.00     0.211 C 
BRANCH   5   6
ATOM      6  C   UNL A   1      32.281  20.637  25.182  1.00  0.00     0.137 C 
BRANCH   6   7
ATOM      7  C   UNL A   1      32.591  19.166  25.226  1.00  0.00     0.220 C 
ATOM      8  N   UNL A   1      32.798  18.641  26.462  1.00  0.00    -0.370 N 
ATOM      9  H   UNL A   1      33.006  17.684  26.562  1.00  0.00     0.159 HD
ATOM     10  H   UNL A   1      32.740  19.218  27.258  1.00  0.00     0.159 HD
ATOM     11  O   UNL A   1      32.625  18.462  24.225  1.00  0.00    -0.275 OA
ENDBRANCH   6   7
ENDBRANCH   5   6
BRANCH   5  12
ATOM     12  N   UNL A   1      33.251  22.941  24.859  1.00  0.00    -0.278 N 
ATOM     13  C   UNL A   1      32.204  23.601  25.488  1.00  0.00     0.267 C 
ATOM     14  C   UNL A   1      33.968  23.692  23.940  1.00  0.00     0.149 C 
ATOM     15  O   UNL A   1      31.524  23.159  26.404  1.00  0.00    -0.268 OA
ATOM     16  C   UNL A   1      31.999  24.952  24.902  1.00  0.00     0.081 C 
ATOM     17  S   UNL A   1      33.212  25.274  23.738  1.00  0.00    -0.054 SA
ATOM     18  S   UNL A   1      35.346  23.301  23.089  1.00  0.00    -0.052 S 
ATOM     19  C   UNL A   1      30.956  25.724  25.241  1.00  0.00     0.029 C 
BRANCH  19  20
ATOM     20  C   UNL A   1      30.612  27.008  24.621  1.00  0.00    -0.024 A 
ATOM     21  C   UNL A   1      31.276  28.187  24.966  1.00  0.00     0.008 A 
ATOM     22  C   UNL A   1      29.590  27.052  23.667  1.00  0.00     0.008 A 
ATOM     23  C   UNL A   1      30.920  29.396  24.359  1.00  0.00     0.001 A 
ATOM     24  C   UNL A   1      29.239  28.257  23.055  1.00  0.00     0.001 A 
ATOM     25  C   UNL A   1      29.904  29.430  23.404  1.00  0.00     0.000 A 
ENDBRANCH  19  20
ENDBRANCH   5  12
ENDBRANCH   3   5
ENDBRANCH   2   3
ENDBRANCH   1   2
BRANCH   1  26
ATOM     26  C   UNL A   1      37.680  20.355  24.996  1.00  0.00     0.275 C 
BRANCH  26  27
ATOM     27  O   UNL A   1      38.328  21.523  25.534  1.00  0.00    -0.458 OA
BRANCH  27  28
ATOM     28  C   UNL A   1      39.346  21.268  26.383  1.00  0.00     0.338 C 
ATOM     29  O   UNL A   1      39.847  20.182  26.633  1.00  0.00    -0.246 OA
BRANCH  28  30
ATOM     30  C   UNL A   1      39.936  22.534  26.835  1.00  0.00     0.060 A 
ATOM     31  C   UNL A   1      39.478  23.691  26.212  1.00  0.00     0.016 A 
ATOM     32  C   UNL A   1      40.961  22.599  27.777  1.00  0.00     0.016 A 
ATOM     33  C   UNL A   1      40.051  24.920  26.496  1.00  0.00     0.010 A 
ATOM     34  C   UNL A   1      41.533  23.844  28.078  1.00  0.00     0.010 A 
ATOM     35  C   UNL A   1      41.093  25.009  27.424  1.00  0.00    -0.014 A 
BRANCH  35  36
ATOM     36  C   UNL A   1      41.748  26.326  27.619  1.00  0.00     0.031 A 
ATOM     37  C   UNL A   1      41.058  27.388  28.427  1.00  0.00     0.074 A 
ATOM     38  C   UNL A   1      43.014  26.515  27.203  1.00  0.00     0.049 A 
ATOM     39  N   UNL A   1      41.463  28.598  28.721  1.00  0.00    -0.248 NA
ATOM     40  C   UNL A   1      39.759  27.029  29.018  1.00  0.00     0.031 C 
ATOM     41  C   UNL A   1      43.830  25.518  26.510  1.00  0.00     0.029 A 
ATOM     42  N   UNL A   1      43.845  27.600  27.328  1.00  0.00    -0.354 N 
ATOM     43  C   UNL A   1      40.473  29.141  29.529  1.00  0.00     0.074 A 
ATOM     44  C   UNL A   1      39.438  28.140  29.665  1.00  0.00     0.031 C 
ATOM     45  C   UNL A   1      45.052  26.029  26.289  1.00  0.00     0.029 A 
ATOM     46  C   UNL A   1      45.084  27.409  26.765  1.00  0.00     0.049 A 
ATOM     47  H   UNL A   1      43.579  28.435  27.775  1.00  0.00     0.167 HD
ATOM     48  C   UNL A   1      40.443  30.358  30.120  1.00  0.00     0.037 A 
ATOM     49  C   UNL A   1      46.116  28.262  26.620  1.00  0.00     0.037 A 
ATOM     50  C   UNL A   1      41.475  31.352  29.992  1.00  0.00     0.049 A 
ATOM     51  C   UNL A   1      45.983  29.665  27.142  1.00  0.00     0.074 A 
ATOM     52  C   UNL A   1      41.511  32.633  30.514  1.00  0.00     0.029 A 
ATOM     53  N   UNL A   1      42.657  31.172  29.290  1.00  0.00    -0.354 N 
ATOM     54  N   UNL A   1      45.011  30.199  27.839  1.00  0.00    -0.248 NA
ATOM     55  C   UNL A   1      47.082  30.592  26.835  1.00  0.00     0.031 C 
ATOM     56  C   UNL A   1      42.702  33.240  30.102  1.00  0.00     0.029 A 
ATOM     57  C   UNL A   1      43.423  32.325  29.353  1.00  0.00     0.049 A 
ATOM     58  H   UNL A   1      42.915  30.348  28.819  1.00  0.00     0.167 HD
ATOM     59  C   UNL A   1      45.383  31.517  28.066  1.00  0.00     0.074 A 
ATOM     60  C   UNL A   1      46.679  31.698  27.445  1.00  0.00     0.031 C 
ATOM     61  C   UNL A   1      44.709  32.491  28.725  1.00  0.00     0.037 A 
BRANCH  48  62
ATOM     62  C   UNL A   1      39.235  30.691  30.939  1.00  0.00     0.064 A 
ATOM     63  C   UNL A   1      39.180  30.409  32.311  1.00  0.00     0.173 A 
ATOM     64  C   UNL A   1      38.129  31.319  30.348  1.00  0.00     0.173 A 
ATOM     65  F   UNL A   1      40.208  29.793  32.914  1.00  0.00    -0.203 F 
ATOM     66  C   UNL A   1      38.052  30.729  33.061  1.00  0.00     0.198 A 
ATOM     67  C   UNL A   1      37.010  31.656  31.105  1.00  0.00     0.198 A 
ATOM     68  F   UNL A   1      38.136  31.609  29.039  1.00  0.00    -0.203 F 
ATOM     69  F   UNL A   1      38.004  30.420  34.364  1.00  0.00    -0.200 F 
ATOM     70  C   UNL A   1      36.970  31.356  32.459  1.00  0.00     0.200 A 
ATOM     71  F   UNL A   1      35.968  32.266  30.523  1.00  0.00    -0.200 F 
ATOM     72  F   UNL A   1      35.885  31.665  33.182  1.00  0.00    -0.200 F 
ENDBRANCH  48  62
BRANCH  49  73
ATOM     73  C   UNL A   1      47.340  27.830  25.896  1.00  0.00     0.064 A 
ATOM     74  C   UNL A   1      47.385  27.799  24.497  1.00  0.00     0.173 A 
ATOM     75  C   UNL A   1      48.485  27.421  26.597  1.00  0.00     0.173 A 
ATOM     76  F   UNL A   1      46.305  28.147  23.783  1.00  0.00    -0.203 F 
ATOM     77  C   UNL A   1      48.529  27.369  23.825  1.00  0.00     0.198 A 
ATOM     78  C   UNL A   1      49.636  27.017  25.924  1.00  0.00     0.198 A 
ATOM     79  F   UNL A   1      48.488  27.418  27.938  1.00  0.00    -0.203 F 
ATOM     80  F   UNL A   1      48.533  27.306  22.487  1.00  0.00    -0.200 F 
ATOM     81  C   UNL A   1      49.655  26.986  24.538  1.00  0.00     0.200 A 
ATOM     82  F   UNL A   1      50.721  26.653  26.619  1.00  0.00    -0.200 F 
ATOM     83  F   UNL A   1      50.753  26.573  23.892  1.00  0.00    -0.200 F 
ENDBRANCH  49  73
BRANCH  61  84
ATOM     84  C   UNL A   1      45.368  33.833  28.823  1.00  0.00     0.064 A 
ATOM     85  C   UNL A   1      45.120  34.837  27.877  1.00  0.00     0.173 A 
ATOM     86  C   UNL A   1      46.226  34.129  29.892  1.00  0.00     0.173 A 
ATOM     87  F   UNL A   1      44.320  34.594  26.828  1.00  0.00    -0.203 F 
ATOM     88  C   UNL A   1      45.721  36.087  27.989  1.00  0.00     0.198 A 
ATOM     89  C   UNL A   1      46.807  35.388  30.013  1.00  0.00     0.198 A 
ATOM     90  F   UNL A   1      46.490  33.202  30.823  1.00  0.00    -0.203 F 
ATOM     91  F   UNL A   1      45.500  37.022  27.053  1.00  0.00    -0.200 F 
ATOM     92  C   UNL A   1      46.559  36.364  29.060  1.00  0.00     0.200 A 
ATOM     93  F   UNL A   1      47.609  35.656  31.054  1.00  0.00    -0.200 F 
ATOM     94  F   UNL A   1      47.132  37.570  29.169  1.00  0.00    -0.200 F 
ENDBRANCH  61  84
ENDBRANCH  35  36
ENDBRANCH  28  30
ENDBRANCH  27  28
ENDBRANCH  26  27
ENDBRANCH   1  26
TORSDOF 15
ENDMDL
MODEL 2
REMARK VINA RESULT:     -12.2      0.673      7.295
REMARK SMILES NC(=O)C[C@H](C(=O)OCCOC(=O)c1ccc(-c2c3nc(c(-c4c(F)c(F)c(F)c(F)c4F)c4ccc([nH]4)c(-c4c(F)c(F)c(F)c(F)c4F)c4nc(c(-c5c(F)c(F)c(F)c(F)c5F)c5ccc2[nH]5)C=C4)C=C3)cc1)N1C(=O)/C(=C/c2ccccc2)SC1=S
REMARK SMILES IDX 9 1 8 2 6 3 7 4 5 5 4 6 2 7 1 8 3 11 77 12 78 13 89 14 79 15
REMARK SMILES IDX 80 16 88 17 90 18 81 19 82 20 83 21 87 22 84 23 86 24 85 25
REMARK SMILES IDX 10 26 11 27 12 28 13 29 14 30 15 31 76 32 16 33 75 34 17 35
REMARK SMILES IDX 18 36 19 37 69 38 20 39 74 40 68 41 70 42 21 43 73 44 67 45
REMARK SMILES IDX 66 46 22 48 54 49 34 50 53 51 35 52 38 53 52 54 71 55 36 56
REMARK SMILES IDX 37 57 51 59 72 60 39 61 23 62 24 63 32 64 25 65 26 66 30 67
REMARK SMILES IDX 33 68 27 69 28 70 31 71 29 72 55 73 56 74 64 75 57 76 58 77
REMARK SMILES IDX 62 78 65 79 59 80 60 81 63 82 61 83 40 84 41 85 49 86 42 87
REMARK SMILES IDX 43 88 47 89 50 90 44 91 45 92 48 93 46 94
REMARK H PARENT 1 9 1 10 70 47 38 58
REMARK Flexibility Score: inf
ROOT
ATOM      1  C   UNL A   1      36.112  20.390  25.067  1.00  0.00     0.274 C 
ENDROOT
BRANCH   1   2
ATOM      2  O   UNL A   1      35.782  21.338  26.106  1.00  0.00    -0.461 OA
BRANCH   2   3
ATOM      3  C   UNL A   1      34.469  21.425  26.472  1.00  0.00     0.329 C 
ATOM      4  O   UNL A   1      34.084  21.459  27.632  1.00  0.00    -0.250 OA
BRANCH   3   5
ATOM      5  C   UNL A   1      33.554  21.547  25.231  1.00  0.00     0.211 C 
BRANCH   5   6
ATOM      6  C   UNL A   1      32.308  20.665  25.183  1.00  0.00     0.137 C 
BRANCH   6   7
ATOM      7  C   UNL A   1      32.616  19.194  25.227  1.00  0.00     0.220 C 
ATOM      8  N   UNL A   1      32.903  18.686  26.455  1.00  0.00    -0.370 N 
ATOM      9  H   UNL A   1      33.113  17.730  26.555  1.00  0.00     0.159 HD
ATOM     10  H   UNL A   1      32.900  19.275  27.244  1.00  0.00     0.159 HD
ATOM     11  O   UNL A   1      32.580  18.475  24.237  1.00  0.00    -0.275 OA
ENDBRANCH   6   7
ENDBRANCH   5   6
BRANCH   5  12
ATOM     12  N   UNL A   1      33.280  22.968  24.856  1.00  0.00    -0.278 N 
ATOM     13  C   UNL A   1      32.238  23.628  25.492  1.00  0.00     0.267 C 
ATOM     14  C   UNL A   1      33.993  23.720  23.934  1.00  0.00     0.149 C 
ATOM     15  O   UNL A   1      31.563  23.186  26.411  1.00  0.00    -0.268 OA
ATOM     16  C   UNL A   1      32.031  24.980  24.910  1.00  0.00     0.081 C 
ATOM     17  S   UNL A   1      33.238  25.303  23.739  1.00  0.00    -0.054 SA
ATOM     18  S   UNL A   1      35.366  23.328  23.073  1.00  0.00    -0.052 S 
ATOM     19  C   UNL A   1      30.992  25.753  25.256  1.00  0.00     0.029 C 
BRANCH  19  20
ATOM     20  C   UNL A   1      30.646  27.039  24.641  1.00  0.00    -0.024 A 
ATOM     21  C   UNL A   1      29.648  27.138  23.668  1.00  0.00     0.008 A 
ATOM     22  C   UNL A   1      31.335  28.191  25.034  1.00  0.00     0.008 A 
ATOM     23  C   UNL A   1      29.345  28.380  23.099  1.00  0.00     0.001 A 
ATOM     24  C   UNL A   1      31.028  29.431  24.471  1.00  0.00     0.001 A 
ATOM     25  C   UNL A   1      30.033  29.524  23.501  1.00  0.00     0.000 A 
ENDBRANCH  19  20
ENDBRANCH   5  12
ENDBRANCH   3   5
ENDBRANCH   2   3
ENDBRANCH   1   2
BRANCH   1  26
ATOM     26  C   UNL A   1      37.618  20.112  24.996  1.00  0.00     0.275 C 
BRANCH  26  27
ATOM     27  O   UNL A   1      38.390  21.269  25.370  1.00  0.00    -0.458 OA
BRANCH  27  28
ATOM     28  C   UNL A   1      39.473  21.006  26.130  1.00  0.00     0.338 C 
ATOM     29  O   UNL A   1      40.081  19.949  26.215  1.00  0.00    -0.246 OA
BRANCH  28  30
ATOM     30  C   UNL A   1      39.976  22.256  26.715  1.00  0.00     0.060 A 
ATOM     31  C   UNL A   1      39.471  23.438  26.182  1.00  0.00     0.016 A 
ATOM     32  C   UNL A   1      40.967  22.290  27.695  1.00  0.00     0.016 A 
ATOM     33  C   UNL A   1      39.965  24.666  26.595  1.00  0.00     0.010 A 
ATOM     34  C   UNL A   1      41.457  23.532  28.126  1.00  0.00     0.010 A 
ATOM     35  C   UNL A   1      40.971  24.726  27.564  1.00  0.00    -0.014 A 
BRANCH  35  36
ATOM     36  C   UNL A   1      41.543  26.053  27.900  1.00  0.00     0.031 A 
ATOM     37  C   UNL A   1      42.942  26.390  27.471  1.00  0.00     0.074 A 
ATOM     38  C   UNL A   1      40.763  27.001  28.453  1.00  0.00     0.049 A 
ATOM     39  N   UNL A   1      43.622  27.494  27.657  1.00  0.00    -0.248 NA
ATOM     40  C   UNL A   1      43.659  25.368  26.692  1.00  0.00     0.031 C 
ATOM     41  C   UNL A   1      39.354  26.830  28.808  1.00  0.00     0.029 A 
ATOM     42  N   UNL A   1      41.037  28.304  28.786  1.00  0.00    -0.354 N 
ATOM     43  C   UNL A   1      44.840  27.300  27.020  1.00  0.00     0.074 A 
ATOM     44  C   UNL A   1      44.818  25.967  26.458  1.00  0.00     0.031 C 
ATOM     45  C   UNL A   1      38.880  27.990  29.290  1.00  0.00     0.029 A 
ATOM     46  C   UNL A   1      39.966  28.964  29.338  1.00  0.00     0.049 A 
ATOM     47  H   UNL A   1      41.915  28.723  28.645  1.00  0.00     0.167 HD
ATOM     48  C   UNL A   1      45.874  28.164  26.900  1.00  0.00     0.037 A 
ATOM     49  C   UNL A   1      39.881  30.205  29.857  1.00  0.00     0.037 A 
ATOM     50  C   UNL A   1      45.894  29.492  27.451  1.00  0.00     0.049 A 
ATOM     51  C   UNL A   1      41.101  31.081  29.858  1.00  0.00     0.074 A 
ATOM     52  C   UNL A   1      46.917  30.425  27.423  1.00  0.00     0.029 A 
ATOM     53  N   UNL A   1      44.838  30.077  28.133  1.00  0.00    -0.354 N 
ATOM     54  N   UNL A   1      42.277  30.863  29.322  1.00  0.00    -0.248 NA
ATOM     55  C   UNL A   1      40.990  32.370  30.558  1.00  0.00     0.031 C 
ATOM     56  C   UNL A   1      46.490  31.563  28.114  1.00  0.00     0.029 A 
ATOM     57  C   UNL A   1      45.189  31.353  28.543  1.00  0.00     0.049 A 
ATOM     58  H   UNL A   1      43.967  29.650  28.299  1.00  0.00     0.167 HD
ATOM     59  C   UNL A   1      43.041  31.986  29.608  1.00  0.00     0.074 A 
ATOM     60  C   UNL A   1      42.190  32.893  30.350  1.00  0.00     0.031 C 
ATOM     61  C   UNL A   1      44.333  32.241  29.286  1.00  0.00     0.037 A 
BRANCH  48  62
ATOM     62  C   UNL A   1      47.084  27.684  26.161  1.00  0.00     0.064 A 
ATOM     63  C   UNL A   1      48.188  27.144  26.836  1.00  0.00     0.173 A 
ATOM     64  C   UNL A   1      47.130  27.743  24.761  1.00  0.00     0.173 A 
ATOM     65  F   UNL A   1      48.195  27.084  28.176  1.00  0.00    -0.203 F 
ATOM     66  C   UNL A   1      49.304  26.697  26.134  1.00  0.00     0.198 A 
ATOM     67  C   UNL A   1      48.239  27.277  24.061  1.00  0.00     0.198 A 
ATOM     68  F   UNL A   1      46.096  28.250  24.072  1.00  0.00    -0.203 F 
ATOM     69  F   UNL A   1      50.365  26.217  26.799  1.00  0.00    -0.200 F 
ATOM     70  C   UNL A   1      49.328  26.759  24.748  1.00  0.00     0.200 A 
ATOM     71  F   UNL A   1      48.258  27.333  22.722  1.00  0.00    -0.200 F 
ATOM     72  F   UNL A   1      50.402  26.327  24.074  1.00  0.00    -0.200 F 
ENDBRANCH  48  62
BRANCH  49  73
ATOM     73  C   UNL A   1      38.609  30.666  30.473  1.00  0.00     0.064 A 
ATOM     74  C   UNL A   1      37.589  31.233  29.699  1.00  0.00     0.173 A 
ATOM     75  C   UNL A   1      38.400  30.562  31.857  1.00  0.00     0.173 A 
ATOM     76  F   UNL A   1      37.757  31.385  28.378  1.00  0.00    -0.203 F 
ATOM     77  C   UNL A   1      36.409  31.686  30.288  1.00  0.00     0.198 A 
ATOM     78  C   UNL A   1      37.210  30.990  32.440  1.00  0.00     0.198 A 
ATOM     79  F   UNL A   1      39.352  30.039  32.644  1.00  0.00    -0.203 F 
ATOM     80  F   UNL A   1      35.467  32.266  29.533  1.00  0.00    -0.200 F 
ATOM     81  C   UNL A   1      36.217  31.558  31.655  1.00  0.00     0.200 A 
ATOM     82  F   UNL A   1      37.029  30.859  33.761  1.00  0.00    -0.200 F 
ATOM     83  F   UNL A   1      35.084  31.993  32.220  1.00  0.00    -0.200 F 
ENDBRANCH  49  73
BRANCH  61  84
ATOM     84  C   UNL A   1      44.899  33.558  29.723  1.00  0.00     0.064 A 
ATOM     85  C   UNL A   1      45.591  33.688  30.935  1.00  0.00     0.173 A 
ATOM     86  C   UNL A   1      44.782  34.690  28.904  1.00  0.00     0.173 A 
ATOM     87  F   UNL A   1      45.713  32.636  31.759  1.00  0.00    -0.203 F 
ATOM     88  C   UNL A   1      46.131  34.911  31.321  1.00  0.00     0.198 A 
ATOM     89  C   UNL A   1      45.343  35.906  29.282  1.00  0.00     0.198 A 
ATOM     90  F   UNL A   1      44.133  34.614  27.733  1.00  0.00    -0.203 F 
ATOM     91  F   UNL A   1      46.755  35.024  32.502  1.00  0.00    -0.200 F 
ATOM     92  C   UNL A   1      46.012  36.017  30.492  1.00  0.00     0.200 A 
ATOM     93  F   UNL A   1      45.236  36.971  28.476  1.00  0.00    -0.200 F 
ATOM     94  F   UNL A   1      46.538  37.193  30.862  1.00  0.00    -0.200 F 
ENDBRANCH  61  84
ENDBRANCH  35  36
ENDBRANCH  28  30
ENDBRANCH  27  28
ENDBRANCH  26  27
ENDBRANCH   1  26
TORSDOF 15
ENDMDL
MODEL 3
REMARK VINA RESULT:     -11.6      4.471      7.470
REMARK SMILES NC(=O)C[C@H](C(=O)OCCOC(=O)c1ccc(-c2c3nc(c(-c4c(F)c(F)c(F)c(F)c4F)c4ccc([nH]4)c(-c4c(F)c(F)c(F)c(F)c4F)c4nc(c(-c5c(F)c(F)c(F)c(F)c5F)c5ccc2[nH]5)C=C4)C=C3)cc1)N1C(=O)/C(=C/c2ccccc2)SC1=S
REMARK SMILES IDX 9 1 8 2 6 3 7 4 5 5 4 6 2 7 1 8 3 11 77 12 78 13 89 14 79 15
REMARK SMILES IDX 80 16 88 17 90 18 81 19 82 20 83 21 87 22 84 23 86 24 85 25
REMARK SMILES IDX 10 26 11 27 12 28 13 29 14 30 15 31 76 32 16 33 75 34 17 35
REMARK SMILES IDX 18 36 19 37 69 38 20 39 74 40 68 41 70 42 21 43 73 44 67 45
REMARK SMILES IDX 66 46 22 48 54 49 34 50 53 51 35 52 38 53 52 54 71 55 36 56
REMARK SMILES IDX 37 57 51 59 72 60 39 61 23 62 24 63 32 64 25 65 26 66 30 67
REMARK SMILES IDX 33 68 27 69 28 70 31 71 29 72 55 73 56 74 64 75 57 76 58 77
REMARK SMILES IDX 62 78 65 79 59 80 60 81 63 82 61 83 40 84 41 85 49 86 42 87
REMARK SMILES IDX 43 88 47 89 50 90 44 91 45 92 48 93 46 94
REMARK H PARENT 1 9 1 10 70 47 38 58
REMARK Flexibility Score: inf
ROOT
ATOM      1  C   UNL A   1      31.714  29.160  25.323  1.00  0.00     0.274 C 
ENDROOT
BRANCH   1   2
ATOM      2  O   UNL A   1      31.633  27.785  25.758  1.00  0.00    -0.461 OA
BRANCH   2   3
ATOM      3  C   UNL A   1      32.235  26.848  24.967  1.00  0.00     0.329 C 
ATOM      4  O   UNL A   1      33.442  26.657  24.932  1.00  0.00    -0.250 OA
BRANCH   3   5
ATOM      5  C   UNL A   1      31.184  26.023  24.187  1.00  0.00     0.211 C 
BRANCH   5   6
ATOM      6  C   UNL A   1      30.418  26.731  23.071  1.00  0.00     0.137 C 
BRANCH   6   7
ATOM      7  C   UNL A   1      29.068  27.235  23.501  1.00  0.00     0.220 C 
ATOM      8  N   UNL A   1      28.212  26.296  23.986  1.00  0.00    -0.370 N 
ATOM      9  H   UNL A   1      27.312  26.558  24.285  1.00  0.00     0.159 HD
ATOM     10  H   UNL A   1      28.494  25.354  24.039  1.00  0.00     0.159 HD
ATOM     11  O   UNL A   1      28.752  28.417  23.457  1.00  0.00    -0.275 OA
ENDBRANCH   6   7
ENDBRANCH   5   6
BRANCH   5  12
ATOM     12  N   UNL A   1      31.693  24.677  23.784  1.00  0.00    -0.278 N 
ATOM     13  C   UNL A   1      31.380  23.588  24.585  1.00  0.00     0.267 C 
ATOM     14  C   UNL A   1      32.443  24.394  22.653  1.00  0.00     0.149 C 
ATOM     15  O   UNL A   1      30.640  23.602  25.559  1.00  0.00    -0.268 OA
ATOM     16  C   UNL A   1      32.068  22.359  24.106  1.00  0.00     0.081 C 
ATOM     17  S   UNL A   1      32.909  22.692  22.651  1.00  0.00    -0.054 SA
ATOM     18  S   UNL A   1      32.904  25.395  21.402  1.00  0.00    -0.052 S 
ATOM     19  C   UNL A   1      32.039  21.212  24.797  1.00  0.00     0.029 C 
BRANCH  19  20
ATOM     20  C   UNL A   1      32.791  19.997  24.461  1.00  0.00    -0.024 A 
ATOM     21  C   UNL A   1      34.071  19.767  24.971  1.00  0.00     0.008 A 
ATOM     22  C   UNL A   1      32.214  19.051  23.607  1.00  0.00     0.008 A 
ATOM     23  C   UNL A   1      34.762  18.600  24.627  1.00  0.00     0.001 A 
ATOM     24  C   UNL A   1      32.900  17.884  23.271  1.00  0.00     0.001 A 
ATOM     25  C   UNL A   1      34.177  17.660  23.780  1.00  0.00     0.000 A 
ENDBRANCH  19  20
ENDBRANCH   5  12
ENDBRANCH   3   5
ENDBRANCH   2   3
ENDBRANCH   1   2
BRANCH   1  26
ATOM     26  C   UNL A   1      32.022  30.115  26.483  1.00  0.00     0.275 C 
BRANCH  26  27
ATOM     27  O   UNL A   1      33.256  30.826  26.272  1.00  0.00    -0.458 OA
BRANCH  27  28
ATOM     28  C   UNL A   1      33.583  31.698  27.250  1.00  0.00     0.338 C 
ATOM     29  O   UNL A   1      32.862  32.540  27.763  1.00  0.00    -0.246 OA
BRANCH  28  30
ATOM     30  C   UNL A   1      34.908  31.358  27.785  1.00  0.00     0.060 A 
ATOM     31  C   UNL A   1      35.108  30.032  28.155  1.00  0.00     0.016 A 
ATOM     32  C   UNL A   1      35.904  32.309  28.000  1.00  0.00     0.016 A 
ATOM     33  C   UNL A   1      36.287  29.641  28.768  1.00  0.00     0.010 A 
ATOM     34  C   UNL A   1      37.105  31.912  28.606  1.00  0.00     0.010 A 
ATOM     35  C   UNL A   1      37.295  30.578  29.011  1.00  0.00    -0.014 A 
BRANCH  35  36
ATOM     36  C   UNL A   1      38.495  30.139  29.763  1.00  0.00     0.031 A 
ATOM     37  C   UNL A   1      38.716  30.630  31.166  1.00  0.00     0.074 A 
ATOM     38  C   UNL A   1      39.302  29.191  29.249  1.00  0.00     0.049 A 
ATOM     39  N   UNL A   1      39.694  30.359  31.993  1.00  0.00    -0.248 NA
ATOM     40  C   UNL A   1      37.679  31.509  31.729  1.00  0.00     0.031 C 
ATOM     41  C   UNL A   1      39.125  28.552  27.945  1.00  0.00     0.029 A 
ATOM     42  N   UNL A   1      40.414  28.581  29.773  1.00  0.00    -0.354 N 
ATOM     43  C   UNL A   1      39.390  31.030  33.170  1.00  0.00     0.074 A 
ATOM     44  C   UNL A   1      38.148  31.738  32.947  1.00  0.00     0.031 C 
ATOM     45  C   UNL A   1      40.081  27.624  27.778  1.00  0.00     0.029 A 
ATOM     46  C   UNL A   1      40.974  27.649  28.933  1.00  0.00     0.049 A 
ATOM     47  H   UNL A   1      40.776  28.791  30.663  1.00  0.00     0.167 HD
ATOM     48  C   UNL A   1      40.076  31.038  34.336  1.00  0.00     0.037 A 
ATOM     49  C   UNL A   1      42.100  26.922  29.064  1.00  0.00     0.037 A 
ATOM     50  C   UNL A   1      41.307  30.329  34.562  1.00  0.00     0.049 A 
ATOM     51  C   UNL A   1      42.931  27.082  30.306  1.00  0.00     0.074 A 
ATOM     52  C   UNL A   1      42.101  30.314  35.695  1.00  0.00     0.029 A 
ATOM     53  N   UNL A   1      41.922  29.505  33.632  1.00  0.00    -0.354 N 
ATOM     54  N   UNL A   1      42.679  27.779  31.387  1.00  0.00    -0.248 NA
ATOM     55  C   UNL A   1      44.218  26.370  30.338  1.00  0.00     0.031 C 
ATOM     56  C   UNL A   1      43.214  29.506  35.440  1.00  0.00     0.029 A 
ATOM     57  C   UNL A   1      43.094  28.989  34.160  1.00  0.00     0.049 A 
ATOM     58  H   UNL A   1      41.576  29.313  32.731  1.00  0.00     0.167 HD
ATOM     59  C   UNL A   1      43.763  27.583  32.230  1.00  0.00     0.074 A 
ATOM     60  C   UNL A   1      44.671  26.687  31.543  1.00  0.00     0.031 C 
ATOM     61  C   UNL A   1      43.989  28.103  33.462  1.00  0.00     0.037 A 
BRANCH  48  62
ATOM     62  C   UNL A   1      39.519  31.865  35.452  1.00  0.00     0.064 A 
ATOM     63  C   UNL A   1      38.591  31.339  36.362  1.00  0.00     0.173 A 
ATOM     64  C   UNL A   1      39.935  33.193  35.626  1.00  0.00     0.173 A 
ATOM     65  F   UNL A   1      38.152  30.079  36.223  1.00  0.00    -0.203 F 
ATOM     66  C   UNL A   1      38.086  32.119  37.398  1.00  0.00     0.198 A 
ATOM     67  C   UNL A   1      39.442  33.965  36.675  1.00  0.00     0.198 A 
ATOM     68  F   UNL A   1      40.821  33.740  34.781  1.00  0.00    -0.203 F 
ATOM     69  F   UNL A   1      37.173  31.609  38.237  1.00  0.00    -0.200 F 
ATOM     70  C   UNL A   1      38.514  33.429  37.557  1.00  0.00     0.200 A 
ATOM     71  F   UNL A   1      39.861  35.228  36.830  1.00  0.00    -0.200 F 
ATOM     72  F   UNL A   1      38.028  34.179  38.556  1.00  0.00    -0.200 F 
ENDBRANCH  48  62
BRANCH  49  73
ATOM     73  C   UNL A   1      42.539  26.026  27.963  1.00  0.00     0.064 A 
ATOM     74  C   UNL A   1      43.448  26.458  26.990  1.00  0.00     0.173 A 
ATOM     75  C   UNL A   1      42.037  24.719  27.855  1.00  0.00     0.173 A 
ATOM     76  F   UNL A   1      43.928  27.710  27.031  1.00  0.00    -0.203 F 
ATOM     77  C   UNL A   1      43.835  25.619  25.946  1.00  0.00     0.198 A 
ATOM     78  C   UNL A   1      42.446  23.873  26.826  1.00  0.00     0.198 A 
ATOM     79  F   UNL A   1      41.152  24.262  28.753  1.00  0.00    -0.203 F 
ATOM     80  F   UNL A   1      44.673  26.072  25.003  1.00  0.00    -0.200 F 
ATOM     81  C   UNL A   1      43.340  24.326  25.869  1.00  0.00     0.200 A 
ATOM     82  F   UNL A   1      41.967  22.624  26.761  1.00  0.00    -0.200 F 
ATOM     83  F   UNL A   1      43.713  23.521  24.866  1.00  0.00    -0.200 F 
ENDBRANCH  49  73
BRANCH  61  84
ATOM     84  C   UNL A   1      45.258  27.703  34.150  1.00  0.00     0.064 A 
ATOM     85  C   UNL A   1      46.432  28.456  34.011  1.00  0.00     0.173 A 
ATOM     86  C   UNL A   1      45.291  26.577  34.986  1.00  0.00     0.173 A 
ATOM     87  F   UNL A   1      46.453  29.530  33.208  1.00  0.00    -0.203 F 
ATOM     88  C   UNL A   1      47.600  28.087  34.672  1.00  0.00     0.198 A 
ATOM     89  C   UNL A   1      46.454  26.225  35.664  1.00  0.00     0.198 A 
ATOM     90  F   UNL A   1      44.191  25.828  35.154  1.00  0.00    -0.203 F 
ATOM     91  F   UNL A   1      48.722  28.799  34.495  1.00  0.00    -0.200 F 
ATOM     92  C   UNL A   1      47.608  26.976  35.503  1.00  0.00     0.200 A 
ATOM     93  F   UNL A   1      46.458  25.157  36.474  1.00  0.00    -0.200 F 
ATOM     94  F   UNL A   1      48.732  26.626  36.143  1.00  0.00    -0.200 F 
ENDBRANCH  61  84
ENDBRANCH  35  36
ENDBRANCH  28  30
ENDBRANCH  27  28
ENDBRANCH  26  27
ENDBRANCH   1  26
TORSDOF 15
ENDMDL
