MODEL 1
REMARK VINA RESULT:     -13.1      0.000      0.000
REMARK SMILES Cc1cc(Cl)ccc1Oc1cc(C)c(N)c(C(=O)OCCOC(=O)c2ccc(-c3c4nc(c(-c5c(F)c(F)c(F)c(F)c5F)c5ccc([nH]5)c(-c5c(F)c(F)c(F)c(F)c5F)c5nc(c(-c6c(F)c(F)c(F)c(F)c6F)c6ccc3[nH]6)C=C5)C=C4)cc2)c1
REMARK SMILES IDX 20 1 19 2 17 3 18 4 16 5 10 6 11 7 88 8 12 9 13 10 14 11
REMARK SMILES IDX 9 12 8 13 1 14 2 15 3 16 4 17 7 18 5 19 6 20 15 21 21 24
REMARK SMILES IDX 22 25 23 26 24 27 25 28 26 29 87 30 27 31 86 32 28 33 29 34
REMARK SMILES IDX 30 35 80 36 31 37 85 38 79 39 81 40 32 41 84 42 78 43 77 44
REMARK SMILES IDX 33 46 65 47 45 48 64 49 46 50 49 51 63 52 82 53 47 54 48 55
REMARK SMILES IDX 62 57 83 58 50 59 34 60 35 61 43 62 36 63 37 64 41 65 44 66
REMARK SMILES IDX 38 67 39 68 42 69 40 70 66 71 67 72 75 73 68 74 69 75 73 76
REMARK SMILES IDX 76 77 70 78 71 79 74 80 72 81 51 82 52 83 60 84 53 85 54 86
REMARK SMILES IDX 58 87 61 88 55 89 56 90 59 91 57 92
REMARK H PARENT 15 22 15 23 81 45 49 56
REMARK Flexibility Score: inf
ROOT
ATOM      1  C   UNL A   1      33.351  29.066  24.782  1.00  0.00     0.275 C 
ENDROOT
BRANCH   1   2
ATOM      2  O   UNL A   1      33.466  29.339  23.367  1.00  0.00    -0.458 OA
BRANCH   2   3
ATOM      3  C   UNL A   1      33.240  28.283  22.545  1.00  0.00     0.340 C 
ATOM      4  O   UNL A   1      34.028  27.824  21.732  1.00  0.00    -0.246 OA
BRANCH   3   5
ATOM      5  C   UNL A   1      31.863  27.759  22.721  1.00  0.00     0.086 A 
ATOM      6  C   UNL A   1      30.394  25.989  23.398  1.00  0.00     0.128 A 
ATOM      7  C   UNL A   1      29.319  26.874  23.462  1.00  0.00     0.052 A 
ATOM      8  C   UNL A   1      31.685  26.442  23.139  1.00  0.00     0.065 A 
ATOM      9  C   UNL A   1      29.475  28.182  22.999  1.00  0.00    -0.024 A 
ATOM     10  C   UNL A   1      28.269  29.073  22.874  1.00  0.00     0.047 C 
ATOM     11  C   UNL A   1      30.741  28.597  22.544  1.00  0.00     0.049 A 
BRANCH   6  12
ATOM     12  O   UNL A   1      30.233  24.643  23.565  1.00  0.00    -0.457 OA
BRANCH  12  13
ATOM     13  C   UNL A   1      31.026  23.963  24.473  1.00  0.00     0.130 A 
ATOM     14  C   UNL A   1      32.531  22.530  22.899  1.00  0.00     0.048 C 
ATOM     15  C   UNL A   1      32.059  23.027  24.238  1.00  0.00    -0.007 A 
ATOM     16  C   UNL A   1      32.720  22.467  25.353  1.00  0.00     0.027 A 
ATOM     17  C   UNL A   1      32.420  22.871  26.652  1.00  0.00     0.041 A 
ATOM     18  C   UNL A   1      30.748  24.363  25.792  1.00  0.00     0.049 A 
ATOM     19  Cl  UNL A   1      33.280  22.190  27.977  1.00  0.00    -0.084 Cl
ATOM     20  C   UNL A   1      31.443  23.828  26.876  1.00  0.00     0.024 A 
ENDBRANCH  12  13
ENDBRANCH   6  12
BRANCH  11  21
ATOM     21  N   UNL A   1      30.809  29.710  21.707  1.00  0.00    -0.398 N 
ATOM     22  H   UNL A   1      31.579  29.826  21.105  1.00  0.00     0.156 HD
ATOM     23  H   UNL A   1      30.086  30.379  21.718  1.00  0.00     0.156 HD
ENDBRANCH  11  21
ENDBRANCH   3   5
ENDBRANCH   2   3
ENDBRANCH   1   2
BRANCH   1  24
ATOM     24  C   UNL A   1      32.383  30.037  25.456  1.00  0.00     0.275 C 
BRANCH  24  25
ATOM     25  O   UNL A   1      32.695  30.148  26.855  1.00  0.00    -0.458 OA
BRANCH  25  26
ATOM     26  C   UNL A   1      33.318  31.286  27.234  1.00  0.00     0.338 C 
ATOM     27  O   UNL A   1      32.852  32.412  27.281  1.00  0.00    -0.246 OA
BRANCH  26  28
ATOM     28  C   UNL A   1      34.689  30.990  27.684  1.00  0.00     0.060 A 
ATOM     29  C   UNL A   1      35.022  29.680  27.998  1.00  0.00     0.016 A 
ATOM     30  C   UNL A   1      35.573  32.021  28.001  1.00  0.00     0.016 A 
ATOM     31  C   UNL A   1      36.146  29.424  28.777  1.00  0.00     0.010 A 
ATOM     32  C   UNL A   1      36.792  31.730  28.634  1.00  0.00     0.010 A 
ATOM     33  C   UNL A   1      37.083  30.426  29.069  1.00  0.00    -0.014 A 
BRANCH  33  34
ATOM     34  C   UNL A   1      38.345  30.091  29.801  1.00  0.00     0.031 A 
ATOM     35  C   UNL A   1      39.404  29.210  29.183  1.00  0.00     0.074 A 
ATOM     36  C   UNL A   1      38.562  30.593  31.037  1.00  0.00     0.049 A 
ATOM     37  N   UNL A   1      40.423  28.615  29.754  1.00  0.00    -0.248 NA
ATOM     38  C   UNL A   1      39.304  28.954  27.738  1.00  0.00     0.031 C 
ATOM     39  C   UNL A   1      37.667  31.505  31.754  1.00  0.00     0.029 A 
ATOM     40  N   UNL A   1      39.609  30.419  31.914  1.00  0.00    -0.354 N 
ATOM     41  C   UNL A   1      41.036  27.859  28.761  1.00  0.00     0.074 A 
ATOM     42  C   UNL A   1      40.290  28.086  27.543  1.00  0.00     0.031 C 
ATOM     43  C   UNL A   1      38.231  31.873  32.909  1.00  0.00     0.029 A 
ATOM     44  C   UNL A   1      39.441  31.090  33.102  1.00  0.00     0.049 A 
ATOM     45  H   UNL A   1      40.399  29.869  31.710  1.00  0.00     0.167 HD
ATOM     46  C   UNL A   1      42.114  27.043  28.869  1.00  0.00     0.037 A 
ATOM     47  C   UNL A   1      40.116  31.023  34.265  1.00  0.00     0.037 A 
ATOM     48  C   UNL A   1      42.890  26.878  30.074  1.00  0.00     0.049 A 
ATOM     49  C   UNL A   1      41.254  30.057  34.385  1.00  0.00     0.074 A 
ATOM     50  C   UNL A   1      44.014  26.097  30.280  1.00  0.00     0.029 A 
ATOM     51  N   UNL A   1      42.626  27.516  31.277  1.00  0.00    -0.354 N 
ATOM     52  N   UNL A   1      41.768  29.274  33.468  1.00  0.00    -0.248 NA
ATOM     53  C   UNL A   1      41.874  29.931  35.708  1.00  0.00     0.031 C 
ATOM     54  C   UNL A   1      44.402  26.226  31.618  1.00  0.00     0.029 A 
ATOM     55  C   UNL A   1      43.547  27.123  32.236  1.00  0.00     0.049 A 
ATOM     56  H   UNL A   1      41.892  28.154  31.429  1.00  0.00     0.167 HD
ATOM     57  C   UNL A   1      42.763  28.551  34.106  1.00  0.00     0.074 A 
ATOM     58  C   UNL A   1      42.805  29.015  35.478  1.00  0.00     0.031 C 
ATOM     59  C   UNL A   1      43.561  27.580  33.601  1.00  0.00     0.037 A 
BRANCH  46  60
ATOM     60  C   UNL A   1      42.505  26.220  27.672  1.00  0.00     0.064 A 
ATOM     61  C   UNL A   1      43.502  26.626  26.773  1.00  0.00     0.173 A 
ATOM     62  C   UNL A   1      41.911  24.962  27.465  1.00  0.00     0.173 A 
ATOM     63  F   UNL A   1      44.096  27.819  26.918  1.00  0.00    -0.203 F 
ATOM     64  C   UNL A   1      43.876  25.813  25.703  1.00  0.00     0.198 A 
ATOM     65  C   UNL A   1      42.306  24.143  26.411  1.00  0.00     0.198 A 
ATOM     66  F   UNL A   1      40.959  24.520  28.300  1.00  0.00    -0.203 F 
ATOM     67  F   UNL A   1      44.806  26.236  24.836  1.00  0.00    -0.200 F 
ATOM     68  C   UNL A   1      43.285  24.570  25.528  1.00  0.00     0.200 A 
ATOM     69  F   UNL A   1      41.743  22.937  26.253  1.00  0.00    -0.200 F 
ATOM     70  F   UNL A   1      43.655  23.787  24.505  1.00  0.00    -0.200 F 
ENDBRANCH  46  60
BRANCH  47  71
ATOM     71  C   UNL A   1      39.644  31.817  35.431  1.00  0.00     0.064 A 
ATOM     72  C   UNL A   1      40.125  33.109  35.669  1.00  0.00     0.173 A 
ATOM     73  C   UNL A   1      38.665  31.314  36.305  1.00  0.00     0.173 A 
ATOM     74  F   UNL A   1      41.083  33.623  34.882  1.00  0.00    -0.203 F 
ATOM     75  C   UNL A   1      39.637  33.873  36.727  1.00  0.00     0.198 A 
ATOM     76  C   UNL A   1      38.151  32.092  37.337  1.00  0.00     0.198 A 
ATOM     77  F   UNL A   1      38.175  30.078  36.124  1.00  0.00    -0.203 F 
ATOM     78  F   UNL A   1      40.134  35.098  36.952  1.00  0.00    -0.200 F 
ATOM     79  C   UNL A   1      38.639  33.371  37.551  1.00  0.00     0.200 A 
ATOM     80  F   UNL A   1      37.171  31.608  38.114  1.00  0.00    -0.200 F 
ATOM     81  F   UNL A   1      38.153  34.117  38.552  1.00  0.00    -0.200 F 
ENDBRANCH  47  71
BRANCH  59  82
ATOM     82  C   UNL A   1      44.543  26.957  34.546  1.00  0.00     0.064 A 
ATOM     83  C   UNL A   1      45.805  27.530  34.763  1.00  0.00     0.173 A 
ATOM     84  C   UNL A   1      44.216  25.791  35.250  1.00  0.00     0.173 A 
ATOM     85  F   UNL A   1      46.171  28.633  34.093  1.00  0.00    -0.203 F 
ATOM     86  C   UNL A   1      46.714  26.941  35.638  1.00  0.00     0.198 A 
ATOM     87  C   UNL A   1      45.117  25.219  36.143  1.00  0.00     0.198 A 
ATOM     88  F   UNL A   1      43.020  25.207  35.074  1.00  0.00    -0.203 F 
ATOM     89  F   UNL A   1      47.932  27.477  35.797  1.00  0.00    -0.200 F 
ATOM     90  C   UNL A   1      46.367  25.791  36.332  1.00  0.00     0.200 A 
ATOM     91  F   UNL A   1      44.778  24.113  36.819  1.00  0.00    -0.200 F 
ATOM     92  F   UNL A   1      47.242  25.227  37.176  1.00  0.00    -0.200 F 
ENDBRANCH  59  82
ENDBRANCH  33  34
ENDBRANCH  26  28
ENDBRANCH  25  26
ENDBRANCH  24  25
ENDBRANCH   1  24
TORSDOF 14
ENDMDL
MODEL 2
REMARK VINA RESULT:     -12.8      1.941      3.240
REMARK SMILES Cc1cc(Cl)ccc1Oc1cc(C)c(N)c(C(=O)OCCOC(=O)c2ccc(-c3c4nc(c(-c5c(F)c(F)c(F)c(F)c5F)c5ccc([nH]5)c(-c5c(F)c(F)c(F)c(F)c5F)c5nc(c(-c6c(F)c(F)c(F)c(F)c6F)c6ccc3[nH]6)C=C5)C=C4)cc2)c1
REMARK SMILES IDX 20 1 19 2 17 3 18 4 16 5 10 6 11 7 88 8 12 9 13 10 14 11
REMARK SMILES IDX 9 12 8 13 1 14 2 15 3 16 4 17 7 18 5 19 6 20 15 21 21 24
REMARK SMILES IDX 22 25 23 26 24 27 25 28 26 29 87 30 27 31 86 32 28 33 29 34
REMARK SMILES IDX 30 35 80 36 31 37 85 38 79 39 81 40 32 41 84 42 78 43 77 44
REMARK SMILES IDX 33 46 65 47 45 48 64 49 46 50 49 51 63 52 82 53 47 54 48 55
REMARK SMILES IDX 62 57 83 58 50 59 34 60 35 61 43 62 36 63 37 64 41 65 44 66
REMARK SMILES IDX 38 67 39 68 42 69 40 70 66 71 67 72 75 73 68 74 69 75 73 76
REMARK SMILES IDX 76 77 70 78 71 79 74 80 72 81 51 82 52 83 60 84 53 85 54 86
REMARK SMILES IDX 58 87 61 88 55 89 56 90 59 91 57 92
REMARK H PARENT 15 22 15 23 81 45 49 56
REMARK Flexibility Score: inf
ROOT
ATOM      1  C   UNL A   1      31.541  28.693  25.086  1.00  0.00     0.275 C 
ENDROOT
BRANCH   1   2
ATOM      2  O   UNL A   1      32.143  27.379  25.071  1.00  0.00    -0.458 OA
BRANCH   2   3
ATOM      3  C   UNL A   1      31.763  26.546  26.072  1.00  0.00     0.340 C 
ATOM      4  O   UNL A   1      30.854  26.744  26.865  1.00  0.00    -0.246 OA
BRANCH   3   5
ATOM      5  C   UNL A   1      32.632  25.345  26.123  1.00  0.00     0.086 A 
ATOM      6  C   UNL A   1      34.761  24.315  25.735  1.00  0.00     0.128 A 
ATOM      7  C   UNL A   1      34.427  23.252  26.573  1.00  0.00     0.052 A 
ATOM      8  C   UNL A   1      33.918  25.414  25.594  1.00  0.00     0.065 A 
ATOM      9  C   UNL A   1      33.126  23.149  27.068  1.00  0.00    -0.024 A 
ATOM     10  C   UNL A   1      32.707  21.902  27.799  1.00  0.00     0.047 C 
ATOM     11  C   UNL A   1      32.199  24.164  26.764  1.00  0.00     0.049 A 
BRANCH   6  12
ATOM     12  O   UNL A   1      35.914  24.320  25.001  1.00  0.00    -0.457 OA
BRANCH  12  13
ATOM     13  C   UNL A   1      36.880  23.355  25.229  1.00  0.00     0.130 A 
ATOM     14  C   UNL A   1      38.464  24.568  26.907  1.00  0.00     0.048 C 
ATOM     15  C   UNL A   1      38.019  23.404  26.063  1.00  0.00    -0.007 A 
ATOM     16  C   UNL A   1      38.858  22.270  26.116  1.00  0.00     0.027 A 
ATOM     17  C   UNL A   1      38.544  21.103  25.425  1.00  0.00     0.041 A 
ATOM     18  C   UNL A   1      36.576  22.162  24.549  1.00  0.00     0.049 A 
ATOM     19  Cl  UNL A   1      39.576  19.732  25.551  1.00  0.00    -0.084 Cl
ATOM     20  C   UNL A   1      37.397  21.039  24.649  1.00  0.00     0.024 A 
ENDBRANCH  12  13
ENDBRANCH   6  12
BRANCH  11  21
ATOM     21  N   UNL A   1      30.840  23.872  26.876  1.00  0.00    -0.398 N 
ATOM     22  H   UNL A   1      30.483  23.039  26.492  1.00  0.00     0.156 HD
ATOM     23  H   UNL A   1      30.239  24.499  27.341  1.00  0.00     0.156 HD
ENDBRANCH  11  21
ENDBRANCH   3   5
ENDBRANCH   2   3
ENDBRANCH   1   2
BRANCH   1  24
ATOM     24  C   UNL A   1      32.579  29.774  25.381  1.00  0.00     0.275 C 
BRANCH  24  25
ATOM     25  O   UNL A   1      32.694  29.969  26.801  1.00  0.00    -0.458 OA
BRANCH  25  26
ATOM     26  C   UNL A   1      33.285  31.120  27.194  1.00  0.00     0.338 C 
ATOM     27  O   UNL A   1      32.788  32.232  27.255  1.00  0.00    -0.246 OA
BRANCH  26  28
ATOM     28  C   UNL A   1      34.664  30.856  27.642  1.00  0.00     0.060 A 
ATOM     29  C   UNL A   1      35.028  29.555  27.958  1.00  0.00     0.016 A 
ATOM     30  C   UNL A   1      35.525  31.908  27.953  1.00  0.00     0.016 A 
ATOM     31  C   UNL A   1      36.160  29.327  28.733  1.00  0.00     0.010 A 
ATOM     32  C   UNL A   1      36.752  31.646  28.583  1.00  0.00     0.010 A 
ATOM     33  C   UNL A   1      37.074  30.351  29.021  1.00  0.00    -0.014 A 
BRANCH  33  34
ATOM     34  C   UNL A   1      38.345  30.046  29.751  1.00  0.00     0.031 A 
ATOM     35  C   UNL A   1      39.419  29.181  29.135  1.00  0.00     0.074 A 
ATOM     36  C   UNL A   1      38.557  30.563  30.981  1.00  0.00     0.049 A 
ATOM     37  N   UNL A   1      40.452  28.611  29.706  1.00  0.00    -0.248 NA
ATOM     38  C   UNL A   1      39.318  28.911  27.692  1.00  0.00     0.031 C 
ATOM     39  C   UNL A   1      37.648  31.463  31.694  1.00  0.00     0.029 A 
ATOM     40  N   UNL A   1      39.611  30.416  31.855  1.00  0.00    -0.354 N 
ATOM     41  C   UNL A   1      41.076  27.859  28.717  1.00  0.00     0.074 A 
ATOM     42  C   UNL A   1      40.320  28.061  27.500  1.00  0.00     0.031 C 
ATOM     43  C   UNL A   1      38.209  31.851  32.844  1.00  0.00     0.029 A 
ATOM     44  C   UNL A   1      39.435  31.094  33.038  1.00  0.00     0.049 A 
ATOM     45  H   UNL A   1      40.411  29.881  31.652  1.00  0.00     0.167 HD
ATOM     46  C   UNL A   1      42.170  27.066  28.827  1.00  0.00     0.037 A 
ATOM     47  C   UNL A   1      40.116  31.050  34.199  1.00  0.00     0.037 A 
ATOM     48  C   UNL A   1      42.953  26.925  30.030  1.00  0.00     0.049 A 
ATOM     49  C   UNL A   1      41.273  30.107  34.321  1.00  0.00     0.074 A 
ATOM     50  C   UNL A   1      44.094  26.168  30.237  1.00  0.00     0.029 A 
ATOM     51  N   UNL A   1      42.682  27.568  31.229  1.00  0.00    -0.354 N 
ATOM     52  N   UNL A   1      41.799  29.327  33.410  1.00  0.00    -0.248 NA
ATOM     53  C   UNL A   1      41.901  30.004  35.643  1.00  0.00     0.031 C 
ATOM     54  C   UNL A   1      44.485  26.315  31.573  1.00  0.00     0.029 A 
ATOM     55  C   UNL A   1      43.615  27.201  32.187  1.00  0.00     0.049 A 
ATOM     56  H   UNL A   1      41.936  28.193  31.379  1.00  0.00     0.167 HD
ATOM     57  C   UNL A   1      42.810  28.629  34.049  1.00  0.00     0.074 A 
ATOM     58  C   UNL A   1      42.849  29.105  35.417  1.00  0.00     0.031 C 
ATOM     59  C   UNL A   1      43.626  27.669  33.549  1.00  0.00     0.037 A 
BRANCH  46  60
ATOM     60  C   UNL A   1      42.572  26.240  27.635  1.00  0.00     0.064 A 
ATOM     61  C   UNL A   1      43.467  26.709  26.663  1.00  0.00     0.173 A 
ATOM     62  C   UNL A   1      42.099  24.922  27.507  1.00  0.00     0.173 A 
ATOM     63  F   UNL A   1      43.943  27.961  26.732  1.00  0.00    -0.203 F 
ATOM     64  C   UNL A   1      43.859  25.897  25.599  1.00  0.00     0.198 A 
ATOM     65  C   UNL A   1      42.513  24.106  26.457  1.00  0.00     0.198 A 
ATOM     66  F   UNL A   1      41.248  24.419  28.413  1.00  0.00    -0.203 F 
ATOM     67  F   UNL A   1      44.688  26.378  24.662  1.00  0.00    -0.200 F 
ATOM     68  C   UNL A   1      43.389  24.595  25.501  1.00  0.00     0.200 A 
ATOM     69  F   UNL A   1      42.068  22.845  26.374  1.00  0.00    -0.200 F 
ATOM     70  F   UNL A   1      43.776  23.815  24.483  1.00  0.00    -0.200 F 
ENDBRANCH  46  60
BRANCH  47  71
ATOM     71  C   UNL A   1      39.633  31.844  35.360  1.00  0.00     0.064 A 
ATOM     72  C   UNL A   1      40.085  33.150  35.582  1.00  0.00     0.173 A 
ATOM     73  C   UNL A   1      38.673  31.327  36.246  1.00  0.00     0.173 A 
ATOM     74  F   UNL A   1      41.025  33.679  34.783  1.00  0.00    -0.203 F 
ATOM     75  C   UNL A   1      39.587  33.913  36.636  1.00  0.00     0.198 A 
ATOM     76  C   UNL A   1      38.147  32.102  37.274  1.00  0.00     0.198 A 
ATOM     77  F   UNL A   1      38.211  30.078  36.081  1.00  0.00    -0.203 F 
ATOM     78  F   UNL A   1      40.056  35.151  36.845  1.00  0.00    -0.200 F 
ATOM     79  C   UNL A   1      38.607  33.394  37.472  1.00  0.00     0.200 A 
ATOM     80  F   UNL A   1      37.185  31.604  38.063  1.00  0.00    -0.200 F 
ATOM     81  F   UNL A   1      38.110  34.139  38.469  1.00  0.00    -0.200 F 
ENDBRANCH  47  71
BRANCH  59  82
ATOM     82  C   UNL A   1      44.624  27.074  34.494  1.00  0.00     0.064 A 
ATOM     83  C   UNL A   1      44.335  25.906  35.214  1.00  0.00     0.173 A 
ATOM     84  C   UNL A   1      45.882  27.666  34.669  1.00  0.00     0.173 A 
ATOM     85  F   UNL A   1      43.135  25.318  35.096  1.00  0.00    -0.203 F 
ATOM     86  C   UNL A   1      45.266  25.363  36.095  1.00  0.00     0.198 A 
ATOM     87  C   UNL A   1      46.820  27.106  35.532  1.00  0.00     0.198 A 
ATOM     88  F   UNL A   1      46.203  28.785  34.002  1.00  0.00    -0.203 F 
ATOM     89  F   UNL A   1      44.954  24.272  36.809  1.00  0.00    -0.200 F 
ATOM     90  C   UNL A   1      46.509  25.959  36.248  1.00  0.00     0.200 A 
ATOM     91  F   UNL A   1      48.023  27.679  35.673  1.00  0.00    -0.200 F 
ATOM     92  F   UNL A   1      47.405  25.434  37.094  1.00  0.00    -0.200 F 
ENDBRANCH  59  82
ENDBRANCH  33  34
ENDBRANCH  26  28
ENDBRANCH  25  26
ENDBRANCH  24  25
ENDBRANCH   1  24
TORSDOF 14
ENDMDL
MODEL 3
REMARK VINA RESULT:     -12.6      1.580      2.709
REMARK SMILES Cc1cc(Cl)ccc1Oc1cc(C)c(N)c(C(=O)OCCOC(=O)c2ccc(-c3c4nc(c(-c5c(F)c(F)c(F)c(F)c5F)c5ccc([nH]5)c(-c5c(F)c(F)c(F)c(F)c5F)c5nc(c(-c6c(F)c(F)c(F)c(F)c6F)c6ccc3[nH]6)C=C5)C=C4)cc2)c1
REMARK SMILES IDX 20 1 19 2 17 3 18 4 16 5 10 6 11 7 88 8 12 9 13 10 14 11
REMARK SMILES IDX 9 12 8 13 1 14 2 15 3 16 4 17 7 18 5 19 6 20 15 21 21 24
REMARK SMILES IDX 22 25 23 26 24 27 25 28 26 29 87 30 27 31 86 32 28 33 29 34
REMARK SMILES IDX 30 35 80 36 31 37 85 38 79 39 81 40 32 41 84 42 78 43 77 44
REMARK SMILES IDX 33 46 65 47 45 48 64 49 46 50 49 51 63 52 82 53 47 54 48 55
REMARK SMILES IDX 62 57 83 58 50 59 34 60 35 61 43 62 36 63 37 64 41 65 44 66
REMARK SMILES IDX 38 67 39 68 42 69 40 70 66 71 67 72 75 73 68 74 69 75 73 76
REMARK SMILES IDX 76 77 70 78 71 79 74 80 72 81 51 82 52 83 60 84 53 85 54 86
REMARK SMILES IDX 58 87 61 88 55 89 56 90 59 91 57 92
REMARK H PARENT 15 22 15 23 81 45 49 56
REMARK Flexibility Score: inf
ROOT
ATOM      1  C   UNL A   1      31.441  29.323  24.587  1.00  0.00     0.275 C 
ENDROOT
BRANCH   1   2
ATOM      2  O   UNL A   1      31.050  27.953  24.827  1.00  0.00    -0.458 OA
BRANCH   2   3
ATOM      3  C   UNL A   1      31.132  27.122  23.757  1.00  0.00     0.340 C 
ATOM      4  O   UNL A   1      31.002  27.445  22.586  1.00  0.00    -0.246 OA
BRANCH   3   5
ATOM      5  C   UNL A   1      31.364  25.722  24.188  1.00  0.00     0.086 A 
ATOM      6  C   UNL A   1      32.714  23.742  24.149  1.00  0.00     0.128 A 
ATOM      7  C   UNL A   1      32.070  23.250  25.283  1.00  0.00     0.052 A 
ATOM      8  C   UNL A   1      32.446  25.019  23.664  1.00  0.00     0.065 A 
ATOM      9  C   UNL A   1      30.954  23.922  25.786  1.00  0.00    -0.024 A 
ATOM     10  C   UNL A   1      30.135  23.287  26.877  1.00  0.00     0.047 C 
ATOM     11  C   UNL A   1      30.549  25.124  25.174  1.00  0.00     0.049 A 
BRANCH   6  12
ATOM     12  O   UNL A   1      33.619  22.992  23.452  1.00  0.00    -0.457 OA
BRANCH  12  13
ATOM     13  C   UNL A   1      34.768  22.541  24.080  1.00  0.00     0.130 A 
ATOM     14  C   UNL A   1      34.077  20.129  24.791  1.00  0.00     0.048 C 
ATOM     15  C   UNL A   1      35.030  21.289  24.680  1.00  0.00    -0.007 A 
ATOM     16  C   UNL A   1      36.299  21.080  25.263  1.00  0.00     0.027 A 
ATOM     17  C   UNL A   1      37.298  22.047  25.192  1.00  0.00     0.041 A 
ATOM     18  C   UNL A   1      35.795  23.499  24.011  1.00  0.00     0.049 A 
ATOM     19  Cl  UNL A   1      38.842  21.732  25.882  1.00  0.00    -0.084 Cl
ATOM     20  C   UNL A   1      37.055  23.255  24.556  1.00  0.00     0.024 A 
ENDBRANCH  12  13
ENDBRANCH   6  12
BRANCH  11  21
ATOM     21  N   UNL A   1      29.239  25.558  25.374  1.00  0.00    -0.398 N 
ATOM     22  H   UNL A   1      28.626  25.029  25.933  1.00  0.00     0.156 HD
ATOM     23  H   UNL A   1      28.928  26.394  24.956  1.00  0.00     0.156 HD
ENDBRANCH  11  21
ENDBRANCH   3   5
ENDBRANCH   2   3
ENDBRANCH   1   2
BRANCH   1  24
ATOM     24  C   UNL A   1      32.791  29.634  25.233  1.00  0.00     0.275 C 
BRANCH  24  25
ATOM     25  O   UNL A   1      32.613  29.902  26.635  1.00  0.00    -0.458 OA
BRANCH  25  26
ATOM     26  C   UNL A   1      33.136  31.064  27.085  1.00  0.00     0.338 C 
ATOM     27  O   UNL A   1      32.582  32.147  27.173  1.00  0.00    -0.246 OA
BRANCH  26  28
ATOM     28  C   UNL A   1      34.515  30.851  27.560  1.00  0.00     0.060 A 
ATOM     29  C   UNL A   1      34.904  29.573  27.932  1.00  0.00     0.016 A 
ATOM     30  C   UNL A   1      35.346  31.936  27.841  1.00  0.00     0.016 A 
ATOM     31  C   UNL A   1      36.031  29.403  28.731  1.00  0.00     0.010 A 
ATOM     32  C   UNL A   1      36.569  31.728  28.497  1.00  0.00     0.010 A 
ATOM     33  C   UNL A   1      36.916  30.459  28.989  1.00  0.00    -0.014 A 
BRANCH  33  34
ATOM     34  C   UNL A   1      38.185  30.215  29.747  1.00  0.00     0.031 A 
ATOM     35  C   UNL A   1      39.297  29.372  29.169  1.00  0.00     0.074 A 
ATOM     36  C   UNL A   1      38.358  30.766  30.969  1.00  0.00     0.049 A 
ATOM     37  N   UNL A   1      40.338  28.850  29.771  1.00  0.00    -0.248 NA
ATOM     38  C   UNL A   1      39.230  29.066  27.731  1.00  0.00     0.031 C 
ATOM     39  C   UNL A   1      37.407  31.651  31.645  1.00  0.00     0.029 A 
ATOM     40  N   UNL A   1      39.401  30.675  31.862  1.00  0.00    -0.354 N 
ATOM     41  C   UNL A   1      41.003  28.098  28.810  1.00  0.00     0.074 A 
ATOM     42  C   UNL A   1      40.262  28.247  27.576  1.00  0.00     0.031 C 
ATOM     43  C   UNL A   1      37.935  32.084  32.794  1.00  0.00     0.029 A 
ATOM     44  C   UNL A   1      39.182  31.373  33.027  1.00  0.00     0.049 A 
ATOM     45  H   UNL A   1      40.222  30.162  31.685  1.00  0.00     0.167 HD
ATOM     46  C   UNL A   1      42.121  27.344  28.955  1.00  0.00     0.037 A 
ATOM     47  C   UNL A   1      39.844  31.378  34.199  1.00  0.00     0.037 A 
ATOM     48  C   UNL A   1      42.888  27.258  30.174  1.00  0.00     0.049 A 
ATOM     49  C   UNL A   1      41.030  30.478  34.362  1.00  0.00     0.074 A 
ATOM     50  C   UNL A   1      44.050  26.544  30.418  1.00  0.00     0.029 A 
ATOM     51  N   UNL A   1      42.575  27.918  31.354  1.00  0.00    -0.354 N 
ATOM     52  N   UNL A   1      41.597  29.696  33.478  1.00  0.00    -0.248 NA
ATOM     53  C   UNL A   1      41.638  30.426  35.696  1.00  0.00     0.031 C 
ATOM     54  C   UNL A   1      44.412  26.735  31.756  1.00  0.00     0.029 A 
ATOM     55  C   UNL A   1      43.503  27.605  32.335  1.00  0.00     0.049 A 
ATOM     56  H   UNL A   1      41.807  28.521  31.476  1.00  0.00     0.167 HD
ATOM     57  C   UNL A   1      42.620  29.047  34.149  1.00  0.00     0.074 A 
ATOM     58  C   UNL A   1      42.619  29.555  35.506  1.00  0.00     0.031 C 
ATOM     59  C   UNL A   1      43.475  28.104  33.685  1.00  0.00     0.037 A 
BRANCH  46  60
ATOM     60  C   UNL A   1      42.571  26.506  27.790  1.00  0.00     0.064 A 
ATOM     61  C   UNL A   1      42.014  25.251  27.507  1.00  0.00     0.173 A 
ATOM     62  C   UNL A   1      43.536  27.010  26.899  1.00  0.00     0.173 A 
ATOM     63  F   UNL A   1      41.096  24.720  28.327  1.00  0.00    -0.203 F 
ATOM     64  C   UNL A   1      42.419  24.525  26.387  1.00  0.00     0.198 A 
ATOM     65  C   UNL A   1      43.918  26.292  25.768  1.00  0.00     0.198 A 
ATOM     66  F   UNL A   1      44.095  28.209  27.116  1.00  0.00    -0.203 F 
ATOM     67  F   UNL A   1      41.897  23.311  26.155  1.00  0.00    -0.200 F 
ATOM     68  C   UNL A   1      43.362  25.048  25.515  1.00  0.00     0.200 A 
ATOM     69  F   UNL A   1      44.818  26.808  24.920  1.00  0.00    -0.200 F 
ATOM     70  F   UNL A   1      43.739  24.351  24.434  1.00  0.00    -0.200 F 
ENDBRANCH  46  60
BRANCH  47  71
ATOM     71  C   UNL A   1      39.315  32.182  35.333  1.00  0.00     0.064 A 
ATOM     72  C   UNL A   1      38.496  31.604  36.310  1.00  0.00     0.173 A 
ATOM     73  C   UNL A   1      39.659  33.536  35.487  1.00  0.00     0.173 A 
ATOM     74  F   UNL A   1      38.114  30.324  36.192  1.00  0.00    -0.203 F 
ATOM     75  C   UNL A   1      38.051  32.345  37.403  1.00  0.00     0.198 A 
ATOM     76  C   UNL A   1      39.246  34.263  36.599  1.00  0.00     0.198 A 
ATOM     77  F   UNL A   1      40.437  34.139  34.576  1.00  0.00    -0.203 F 
ATOM     78  F   UNL A   1      37.244  31.777  38.310  1.00  0.00    -0.200 F 
ATOM     79  C   UNL A   1      38.439  33.669  37.555  1.00  0.00     0.200 A 
ATOM     80  F   UNL A   1      39.644  35.534  36.751  1.00  0.00    -0.200 F 
ATOM     81  F   UNL A   1      38.032  34.372  38.621  1.00  0.00    -0.200 F 
ENDBRANCH  47  71
BRANCH  59  82
ATOM     82  C   UNL A   1      44.476  27.564  34.660  1.00  0.00     0.064 A 
ATOM     83  C   UNL A   1      45.700  28.213  34.879  1.00  0.00     0.173 A 
ATOM     84  C   UNL A   1      44.204  26.401  35.393  1.00  0.00     0.173 A 
ATOM     85  F   UNL A   1      46.013  29.317  34.184  1.00  0.00    -0.203 F 
ATOM     86  C   UNL A   1      46.626  27.701  35.783  1.00  0.00     0.198 A 
ATOM     87  C   UNL A   1      45.122  25.906  36.314  1.00  0.00     0.198 A 
ATOM     88  F   UNL A   1      43.046  25.745  35.216  1.00  0.00    -0.203 F 
ATOM     89  F   UNL A   1      47.810  28.310  35.944  1.00  0.00    -0.200 F 
ATOM     90  C   UNL A   1      46.335  26.553  36.504  1.00  0.00     0.200 A 
ATOM     91  F   UNL A   1      44.836  24.801  37.015  1.00  0.00    -0.200 F 
ATOM     92  F   UNL A   1      47.226  26.063  37.375  1.00  0.00    -0.200 F 
ENDBRANCH  59  82
ENDBRANCH  33  34
ENDBRANCH  26  28
ENDBRANCH  25  26
ENDBRANCH  24  25
ENDBRANCH   1  24
TORSDOF 14
ENDMDL
