MODEL 1
REMARK VINA RESULT:     -12.3      0.000      0.000
REMARK SMILES C[C@@H]1CCC[N@@H+]([C@@H]2CCC[C@]([NH3+])(C(=O)OCCOC(=O)c3ccc(-c4c5nc(c(-c6c(F)c(F)c(F)c(F)c6F)c6ccc([nH]6)c(-c6c(F)c(F)c(F)c(F)c6F)c6nc(c(-c7c(F)c(F)c(F)c(F)c7F)c7ccc4[nH]7)C=C6)C=C5)cc3)C2)C1
REMARK SMILES IDX 17 1 16 2 15 3 13 4 14 5 11 6 7 7 8 8 84 9 9 10 10 11 6 12
REMARK SMILES IDX 1 13 2 14 3 15 85 16 4 17 5 18 12 20 18 24 19 25 20 26 21 27
REMARK SMILES IDX 22 28 83 29 23 30 82 31 24 32 25 33 26 34 76 35 27 36 81 37
REMARK SMILES IDX 75 38 77 39 28 40 80 41 74 42 73 43 29 45 61 46 41 47 60 48
REMARK SMILES IDX 42 49 45 50 59 51 78 52 43 53 44 54 58 56 79 57 46 58 30 59
REMARK SMILES IDX 31 60 39 61 32 62 33 63 37 64 40 65 34 66 35 67 38 68 36 69
REMARK SMILES IDX 62 70 63 71 71 72 64 73 65 74 69 75 72 76 66 77 67 78 70 79
REMARK SMILES IDX 68 80 47 81 48 82 56 83 49 84 50 85 54 86 57 87 51 88 52 89
REMARK SMILES IDX 55 90 53 91
REMARK H PARENT 6 19 12 21 12 22 12 23 77 44 45 55
REMARK Flexibility Score: inf
ROOT
ATOM      1  C   UNL A   1      31.903  30.079  25.608  1.00  0.00     0.275 C 
ENDROOT
BRANCH   1   2
ATOM      2  C   UNL A   1      32.242  28.665  25.135  1.00  0.00     0.274 C 
BRANCH   2   3
ATOM      3  O   UNL A   1      31.097  27.795  25.231  1.00  0.00    -0.457 OA
BRANCH   3   4
ATOM      4  C   UNL A   1      31.089  26.927  26.285  1.00  0.00     0.368 C 
ATOM      5  O   UNL A   1      31.332  27.248  27.443  1.00  0.00    -0.245 OA
BRANCH   4   6
ATOM      6  C   UNL A   1      30.771  25.466  25.844  1.00  0.00     0.198 C 
ATOM      7  C   UNL A   1      31.970  23.140  25.733  1.00  0.00     0.190 C 
ATOM      8  C   UNL A   1      31.917  23.228  24.202  1.00  0.00     0.065 C 
ATOM      9  C   UNL A   1      31.897  24.546  26.360  1.00  0.00     0.145 C 
ATOM     10  C   UNL A   1      30.712  24.041  23.725  1.00  0.00     0.013 C 
ATOM     11  C   UNL A   1      30.719  25.451  24.308  1.00  0.00     0.081 C 
BRANCH   7  12
ATOM     12  N   UNL A   1      33.088  22.360  26.305  1.00  0.00    -0.332 N 
ATOM     13  C   UNL A   1      34.136  19.086  24.551  1.00  0.00     0.013 C 
ATOM     14  C   UNL A   1      34.036  20.600  24.740  1.00  0.00     0.041 C 
ATOM     15  C   UNL A   1      35.431  21.208  24.908  1.00  0.00     0.015 C 
ATOM     16  C   UNL A   1      33.129  20.939  25.939  1.00  0.00     0.265 C 
ATOM     17  C   UNL A   1      35.332  22.697  25.211  1.00  0.00     0.062 C 
ATOM     18  C   UNL A   1      34.422  22.948  26.409  1.00  0.00     0.262 C 
ATOM     19  H   UNL A   1      32.772  22.423  27.273  1.00  0.00     0.348 HD
ENDBRANCH   7  12
BRANCH   6  20
ATOM     20  N   UNL A   1      29.473  25.004  26.397  1.00  0.00    -0.343 N 
ATOM     21  H   UNL A   1      29.123  24.225  25.839  1.00  0.00     0.345 HD
ATOM     22  H   UNL A   1      28.800  25.771  26.372  1.00  0.00     0.345 HD
ATOM     23  H   UNL A   1      29.604  24.699  27.363  1.00  0.00     0.345 HD
ENDBRANCH   6  20
ENDBRANCH   4   6
ENDBRANCH   3   4
ENDBRANCH   2   3
ENDBRANCH   1   2
BRANCH   1  24
ATOM     24  O   UNL A   1      32.357  30.297  26.957  1.00  0.00    -0.458 OA
BRANCH  24  25
ATOM     25  C   UNL A   1      33.028  31.450  27.158  1.00  0.00     0.338 C 
ATOM     26  O   UNL A   1      32.607  32.593  27.036  1.00  0.00    -0.246 OA
BRANCH  25  27
ATOM     27  C   UNL A   1      34.377  31.158  27.654  1.00  0.00     0.060 A 
ATOM     28  C   UNL A   1      34.696  29.834  27.941  1.00  0.00     0.016 A 
ATOM     29  C   UNL A   1      35.258  32.184  27.992  1.00  0.00     0.016 A 
ATOM     30  C   UNL A   1      35.844  29.533  28.667  1.00  0.00     0.010 A 
ATOM     31  C   UNL A   1      36.462  31.870  28.639  1.00  0.00     0.010 A 
ATOM     32  C   UNL A   1      36.748  30.545  29.018  1.00  0.00    -0.014 A 
BRANCH  32  33
ATOM     33  C   UNL A   1      37.957  30.216  29.822  1.00  0.00     0.031 A 
ATOM     34  C   UNL A   1      39.072  29.404  29.220  1.00  0.00     0.074 A 
ATOM     35  C   UNL A   1      38.087  30.681  31.080  1.00  0.00     0.049 A 
ATOM     36  N   UNL A   1      40.123  28.881  29.802  1.00  0.00    -0.248 NA
ATOM     37  C   UNL A   1      38.993  29.137  27.776  1.00  0.00     0.031 C 
ATOM     38  C   UNL A   1      37.117  31.525  31.778  1.00  0.00     0.029 A 
ATOM     39  N   UNL A   1      39.104  30.524  31.990  1.00  0.00    -0.354 N 
ATOM     40  C   UNL A   1      40.789  28.169  28.814  1.00  0.00     0.074 A 
ATOM     41  C   UNL A   1      40.040  28.344  27.587  1.00  0.00     0.031 C 
ATOM     42  C   UNL A   1      37.609  31.857  32.981  1.00  0.00     0.029 A 
ATOM     43  C   UNL A   1      38.893  31.190  33.170  1.00  0.00     0.049 A 
ATOM     44  H   UNL A   1      39.909  29.986  31.811  1.00  0.00     0.167 HD
ATOM     45  C   UNL A   1      41.917  27.428  28.924  1.00  0.00     0.037 A 
ATOM     46  C   UNL A   1      39.636  31.240  34.292  1.00  0.00     0.037 A 
ATOM     47  C   UNL A   1      42.705  27.307  30.121  1.00  0.00     0.049 A 
ATOM     48  C   UNL A   1      40.899  30.435  34.381  1.00  0.00     0.074 A 
ATOM     49  C   UNL A   1      43.847  26.556  30.336  1.00  0.00     0.029 A 
ATOM     50  N   UNL A   1      42.448  27.989  31.301  1.00  0.00    -0.354 N 
ATOM     51  N   UNL A   1      41.455  29.669  33.476  1.00  0.00    -0.248 NA
ATOM     52  C   UNL A   1      41.623  30.478  35.660  1.00  0.00     0.031 C 
ATOM     53  C   UNL A   1      44.280  26.780  31.649  1.00  0.00     0.029 A 
ATOM     54  C   UNL A   1      43.416  27.684  32.243  1.00  0.00     0.049 A 
ATOM     55  H   UNL A   1      41.689  28.599  31.447  1.00  0.00     0.167 HD
ATOM     56  C   UNL A   1      42.580  29.126  34.077  1.00  0.00     0.074 A 
ATOM     57  C   UNL A   1      42.650  29.675  35.415  1.00  0.00     0.031 C 
ATOM     58  C   UNL A   1      43.466  28.236  33.570  1.00  0.00     0.037 A 
BRANCH  45  59
ATOM     59  C   UNL A   1      42.351  26.652  27.718  1.00  0.00     0.064 A 
ATOM     60  C   UNL A   1      43.304  27.150  26.822  1.00  0.00     0.173 A 
ATOM     61  C   UNL A   1      41.826  25.371  27.484  1.00  0.00     0.173 A 
ATOM     62  F   UNL A   1      43.820  28.375  26.999  1.00  0.00    -0.203 F 
ATOM     63  C   UNL A   1      43.710  26.398  25.723  1.00  0.00     0.198 A 
ATOM     64  C   UNL A   1      42.246  24.615  26.395  1.00  0.00     0.198 A 
ATOM     65  F   UNL A   1      40.912  24.852  28.318  1.00  0.00    -0.203 F 
ATOM     66  F   UNL A   1      44.603  26.902  24.860  1.00  0.00    -0.200 F 
ATOM     67  C   UNL A   1      43.185  25.130  25.513  1.00  0.00     0.200 A 
ATOM     68  F   UNL A   1      41.742  23.389  26.196  1.00  0.00    -0.200 F 
ATOM     69  F   UNL A   1      43.580  24.406  24.456  1.00  0.00    -0.200 F 
ENDBRANCH  45  59
BRANCH  46  70
ATOM     70  C   UNL A   1      39.181  32.066  35.437  1.00  0.00     0.064 A 
ATOM     71  C   UNL A   1      38.393  31.507  36.451  1.00  0.00     0.173 A 
ATOM     72  C   UNL A   1      39.535  33.417  35.546  1.00  0.00     0.173 A 
ATOM     73  F   UNL A   1      38.011  30.225  36.373  1.00  0.00    -0.203 F 
ATOM     74  C   UNL A   1      37.975  32.274  37.537  1.00  0.00     0.198 A 
ATOM     75  C   UNL A   1      39.133  34.176  36.642  1.00  0.00     0.198 A 
ATOM     76  F   UNL A   1      40.286  33.993  34.596  1.00  0.00    -0.203 F 
ATOM     77  F   UNL A   1      37.202  31.725  38.483  1.00  0.00    -0.200 F 
ATOM     78  C   UNL A   1      38.352  33.605  37.635  1.00  0.00     0.200 A 
ATOM     79  F   UNL A   1      39.506  35.460  36.737  1.00  0.00    -0.200 F 
ATOM     80  F   UNL A   1      37.956  34.340  38.684  1.00  0.00    -0.200 F 
ENDBRANCH  46  70
BRANCH  58  81
ATOM     81  C   UNL A   1      44.578  27.797  34.470  1.00  0.00     0.064 A 
ATOM     82  C   UNL A   1      44.444  26.660  35.277  1.00  0.00     0.173 A 
ATOM     83  C   UNL A   1      45.791  28.496  34.503  1.00  0.00     0.173 A 
ATOM     84  F   UNL A   1      43.293  25.969  35.287  1.00  0.00    -0.203 F 
ATOM     85  C   UNL A   1      45.487  26.243  36.100  1.00  0.00     0.198 A 
ATOM     86  C   UNL A   1      46.836  28.071  35.318  1.00  0.00     0.198 A 
ATOM     87  F   UNL A   1      45.960  29.591  33.747  1.00  0.00    -0.203 F 
ATOM     88  F   UNL A   1      45.331  25.168  36.886  1.00  0.00    -0.200 F 
ATOM     89  C   UNL A   1      46.683  26.947  36.117  1.00  0.00     0.200 A 
ATOM     90  F   UNL A   1      47.991  28.750  35.335  1.00  0.00    -0.200 F 
ATOM     91  F   UNL A   1      47.684  26.546  36.911  1.00  0.00    -0.200 F 
ENDBRANCH  58  81
ENDBRANCH  32  33
ENDBRANCH  25  27
ENDBRANCH  24  25
ENDBRANCH   1  24
TORSDOF 13
ENDMDL
MODEL 2
REMARK VINA RESULT:     -12.2      0.198      1.641
REMARK SMILES C[C@@H]1CCC[N@@H+]([C@@H]2CCC[C@]([NH3+])(C(=O)OCCOC(=O)c3ccc(-c4c5nc(c(-c6c(F)c(F)c(F)c(F)c6F)c6ccc([nH]6)c(-c6c(F)c(F)c(F)c(F)c6F)c6nc(c(-c7c(F)c(F)c(F)c(F)c7F)c7ccc4[nH]7)C=C6)C=C5)cc3)C2)C1
REMARK SMILES IDX 17 1 16 2 15 3 13 4 14 5 11 6 7 7 8 8 84 9 9 10 10 11 6 12
REMARK SMILES IDX 1 13 2 14 3 15 85 16 4 17 5 18 12 20 18 24 19 25 20 26 21 27
REMARK SMILES IDX 22 28 83 29 23 30 82 31 24 32 25 33 26 34 76 35 27 36 81 37
REMARK SMILES IDX 75 38 77 39 28 40 80 41 74 42 73 43 29 45 61 46 41 47 60 48
REMARK SMILES IDX 42 49 45 50 59 51 78 52 43 53 44 54 58 56 79 57 46 58 30 59
REMARK SMILES IDX 31 60 39 61 32 62 33 63 37 64 40 65 34 66 35 67 38 68 36 69
REMARK SMILES IDX 62 70 63 71 71 72 64 73 65 74 69 75 72 76 66 77 67 78 70 79
REMARK SMILES IDX 68 80 47 81 48 82 56 83 49 84 50 85 54 86 57 87 51 88 52 89
REMARK SMILES IDX 55 90 53 91
REMARK H PARENT 6 19 12 21 12 22 12 23 77 44 45 55
REMARK Flexibility Score: inf
ROOT
ATOM      1  C   UNL A   1      32.030  30.095  25.682  1.00  0.00     0.275 C 
ENDROOT
BRANCH   1   2
ATOM      2  C   UNL A   1      32.422  28.665  25.312  1.00  0.00     0.274 C 
BRANCH   2   3
ATOM      3  O   UNL A   1      31.263  27.810  25.236  1.00  0.00    -0.457 OA
BRANCH   3   4
ATOM      4  C   UNL A   1      31.039  27.005  26.316  1.00  0.00     0.368 C 
ATOM      5  O   UNL A   1      31.093  27.386  27.480  1.00  0.00    -0.245 OA
BRANCH   4   6
ATOM      6  C   UNL A   1      30.744  25.532  25.903  1.00  0.00     0.198 C 
ATOM      7  C   UNL A   1      31.995  23.233  25.785  1.00  0.00     0.190 C 
ATOM      8  C   UNL A   1      31.894  23.300  24.256  1.00  0.00     0.065 C 
ATOM      9  C   UNL A   1      31.907  24.646  26.396  1.00  0.00     0.145 C 
ATOM     10  C   UNL A   1      30.656  24.078  23.805  1.00  0.00     0.013 C 
ATOM     11  C   UNL A   1      30.646  25.495  24.369  1.00  0.00     0.081 C 
BRANCH   7  12
ATOM     12  N   UNL A   1      33.149  22.488  26.333  1.00  0.00    -0.332 N 
ATOM     13  C   UNL A   1      34.185  19.186  24.626  1.00  0.00     0.013 C 
ATOM     14  C   UNL A   1      34.065  20.702  24.779  1.00  0.00     0.041 C 
ATOM     15  C   UNL A   1      35.455  21.338  24.875  1.00  0.00     0.015 C 
ATOM     16  C   UNL A   1      33.200  21.059  26.004  1.00  0.00     0.265 C 
ATOM     17  C   UNL A   1      35.341  22.833  25.142  1.00  0.00     0.062 C 
ATOM     18  C   UNL A   1      34.474  23.101  26.368  1.00  0.00     0.262 C 
ATOM     19  H   UNL A   1      32.869  22.572  27.310  1.00  0.00     0.348 HD
ENDBRANCH   7  12
BRANCH   6  20
ATOM     20  N   UNL A   1      29.475  25.047  26.501  1.00  0.00    -0.343 N 
ATOM     21  H   UNL A   1      29.399  25.384  27.460  1.00  0.00     0.345 HD
ATOM     22  H   UNL A   1      29.464  24.026  26.496  1.00  0.00     0.345 HD
ATOM     23  H   UNL A   1      28.686  25.396  25.954  1.00  0.00     0.345 HD
ENDBRANCH   6  20
ENDBRANCH   4   6
ENDBRANCH   3   4
ENDBRANCH   2   3
ENDBRANCH   1   2
BRANCH   1  24
ATOM     24  O   UNL A   1      32.362  30.385  27.053  1.00  0.00    -0.458 OA
BRANCH  24  25
ATOM     25  C   UNL A   1      33.063  31.522  27.246  1.00  0.00     0.338 C 
ATOM     26  O   UNL A   1      32.672  32.674  27.110  1.00  0.00    -0.246 OA
BRANCH  25  27
ATOM     27  C   UNL A   1      34.401  31.201  27.752  1.00  0.00     0.060 A 
ATOM     28  C   UNL A   1      34.691  29.869  28.034  1.00  0.00     0.016 A 
ATOM     29  C   UNL A   1      35.299  32.207  28.103  1.00  0.00     0.016 A 
ATOM     30  C   UNL A   1      35.827  29.542  28.768  1.00  0.00     0.010 A 
ATOM     31  C   UNL A   1      36.491  31.866  28.758  1.00  0.00     0.010 A 
ATOM     32  C   UNL A   1      36.747  30.534  29.132  1.00  0.00    -0.014 A 
BRANCH  32  33
ATOM     33  C   UNL A   1      37.943  30.176  29.944  1.00  0.00     0.031 A 
ATOM     34  C   UNL A   1      39.055  29.360  29.342  1.00  0.00     0.074 A 
ATOM     35  C   UNL A   1      38.064  30.618  31.212  1.00  0.00     0.049 A 
ATOM     36  N   UNL A   1      40.092  28.815  29.927  1.00  0.00    -0.248 NA
ATOM     37  C   UNL A   1      38.990  29.118  27.892  1.00  0.00     0.031 C 
ATOM     38  C   UNL A   1      37.096  31.462  31.912  1.00  0.00     0.029 A 
ATOM     39  N   UNL A   1      39.068  30.433  32.130  1.00  0.00    -0.354 N 
ATOM     40  C   UNL A   1      40.761  28.110  28.935  1.00  0.00     0.074 A 
ATOM     41  C   UNL A   1      40.029  28.316  27.703  1.00  0.00     0.031 C 
ATOM     42  C   UNL A   1      37.578  31.769  33.126  1.00  0.00     0.029 A 
ATOM     43  C   UNL A   1      38.851  31.082  33.319  1.00  0.00     0.049 A 
ATOM     44  H   UNL A   1      39.868  29.888  31.952  1.00  0.00     0.167 HD
ATOM     45  C   UNL A   1      41.879  27.354  29.045  1.00  0.00     0.037 A 
ATOM     46  C   UNL A   1      39.581  31.104  34.450  1.00  0.00     0.037 A 
ATOM     47  C   UNL A   1      42.650  27.204  30.250  1.00  0.00     0.049 A 
ATOM     48  C   UNL A   1      40.833  30.283  34.540  1.00  0.00     0.074 A 
ATOM     49  C   UNL A   1      43.781  26.434  30.465  1.00  0.00     0.029 A 
ATOM     50  N   UNL A   1      42.388  27.869  31.438  1.00  0.00    -0.354 N 
ATOM     51  N   UNL A   1      41.390  29.524  33.629  1.00  0.00    -0.248 NA
ATOM     52  C   UNL A   1      41.542  30.295  35.828  1.00  0.00     0.031 C 
ATOM     53  C   UNL A   1      44.201  26.631  31.787  1.00  0.00     0.029 A 
ATOM     54  C   UNL A   1      43.341  27.536  32.386  1.00  0.00     0.049 A 
ATOM     55  H   UNL A   1      41.635  28.486  31.585  1.00  0.00     0.167 HD
ATOM     56  C   UNL A   1      42.501  28.957  34.234  1.00  0.00     0.074 A 
ATOM     57  C   UNL A   1      42.562  29.483  35.582  1.00  0.00     0.031 C 
ATOM     58  C   UNL A   1      43.382  28.065  33.723  1.00  0.00     0.037 A 
BRANCH  45  59
ATOM     59  C   UNL A   1      42.317  26.593  27.832  1.00  0.00     0.064 A 
ATOM     60  C   UNL A   1      43.285  27.095  26.955  1.00  0.00     0.173 A 
ATOM     61  C   UNL A   1      41.781  25.322  27.572  1.00  0.00     0.173 A 
ATOM     62  F   UNL A   1      43.813  28.311  27.157  1.00  0.00    -0.203 F 
ATOM     63  C   UNL A   1      43.695  26.356  25.848  1.00  0.00     0.198 A 
ATOM     64  C   UNL A   1      42.205  24.579  26.475  1.00  0.00     0.198 A 
ATOM     65  F   UNL A   1      40.853  24.799  28.387  1.00  0.00    -0.203 F 
ATOM     66  F   UNL A   1      44.603  26.864  25.003  1.00  0.00    -0.200 F 
ATOM     67  C   UNL A   1      43.159  25.098  25.611  1.00  0.00     0.200 A 
ATOM     68  F   UNL A   1      41.690  23.362  26.251  1.00  0.00    -0.200 F 
ATOM     69  F   UNL A   1      43.558  24.387  24.548  1.00  0.00    -0.200 F 
ENDBRANCH  45  59
BRANCH  46  70
ATOM     70  C   UNL A   1      39.122  31.916  35.603  1.00  0.00     0.064 A 
ATOM     71  C   UNL A   1      39.483  33.265  35.715  1.00  0.00     0.173 A 
ATOM     72  C   UNL A   1      38.307  31.367  36.602  1.00  0.00     0.173 A 
ATOM     73  F   UNL A   1      40.282  33.823  34.795  1.00  0.00    -0.203 F 
ATOM     74  C   UNL A   1      39.043  34.037  36.788  1.00  0.00     0.198 A 
ATOM     75  C   UNL A   1      37.851  32.146  37.663  1.00  0.00     0.198 A 
ATOM     76  F   UNL A   1      37.940  30.079  36.536  1.00  0.00    -0.203 F 
ATOM     77  F   UNL A   1      39.421  35.319  36.888  1.00  0.00    -0.200 F 
ATOM     78  C   UNL A   1      38.222  33.478  37.756  1.00  0.00     0.200 A 
ATOM     79  F   UNL A   1      37.053  31.605  38.592  1.00  0.00    -0.200 F 
ATOM     80  F   UNL A   1      37.792  34.224  38.785  1.00  0.00    -0.200 F 
ENDBRANCH  46  70
BRANCH  58  81
ATOM     81  C   UNL A   1      44.478  27.597  34.628  1.00  0.00     0.064 A 
ATOM     82  C   UNL A   1      45.698  28.282  34.693  1.00  0.00     0.173 A 
ATOM     83  C   UNL A   1      44.298  26.479  35.453  1.00  0.00     0.173 A 
ATOM     84  F   UNL A   1      45.918  29.349  33.909  1.00  0.00    -0.203 F 
ATOM     85  C   UNL A   1      46.710  27.855  35.549  1.00  0.00     0.198 A 
ATOM     86  C   UNL A   1      45.306  26.062  36.315  1.00  0.00     0.198 A 
ATOM     87  F   UNL A   1      43.145  25.794  35.419  1.00  0.00    -0.203 F 
ATOM     88  F   UNL A   1      47.881  28.507  35.579  1.00  0.00    -0.200 F 
ATOM     89  C   UNL A   1      46.512  26.748  36.362  1.00  0.00     0.200 A 
ATOM     90  F   UNL A   1      45.116  24.992  37.100  1.00  0.00    -0.200 F 
ATOM     91  F   UNL A   1      47.487  26.337  37.183  1.00  0.00    -0.200 F 
ENDBRANCH  58  81
ENDBRANCH  32  33
ENDBRANCH  25  27
ENDBRANCH  24  25
ENDBRANCH   1  24
TORSDOF 13
ENDMDL
MODEL 3
REMARK VINA RESULT:     -12.2      0.561      2.139
REMARK SMILES C[C@@H]1CCC[N@@H+]([C@@H]2CCC[C@]([NH3+])(C(=O)OCCOC(=O)c3ccc(-c4c5nc(c(-c6c(F)c(F)c(F)c(F)c6F)c6ccc([nH]6)c(-c6c(F)c(F)c(F)c(F)c6F)c6nc(c(-c7c(F)c(F)c(F)c(F)c7F)c7ccc4[nH]7)C=C6)C=C5)cc3)C2)C1
REMARK SMILES IDX 17 1 16 2 15 3 13 4 14 5 11 6 7 7 8 8 84 9 9 10 10 11 6 12
REMARK SMILES IDX 1 13 2 14 3 15 85 16 4 17 5 18 12 20 18 24 19 25 20 26 21 27
REMARK SMILES IDX 22 28 83 29 23 30 82 31 24 32 25 33 26 34 76 35 27 36 81 37
REMARK SMILES IDX 75 38 77 39 28 40 80 41 74 42 73 43 29 45 61 46 41 47 60 48
REMARK SMILES IDX 42 49 45 50 59 51 78 52 43 53 44 54 58 56 79 57 46 58 30 59
REMARK SMILES IDX 31 60 39 61 32 62 33 63 37 64 40 65 34 66 35 67 38 68 36 69
REMARK SMILES IDX 62 70 63 71 71 72 64 73 65 74 69 75 72 76 66 77 67 78 70 79
REMARK SMILES IDX 68 80 47 81 48 82 56 83 49 84 50 85 54 86 57 87 51 88 52 89
REMARK SMILES IDX 55 90 53 91
REMARK H PARENT 6 19 12 21 12 22 12 23 77 44 45 55
REMARK Flexibility Score: inf
ROOT
ATOM      1  C   UNL A   1      32.136  30.071  25.621  1.00  0.00     0.275 C 
ENDROOT
BRANCH   1   2
ATOM      2  C   UNL A   1      32.531  28.642  25.250  1.00  0.00     0.274 C 
BRANCH   2   3
ATOM      3  O   UNL A   1      31.371  27.793  25.138  1.00  0.00    -0.457 OA
BRANCH   3   4
ATOM      4  C   UNL A   1      31.194  26.883  26.141  1.00  0.00     0.368 C 
ATOM      5  O   UNL A   1      31.385  27.122  27.328  1.00  0.00    -0.245 OA
BRANCH   4   6
ATOM      6  C   UNL A   1      30.758  25.487  25.601  1.00  0.00     0.198 C 
ATOM      7  C   UNL A   1      31.843  23.174  25.025  1.00  0.00     0.190 C 
ATOM      8  C   UNL A   1      31.533  23.439  23.547  1.00  0.00     0.065 C 
ATOM      9  C   UNL A   1      31.925  24.499  25.808  1.00  0.00     0.145 C 
ATOM     10  C   UNL A   1      30.292  24.318  23.379  1.00  0.00     0.013 C 
ATOM     11  C   UNL A   1      30.444  25.650  24.105  1.00  0.00     0.081 C 
BRANCH   7  12
ATOM     12  N   UNL A   1      33.016  22.318  25.305  1.00  0.00    -0.332 N 
ATOM     13  C   UNL A   1      36.270  22.954  23.330  1.00  0.00     0.013 C 
ATOM     14  C   UNL A   1      35.205  23.225  24.393  1.00  0.00     0.041 C 
ATOM     15  C   UNL A   1      35.818  23.141  25.794  1.00  0.00     0.015 C 
ATOM     16  C   UNL A   1      34.023  22.248  24.239  1.00  0.00     0.265 C 
ATOM     17  C   UNL A   1      34.741  23.297  26.858  1.00  0.00     0.062 C 
ATOM     18  C   UNL A   1      33.612  22.294  26.639  1.00  0.00     0.262 C 
ATOM     19  H   UNL A   1      32.502  21.437  25.305  1.00  0.00     0.348 HD
ENDBRANCH   7  12
BRANCH   6  20
ATOM     20  N   UNL A   1      29.559  24.982  26.315  1.00  0.00    -0.343 N 
ATOM     21  H   UNL A   1      28.810  25.672  26.255  1.00  0.00     0.345 HD
ATOM     22  H   UNL A   1      29.791  24.816  27.295  1.00  0.00     0.345 HD
ATOM     23  H   UNL A   1      29.251  24.107  25.887  1.00  0.00     0.345 HD
ENDBRANCH   6  20
ENDBRANCH   4   6
ENDBRANCH   3   4
ENDBRANCH   2   3
ENDBRANCH   1   2
BRANCH   1  24
ATOM     24  O   UNL A   1      32.434  30.349  27.001  1.00  0.00    -0.458 OA
BRANCH  24  25
ATOM     25  C   UNL A   1      33.131  31.484  27.222  1.00  0.00     0.338 C 
ATOM     26  O   UNL A   1      32.737  32.637  27.114  1.00  0.00    -0.246 OA
BRANCH  25  27
ATOM     27  C   UNL A   1      34.470  31.153  27.720  1.00  0.00     0.060 A 
ATOM     28  C   UNL A   1      34.735  29.828  28.054  1.00  0.00     0.016 A 
ATOM     29  C   UNL A   1      35.396  32.153  28.015  1.00  0.00     0.016 A 
ATOM     30  C   UNL A   1      35.876  29.507  28.783  1.00  0.00     0.010 A 
ATOM     31  C   UNL A   1      36.590  31.813  28.665  1.00  0.00     0.010 A 
ATOM     32  C   UNL A   1      36.823  30.492  29.091  1.00  0.00    -0.014 A 
BRANCH  32  33
ATOM     33  C   UNL A   1      38.024  30.142  29.898  1.00  0.00     0.031 A 
ATOM     34  C   UNL A   1      39.110  29.280  29.312  1.00  0.00     0.074 A 
ATOM     35  C   UNL A   1      38.174  30.630  31.146  1.00  0.00     0.049 A 
ATOM     36  N   UNL A   1      40.145  28.737  29.903  1.00  0.00    -0.248 NA
ATOM     37  C   UNL A   1      39.018  28.983  27.874  1.00  0.00     0.031 C 
ATOM     38  C   UNL A   1      37.234  31.521  31.827  1.00  0.00     0.029 A 
ATOM     39  N   UNL A   1      39.188  30.461  32.055  1.00  0.00    -0.354 N 
ATOM     40  C   UNL A   1      40.785  27.981  28.929  1.00  0.00     0.074 A 
ATOM     41  C   UNL A   1      40.037  28.153  27.701  1.00  0.00     0.031 C 
ATOM     42  C   UNL A   1      37.741  31.864  33.020  1.00  0.00     0.029 A 
ATOM     43  C   UNL A   1      39.003  31.160  33.221  1.00  0.00     0.049 A 
ATOM     44  H   UNL A   1      39.974  29.893  31.887  1.00  0.00     0.167 HD
ATOM     45  C   UNL A   1      41.889  27.206  29.053  1.00  0.00     0.037 A 
ATOM     46  C   UNL A   1      39.751  31.211  34.340  1.00  0.00     0.037 A 
ATOM     47  C   UNL A   1      42.676  27.087  30.251  1.00  0.00     0.049 A 
ATOM     48  C   UNL A   1      40.988  30.368  34.443  1.00  0.00     0.074 A 
ATOM     49  C   UNL A   1      43.794  26.304  30.480  1.00  0.00     0.029 A 
ATOM     50  N   UNL A   1      42.446  27.804  31.415  1.00  0.00    -0.354 N 
ATOM     51  N   UNL A   1      41.515  29.563  33.554  1.00  0.00    -0.248 NA
ATOM     52  C   UNL A   1      41.717  30.416  35.719  1.00  0.00     0.031 C 
ATOM     53  C   UNL A   1      44.239  26.544  31.786  1.00  0.00     0.029 A 
ATOM     54  C   UNL A   1      43.406  27.489  32.361  1.00  0.00     0.049 A 
ATOM     55  H   UNL A   1      41.707  28.441  31.550  1.00  0.00     0.167 HD
ATOM     56  C   UNL A   1      42.624  28.998  34.164  1.00  0.00     0.074 A 
ATOM     57  C   UNL A   1      42.716  29.574  35.490  1.00  0.00     0.031 C 
ATOM     58  C   UNL A   1      43.478  28.068  33.676  1.00  0.00     0.037 A 
BRANCH  45  59
ATOM     59  C   UNL A   1      42.292  26.389  27.865  1.00  0.00     0.064 A 
ATOM     60  C   UNL A   1      41.699  25.153  27.583  1.00  0.00     0.173 A 
ATOM     61  C   UNL A   1      43.263  26.877  26.976  1.00  0.00     0.173 A 
ATOM     62  F   UNL A   1      40.778  24.641  28.413  1.00  0.00    -0.203 F 
ATOM     63  C   UNL A   1      42.073  24.424  26.457  1.00  0.00     0.198 A 
ATOM     64  C   UNL A   1      43.621  26.155  25.843  1.00  0.00     0.198 A 
ATOM     65  F   UNL A   1      43.856  28.059  27.205  1.00  0.00    -0.203 F 
ATOM     66  F   UNL A   1      41.515  23.229  26.217  1.00  0.00    -0.200 F 
ATOM     67  C   UNL A   1      43.029  24.927  25.585  1.00  0.00     0.200 A 
ATOM     68  F   UNL A   1      44.541  26.645  25.000  1.00  0.00    -0.200 F 
ATOM     69  F   UNL A   1      43.384  24.226  24.500  1.00  0.00    -0.200 F 
ENDBRANCH  45  59
BRANCH  46  70
ATOM     70  C   UNL A   1      39.327  32.077  35.467  1.00  0.00     0.064 A 
ATOM     71  C   UNL A   1      39.740  33.413  35.536  1.00  0.00     0.173 A 
ATOM     72  C   UNL A   1      38.492  31.592  36.482  1.00  0.00     0.173 A 
ATOM     73  F   UNL A   1      40.560  33.909  34.598  1.00  0.00    -0.203 F 
ATOM     74  C   UNL A   1      39.334  34.236  36.584  1.00  0.00     0.198 A 
ATOM     75  C   UNL A   1      38.069  32.422  37.518  1.00  0.00     0.198 A 
ATOM     76  F   UNL A   1      38.074  30.319  36.457  1.00  0.00    -0.203 F 
ATOM     77  F   UNL A   1      39.762  35.504  36.642  1.00  0.00    -0.200 F 
ATOM     78  C   UNL A   1      38.492  33.741  37.569  1.00  0.00     0.200 A 
ATOM     79  F   UNL A   1      37.251  31.942  38.465  1.00  0.00    -0.200 F 
ATOM     80  F   UNL A   1      38.094  34.535  38.573  1.00  0.00    -0.200 F 
ENDBRANCH  46  70
BRANCH  58  81
ATOM     81  C   UNL A   1      44.579  27.614  34.582  1.00  0.00     0.064 A 
ATOM     82  C   UNL A   1      45.795  28.308  34.642  1.00  0.00     0.173 A 
ATOM     83  C   UNL A   1      44.407  26.500  35.415  1.00  0.00     0.173 A 
ATOM     84  F   UNL A   1      46.006  29.371  33.850  1.00  0.00    -0.203 F 
ATOM     85  C   UNL A   1      46.811  27.893  35.499  1.00  0.00     0.198 A 
ATOM     86  C   UNL A   1      45.420  26.095  36.278  1.00  0.00     0.198 A 
ATOM     87  F   UNL A   1      43.260  25.807  35.387  1.00  0.00    -0.203 F 
ATOM     88  F   UNL A   1      47.977  28.553  35.523  1.00  0.00    -0.200 F 
ATOM     89  C   UNL A   1      46.621  26.790  36.319  1.00  0.00     0.200 A 
ATOM     90  F   UNL A   1      45.238  25.030  37.070  1.00  0.00    -0.200 F 
ATOM     91  F   UNL A   1      47.600  26.391  37.141  1.00  0.00    -0.200 F 
ENDBRANCH  58  81
ENDBRANCH  32  33
ENDBRANCH  25  27
ENDBRANCH  24  25
ENDBRANCH   1  24
TORSDOF 13
ENDMDL
