MODEL 1
REMARK VINA RESULT:     -11.0      0.000      0.000
REMARK SMILES O=C1NC[C@@H](CSc2ccnc(C(=O)OCCOC(=O)c3ccc(-c4c5nc(c(-c6c(F)c(F)c(F)c(F)c6F)c6ccc([nH]6)c(-c6c(F)c(F)c(F)c(F)c6F)c6nc(c(-c7c(F)c(F)c(F)c(F)c7F)c7ccc4[nH]7)C=C6)C=C5)cc3)c2)O1
REMARK SMILES IDX 16 1 15 2 13 3 14 4 12 5 8 6 9 7 84 8 10 9 11 10 7 11 6 12
REMARK SMILES IDX 5 13 1 14 2 15 3 16 85 17 4 18 17 20 18 21 19 22 20 23 21 24
REMARK SMILES IDX 22 25 83 26 23 27 82 28 24 29 25 30 26 31 76 32 27 33 81 34
REMARK SMILES IDX 75 35 77 36 28 37 80 38 74 39 73 40 29 42 61 43 41 44 60 45
REMARK SMILES IDX 42 46 45 47 59 48 78 49 43 50 44 51 58 53 79 54 46 55 30 56
REMARK SMILES IDX 31 57 39 58 32 59 33 60 37 61 40 62 34 63 35 64 38 65 36 66
REMARK SMILES IDX 62 67 63 68 71 69 64 70 65 71 69 72 72 73 66 74 67 75 70 76
REMARK SMILES IDX 68 77 47 78 48 79 56 80 49 81 50 82 54 83 57 84 51 85 52 86
REMARK SMILES IDX 55 87 53 88
REMARK H PARENT 3 19 77 41 45 52
REMARK Flexibility Score: inf
ROOT
ATOM      1  C   UNL A   1      40.760  19.899  26.574  1.00  0.00     0.275 C 
ENDROOT
BRANCH   1   2
ATOM      2  O   UNL A   1      41.592  19.595  25.435  1.00  0.00    -0.457 OA
BRANCH   2   3
ATOM      3  C   UNL A   1      42.603  18.725  25.696  1.00  0.00     0.357 C 
ATOM      4  O   UNL A   1      42.455  17.585  26.115  1.00  0.00    -0.244 OA
BRANCH   3   5
ATOM      5  C   UNL A   1      43.945  19.282  25.326  1.00  0.00     0.149 A 
ATOM      6  C   UNL A   1      45.486  21.022  24.779  1.00  0.00     0.011 A 
ATOM      7  C   UNL A   1      46.513  20.094  24.917  1.00  0.00     0.035 A 
ATOM      8  C   UNL A   1      44.166  20.616  25.002  1.00  0.00     0.051 A 
ATOM      9  C   UNL A   1      46.201  18.779  25.175  1.00  0.00     0.113 A 
ATOM     10  N   UNL A   1      44.947  18.361  25.389  1.00  0.00    -0.249 NA
BRANCH   6  11
ATOM     11  S   UNL A   1      45.896  22.735  24.520  1.00  0.00    -0.122 SA
BRANCH  11  12
ATOM     12  C   UNL A   1      44.457  23.632  25.237  1.00  0.00     0.122 C 
BRANCH  12  13
ATOM     13  C   UNL A   1      44.528  24.181  26.672  1.00  0.00     0.208 C 
ATOM     14  O   UNL A   1      42.692  23.128  29.406  1.00  0.00    -0.225 OA
ATOM     15  C   UNL A   1      43.536  23.424  28.583  1.00  0.00     0.407 C 
ATOM     16  N   UNL A   1      44.866  23.141  28.697  1.00  0.00    -0.318 N 
ATOM     17  O   UNL A   1      43.291  24.040  27.392  1.00  0.00    -0.443 OA
ATOM     18  C   UNL A   1      45.597  23.567  27.557  1.00  0.00     0.165 C 
ATOM     19  H   UNL A   1      45.270  22.697  29.477  1.00  0.00     0.167 HD
ENDBRANCH  12  13
ENDBRANCH  11  12
ENDBRANCH   6  11
ENDBRANCH   3   5
ENDBRANCH   2   3
ENDBRANCH   1   2
BRANCH   1  20
ATOM     20  C   UNL A   1      41.021  21.311  27.114  1.00  0.00     0.275 C 
BRANCH  20  21
ATOM     21  O   UNL A   1      40.697  22.346  26.164  1.00  0.00    -0.458 OA
BRANCH  21  22
ATOM     22  C   UNL A   1      39.496  22.941  26.344  1.00  0.00     0.338 C 
ATOM     23  O   UNL A   1      38.393  22.467  26.121  1.00  0.00    -0.246 OA
BRANCH  22  24
ATOM     24  C   UNL A   1      39.676  24.279  26.927  1.00  0.00     0.060 A 
ATOM     25  C   UNL A   1      40.331  25.250  26.169  1.00  0.00     0.016 A 
ATOM     26  C   UNL A   1      39.319  24.542  28.249  1.00  0.00     0.016 A 
ATOM     27  C   UNL A   1      40.673  26.476  26.734  1.00  0.00     0.010 A 
ATOM     28  C   UNL A   1      39.632  25.786  28.807  1.00  0.00     0.010 A 
ATOM     29  C   UNL A   1      40.330  26.755  28.061  1.00  0.00    -0.014 A 
BRANCH  29  30
ATOM     30  C   UNL A   1      40.743  28.032  28.696  1.00  0.00     0.031 A 
ATOM     31  C   UNL A   1      42.160  28.203  29.166  1.00  0.00     0.074 A 
ATOM     32  C   UNL A   1      39.852  29.027  28.869  1.00  0.00     0.049 A 
ATOM     33  N   UNL A   1      42.683  29.139  29.916  1.00  0.00    -0.248 NA
ATOM     34  C   UNL A   1      43.117  27.171  28.739  1.00  0.00     0.031 C 
ATOM     35  C   UNL A   1      38.468  29.013  28.397  1.00  0.00     0.029 A 
ATOM     36  N   UNL A   1      39.977  30.237  29.505  1.00  0.00    -0.354 N 
ATOM     37  C   UNL A   1      44.016  28.788  30.085  1.00  0.00     0.074 A 
ATOM     38  C   UNL A   1      44.221  27.546  29.369  1.00  0.00     0.031 C 
ATOM     39  C   UNL A   1      37.868  30.156  28.767  1.00  0.00     0.029 A 
ATOM     40  C   UNL A   1      38.802  30.946  29.562  1.00  0.00     0.049 A 
ATOM     41  H   UNL A   1      40.824  30.564  29.885  1.00  0.00     0.167 HD
ATOM     42  C   UNL A   1      44.978  29.445  30.777  1.00  0.00     0.037 A 
ATOM     43  C   UNL A   1      38.499  32.080  30.223  1.00  0.00     0.037 A 
ATOM     44  C   UNL A   1      44.765  30.691  31.468  1.00  0.00     0.049 A 
ATOM     45  C   UNL A   1      39.563  32.752  31.050  1.00  0.00     0.074 A 
ATOM     46  C   UNL A   1      45.671  31.443  32.194  1.00  0.00     0.029 A 
ATOM     47  N   UNL A   1      43.554  31.370  31.515  1.00  0.00    -0.354 N 
ATOM     48  N   UNL A   1      40.815  32.405  31.230  1.00  0.00    -0.248 NA
ATOM     49  C   UNL A   1      39.171  33.971  31.771  1.00  0.00     0.031 C 
ATOM     50  C   UNL A   1      44.996  32.548  32.726  1.00  0.00     0.029 A 
ATOM     51  C   UNL A   1      43.686  32.521  32.275  1.00  0.00     0.049 A 
ATOM     52  H   UNL A   1      42.724  31.076  31.074  1.00  0.00     0.167 HD
ATOM     53  C   UNL A   1      41.368  33.379  32.050  1.00  0.00     0.074 A 
ATOM     54  C   UNL A   1      40.317  34.333  32.331  1.00  0.00     0.031 C 
ATOM     55  C   UNL A   1      42.636  33.476  32.523  1.00  0.00     0.037 A 
BRANCH  42  56
ATOM     56  C   UNL A   1      46.337  28.809  30.859  1.00  0.00     0.064 A 
ATOM     57  C   UNL A   1      46.677  27.906  31.878  1.00  0.00     0.173 A 
ATOM     58  C   UNL A   1      47.307  29.090  29.884  1.00  0.00     0.173 A 
ATOM     59  F   UNL A   1      45.793  27.613  32.843  1.00  0.00    -0.203 F 
ATOM     60  C   UNL A   1      47.946  27.335  31.936  1.00  0.00     0.198 A 
ATOM     61  C   UNL A   1      48.563  28.490  29.926  1.00  0.00     0.198 A 
ATOM     62  F   UNL A   1      47.036  29.941  28.883  1.00  0.00    -0.203 F 
ATOM     63  F   UNL A   1      48.266  26.520  32.950  1.00  0.00    -0.200 F 
ATOM     64  C   UNL A   1      48.885  27.622  30.957  1.00  0.00     0.200 A 
ATOM     65  F   UNL A   1      49.464  28.758  28.970  1.00  0.00    -0.200 F 
ATOM     66  F   UNL A   1      50.104  27.067  31.012  1.00  0.00    -0.200 F 
ENDBRANCH  42  56
BRANCH  43  67
ATOM     67  C   UNL A   1      37.121  32.635  30.155  1.00  0.00     0.064 A 
ATOM     68  C   UNL A   1      36.728  33.463  29.096  1.00  0.00     0.173 A 
ATOM     69  C   UNL A   1      36.172  32.355  31.150  1.00  0.00     0.173 A 
ATOM     70  F   UNL A   1      37.606  33.782  28.134  1.00  0.00    -0.203 F 
ATOM     71  C   UNL A   1      35.444  34.006  29.044  1.00  0.00     0.198 A 
ATOM     72  C   UNL A   1      34.880  32.871  31.080  1.00  0.00     0.198 A 
ATOM     73  F   UNL A   1      36.495  31.570  32.188  1.00  0.00    -0.203 F 
ATOM     74  F   UNL A   1      35.112  34.836  28.046  1.00  0.00    -0.200 F 
ATOM     75  C   UNL A   1      34.520  33.703  30.031  1.00  0.00     0.200 A 
ATOM     76  F   UNL A   1      33.984  32.565  32.029  1.00  0.00    -0.200 F 
ATOM     77  F   UNL A   1      33.286  34.222  29.978  1.00  0.00    -0.200 F 
ENDBRANCH  43  67
BRANCH  55  78
ATOM     78  C   UNL A   1      42.983  34.692  33.332  1.00  0.00     0.064 A 
ATOM     79  C   UNL A   1      43.321  35.913  32.733  1.00  0.00     0.173 A 
ATOM     80  C   UNL A   1      42.916  34.643  34.734  1.00  0.00     0.173 A 
ATOM     81  F   UNL A   1      43.414  36.007  31.398  1.00  0.00    -0.203 F 
ATOM     82  C   UNL A   1      43.598  37.037  33.508  1.00  0.00     0.198 A 
ATOM     83  C   UNL A   1      43.160  35.776  35.504  1.00  0.00     0.198 A 
ATOM     84  F   UNL A   1      42.590  33.500  35.356  1.00  0.00    -0.203 F 
ATOM     85  F   UNL A   1      43.960  38.183  32.916  1.00  0.00    -0.200 F 
ATOM     86  C   UNL A   1      43.507  36.970  34.891  1.00  0.00     0.200 A 
ATOM     87  F   UNL A   1      43.055  35.714  36.838  1.00  0.00    -0.200 F 
ATOM     88  F   UNL A   1      43.757  38.058  35.633  1.00  0.00    -0.200 F 
ENDBRANCH  55  78
ENDBRANCH  29  30
ENDBRANCH  22  24
ENDBRANCH  21  22
ENDBRANCH  20  21
ENDBRANCH   1  20
TORSDOF 14
ENDMDL
MODEL 2
REMARK VINA RESULT:     -11.0      0.942      1.662
REMARK SMILES O=C1NC[C@@H](CSc2ccnc(C(=O)OCCOC(=O)c3ccc(-c4c5nc(c(-c6c(F)c(F)c(F)c(F)c6F)c6ccc([nH]6)c(-c6c(F)c(F)c(F)c(F)c6F)c6nc(c(-c7c(F)c(F)c(F)c(F)c7F)c7ccc4[nH]7)C=C6)C=C5)cc3)c2)O1
REMARK SMILES IDX 16 1 15 2 13 3 14 4 12 5 8 6 9 7 84 8 10 9 11 10 7 11 6 12
REMARK SMILES IDX 5 13 1 14 2 15 3 16 85 17 4 18 17 20 18 21 19 22 20 23 21 24
REMARK SMILES IDX 22 25 83 26 23 27 82 28 24 29 25 30 26 31 76 32 27 33 81 34
REMARK SMILES IDX 75 35 77 36 28 37 80 38 74 39 73 40 29 42 61 43 41 44 60 45
REMARK SMILES IDX 42 46 45 47 59 48 78 49 43 50 44 51 58 53 79 54 46 55 30 56
REMARK SMILES IDX 31 57 39 58 32 59 33 60 37 61 40 62 34 63 35 64 38 65 36 66
REMARK SMILES IDX 62 67 63 68 71 69 64 70 65 71 69 72 72 73 66 74 67 75 70 76
REMARK SMILES IDX 68 77 47 78 48 79 56 80 49 81 50 82 54 83 57 84 51 85 52 86
REMARK SMILES IDX 55 87 53 88
REMARK H PARENT 3 19 77 41 45 52
REMARK Flexibility Score: inf
ROOT
ATOM      1  C   UNL A   1      41.075  20.019  27.166  1.00  0.00     0.275 C 
ENDROOT
BRANCH   1   2
ATOM      2  O   UNL A   1      41.693  19.904  25.867  1.00  0.00    -0.457 OA
BRANCH   2   3
ATOM      3  C   UNL A   1      42.601  18.898  25.766  1.00  0.00     0.357 C 
ATOM      4  O   UNL A   1      42.349  17.710  25.918  1.00  0.00    -0.244 OA
BRANCH   3   5
ATOM      5  C   UNL A   1      43.954  19.390  25.351  1.00  0.00     0.149 A 
ATOM      6  C   UNL A   1      45.546  21.048  24.704  1.00  0.00     0.011 A 
ATOM      7  C   UNL A   1      46.543  20.090  24.866  1.00  0.00     0.035 A 
ATOM      8  C   UNL A   1      44.217  20.699  24.966  1.00  0.00     0.051 A 
ATOM      9  C   UNL A   1      46.189  18.800  25.186  1.00  0.00     0.113 A 
ATOM     10  N   UNL A   1      44.925  18.437  25.437  1.00  0.00    -0.249 NA
BRANCH   6  11
ATOM     11  S   UNL A   1      46.012  22.732  24.364  1.00  0.00    -0.122 SA
BRANCH  11  12
ATOM     12  C   UNL A   1      45.997  23.523  26.027  1.00  0.00     0.122 C 
BRANCH  12  13
ATOM     13  C   UNL A   1      45.038  24.691  26.317  1.00  0.00     0.208 C 
ATOM     14  O   UNL A   1      45.213  27.905  25.055  1.00  0.00    -0.225 OA
ATOM     15  C   UNL A   1      44.928  26.768  25.379  1.00  0.00     0.407 C 
ATOM     16  N   UNL A   1      43.843  26.078  24.923  1.00  0.00    -0.318 N 
ATOM     17  O   UNL A   1      45.668  25.979  26.209  1.00  0.00    -0.443 OA
ATOM     18  C   UNL A   1      43.802  24.757  25.440  1.00  0.00     0.165 C 
ATOM     19  H   UNL A   1      43.171  26.453  24.310  1.00  0.00     0.167 HD
ENDBRANCH  12  13
ENDBRANCH  11  12
ENDBRANCH   6  11
ENDBRANCH   3   5
ENDBRANCH   2   3
ENDBRANCH   1   2
BRANCH   1  20
ATOM     20  C   UNL A   1      40.817  21.481  27.551  1.00  0.00     0.275 C 
BRANCH  20  21
ATOM     21  O   UNL A   1      40.614  22.337  26.409  1.00  0.00    -0.458 OA
BRANCH  21  22
ATOM     22  C   UNL A   1      39.446  23.019  26.397  1.00  0.00     0.338 C 
ATOM     23  O   UNL A   1      38.354  22.612  26.034  1.00  0.00    -0.246 OA
BRANCH  22  24
ATOM     24  C   UNL A   1      39.639  24.365  26.959  1.00  0.00     0.060 A 
ATOM     25  C   UNL A   1      40.323  25.310  26.195  1.00  0.00     0.016 A 
ATOM     26  C   UNL A   1      39.265  24.657  28.270  1.00  0.00     0.016 A 
ATOM     27  C   UNL A   1      40.677  26.540  26.743  1.00  0.00     0.010 A 
ATOM     28  C   UNL A   1      39.590  25.906  28.810  1.00  0.00     0.010 A 
ATOM     29  C   UNL A   1      40.317  26.849  28.059  1.00  0.00    -0.014 A 
BRANCH  29  30
ATOM     30  C   UNL A   1      40.741  28.131  28.678  1.00  0.00     0.031 A 
ATOM     31  C   UNL A   1      42.168  28.307  29.115  1.00  0.00     0.074 A 
ATOM     32  C   UNL A   1      39.853  29.125  28.865  1.00  0.00     0.049 A 
ATOM     33  N   UNL A   1      42.705  29.248  29.848  1.00  0.00    -0.248 NA
ATOM     34  C   UNL A   1      43.118  27.274  28.673  1.00  0.00     0.031 C 
ATOM     35  C   UNL A   1      38.458  29.106  28.423  1.00  0.00     0.029 A 
ATOM     36  N   UNL A   1      39.988  30.338  29.491  1.00  0.00    -0.354 N 
ATOM     37  C   UNL A   1      44.043  28.900  29.991  1.00  0.00     0.074 A 
ATOM     38  C   UNL A   1      44.234  27.655  29.278  1.00  0.00     0.031 C 
ATOM     39  C   UNL A   1      37.864  30.249  28.800  1.00  0.00     0.029 A 
ATOM     40  C   UNL A   1      38.814  31.046  29.570  1.00  0.00     0.049 A 
ATOM     41  H   UNL A   1      40.844  30.669  29.850  1.00  0.00     0.167 HD
ATOM     42  C   UNL A   1      45.018  29.563  30.658  1.00  0.00     0.037 A 
ATOM     43  C   UNL A   1      38.523  32.183  30.231  1.00  0.00     0.037 A 
ATOM     44  C   UNL A   1      44.817  30.813  31.346  1.00  0.00     0.049 A 
ATOM     45  C   UNL A   1      39.604  32.861  31.030  1.00  0.00     0.074 A 
ATOM     46  C   UNL A   1      45.737  31.570  32.048  1.00  0.00     0.029 A 
ATOM     47  N   UNL A   1      43.606  31.489  31.416  1.00  0.00    -0.354 N 
ATOM     48  N   UNL A   1      40.860  32.518  31.185  1.00  0.00    -0.248 NA
ATOM     49  C   UNL A   1      39.225  34.084  31.753  1.00  0.00     0.031 C 
ATOM     50  C   UNL A   1      45.073  32.676  32.589  1.00  0.00     0.029 A 
ATOM     51  C   UNL A   1      43.753  32.645  32.166  1.00  0.00     0.049 A 
ATOM     52  H   UNL A   1      42.768  31.192  30.994  1.00  0.00     0.167 HD
ATOM     53  C   UNL A   1      41.429  33.497  31.987  1.00  0.00     0.074 A 
ATOM     54  C   UNL A   1      40.382  34.451  32.286  1.00  0.00     0.031 C 
ATOM     55  C   UNL A   1      42.706  33.599  32.432  1.00  0.00     0.037 A 
BRANCH  42  56
ATOM     56  C   UNL A   1      46.379  28.930  30.714  1.00  0.00     0.064 A 
ATOM     57  C   UNL A   1      46.717  27.972  31.682  1.00  0.00     0.173 A 
ATOM     58  C   UNL A   1      47.355  29.270  29.763  1.00  0.00     0.173 A 
ATOM     59  F   UNL A   1      45.827  27.620  32.623  1.00  0.00    -0.203 F 
ATOM     60  C   UNL A   1      47.989  27.405  31.717  1.00  0.00     0.198 A 
ATOM     61  C   UNL A   1      48.614  28.675  29.780  1.00  0.00     0.198 A 
ATOM     62  F   UNL A   1      47.086  30.175  28.810  1.00  0.00    -0.203 F 
ATOM     63  F   UNL A   1      48.305  26.535  32.686  1.00  0.00    -0.200 F 
ATOM     64  C   UNL A   1      48.933  27.751  30.763  1.00  0.00     0.200 A 
ATOM     65  F   UNL A   1      49.520  29.001  28.847  1.00  0.00    -0.200 F 
ATOM     66  F   UNL A   1      50.155  27.200  30.795  1.00  0.00    -0.200 F 
ENDBRANCH  42  56
BRANCH  43  67
ATOM     67  C   UNL A   1      37.143  32.735  30.190  1.00  0.00     0.064 A 
ATOM     68  C   UNL A   1      36.220  32.448  31.205  1.00  0.00     0.173 A 
ATOM     69  C   UNL A   1      36.715  33.553  29.133  1.00  0.00     0.173 A 
ATOM     70  F   UNL A   1      36.573  31.649  32.224  1.00  0.00    -0.203 F 
ATOM     71  C   UNL A   1      34.918  32.943  31.156  1.00  0.00     0.198 A 
ATOM     72  C   UNL A   1      35.423  34.074  29.102  1.00  0.00     0.198 A 
ATOM     73  F   UNL A   1      37.556  33.857  28.134  1.00  0.00    -0.203 F 
ATOM     74  F   UNL A   1      34.042  32.610  32.114  1.00  0.00    -0.200 F 
ATOM     75  C   UNL A   1      34.523  33.761  30.109  1.00  0.00     0.200 A 
ATOM     76  F   UNL A   1      35.050  34.876  28.095  1.00  0.00    -0.200 F 
ATOM     77  F   UNL A   1      33.272  34.238  30.064  1.00  0.00    -0.200 F 
ENDBRANCH  43  67
BRANCH  55  78
ATOM     78  C   UNL A   1      43.069  34.820  33.227  1.00  0.00     0.064 A 
ATOM     79  C   UNL A   1      43.468  36.015  32.613  1.00  0.00     0.173 A 
ATOM     80  C   UNL A   1      42.955  34.804  34.626  1.00  0.00     0.173 A 
ATOM     81  F   UNL A   1      43.608  36.077  31.281  1.00  0.00    -0.203 F 
ATOM     82  C   UNL A   1      43.758  37.147  33.374  1.00  0.00     0.198 A 
ATOM     83  C   UNL A   1      43.213  35.945  35.380  1.00  0.00     0.198 A 
ATOM     84  F   UNL A   1      42.570  33.687  35.261  1.00  0.00    -0.203 F 
ATOM     85  F   UNL A   1      44.178  38.266  32.771  1.00  0.00    -0.200 F 
ATOM     86  C   UNL A   1      43.621  37.113  34.754  1.00  0.00     0.200 A 
ATOM     87  F   UNL A   1      43.063  35.916  36.711  1.00  0.00    -0.200 F 
ATOM     88  F   UNL A   1      43.883  38.208  35.481  1.00  0.00    -0.200 F 
ENDBRANCH  55  78
ENDBRANCH  29  30
ENDBRANCH  22  24
ENDBRANCH  21  22
ENDBRANCH  20  21
ENDBRANCH   1  20
TORSDOF 14
ENDMDL
MODEL 3
REMARK VINA RESULT:     -11.0      3.830      5.570
REMARK SMILES O=C1NC[C@@H](CSc2ccnc(C(=O)OCCOC(=O)c3ccc(-c4c5nc(c(-c6c(F)c(F)c(F)c(F)c6F)c6ccc([nH]6)c(-c6c(F)c(F)c(F)c(F)c6F)c6nc(c(-c7c(F)c(F)c(F)c(F)c7F)c7ccc4[nH]7)C=C6)C=C5)cc3)c2)O1
REMARK SMILES IDX 16 1 15 2 13 3 14 4 12 5 8 6 9 7 84 8 10 9 11 10 7 11 6 12
REMARK SMILES IDX 5 13 1 14 2 15 3 16 85 17 4 18 17 20 18 21 19 22 20 23 21 24
REMARK SMILES IDX 22 25 83 26 23 27 82 28 24 29 25 30 26 31 76 32 27 33 81 34
REMARK SMILES IDX 75 35 77 36 28 37 80 38 74 39 73 40 29 42 61 43 41 44 60 45
REMARK SMILES IDX 42 46 45 47 59 48 78 49 43 50 44 51 58 53 79 54 46 55 30 56
REMARK SMILES IDX 31 57 39 58 32 59 33 60 37 61 40 62 34 63 35 64 38 65 36 66
REMARK SMILES IDX 62 67 63 68 71 69 64 70 65 71 69 72 72 73 66 74 67 75 70 76
REMARK SMILES IDX 68 77 47 78 48 79 56 80 49 81 50 82 54 83 57 84 51 85 52 86
REMARK SMILES IDX 55 87 53 88
REMARK H PARENT 3 19 77 41 45 52
REMARK Flexibility Score: inf
ROOT
ATOM      1  C   UNL A   1      42.625  20.454  26.103  1.00  0.00     0.275 C 
ENDROOT
BRANCH   1   2
ATOM      2  O   UNL A   1      41.243  20.594  25.714  1.00  0.00    -0.457 OA
BRANCH   2   3
ATOM      3  C   UNL A   1      40.415  20.979  26.720  1.00  0.00     0.357 C 
ATOM      4  O   UNL A   1      40.565  20.689  27.900  1.00  0.00    -0.244 OA
BRANCH   3   5
ATOM      5  C   UNL A   1      39.323  21.889  26.245  1.00  0.00     0.149 A 
ATOM      6  C   UNL A   1      37.240  22.401  25.197  1.00  0.00     0.011 A 
ATOM      7  C   UNL A   1      37.354  23.693  25.703  1.00  0.00     0.035 A 
ATOM      8  C   UNL A   1      38.240  21.466  25.484  1.00  0.00     0.051 A 
ATOM      9  C   UNL A   1      38.491  24.047  26.391  1.00  0.00     0.113 A 
ATOM     10  N   UNL A   1      39.466  23.174  26.676  1.00  0.00    -0.249 NA
BRANCH   6  11
ATOM     11  S   UNL A   1      35.735  21.925  24.373  1.00  0.00    -0.122 SA
BRANCH  11  12
ATOM     12  C   UNL A   1      35.365  20.268  25.084  1.00  0.00     0.122 C 
BRANCH  12  13
ATOM     13  C   UNL A   1      34.022  19.581  24.781  1.00  0.00     0.208 C 
ATOM     14  O   UNL A   1      33.221  16.251  25.256  1.00  0.00    -0.225 OA
ATOM     15  C   UNL A   1      33.316  17.464  25.255  1.00  0.00     0.407 C 
ATOM     16  N   UNL A   1      32.626  18.298  26.085  1.00  0.00    -0.318 N 
ATOM     17  O   UNL A   1      34.160  18.186  24.464  1.00  0.00    -0.443 OA
ATOM     18  C   UNL A   1      32.983  19.657  25.885  1.00  0.00     0.165 C 
ATOM     19  H   UNL A   1      31.961  17.994  26.743  1.00  0.00     0.167 HD
ENDBRANCH  12  13
ENDBRANCH  11  12
ENDBRANCH   6  11
ENDBRANCH   3   5
ENDBRANCH   2   3
ENDBRANCH   1   2
BRANCH   1  20
ATOM     20  C   UNL A   1      43.532  21.445  25.362  1.00  0.00     0.275 C 
BRANCH  20  21
ATOM     21  O   UNL A   1      42.840  22.640  24.947  1.00  0.00    -0.458 OA
BRANCH  21  22
ATOM     22  C   UNL A   1      43.578  23.773  24.973  1.00  0.00     0.338 C 
ATOM     23  O   UNL A   1      44.546  24.043  24.280  1.00  0.00    -0.246 OA
BRANCH  22  24
ATOM     24  C   UNL A   1      43.015  24.722  25.946  1.00  0.00     0.060 A 
ATOM     25  C   UNL A   1      43.244  26.085  25.753  1.00  0.00     0.016 A 
ATOM     26  C   UNL A   1      42.378  24.273  27.102  1.00  0.00     0.016 A 
ATOM     27  C   UNL A   1      42.876  27.008  26.728  1.00  0.00     0.010 A 
ATOM     28  C   UNL A   1      41.978  25.203  28.067  1.00  0.00     0.010 A 
ATOM     29  C   UNL A   1      42.243  26.576  27.898  1.00  0.00    -0.014 A 
BRANCH  29  30
ATOM     30  C   UNL A   1      41.902  27.541  28.974  1.00  0.00     0.031 A 
ATOM     31  C   UNL A   1      42.733  27.580  30.226  1.00  0.00     0.074 A 
ATOM     32  C   UNL A   1      40.846  28.365  28.842  1.00  0.00     0.049 A 
ATOM     33  N   UNL A   1      42.503  28.190  31.360  1.00  0.00    -0.248 NA
ATOM     34  C   UNL A   1      43.991  26.817  30.197  1.00  0.00     0.031 C 
ATOM     35  C   UNL A   1      40.003  28.474  27.651  1.00  0.00     0.029 A 
ATOM     36  N   UNL A   1      40.292  29.256  29.726  1.00  0.00    -0.354 N 
ATOM     37  C   UNL A   1      43.563  27.852  32.193  1.00  0.00     0.074 A 
ATOM     38  C   UNL A   1      44.431  26.974  31.437  1.00  0.00     0.031 C 
ATOM     39  C   UNL A   1      39.034  29.374  27.882  1.00  0.00     0.029 A 
ATOM     40  C   UNL A   1      39.144  29.848  29.257  1.00  0.00     0.049 A 
ATOM     41  H   UNL A   1      40.678  29.451  30.611  1.00  0.00     0.167 HD
ATOM     42  C   UNL A   1      43.785  28.242  33.471  1.00  0.00     0.037 A 
ATOM     43  C   UNL A   1      38.255  30.642  29.883  1.00  0.00     0.037 A 
ATOM     44  C   UNL A   1      42.923  29.133  34.204  1.00  0.00     0.049 A 
ATOM     45  C   UNL A   1      38.482  31.000  31.328  1.00  0.00     0.074 A 
ATOM     46  C   UNL A   1      43.058  29.596  35.500  1.00  0.00     0.029 A 
ATOM     47  N   UNL A   1      41.759  29.698  33.698  1.00  0.00    -0.354 N 
ATOM     48  N   UNL A   1      39.469  30.659  32.121  1.00  0.00    -0.248 NA
ATOM     49  C   UNL A   1      37.467  31.848  31.968  1.00  0.00     0.031 C 
ATOM     50  C   UNL A   1      41.950  30.397  35.798  1.00  0.00     0.029 A 
ATOM     51  C   UNL A   1      41.159  30.489  34.664  1.00  0.00     0.049 A 
ATOM     52  H   UNL A   1      41.413  29.558  32.787  1.00  0.00     0.167 HD
ATOM     53  C   UNL A   1      39.216  31.279  33.337  1.00  0.00     0.074 A 
ATOM     54  C   UNL A   1      37.983  32.020  33.177  1.00  0.00     0.031 C 
ATOM     55  C   UNL A   1      39.944  31.242  34.480  1.00  0.00     0.037 A 
BRANCH  42  56
ATOM     56  C   UNL A   1      44.985  27.674  34.175  1.00  0.00     0.064 A 
ATOM     57  C   UNL A   1      44.912  26.502  34.944  1.00  0.00     0.173 A 
ATOM     58  C   UNL A   1      46.235  28.300  34.056  1.00  0.00     0.173 A 
ATOM     59  F   UNL A   1      43.740  25.870  35.103  1.00  0.00    -0.203 F 
ATOM     60  C   UNL A   1      46.038  25.999  35.593  1.00  0.00     0.198 A 
ATOM     61  C   UNL A   1      47.366  27.775  34.678  1.00  0.00     0.198 A 
ATOM     62  F   UNL A   1      46.366  29.420  33.328  1.00  0.00    -0.203 F 
ATOM     63  F   UNL A   1      45.931  24.911  36.367  1.00  0.00    -0.200 F 
ATOM     64  C   UNL A   1      47.264  26.631  35.453  1.00  0.00     0.200 A 
ATOM     65  F   UNL A   1      48.553  28.381  34.529  1.00  0.00    -0.200 F 
ATOM     66  F   UNL A   1      48.347  26.143  36.075  1.00  0.00    -0.200 F 
ENDBRANCH  42  56
BRANCH  43  67
ATOM     67  C   UNL A   1      37.052  31.129  29.156  1.00  0.00     0.064 A 
ATOM     68  C   UNL A   1      35.980  30.271  28.877  1.00  0.00     0.173 A 
ATOM     69  C   UNL A   1      36.953  32.458  28.717  1.00  0.00     0.173 A 
ATOM     70  F   UNL A   1      36.038  28.984  29.252  1.00  0.00    -0.203 F 
ATOM     71  C   UNL A   1      34.863  30.718  28.173  1.00  0.00     0.198 A 
ATOM     72  C   UNL A   1      35.822  32.913  28.042  1.00  0.00     0.198 A 
ATOM     73  F   UNL A   1      37.951  33.322  28.954  1.00  0.00    -0.203 F 
ATOM     74  F   UNL A   1      33.876  29.862  27.876  1.00  0.00    -0.200 F 
ATOM     75  C   UNL A   1      34.782  32.039  27.763  1.00  0.00     0.200 A 
ATOM     76  F   UNL A   1      35.742  34.195  27.660  1.00  0.00    -0.200 F 
ATOM     77  F   UNL A   1      33.707  32.469  27.089  1.00  0.00    -0.200 F 
ENDBRANCH  43  67
BRANCH  55  78
ATOM     78  C   UNL A   1      39.471  32.083  35.631  1.00  0.00     0.064 A 
ATOM     79  C   UNL A   1      39.849  33.425  35.776  1.00  0.00     0.173 A 
ATOM     80  C   UNL A   1      38.575  31.546  36.569  1.00  0.00     0.173 A 
ATOM     81  F   UNL A   1      40.715  33.980  34.915  1.00  0.00    -0.203 F 
ATOM     82  C   UNL A   1      39.361  34.194  36.831  1.00  0.00     0.198 A 
ATOM     83  C   UNL A   1      38.064  32.327  37.602  1.00  0.00     0.198 A 
ATOM     84  F   UNL A   1      38.177  30.269  36.470  1.00  0.00    -0.203 F 
ATOM     85  F   UNL A   1      39.768  35.462  36.976  1.00  0.00    -0.200 F 
ATOM     86  C   UNL A   1      38.463  33.648  37.735  1.00  0.00     0.200 A 
ATOM     87  F   UNL A   1      37.183  31.802  38.464  1.00  0.00    -0.200 F 
ATOM     88  F   UNL A   1      37.981  34.395  38.739  1.00  0.00    -0.200 F 
ENDBRANCH  55  78
ENDBRANCH  29  30
ENDBRANCH  22  24
ENDBRANCH  21  22
ENDBRANCH  20  21
ENDBRANCH   1  20
TORSDOF 14
ENDMDL
