MODEL 1
REMARK VINA RESULT:     -12.9      0.000      0.000
REMARK SMILES O=C(OCCOC(=O)c1ccc(F)c(S(=O)(=O)N2CCOc3ccccc32)c1)c1ccc(-c2c3nc(c(-c4c(F)c(F)c(F)c(F)c4F)c4ccc([nH]4)c(-c4c(F)c(F)c(F)c(F)c4F)c4nc(c(-c5c(F)c(F)c(F)c(F)c5F)c5ccc2[nH]5)C=C4)C=C3)cc1
REMARK SMILES IDX 4 1 3 2 2 3 1 4 29 5 30 6 91 7 31 8 90 9 32 10 33 11 34 12
REMARK SMILES IDX 84 13 35 14 89 15 83 16 85 17 36 18 88 19 82 20 81 21 37 23
REMARK SMILES IDX 69 24 49 25 68 26 50 27 53 28 67 29 86 30 51 31 52 32 66 34
REMARK SMILES IDX 87 35 54 36 38 37 39 38 47 39 40 40 41 41 45 42 48 43 42 44
REMARK SMILES IDX 43 45 46 46 44 47 70 48 71 49 79 50 72 51 73 52 77 53 80 54
REMARK SMILES IDX 74 55 75 56 78 57 76 58 55 59 56 60 64 61 57 62 58 63 62 64
REMARK SMILES IDX 65 65 59 66 60 67 63 68 61 69 5 70 6 71 7 72 8 73 9 74 10 75
REMARK SMILES IDX 28 76 11 77 14 78 12 79 13 80 15 81 16 82 17 83 18 84 19 85
REMARK SMILES IDX 27 86 20 87 22 88 26 89 21 90 23 91 25 92 24 93
REMARK H PARENT 85 22 53 33
REMARK Flexibility Score: inf
ROOT
ATOM      1  C   UNL A   1      32.148  32.202  27.374  1.00  0.00     0.275 C 
ENDROOT
BRANCH   1   2
ATOM      2  O   UNL A   1      32.419  33.610  27.434  1.00  0.00    -0.458 OA
BRANCH   2   3
ATOM      3  C   UNL A   1      33.006  34.343  28.406  1.00  0.00     0.338 C 
ATOM      4  O   UNL A   1      32.491  35.413  28.728  1.00  0.00    -0.246 OA
BRANCH   3   5
ATOM      5  C   UNL A   1      34.320  33.995  29.036  1.00  0.00     0.060 A 
ATOM      6  C   UNL A   1      35.597  34.269  28.533  1.00  0.00     0.016 A 
ATOM      7  C   UNL A   1      34.239  33.298  30.249  1.00  0.00     0.016 A 
ATOM      8  C   UNL A   1      36.755  33.923  29.246  1.00  0.00     0.010 A 
ATOM      9  C   UNL A   1      35.386  32.965  30.972  1.00  0.00     0.010 A 
ATOM     10  C   UNL A   1      36.656  33.266  30.470  1.00  0.00    -0.014 A 
BRANCH  10  11
ATOM     11  C   UNL A   1      37.837  32.695  31.156  1.00  0.00     0.031 A 
ATOM     12  C   UNL A   1      38.461  31.470  30.559  1.00  0.00     0.074 A 
ATOM     13  C   UNL A   1      38.302  33.206  32.309  1.00  0.00     0.049 A 
ATOM     14  N   UNL A   1      39.394  30.694  31.040  1.00  0.00    -0.248 NA
ATOM     15  C   UNL A   1      37.961  31.066  29.233  1.00  0.00     0.031 C 
ATOM     16  C   UNL A   1      37.832  34.432  32.941  1.00  0.00     0.029 A 
ATOM     17  N   UNL A   1      39.244  32.720  33.184  1.00  0.00    -0.354 N 
ATOM     18  C   UNL A   1      39.601  29.726  30.070  1.00  0.00     0.074 A 
ATOM     19  C   UNL A   1      38.642  29.955  29.015  1.00  0.00     0.031 C 
ATOM     20  C   UNL A   1      38.405  34.552  34.152  1.00  0.00     0.029 A 
ATOM     21  C   UNL A   1      39.288  33.410  34.370  1.00  0.00     0.049 A 
ATOM     22  H   UNL A   1      39.828  31.955  32.980  1.00  0.00     0.167 HD
ATOM     23  C   UNL A   1      40.547  28.760  30.042  1.00  0.00     0.037 A 
ATOM     24  C   UNL A   1      39.946  33.134  35.514  1.00  0.00     0.037 A 
ATOM     25  C   UNL A   1      41.495  28.550  31.098  1.00  0.00     0.049 A 
ATOM     26  C   UNL A   1      40.893  31.967  35.537  1.00  0.00     0.074 A 
ATOM     27  C   UNL A   1      42.537  27.646  31.155  1.00  0.00     0.029 A 
ATOM     28  N   UNL A   1      41.500  29.254  32.294  1.00  0.00    -0.354 N 
ATOM     29  N   UNL A   1      41.145  31.098  34.587  1.00  0.00    -0.248 NA
ATOM     30  C   UNL A   1      41.679  31.760  36.761  1.00  0.00     0.031 C 
ATOM     31  C   UNL A   1      43.142  27.768  32.408  1.00  0.00     0.029 A 
ATOM     32  C   UNL A   1      42.510  28.783  33.113  1.00  0.00     0.049 A 
ATOM     33  H   UNL A   1      40.877  29.981  32.525  1.00  0.00     0.167 HD
ATOM     34  C   UNL A   1      42.157  30.282  35.069  1.00  0.00     0.074 A 
ATOM     35  C   UNL A   1      42.453  30.738  36.414  1.00  0.00     0.031 C 
ATOM     36  C   UNL A   1      42.801  29.271  34.439  1.00  0.00     0.037 A 
BRANCH  23  37
ATOM     37  C   UNL A   1      40.585  27.884  28.827  1.00  0.00     0.064 A 
ATOM     38  C   UNL A   1      39.832  26.703  28.775  1.00  0.00     0.173 A 
ATOM     39  C   UNL A   1      41.345  28.230  27.699  1.00  0.00     0.173 A 
ATOM     40  F   UNL A   1      39.088  26.327  29.826  1.00  0.00    -0.203 F 
ATOM     41  C   UNL A   1      39.827  25.909  27.631  1.00  0.00     0.198 A 
ATOM     42  C   UNL A   1      41.313  27.452  26.546  1.00  0.00     0.198 A 
ATOM     43  F   UNL A   1      42.069  29.362  27.693  1.00  0.00    -0.203 F 
ATOM     44  F   UNL A   1      39.101  24.783  27.603  1.00  0.00    -0.200 F 
ATOM     45  C   UNL A   1      40.556  26.291  26.514  1.00  0.00     0.200 A 
ATOM     46  F   UNL A   1      41.990  27.842  25.457  1.00  0.00    -0.200 F 
ATOM     47  F   UNL A   1      40.519  25.546  25.400  1.00  0.00    -0.200 F 
ENDBRANCH  23  37
BRANCH  24  48
ATOM     48  C   UNL A   1      39.736  33.999  36.702  1.00  0.00     0.064 A 
ATOM     49  C   UNL A   1      40.466  35.188  36.866  1.00  0.00     0.173 A 
ATOM     50  C   UNL A   1      38.860  33.626  37.727  1.00  0.00     0.173 A 
ATOM     51  F   UNL A   1      41.327  35.584  35.918  1.00  0.00    -0.203 F 
ATOM     52  C   UNL A   1      40.337  35.959  38.020  1.00  0.00     0.198 A 
ATOM     53  C   UNL A   1      38.722  34.405  38.876  1.00  0.00     0.198 A 
ATOM     54  F   UNL A   1      38.136  32.503  37.613  1.00  0.00    -0.203 F 
ATOM     55  F   UNL A   1      41.069  37.072  38.168  1.00  0.00    -0.200 F 
ATOM     56  C   UNL A   1      39.466  35.566  39.026  1.00  0.00     0.200 A 
ATOM     57  F   UNL A   1      37.877  34.025  39.844  1.00  0.00    -0.200 F 
ATOM     58  F   UNL A   1      39.350  36.300  40.140  1.00  0.00    -0.200 F 
ENDBRANCH  24  48
BRANCH  36  59
ATOM     59  C   UNL A   1      43.938  28.605  35.151  1.00  0.00     0.064 A 
ATOM     60  C   UNL A   1      43.682  27.534  36.023  1.00  0.00     0.173 A 
ATOM     61  C   UNL A   1      45.238  29.124  35.104  1.00  0.00     0.173 A 
ATOM     62  F   UNL A   1      42.449  27.011  36.106  1.00  0.00    -0.203 F 
ATOM     63  C   UNL A   1      44.679  27.038  36.856  1.00  0.00     0.198 A 
ATOM     64  C   UNL A   1      46.239  28.607  35.921  1.00  0.00     0.198 A 
ATOM     65  F   UNL A   1      45.530  30.137  34.274  1.00  0.00    -0.203 F 
ATOM     66  F   UNL A   1      44.395  26.060  37.727  1.00  0.00    -0.200 F 
ATOM     67  C   UNL A   1      45.954  27.579  36.808  1.00  0.00     0.200 A 
ATOM     68  F   UNL A   1      47.476  29.118  35.864  1.00  0.00    -0.200 F 
ATOM     69  F   UNL A   1      46.909  27.115  37.626  1.00  0.00    -0.200 F 
ENDBRANCH  36  59
ENDBRANCH  10  11
ENDBRANCH   3   5
ENDBRANCH   2   3
ENDBRANCH   1   2
BRANCH   1  70
ATOM     70  C   UNL A   1      33.393  31.316  27.320  1.00  0.00     0.275 C 
BRANCH  70  71
ATOM     71  O   UNL A   1      33.110  29.912  27.220  1.00  0.00    -0.458 OA
BRANCH  71  72
ATOM     72  C   UNL A   1      34.148  29.123  26.818  1.00  0.00     0.338 C 
ATOM     73  O   UNL A   1      35.249  29.053  27.312  1.00  0.00    -0.246 OA
BRANCH  72  74
ATOM     74  C   UNL A   1      33.690  28.277  25.689  1.00  0.00     0.061 A 
ATOM     75  C   UNL A   1      33.733  28.779  24.387  1.00  0.00     0.019 A 
ATOM     76  C   UNL A   1      33.185  26.988  25.933  1.00  0.00     0.041 A 
ATOM     77  C   UNL A   1      33.224  28.012  23.344  1.00  0.00     0.041 A 
ATOM     78  C   UNL A   1      32.622  26.240  24.878  1.00  0.00     0.124 A 
ATOM     79  C   UNL A   1      32.626  26.779  23.597  1.00  0.00     0.143 A 
ATOM     80  F   UNL A   1      32.053  26.178  22.552  1.00  0.00    -0.205 F 
BRANCH  78  81
ATOM     81  S   UNL A   1      31.831  24.689  25.278  1.00  0.00     0.267 S 
ATOM     82  O   UNL A   1      31.868  24.592  26.724  1.00  0.00    -0.201 OA
ATOM     83  O   UNL A   1      30.568  24.723  24.573  1.00  0.00    -0.201 OA
BRANCH  81  84
ATOM     84  N   UNL A   1      32.818  23.446  24.645  1.00  0.00    -0.259 N 
ATOM     85  C   UNL A   1      32.326  22.861  23.355  1.00  0.00     0.177 C 
ATOM     86  C   UNL A   1      34.271  23.584  24.678  1.00  0.00     0.094 A 
ATOM     87  C   UNL A   1      33.117  23.445  22.197  1.00  0.00     0.252 C 
ATOM     88  C   UNL A   1      35.030  23.310  23.521  1.00  0.00     0.143 A 
ATOM     89  C   UNL A   1      34.961  23.810  25.874  1.00  0.00     0.031 A 
ATOM     90  O   UNL A   1      34.489  23.052  22.282  1.00  0.00    -0.489 OA
ATOM     91  C   UNL A   1      36.426  23.244  23.570  1.00  0.00     0.049 A 
ATOM     92  C   UNL A   1      36.362  23.771  25.917  1.00  0.00     0.002 A 
ATOM     93  C   UNL A   1      37.092  23.478  24.769  1.00  0.00     0.004 A 
ENDBRANCH  81  84
ENDBRANCH  78  81
ENDBRANCH  72  74
ENDBRANCH  71  72
ENDBRANCH  70  71
ENDBRANCH   1  70
TORSDOF 13
ENDMDL
MODEL 2
REMARK VINA RESULT:     -12.9      4.578     10.564
REMARK SMILES O=C(OCCOC(=O)c1ccc(F)c(S(=O)(=O)N2CCOc3ccccc32)c1)c1ccc(-c2c3nc(c(-c4c(F)c(F)c(F)c(F)c4F)c4ccc([nH]4)c(-c4c(F)c(F)c(F)c(F)c4F)c4nc(c(-c5c(F)c(F)c(F)c(F)c5F)c5ccc2[nH]5)C=C4)C=C3)cc1
REMARK SMILES IDX 4 1 3 2 2 3 1 4 29 5 30 6 91 7 31 8 90 9 32 10 33 11 34 12
REMARK SMILES IDX 84 13 35 14 89 15 83 16 85 17 36 18 88 19 82 20 81 21 37 23
REMARK SMILES IDX 69 24 49 25 68 26 50 27 53 28 67 29 86 30 51 31 52 32 66 34
REMARK SMILES IDX 87 35 54 36 38 37 39 38 47 39 40 40 41 41 45 42 48 43 42 44
REMARK SMILES IDX 43 45 46 46 44 47 70 48 71 49 79 50 72 51 73 52 77 53 80 54
REMARK SMILES IDX 74 55 75 56 78 57 76 58 55 59 56 60 64 61 57 62 58 63 62 64
REMARK SMILES IDX 65 65 59 66 60 67 63 68 61 69 5 70 6 71 7 72 8 73 9 74 10 75
REMARK SMILES IDX 28 76 11 77 14 78 12 79 13 80 15 81 16 82 17 83 18 84 19 85
REMARK SMILES IDX 27 86 20 87 22 88 26 89 21 90 23 91 25 92 24 93
REMARK H PARENT 85 22 53 33
REMARK Flexibility Score: inf
ROOT
ATOM      1  C   UNL A   1      33.224  32.792  27.695  1.00  0.00     0.275 C 
ENDROOT
BRANCH   1   2
ATOM      2  O   UNL A   1      34.473  32.117  27.898  1.00  0.00    -0.458 OA
BRANCH   2   3
ATOM      3  C   UNL A   1      34.796  30.815  27.734  1.00  0.00     0.338 C 
ATOM      4  O   UNL A   1      33.968  30.064  27.221  1.00  0.00    -0.246 OA
BRANCH   3   5
ATOM      5  C   UNL A   1      36.058  30.196  28.253  1.00  0.00     0.060 A 
ATOM      6  C   UNL A   1      36.272  29.652  29.525  1.00  0.00     0.016 A 
ATOM      7  C   UNL A   1      37.137  30.191  27.358  1.00  0.00     0.016 A 
ATOM      8  C   UNL A   1      37.497  29.063  29.874  1.00  0.00     0.010 A 
ATOM      9  C   UNL A   1      38.352  29.592  27.692  1.00  0.00     0.010 A 
ATOM     10  C   UNL A   1      38.546  29.031  28.958  1.00  0.00    -0.014 A 
BRANCH  10  11
ATOM     11  C   UNL A   1      39.913  28.615  29.342  1.00  0.00     0.031 A 
ATOM     12  C   UNL A   1      40.777  29.624  30.036  1.00  0.00     0.074 A 
ATOM     13  C   UNL A   1      40.400  27.402  29.026  1.00  0.00     0.049 A 
ATOM     14  N   UNL A   1      42.046  29.567  30.336  1.00  0.00    -0.248 NA
ATOM     15  C   UNL A   1      40.113  30.873  30.450  1.00  0.00     0.031 C 
ATOM     16  C   UNL A   1      39.636  26.315  28.426  1.00  0.00     0.029 A 
ATOM     17  N   UNL A   1      41.676  26.901  29.119  1.00  0.00    -0.354 N 
ATOM     18  C   UNL A   1      42.324  30.759  30.985  1.00  0.00     0.074 A 
ATOM     19  C   UNL A   1      41.121  31.558  30.961  1.00  0.00     0.031 C 
ATOM     20  C   UNL A   1      40.474  25.314  28.104  1.00  0.00     0.029 A 
ATOM     21  C   UNL A   1      41.831  25.692  28.486  1.00  0.00     0.049 A 
ATOM     22  H   UNL A   1      42.405  27.362  29.592  1.00  0.00     0.167 HD
ATOM     23  C   UNL A   1      43.472  31.131  31.595  1.00  0.00     0.037 A 
ATOM     24  C   UNL A   1      42.948  24.987  28.219  1.00  0.00     0.037 A 
ATOM     25  C   UNL A   1      44.657  30.323  31.613  1.00  0.00     0.049 A 
ATOM     26  C   UNL A   1      44.258  25.475  28.770  1.00  0.00     0.074 A 
ATOM     27  C   UNL A   1      45.858  30.565  32.249  1.00  0.00     0.029 A 
ATOM     28  N   UNL A   1      44.786  29.112  30.945  1.00  0.00    -0.354 N 
ATOM     29  N   UNL A   1      44.503  26.567  29.454  1.00  0.00    -0.248 NA
ATOM     30  C   UNL A   1      45.438  24.624  28.558  1.00  0.00     0.031 C 
ATOM     31  C   UNL A   1      46.733  29.525  31.924  1.00  0.00     0.029 A 
ATOM     32  C   UNL A   1      46.060  28.609  31.127  1.00  0.00     0.049 A 
ATOM     33  H   UNL A   1      44.075  28.678  30.420  1.00  0.00     0.167 HD
ATOM     34  C   UNL A   1      45.842  26.508  29.807  1.00  0.00     0.074 A 
ATOM     35  C   UNL A   1      46.370  25.286  29.233  1.00  0.00     0.031 C 
ATOM     36  C   UNL A   1      46.556  27.375  30.566  1.00  0.00     0.037 A 
BRANCH  23  37
ATOM     37  C   UNL A   1      43.473  32.462  32.284  1.00  0.00     0.064 A 
ATOM     38  C   UNL A   1      43.725  33.638  31.566  1.00  0.00     0.173 A 
ATOM     39  C   UNL A   1      43.192  32.575  33.655  1.00  0.00     0.173 A 
ATOM     40  F   UNL A   1      43.999  33.585  30.253  1.00  0.00    -0.203 F 
ATOM     41  C   UNL A   1      43.681  34.881  32.192  1.00  0.00     0.198 A 
ATOM     42  C   UNL A   1      43.117  33.820  34.271  1.00  0.00     0.198 A 
ATOM     43  F   UNL A   1      42.925  31.479  34.383  1.00  0.00    -0.203 F 
ATOM     44  F   UNL A   1      43.928  35.993  31.487  1.00  0.00    -0.200 F 
ATOM     45  C   UNL A   1      43.365  34.972  33.539  1.00  0.00     0.200 A 
ATOM     46  F   UNL A   1      42.776  33.908  35.565  1.00  0.00    -0.200 F 
ATOM     47  F   UNL A   1      43.284  36.172  34.131  1.00  0.00    -0.200 F 
ENDBRANCH  23  37
BRANCH  24  48
ATOM     48  C   UNL A   1      42.848  23.743  27.414  1.00  0.00     0.064 A 
ATOM     49  C   UNL A   1      42.444  22.534  28.004  1.00  0.00     0.173 A 
ATOM     50  C   UNL A   1      43.219  23.718  26.065  1.00  0.00     0.173 A 
ATOM     51  F   UNL A   1      42.089  22.502  29.297  1.00  0.00    -0.203 F 
ATOM     52  C   UNL A   1      42.432  21.345  27.275  1.00  0.00     0.198 A 
ATOM     53  C   UNL A   1      43.195  22.531  25.334  1.00  0.00     0.198 A 
ATOM     54  F   UNL A   1      43.605  24.848  25.457  1.00  0.00    -0.203 F 
ATOM     55  F   UNL A   1      42.074  20.199  27.869  1.00  0.00    -0.200 F 
ATOM     56  C   UNL A   1      42.810  21.344  25.940  1.00  0.00     0.200 A 
ATOM     57  F   UNL A   1      43.556  22.534  24.043  1.00  0.00    -0.200 F 
ATOM     58  F   UNL A   1      42.809  20.201  25.243  1.00  0.00    -0.200 F 
ENDBRANCH  24  48
BRANCH  36  59
ATOM     59  C   UNL A   1      47.977  27.029  30.887  1.00  0.00     0.064 A 
ATOM     60  C   UNL A   1      49.009  27.475  30.046  1.00  0.00     0.173 A 
ATOM     61  C   UNL A   1      48.299  26.130  31.912  1.00  0.00     0.173 A 
ATOM     62  F   UNL A   1      48.744  28.331  29.047  1.00  0.00    -0.203 F 
ATOM     63  C   UNL A   1      50.306  26.996  30.193  1.00  0.00     0.198 A 
ATOM     64  C   UNL A   1      49.604  25.673  32.071  1.00  0.00     0.198 A 
ATOM     65  F   UNL A   1      47.346  25.689  32.746  1.00  0.00    -0.203 F 
ATOM     66  F   UNL A   1      51.262  27.386  29.339  1.00  0.00    -0.200 F 
ATOM     67  C   UNL A   1      50.601  26.092  31.202  1.00  0.00     0.200 A 
ATOM     68  F   UNL A   1      49.893  24.812  33.055  1.00  0.00    -0.200 F 
ATOM     69  F   UNL A   1      51.846  25.615  31.330  1.00  0.00    -0.200 F 
ENDBRANCH  36  59
ENDBRANCH  10  11
ENDBRANCH   3   5
ENDBRANCH   2   3
ENDBRANCH   1   2
BRANCH   1  70
ATOM     70  C   UNL A   1      33.319  34.318  27.680  1.00  0.00     0.275 C 
BRANCH  70  71
ATOM     71  O   UNL A   1      32.550  34.964  28.705  1.00  0.00    -0.458 OA
BRANCH  71  72
ATOM     72  C   UNL A   1      33.023  36.170  29.133  1.00  0.00     0.338 C 
ATOM     73  O   UNL A   1      33.095  37.196  28.498  1.00  0.00    -0.246 OA
BRANCH  72  74
ATOM     74  C   UNL A   1      33.384  36.055  30.567  1.00  0.00     0.061 A 
ATOM     75  C   UNL A   1      33.351  37.189  31.381  1.00  0.00     0.019 A 
ATOM     76  C   UNL A   1      33.787  34.817  31.096  1.00  0.00     0.041 A 
ATOM     77  C   UNL A   1      33.771  37.090  32.704  1.00  0.00     0.041 A 
ATOM     78  C   UNL A   1      34.262  34.738  32.422  1.00  0.00     0.124 A 
ATOM     79  C   UNL A   1      34.273  35.888  33.201  1.00  0.00     0.143 A 
ATOM     80  F   UNL A   1      34.769  35.926  34.439  1.00  0.00    -0.205 F 
BRANCH  78  81
ATOM     81  S   UNL A   1      34.931  33.178  32.981  1.00  0.00     0.267 S 
ATOM     82  O   UNL A   1      34.783  33.183  34.423  1.00  0.00    -0.201 OA
ATOM     83  O   UNL A   1      34.265  32.178  32.174  1.00  0.00    -0.201 OA
BRANCH  81  84
ATOM     84  N   UNL A   1      36.602  33.194  32.626  1.00  0.00    -0.259 N 
ATOM     85  C   UNL A   1      37.224  34.559  32.628  1.00  0.00     0.177 C 
ATOM     86  C   UNL A   1      37.478  32.181  33.205  1.00  0.00     0.094 A 
ATOM     87  C   UNL A   1      37.971  34.776  33.932  1.00  0.00     0.252 C 
ATOM     88  C   UNL A   1      38.694  32.564  33.810  1.00  0.00     0.143 A 
ATOM     89  C   UNL A   1      37.239  30.813  33.027  1.00  0.00     0.031 A 
ATOM     90  O   UNL A   1      39.071  33.868  34.033  1.00  0.00    -0.489 OA
ATOM     91  C   UNL A   1      39.641  31.611  34.198  1.00  0.00     0.049 A 
ATOM     92  C   UNL A   1      38.177  29.857  33.443  1.00  0.00     0.002 A 
ATOM     93  C   UNL A   1      39.380  30.256  34.018  1.00  0.00     0.004 A 
ENDBRANCH  81  84
ENDBRANCH  78  81
ENDBRANCH  72  74
ENDBRANCH  71  72
ENDBRANCH  70  71
ENDBRANCH   1  70
TORSDOF 13
ENDMDL
MODEL 3
REMARK VINA RESULT:     -12.8      5.428     10.766
REMARK SMILES O=C(OCCOC(=O)c1ccc(F)c(S(=O)(=O)N2CCOc3ccccc32)c1)c1ccc(-c2c3nc(c(-c4c(F)c(F)c(F)c(F)c4F)c4ccc([nH]4)c(-c4c(F)c(F)c(F)c(F)c4F)c4nc(c(-c5c(F)c(F)c(F)c(F)c5F)c5ccc2[nH]5)C=C4)C=C3)cc1
REMARK SMILES IDX 4 1 3 2 2 3 1 4 29 5 30 6 91 7 31 8 90 9 32 10 33 11 34 12
REMARK SMILES IDX 84 13 35 14 89 15 83 16 85 17 36 18 88 19 82 20 81 21 37 23
REMARK SMILES IDX 69 24 49 25 68 26 50 27 53 28 67 29 86 30 51 31 52 32 66 34
REMARK SMILES IDX 87 35 54 36 38 37 39 38 47 39 40 40 41 41 45 42 48 43 42 44
REMARK SMILES IDX 43 45 46 46 44 47 70 48 71 49 79 50 72 51 73 52 77 53 80 54
REMARK SMILES IDX 74 55 75 56 78 57 76 58 55 59 56 60 64 61 57 62 58 63 62 64
REMARK SMILES IDX 65 65 59 66 60 67 63 68 61 69 5 70 6 71 7 72 8 73 9 74 10 75
REMARK SMILES IDX 28 76 11 77 14 78 12 79 13 80 15 81 16 82 17 83 18 84 19 85
REMARK SMILES IDX 27 86 20 87 22 88 26 89 21 90 23 91 25 92 24 93
REMARK H PARENT 85 22 53 33
REMARK Flexibility Score: inf
ROOT
ATOM      1  C   UNL A   1      38.906  20.124  25.274  1.00  0.00     0.275 C 
ENDROOT
BRANCH   1   2
ATOM      2  O   UNL A   1      39.905  19.338  25.938  1.00  0.00    -0.458 OA
BRANCH   2   3
ATOM      3  C   UNL A   1      41.243  19.511  26.011  1.00  0.00     0.338 C 
ATOM      4  O   UNL A   1      41.975  18.557  25.754  1.00  0.00    -0.246 OA
BRANCH   3   5
ATOM      5  C   UNL A   1      41.897  20.765  26.507  1.00  0.00     0.060 A 
ATOM      6  C   UNL A   1      42.120  21.131  27.839  1.00  0.00     0.016 A 
ATOM      7  C   UNL A   1      42.302  21.666  25.512  1.00  0.00     0.016 A 
ATOM      8  C   UNL A   1      42.784  22.322  28.170  1.00  0.00     0.010 A 
ATOM      9  C   UNL A   1      42.978  22.844  25.833  1.00  0.00     0.010 A 
ATOM     10  C   UNL A   1      43.215  23.187  27.168  1.00  0.00    -0.014 A 
BRANCH  10  11
ATOM     11  C   UNL A   1      43.727  24.544  27.465  1.00  0.00     0.031 A 
ATOM     12  C   UNL A   1      42.726  25.600  27.826  1.00  0.00     0.074 A 
ATOM     13  C   UNL A   1      45.032  24.850  27.352  1.00  0.00     0.049 A 
ATOM     14  N   UNL A   1      42.893  26.885  27.978  1.00  0.00    -0.248 NA
ATOM     15  C   UNL A   1      41.345  25.137  28.047  1.00  0.00     0.031 C 
ATOM     16  C   UNL A   1      46.102  23.898  27.086  1.00  0.00     0.029 A 
ATOM     17  N   UNL A   1      45.669  26.065  27.395  1.00  0.00    -0.354 N 
ATOM     18  C   UNL A   1      41.645  27.378  28.328  1.00  0.00     0.074 A 
ATOM     19  C   UNL A   1      40.714  26.274  28.281  1.00  0.00     0.031 C 
ATOM     20  C   UNL A   1      47.249  24.569  26.883  1.00  0.00     0.029 A 
ATOM     21  C   UNL A   1      46.987  26.000  27.013  1.00  0.00     0.049 A 
ATOM     22  H   UNL A   1      45.227  26.900  27.672  1.00  0.00     0.167 HD
ATOM     23  C   UNL A   1      41.318  28.634  28.706  1.00  0.00     0.037 A 
ATOM     24  C   UNL A   1      47.872  26.986  26.768  1.00  0.00     0.037 A 
ATOM     25  C   UNL A   1      42.258  29.717  28.752  1.00  0.00     0.049 A 
ATOM     26  C   UNL A   1      47.466  28.406  27.046  1.00  0.00     0.074 A 
ATOM     27  C   UNL A   1      42.059  31.015  29.176  1.00  0.00     0.029 A 
ATOM     28  N   UNL A   1      43.580  29.621  28.339  1.00  0.00    -0.354 N 
ATOM     29  N   UNL A   1      46.304  28.860  27.454  1.00  0.00    -0.248 NA
ATOM     30  C   UNL A   1      48.489  29.447  26.877  1.00  0.00     0.031 C 
ATOM     31  C   UNL A   1      43.248  31.720  28.972  1.00  0.00     0.029 A 
ATOM     32  C   UNL A   1      44.203  30.848  28.469  1.00  0.00     0.049 A 
ATOM     33  H   UNL A   1      44.010  28.800  28.004  1.00  0.00     0.167 HD
ATOM     34  C   UNL A   1      46.471  30.223  27.650  1.00  0.00     0.074 A 
ATOM     35  C   UNL A   1      47.839  30.531  27.284  1.00  0.00     0.031 C 
ATOM     36  C   UNL A   1      45.576  31.125  28.122  1.00  0.00     0.037 A 
BRANCH  23  37
ATOM     37  C   UNL A   1      39.892  28.874  29.099  1.00  0.00     0.064 A 
ATOM     38  C   UNL A   1      38.940  29.246  28.140  1.00  0.00     0.173 A 
ATOM     39  C   UNL A   1      39.460  28.704  30.424  1.00  0.00     0.173 A 
ATOM     40  F   UNL A   1      39.302  29.421  26.859  1.00  0.00    -0.203 F 
ATOM     41  C   UNL A   1      37.605  29.425  28.491  1.00  0.00     0.198 A 
ATOM     42  C   UNL A   1      38.120  28.852  30.766  1.00  0.00     0.198 A 
ATOM     43  F   UNL A   1      40.330  28.330  31.376  1.00  0.00    -0.203 F 
ATOM     44  F   UNL A   1      36.712  29.783  27.559  1.00  0.00    -0.200 F 
ATOM     45  C   UNL A   1      37.194  29.215  29.799  1.00  0.00     0.200 A 
ATOM     46  F   UNL A   1      37.719  28.614  32.022  1.00  0.00    -0.200 F 
ATOM     47  F   UNL A   1      35.901  29.349  30.127  1.00  0.00    -0.200 F 
ENDBRANCH  23  37
BRANCH  24  48
ATOM     48  C   UNL A   1      49.223  26.641  26.257  1.00  0.00     0.064 A 
ATOM     49  C   UNL A   1      50.233  26.204  27.129  1.00  0.00     0.173 A 
ATOM     50  C   UNL A   1      49.555  26.808  24.908  1.00  0.00     0.173 A 
ATOM     51  F   UNL A   1      49.971  26.039  28.434  1.00  0.00    -0.203 F 
ATOM     52  C   UNL A   1      51.528  25.963  26.670  1.00  0.00     0.198 A 
ATOM     53  C   UNL A   1      50.847  26.554  24.447  1.00  0.00     0.198 A 
ATOM     54  F   UNL A   1      48.622  27.217  24.036  1.00  0.00    -0.203 F 
ATOM     55  F   UNL A   1      52.482  25.577  27.528  1.00  0.00    -0.200 F 
ATOM     56  C   UNL A   1      51.834  26.140  25.329  1.00  0.00     0.200 A 
ATOM     57  F   UNL A   1      51.138  26.722  23.150  1.00  0.00    -0.200 F 
ATOM     58  F   UNL A   1      53.080  25.919  24.889  1.00  0.00    -0.200 F 
ENDBRANCH  24  48
BRANCH  36  59
ATOM     59  C   UNL A   1      46.040  32.532  28.337  1.00  0.00     0.064 A 
ATOM     60  C   UNL A   1      46.496  32.929  29.605  1.00  0.00     0.173 A 
ATOM     61  C   UNL A   1      45.878  33.516  27.354  1.00  0.00     0.173 A 
ATOM     62  F   UNL A   1      46.658  32.020  30.579  1.00  0.00    -0.203 F 
ATOM     63  C   UNL A   1      46.729  34.269  29.892  1.00  0.00     0.198 A 
ATOM     64  C   UNL A   1      46.137  34.854  27.639  1.00  0.00     0.198 A 
ATOM     65  F   UNL A   1      45.458  33.179  26.125  1.00  0.00    -0.203 F 
ATOM     66  F   UNL A   1      47.101  34.632  31.127  1.00  0.00    -0.200 F 
ATOM     67  C   UNL A   1      46.543  35.230  28.910  1.00  0.00     0.200 A 
ATOM     68  F   UNL A   1      45.973  35.782  26.686  1.00  0.00    -0.200 F 
ATOM     69  F   UNL A   1      46.747  36.524  29.194  1.00  0.00    -0.200 F 
ENDBRANCH  36  59
ENDBRANCH  10  11
ENDBRANCH   3   5
ENDBRANCH   2   3
ENDBRANCH   1   2
BRANCH   1  70
ATOM     70  C   UNL A   1      38.672  21.506  25.886  1.00  0.00     0.275 C 
BRANCH  70  71
ATOM     71  O   UNL A   1      37.786  22.342  25.126  1.00  0.00    -0.458 OA
BRANCH  71  72
ATOM     72  C   UNL A   1      37.283  23.427  25.782  1.00  0.00     0.338 C 
ATOM     73  O   UNL A   1      37.905  24.342  26.268  1.00  0.00    -0.246 OA
BRANCH  72  74
ATOM     74  C   UNL A   1      35.802  23.357  25.747  1.00  0.00     0.061 A 
ATOM     75  C   UNL A   1      35.128  22.519  26.637  1.00  0.00     0.019 A 
ATOM     76  C   UNL A   1      35.082  24.108  24.800  1.00  0.00     0.041 A 
ATOM     77  C   UNL A   1      33.746  22.396  26.543  1.00  0.00     0.041 A 
ATOM     78  C   UNL A   1      33.688  23.935  24.677  1.00  0.00     0.124 A 
ATOM     79  C   UNL A   1      33.042  23.056  25.537  1.00  0.00     0.143 A 
ATOM     80  F   UNL A   1      31.741  22.774  25.448  1.00  0.00    -0.205 F 
BRANCH  78  81
ATOM     81  S   UNL A   1      32.854  24.775  23.339  1.00  0.00     0.267 S 
ATOM     82  O   UNL A   1      33.901  25.409  22.562  1.00  0.00    -0.201 OA
ATOM     83  O   UNL A   1      32.000  23.770  22.744  1.00  0.00    -0.201 OA
BRANCH  81  84
ATOM     84  N   UNL A   1      31.901  26.008  24.039  1.00  0.00    -0.259 N 
ATOM     85  C   UNL A   1      30.450  25.660  24.190  1.00  0.00     0.177 C 
ATOM     86  C   UNL A   1      32.415  26.768  25.175  1.00  0.00     0.094 A 
ATOM     87  C   UNL A   1      30.169  25.265  25.629  1.00  0.00     0.252 C 
ATOM     88  C   UNL A   1      31.602  26.973  26.309  1.00  0.00     0.143 A 
ATOM     89  C   UNL A   1      33.632  27.455  25.109  1.00  0.00     0.031 A 
ATOM     90  O   UNL A   1      30.375  26.379  26.501  1.00  0.00    -0.489 OA
ATOM     91  C   UNL A   1      31.988  27.852  27.326  1.00  0.00     0.049 A 
ATOM     92  C   UNL A   1      34.031  28.315  26.142  1.00  0.00     0.002 A 
ATOM     93  C   UNL A   1      33.204  28.521  27.244  1.00  0.00     0.004 A 
ENDBRANCH  81  84
ENDBRANCH  78  81
ENDBRANCH  72  74
ENDBRANCH  71  72
ENDBRANCH  70  71
ENDBRANCH   1  70
TORSDOF 13
ENDMDL
