MODEL 1
REMARK VINA RESULT:     -10.7      0.000      0.000
REMARK SMILES C#CC[N@@H+](CC(=O)NC(=O)NC)CC(=O)OCCOC(=O)c1ccc(-c2c3nc(c(-c4c(F)c(F)c(F)c(F)c4F)c4ccc([nH]4)c(-c4c(F)c(F)c(F)c(F)c4F)c4nc(c(-c5c(F)c(F)c(F)c(F)c5F)c5ccc2[nH]5)C=C4)C=C3)cc1
REMARK SMILES IDX 17 1 16 2 14 3 15 4 13 5 4 6 3 8 2 9 1 10 5 11 6 12 7 13
REMARK SMILES IDX 8 14 9 15 10 17 11 18 12 19 18 21 19 22 20 23 21 24 22 25
REMARK SMILES IDX 23 26 84 27 24 28 83 29 25 30 26 31 27 32 77 33 28 34 82 35
REMARK SMILES IDX 76 36 78 37 29 38 81 39 75 40 74 41 30 43 62 44 42 45 61 46
REMARK SMILES IDX 43 47 46 48 60 49 79 50 44 51 45 52 59 54 80 55 47 56 31 57
REMARK SMILES IDX 32 58 40 59 33 60 34 61 38 62 41 63 35 64 36 65 39 66 37 67
REMARK SMILES IDX 63 68 64 69 72 70 65 71 66 72 70 73 73 74 67 75 68 76 71 77
REMARK SMILES IDX 69 78 48 79 49 80 57 81 50 82 51 83 55 84 58 85 52 86 53 87
REMARK SMILES IDX 56 88 54 89
REMARK H PARENT 4 7 8 16 11 20 78 42 46 53
REMARK Flexibility Score: inf
ROOT
ATOM      1  C   UNL A   1      31.443  29.001  25.122  1.00  0.00     0.274 C 
ENDROOT
BRANCH   1   2
ATOM      2  O   UNL A   1      32.454  28.030  25.472  1.00  0.00    -0.458 OA
BRANCH   2   3
ATOM      3  C   UNL A   1      32.052  27.004  26.255  1.00  0.00     0.361 C 
ATOM      4  O   UNL A   1      31.095  27.058  27.025  1.00  0.00    -0.245 OA
BRANCH   3   5
ATOM      5  C   UNL A   1      32.870  25.727  26.126  1.00  0.00     0.387 C 
BRANCH   5   6
ATOM      6  N   UNL A   1      32.640  24.809  25.004  1.00  0.00    -0.308 N 
ATOM      7  H   UNL A   1      32.237  25.482  24.352  1.00  0.00     0.349 HD
BRANCH   6   8
ATOM      8  C   UNL A   1      33.770  24.385  24.199  1.00  0.00     0.354 C 
BRANCH   8   9
ATOM      9  C   UNL A   1      35.073  24.184  24.956  1.00  0.00    -0.047 C 
ATOM     10  C   UNL A   1      36.191  24.012  25.606  1.00  0.00     0.010 C 
ENDBRANCH   8   9
ENDBRANCH   6   8
BRANCH   6  11
ATOM     11  C   UNL A   1      31.561  23.824  25.174  1.00  0.00     0.365 C 
BRANCH  11  12
ATOM     12  C   UNL A   1      31.339  23.237  26.569  1.00  0.00     0.283 C 
ATOM     13  O   UNL A   1      30.374  23.608  27.251  1.00  0.00    -0.268 OA
ATOM     14  N   UNL A   1      32.159  22.271  27.121  1.00  0.00    -0.273 N 
ATOM     15  C   UNL A   1      33.295  21.591  26.791  1.00  0.00     0.321 C 
ATOM     16  H   UNL A   1      31.829  21.995  28.006  1.00  0.00     0.175 HD
ATOM     17  O   UNL A   1      34.188  21.455  27.626  1.00  0.00    -0.248 OA
ATOM     18  N   UNL A   1      33.471  21.053  25.571  1.00  0.00    -0.341 N 
ATOM     19  C   UNL A   1      32.513  20.713  24.551  1.00  0.00     0.144 C 
ATOM     20  H   UNL A   1      34.408  20.861  25.337  1.00  0.00     0.165 HD
ENDBRANCH  11  12
ENDBRANCH   6  11
ENDBRANCH   5   6
ENDBRANCH   3   5
ENDBRANCH   2   3
ENDBRANCH   1   2
BRANCH   1  21
ATOM     21  C   UNL A   1      31.692  30.301  25.874  1.00  0.00     0.275 C 
BRANCH  21  22
ATOM     22  O   UNL A   1      33.101  30.423  26.135  1.00  0.00    -0.458 OA
BRANCH  22  23
ATOM     23  C   UNL A   1      33.442  31.370  27.033  1.00  0.00     0.338 C 
ATOM     24  O   UNL A   1      32.807  32.371  27.346  1.00  0.00    -0.246 OA
BRANCH  23  25
ATOM     25  C   UNL A   1      34.734  31.031  27.640  1.00  0.00     0.060 A 
ATOM     26  C   UNL A   1      35.022  29.710  27.983  1.00  0.00     0.016 A 
ATOM     27  C   UNL A   1      35.620  32.055  27.972  1.00  0.00     0.016 A 
ATOM     28  C   UNL A   1      36.165  29.422  28.724  1.00  0.00     0.010 A 
ATOM     29  C   UNL A   1      36.812  31.748  28.632  1.00  0.00     0.010 A 
ATOM     30  C   UNL A   1      37.086  30.432  29.041  1.00  0.00    -0.014 A 
BRANCH  30  31
ATOM     31  C   UNL A   1      38.338  30.122  29.786  1.00  0.00     0.031 A 
ATOM     32  C   UNL A   1      39.372  29.199  29.199  1.00  0.00     0.074 A 
ATOM     33  C   UNL A   1      38.533  30.645  31.013  1.00  0.00     0.049 A 
ATOM     34  N   UNL A   1      40.398  28.628  29.779  1.00  0.00    -0.248 NA
ATOM     35  C   UNL A   1      39.231  28.863  27.774  1.00  0.00     0.031 C 
ATOM     36  C   UNL A   1      37.636  31.583  31.687  1.00  0.00     0.029 A 
ATOM     37  N   UNL A   1      39.547  30.450  31.919  1.00  0.00    -0.354 N 
ATOM     38  C   UNL A   1      40.990  27.826  28.810  1.00  0.00     0.074 A 
ATOM     39  C   UNL A   1      40.215  27.991  27.598  1.00  0.00     0.031 C 
ATOM     40  C   UNL A   1      38.145  31.901  32.884  1.00  0.00     0.029 A 
ATOM     41  C   UNL A   1      39.350  31.112  33.105  1.00  0.00     0.049 A 
ATOM     42  H   UNL A   1      40.336  29.890  31.736  1.00  0.00     0.167 HD
ATOM     43  C   UNL A   1      42.074  27.022  28.928  1.00  0.00     0.037 A 
ATOM     44  C   UNL A   1      40.023  31.050  34.269  1.00  0.00     0.037 A 
ATOM     45  C   UNL A   1      42.862  26.892  30.127  1.00  0.00     0.049 A 
ATOM     46  C   UNL A   1      41.197  30.124  34.388  1.00  0.00     0.074 A 
ATOM     47  C   UNL A   1      43.986  26.113  30.344  1.00  0.00     0.029 A 
ATOM     48  N   UNL A   1      42.615  27.571  31.312  1.00  0.00    -0.354 N 
ATOM     49  N   UNL A   1      41.711  29.325  33.485  1.00  0.00    -0.248 NA
ATOM     50  C   UNL A   1      41.869  30.074  35.691  1.00  0.00     0.031 C 
ATOM     51  C   UNL A   1      44.398  26.293  31.668  1.00  0.00     0.029 A 
ATOM     52  C   UNL A   1      43.556  27.218  32.266  1.00  0.00     0.049 A 
ATOM     53  H   UNL A   1      41.878  28.208  31.454  1.00  0.00     0.167 HD
ATOM     54  C   UNL A   1      42.769  28.681  34.107  1.00  0.00     0.074 A 
ATOM     55  C   UNL A   1      42.837  29.199  35.460  1.00  0.00     0.031 C 
ATOM     56  C   UNL A   1      43.605  27.739  33.607  1.00  0.00     0.037 A 
BRANCH  43  57
ATOM     57  C   UNL A   1      42.457  26.184  27.742  1.00  0.00     0.064 A 
ATOM     58  C   UNL A   1      43.453  26.586  26.840  1.00  0.00     0.173 A 
ATOM     59  C   UNL A   1      41.857  24.931  27.541  1.00  0.00     0.173 A 
ATOM     60  F   UNL A   1      44.049  27.779  26.981  1.00  0.00    -0.203 F 
ATOM     61  C   UNL A   1      43.820  25.773  25.771  1.00  0.00     0.198 A 
ATOM     62  C   UNL A   1      42.244  24.109  26.485  1.00  0.00     0.198 A 
ATOM     63  F   UNL A   1      40.904  24.495  28.379  1.00  0.00    -0.203 F 
ATOM     64  F   UNL A   1      44.752  26.191  24.902  1.00  0.00    -0.200 F 
ATOM     65  C   UNL A   1      43.222  24.533  25.599  1.00  0.00     0.200 A 
ATOM     66  F   UNL A   1      41.674  22.907  26.328  1.00  0.00    -0.200 F 
ATOM     67  F   UNL A   1      43.587  23.747  24.575  1.00  0.00    -0.200 F 
ENDBRANCH  43  57
BRANCH  44  68
ATOM     68  C   UNL A   1      39.558  31.858  35.424  1.00  0.00     0.064 A 
ATOM     69  C   UNL A   1      40.015  33.167  35.617  1.00  0.00     0.173 A 
ATOM     70  C   UNL A   1      38.618  31.350  36.335  1.00  0.00     0.173 A 
ATOM     71  F   UNL A   1      40.931  33.686  34.787  1.00  0.00    -0.203 F 
ATOM     72  C   UNL A   1      39.549  33.940  36.679  1.00  0.00     0.198 A 
ATOM     73  C   UNL A   1      38.130  32.134  37.377  1.00  0.00     0.198 A 
ATOM     74  F   UNL A   1      38.149  30.103  36.191  1.00  0.00    -0.203 F 
ATOM     75  F   UNL A   1      40.023  35.180  36.861  1.00  0.00    -0.200 F 
ATOM     76  C   UNL A   1      38.600  33.426  37.552  1.00  0.00     0.200 A 
ATOM     77  F   UNL A   1      37.201  31.640  38.207  1.00  0.00    -0.200 F 
ATOM     78  F   UNL A   1      38.140  34.177  38.561  1.00  0.00    -0.200 F 
ENDBRANCH  44  68
BRANCH  56  79
ATOM     79  C   UNL A   1      44.677  27.230  34.522  1.00  0.00     0.064 A 
ATOM     80  C   UNL A   1      45.922  27.868  34.616  1.00  0.00     0.173 A 
ATOM     81  C   UNL A   1      44.450  26.102  35.323  1.00  0.00     0.173 A 
ATOM     82  F   UNL A   1      46.191  28.939  33.855  1.00  0.00    -0.203 F 
ATOM     83  C   UNL A   1      46.911  27.379  35.463  1.00  0.00     0.198 A 
ATOM     84  C   UNL A   1      45.433  25.630  36.187  1.00  0.00     0.198 A 
ATOM     85  F   UNL A   1      43.273  25.460  35.269  1.00  0.00    -0.203 F 
ATOM     86  F   UNL A   1      48.111  27.975  35.504  1.00  0.00    -0.200 F 
ATOM     87  C   UNL A   1      46.665  26.263  36.251  1.00  0.00     0.200 A 
ATOM     88  F   UNL A   1      45.192  24.557  36.953  1.00  0.00    -0.200 F 
ATOM     89  F   UNL A   1      47.620  25.793  37.065  1.00  0.00    -0.200 F 
ENDBRANCH  56  79
ENDBRANCH  30  31
ENDBRANCH  23  25
ENDBRANCH  22  23
ENDBRANCH  21  22
ENDBRANCH   1  21
TORSDOF 16
ENDMDL
MODEL 2
REMARK VINA RESULT:     -10.6      4.355      9.808
REMARK SMILES C#CC[N@@H+](CC(=O)NC(=O)NC)CC(=O)OCCOC(=O)c1ccc(-c2c3nc(c(-c4c(F)c(F)c(F)c(F)c4F)c4ccc([nH]4)c(-c4c(F)c(F)c(F)c(F)c4F)c4nc(c(-c5c(F)c(F)c(F)c(F)c5F)c5ccc2[nH]5)C=C4)C=C3)cc1
REMARK SMILES IDX 17 1 16 2 14 3 15 4 13 5 4 6 3 8 2 9 1 10 5 11 6 12 7 13
REMARK SMILES IDX 8 14 9 15 10 17 11 18 12 19 18 21 19 22 20 23 21 24 22 25
REMARK SMILES IDX 23 26 84 27 24 28 83 29 25 30 26 31 27 32 77 33 28 34 82 35
REMARK SMILES IDX 76 36 78 37 29 38 81 39 75 40 74 41 30 43 62 44 42 45 61 46
REMARK SMILES IDX 43 47 46 48 60 49 79 50 44 51 45 52 59 54 80 55 47 56 31 57
REMARK SMILES IDX 32 58 40 59 33 60 34 61 38 62 41 63 35 64 36 65 39 66 37 67
REMARK SMILES IDX 63 68 64 69 72 70 65 71 66 72 70 73 73 74 67 75 68 76 71 77
REMARK SMILES IDX 69 78 48 79 49 80 57 81 50 82 51 83 55 84 58 85 52 86 53 87
REMARK SMILES IDX 56 88 54 89
REMARK H PARENT 4 7 8 16 11 20 78 42 46 53
REMARK Flexibility Score: inf
ROOT
ATOM      1  C   UNL A   1      35.183  33.769  28.600  1.00  0.00     0.274 C 
ENDROOT
BRANCH   1   2
ATOM      2  O   UNL A   1      35.758  33.163  29.778  1.00  0.00    -0.458 OA
BRANCH   2   3
ATOM      3  C   UNL A   1      37.068  33.414  30.002  1.00  0.00     0.361 C 
ATOM      4  O   UNL A   1      37.971  33.112  29.223  1.00  0.00    -0.245 OA
BRANCH   3   5
ATOM      5  C   UNL A   1      37.380  34.125  31.310  1.00  0.00     0.387 C 
BRANCH   5   6
ATOM      6  N   UNL A   1      36.506  33.953  32.476  1.00  0.00    -0.308 N 
ATOM      7  H   UNL A   1      36.018  33.114  32.163  1.00  0.00     0.349 HD
BRANCH   6   8
ATOM      8  C   UNL A   1      37.068  33.425  33.704  1.00  0.00     0.354 C 
BRANCH   8   9
ATOM      9  C   UNL A   1      37.395  31.941  33.689  1.00  0.00    -0.047 C 
ATOM     10  C   UNL A   1      37.675  30.667  33.676  1.00  0.00     0.010 C 
ENDBRANCH   8   9
ENDBRANCH   6   8
BRANCH   6  11
ATOM     11  C   UNL A   1      35.418  34.932  32.629  1.00  0.00     0.365 C 
BRANCH  11  12
ATOM     12  C   UNL A   1      33.983  34.448  32.415  1.00  0.00     0.283 C 
ATOM     13  O   UNL A   1      33.580  33.428  32.991  1.00  0.00    -0.268 OA
ATOM     14  N   UNL A   1      33.074  35.113  31.613  1.00  0.00    -0.273 N 
ATOM     15  C   UNL A   1      33.044  36.207  30.800  1.00  0.00     0.321 C 
ATOM     16  H   UNL A   1      32.196  34.668  31.636  1.00  0.00     0.175 HD
ATOM     17  O   UNL A   1      32.505  36.133  29.697  1.00  0.00    -0.248 OA
ATOM     18  N   UNL A   1      33.586  37.382  31.170  1.00  0.00    -0.341 N 
ATOM     19  C   UNL A   1      33.926  37.885  32.475  1.00  0.00     0.144 C 
ATOM     20  H   UNL A   1      33.784  37.996  30.427  1.00  0.00     0.165 HD
ENDBRANCH  11  12
ENDBRANCH   6  11
ENDBRANCH   5   6
ENDBRANCH   3   5
ENDBRANCH   2   3
ENDBRANCH   1   2
BRANCH   1  21
ATOM     21  C   UNL A   1      34.113  32.855  28.018  1.00  0.00     0.275 C 
BRANCH  21  22
ATOM     22  O   UNL A   1      34.226  31.560  28.632  1.00  0.00    -0.458 OA
BRANCH  22  23
ATOM     23  C   UNL A   1      34.578  30.557  27.802  1.00  0.00     0.338 C 
ATOM     24  O   UNL A   1      33.947  30.116  26.847  1.00  0.00    -0.246 OA
BRANCH  23  25
ATOM     25  C   UNL A   1      35.892  30.034  28.189  1.00  0.00     0.060 A 
ATOM     26  C   UNL A   1      36.088  29.508  29.467  1.00  0.00     0.016 A 
ATOM     27  C   UNL A   1      36.967  30.172  27.312  1.00  0.00     0.016 A 
ATOM     28  C   UNL A   1      37.375  29.186  29.891  1.00  0.00     0.010 A 
ATOM     29  C   UNL A   1      38.240  29.759  27.709  1.00  0.00     0.010 A 
ATOM     30  C   UNL A   1      38.465  29.287  29.014  1.00  0.00    -0.014 A 
BRANCH  30  31
ATOM     31  C   UNL A   1      39.836  28.893  29.444  1.00  0.00     0.031 A 
ATOM     32  C   UNL A   1      40.660  29.806  30.313  1.00  0.00     0.074 A 
ATOM     33  C   UNL A   1      40.358  27.724  29.025  1.00  0.00     0.049 A 
ATOM     34  N   UNL A   1      41.938  29.752  30.594  1.00  0.00    -0.248 NA
ATOM     35  C   UNL A   1      39.959  30.936  30.943  1.00  0.00     0.031 C 
ATOM     36  C   UNL A   1      39.660  26.726  28.213  1.00  0.00     0.029 A 
ATOM     37  N   UNL A   1      41.606  27.182  29.212  1.00  0.00    -0.354 N 
ATOM     38  C   UNL A   1      42.205  30.864  31.383  1.00  0.00     0.074 A 
ATOM     39  C   UNL A   1      40.953  31.573  31.547  1.00  0.00     0.031 C 
ATOM     40  C   UNL A   1      40.475  25.687  27.992  1.00  0.00     0.029 A 
ATOM     41  C   UNL A   1      41.783  25.988  28.557  1.00  0.00     0.049 A 
ATOM     42  H   UNL A   1      42.304  27.607  29.761  1.00  0.00     0.167 HD
ATOM     43  C   UNL A   1      43.389  31.258  31.911  1.00  0.00     0.037 A 
ATOM     44  C   UNL A   1      42.889  25.243  28.372  1.00  0.00     0.037 A 
ATOM     45  C   UNL A   1      44.623  30.527  31.774  1.00  0.00     0.049 A 
ATOM     46  C   UNL A   1      44.195  25.719  28.934  1.00  0.00     0.074 A 
ATOM     47  C   UNL A   1      45.874  30.837  32.282  1.00  0.00     0.029 A 
ATOM     48  N   UNL A   1      44.759  29.330  31.086  1.00  0.00    -0.354 N 
ATOM     49  N   UNL A   1      44.449  26.803  29.626  1.00  0.00    -0.248 NA
ATOM     50  C   UNL A   1      45.371  24.881  28.670  1.00  0.00     0.031 C 
ATOM     51  C   UNL A   1      46.772  29.846  31.873  1.00  0.00     0.029 A 
ATOM     52  C   UNL A   1      46.074  28.896  31.146  1.00  0.00     0.049 A 
ATOM     53  H   UNL A   1      44.029  28.859  30.623  1.00  0.00     0.167 HD
ATOM     54  C   UNL A   1      45.811  26.776  29.886  1.00  0.00     0.074 A 
ATOM     55  C   UNL A   1      46.326  25.556  29.294  1.00  0.00     0.031 C 
ATOM     56  C   UNL A   1      46.568  27.683  30.547  1.00  0.00     0.037 A 
BRANCH  43  57
ATOM     57  C   UNL A   1      43.424  32.561  32.658  1.00  0.00     0.064 A 
ATOM     58  C   UNL A   1      43.617  33.786  32.005  1.00  0.00     0.173 A 
ATOM     59  C   UNL A   1      43.203  32.583  34.045  1.00  0.00     0.173 A 
ATOM     60  F   UNL A   1      43.844  33.818  30.684  1.00  0.00    -0.203 F 
ATOM     61  C   UNL A   1      43.604  34.985  32.715  1.00  0.00     0.198 A 
ATOM     62  C   UNL A   1      43.166  33.786  34.747  1.00  0.00     0.198 A 
ATOM     63  F   UNL A   1      43.005  31.439  34.717  1.00  0.00    -0.203 F 
ATOM     64  F   UNL A   1      43.823  36.143  32.075  1.00  0.00    -0.200 F 
ATOM     65  C   UNL A   1      43.371  34.984  34.082  1.00  0.00     0.200 A 
ATOM     66  F   UNL A   1      42.928  33.783  36.066  1.00  0.00    -0.200 F 
ATOM     67  F   UNL A   1      43.347  36.141  34.761  1.00  0.00    -0.200 F 
ENDBRANCH  43  57
BRANCH  44  68
ATOM     68  C   UNL A   1      42.802  23.996  27.572  1.00  0.00     0.064 A 
ATOM     69  C   UNL A   1      43.095  23.996  26.203  1.00  0.00     0.173 A 
ATOM     70  C   UNL A   1      42.462  22.771  28.169  1.00  0.00     0.173 A 
ATOM     71  F   UNL A   1      43.401  25.146  25.585  1.00  0.00    -0.203 F 
ATOM     72  C   UNL A   1      43.052  22.819  25.460  1.00  0.00     0.198 A 
ATOM     73  C   UNL A   1      42.449  21.590  27.432  1.00  0.00     0.198 A 
ATOM     74  F   UNL A   1      42.175  22.719  29.478  1.00  0.00    -0.203 F 
ATOM     75  F   UNL A   1      43.308  22.849  24.145  1.00  0.00    -0.200 F 
ATOM     76  C   UNL A   1      42.740  21.615  26.077  1.00  0.00     0.200 A 
ATOM     77  F   UNL A   1      42.164  20.428  28.036  1.00  0.00    -0.200 F 
ATOM     78  F   UNL A   1      42.717  20.481  25.365  1.00  0.00    -0.200 F 
ENDBRANCH  44  68
BRANCH  56  79
ATOM     79  C   UNL A   1      48.028  27.375  30.685  1.00  0.00     0.064 A 
ATOM     80  C   UNL A   1      48.512  26.571  31.727  1.00  0.00     0.173 A 
ATOM     81  C   UNL A   1      48.951  27.877  29.756  1.00  0.00     0.173 A 
ATOM     82  F   UNL A   1      47.669  26.084  32.650  1.00  0.00    -0.203 F 
ATOM     83  C   UNL A   1      49.871  26.301  31.848  1.00  0.00     0.198 A 
ATOM     84  C   UNL A   1      50.307  27.585  29.865  1.00  0.00     0.198 A 
ATOM     85  F   UNL A   1      48.536  28.649  28.740  1.00  0.00    -0.203 F 
ATOM     86  F   UNL A   1      50.318  25.568  32.878  1.00  0.00    -0.200 F 
ATOM     87  C   UNL A   1      50.767  26.803  30.915  1.00  0.00     0.200 A 
ATOM     88  F   UNL A   1      51.170  28.064  28.960  1.00  0.00    -0.200 F 
ATOM     89  F   UNL A   1      52.076  26.542  31.034  1.00  0.00    -0.200 F 
ENDBRANCH  56  79
ENDBRANCH  30  31
ENDBRANCH  23  25
ENDBRANCH  22  23
ENDBRANCH  21  22
ENDBRANCH   1  21
TORSDOF 16
ENDMDL
MODEL 3
REMARK VINA RESULT:     -10.6      1.296      2.685
REMARK SMILES C#CC[N@@H+](CC(=O)NC(=O)NC)CC(=O)OCCOC(=O)c1ccc(-c2c3nc(c(-c4c(F)c(F)c(F)c(F)c4F)c4ccc([nH]4)c(-c4c(F)c(F)c(F)c(F)c4F)c4nc(c(-c5c(F)c(F)c(F)c(F)c5F)c5ccc2[nH]5)C=C4)C=C3)cc1
REMARK SMILES IDX 17 1 16 2 14 3 15 4 13 5 4 6 3 8 2 9 1 10 5 11 6 12 7 13
REMARK SMILES IDX 8 14 9 15 10 17 11 18 12 19 18 21 19 22 20 23 21 24 22 25
REMARK SMILES IDX 23 26 84 27 24 28 83 29 25 30 26 31 27 32 77 33 28 34 82 35
REMARK SMILES IDX 76 36 78 37 29 38 81 39 75 40 74 41 30 43 62 44 42 45 61 46
REMARK SMILES IDX 43 47 46 48 60 49 79 50 44 51 45 52 59 54 80 55 47 56 31 57
REMARK SMILES IDX 32 58 40 59 33 60 34 61 38 62 41 63 35 64 36 65 39 66 37 67
REMARK SMILES IDX 63 68 64 69 72 70 65 71 66 72 70 73 73 74 67 75 68 76 71 77
REMARK SMILES IDX 69 78 48 79 49 80 57 81 50 82 51 83 55 84 58 85 52 86 53 87
REMARK SMILES IDX 56 88 54 89
REMARK H PARENT 4 7 8 16 11 20 78 42 46 53
REMARK Flexibility Score: inf
ROOT
ATOM      1  C   UNL A   1      31.759  28.672  27.189  1.00  0.00     0.274 C 
ENDROOT
BRANCH   1   2
ATOM      2  O   UNL A   1      31.456  27.636  26.229  1.00  0.00    -0.458 OA
BRANCH   2   3
ATOM      3  C   UNL A   1      32.431  26.728  26.002  1.00  0.00     0.361 C 
ATOM      4  O   UNL A   1      33.613  26.896  26.300  1.00  0.00    -0.245 OA
BRANCH   3   5
ATOM      5  C   UNL A   1      31.976  25.435  25.342  1.00  0.00     0.387 C 
BRANCH   5   6
ATOM      6  N   UNL A   1      32.622  24.961  24.113  1.00  0.00    -0.308 N 
ATOM      7  H   UNL A   1      33.433  25.580  24.133  1.00  0.00     0.349 HD
BRANCH   6   8
ATOM      8  C   UNL A   1      33.324  23.692  24.132  1.00  0.00     0.354 C 
BRANCH   8   9
ATOM      9  C   UNL A   1      32.678  22.574  23.330  1.00  0.00    -0.047 C 
ATOM     10  C   UNL A   1      32.123  21.616  22.641  1.00  0.00     0.010 C 
ENDBRANCH   8   9
ENDBRANCH   6   8
BRANCH   6  11
ATOM     11  C   UNL A   1      31.964  25.317  22.847  1.00  0.00     0.365 C 
BRANCH  11  12
ATOM     12  C   UNL A   1      32.777  26.094  21.809  1.00  0.00     0.283 C 
ATOM     13  O   UNL A   1      33.264  25.504  20.835  1.00  0.00    -0.268 OA
ATOM     14  N   UNL A   1      32.986  27.458  21.882  1.00  0.00    -0.273 N 
ATOM     15  C   UNL A   1      32.688  28.491  22.721  1.00  0.00     0.321 C 
ATOM     16  H   UNL A   1      33.498  27.776  21.103  1.00  0.00     0.175 HD
ATOM     17  O   UNL A   1      33.556  29.313  23.009  1.00  0.00    -0.248 OA
ATOM     18  N   UNL A   1      31.459  28.645  23.248  1.00  0.00    -0.341 N 
ATOM     19  C   UNL A   1      30.188  28.114  22.829  1.00  0.00     0.144 C 
ATOM     20  H   UNL A   1      31.425  29.212  24.052  1.00  0.00     0.165 HD
ENDBRANCH  11  12
ENDBRANCH   6  11
ENDBRANCH   5   6
ENDBRANCH   3   5
ENDBRANCH   2   3
ENDBRANCH   1   2
BRANCH   1  21
ATOM     21  C   UNL A   1      31.830  30.022  26.488  1.00  0.00     0.275 C 
BRANCH  21  22
ATOM     22  O   UNL A   1      33.209  30.411  26.370  1.00  0.00    -0.458 OA
BRANCH  22  23
ATOM     23  C   UNL A   1      33.599  31.413  27.183  1.00  0.00     0.338 C 
ATOM     24  O   UNL A   1      33.002  32.456  27.428  1.00  0.00    -0.246 OA
BRANCH  23  25
ATOM     25  C   UNL A   1      34.892  31.081  27.792  1.00  0.00     0.060 A 
ATOM     26  C   UNL A   1      35.134  29.789  28.259  1.00  0.00     0.016 A 
ATOM     27  C   UNL A   1      35.827  32.093  28.000  1.00  0.00     0.016 A 
ATOM     28  C   UNL A   1      36.285  29.527  28.998  1.00  0.00     0.010 A 
ATOM     29  C   UNL A   1      37.023  31.802  28.660  1.00  0.00     0.010 A 
ATOM     30  C   UNL A   1      37.254  30.522  29.192  1.00  0.00    -0.014 A 
BRANCH  30  31
ATOM     31  C   UNL A   1      38.512  30.234  29.936  1.00  0.00     0.031 A 
ATOM     32  C   UNL A   1      39.564  29.333  29.345  1.00  0.00     0.074 A 
ATOM     33  C   UNL A   1      38.698  30.756  31.164  1.00  0.00     0.049 A 
ATOM     34  N   UNL A   1      40.601  28.780  29.923  1.00  0.00    -0.248 NA
ATOM     35  C   UNL A   1      39.428  28.999  27.919  1.00  0.00     0.031 C 
ATOM     36  C   UNL A   1      37.783  31.675  31.842  1.00  0.00     0.029 A 
ATOM     37  N   UNL A   1      39.715  30.578  32.069  1.00  0.00    -0.354 N 
ATOM     38  C   UNL A   1      41.207  27.993  28.951  1.00  0.00     0.074 A 
ATOM     39  C   UNL A   1      40.428  28.146  27.740  1.00  0.00     0.031 C 
ATOM     40  C   UNL A   1      38.287  31.998  33.039  1.00  0.00     0.029 A 
ATOM     41  C   UNL A   1      39.506  31.232  33.258  1.00  0.00     0.049 A 
ATOM     42  H   UNL A   1      40.515  30.034  31.884  1.00  0.00     0.167 HD
ATOM     43  C   UNL A   1      42.306  27.209  29.066  1.00  0.00     0.037 A 
ATOM     44  C   UNL A   1      40.181  31.179  34.421  1.00  0.00     0.037 A 
ATOM     45  C   UNL A   1      43.097  27.090  30.264  1.00  0.00     0.049 A 
ATOM     46  C   UNL A   1      41.372  30.275  34.536  1.00  0.00     0.074 A 
ATOM     47  C   UNL A   1      44.236  26.332  30.478  1.00  0.00     0.029 A 
ATOM     48  N   UNL A   1      42.838  27.760  31.452  1.00  0.00    -0.354 N 
ATOM     49  N   UNL A   1      41.901  29.489  33.631  1.00  0.00    -0.248 NA
ATOM     50  C   UNL A   1      42.046  30.233  35.840  1.00  0.00     0.031 C 
ATOM     51  C   UNL A   1      44.645  26.515  31.803  1.00  0.00     0.029 A 
ATOM     52  C   UNL A   1      43.786  27.422  32.404  1.00  0.00     0.049 A 
ATOM     53  H   UNL A   1      42.089  28.382  31.596  1.00  0.00     0.167 HD
ATOM     54  C   UNL A   1      42.972  28.863  34.251  1.00  0.00     0.074 A 
ATOM     55  C   UNL A   1      43.030  29.378  35.605  1.00  0.00     0.031 C 
ATOM     56  C   UNL A   1      43.825  27.940  33.746  1.00  0.00     0.037 A 
BRANCH  43  57
ATOM     57  C   UNL A   1      42.705  26.382  27.877  1.00  0.00     0.064 A 
ATOM     58  C   UNL A   1      42.149  25.119  27.631  1.00  0.00     0.173 A 
ATOM     59  C   UNL A   1      43.618  26.892  26.939  1.00  0.00     0.173 A 
ATOM     60  F   UNL A   1      41.282  24.582  28.502  1.00  0.00    -0.203 F 
ATOM     61  C   UNL A   1      42.505  24.389  26.499  1.00  0.00     0.198 A 
ATOM     62  C   UNL A   1      43.952  26.170  25.796  1.00  0.00     0.198 A 
ATOM     63  F   UNL A   1      44.174  28.099  27.124  1.00  0.00    -0.203 F 
ATOM     64  F   UNL A   1      41.985  23.170  26.299  1.00  0.00    -0.200 F 
ATOM     65  C   UNL A   1      43.399  24.918  25.579  1.00  0.00     0.200 A 
ATOM     66  F   UNL A   1      44.806  26.689  24.903  1.00  0.00    -0.200 F 
ATOM     67  F   UNL A   1      43.730  24.218  24.484  1.00  0.00    -0.200 F 
ENDBRANCH  43  57
BRANCH  44  68
ATOM     68  C   UNL A   1      39.701  31.974  35.579  1.00  0.00     0.064 A 
ATOM     69  C   UNL A   1      40.222  33.246  35.845  1.00  0.00     0.173 A 
ATOM     70  C   UNL A   1      38.684  31.494  36.419  1.00  0.00     0.173 A 
ATOM     71  F   UNL A   1      41.212  33.736  35.084  1.00  0.00    -0.203 F 
ATOM     72  C   UNL A   1      39.745  34.009  36.908  1.00  0.00     0.198 A 
ATOM     73  C   UNL A   1      38.186  32.270  37.463  1.00  0.00     0.198 A 
ATOM     74  F   UNL A   1      38.151  30.282  36.204  1.00  0.00    -0.203 F 
ATOM     75  F   UNL A   1      40.280  35.211  37.160  1.00  0.00    -0.200 F 
ATOM     76  C   UNL A   1      38.721  33.525  37.709  1.00  0.00     0.200 A 
ATOM     77  F   UNL A   1      37.185  31.805  38.222  1.00  0.00    -0.200 F 
ATOM     78  F   UNL A   1      38.250  34.267  38.720  1.00  0.00    -0.200 F 
ENDBRANCH  44  68
BRANCH  56  79
ATOM     79  C   UNL A   1      44.907  27.448  34.660  1.00  0.00     0.064 A 
ATOM     80  C   UNL A   1      46.139  28.110  34.757  1.00  0.00     0.173 A 
ATOM     81  C   UNL A   1      44.703  26.312  35.456  1.00  0.00     0.173 A 
ATOM     82  F   UNL A   1      46.387  29.190  34.000  1.00  0.00    -0.203 F 
ATOM     83  C   UNL A   1      47.138  27.637  35.602  1.00  0.00     0.198 A 
ATOM     84  C   UNL A   1      45.694  25.856  36.318  1.00  0.00     0.198 A 
ATOM     85  F   UNL A   1      43.539  25.647  35.399  1.00  0.00    -0.203 F 
ATOM     86  F   UNL A   1      48.325  28.257  35.646  1.00  0.00    -0.200 F 
ATOM     87  C   UNL A   1      46.914  26.513  36.385  1.00  0.00     0.200 A 
ATOM     88  F   UNL A   1      45.475  24.775  37.079  1.00  0.00    -0.200 F 
ATOM     89  F   UNL A   1      47.878  26.059  37.197  1.00  0.00    -0.200 F 
ENDBRANCH  56  79
ENDBRANCH  30  31
ENDBRANCH  23  25
ENDBRANCH  22  23
ENDBRANCH  21  22
ENDBRANCH   1  21
TORSDOF 16
ENDMDL
