MODEL 1
REMARK VINA RESULT:     -13.7      0.000      0.000
REMARK SMILES C[C@H]1c2ccc(O)cc2OC(=O)[C@@H]1CC(=O)N[C@@H](CC1=c2ccccc2=NC1)C(=O)OCCOC(=O)c1ccc(-c2c3nc(c(-c4c(F)c(F)c(F)c(F)c4F)c4ccc([nH]4)c(-c4c(F)c(F)c(F)c(F)c4F)c4nc(c(-c5c(F)c(F)c(F)c(F)c5F)c5ccc2[nH]5)C=C4)C=C3)cc1
REMARK SMILES IDX 32 1 31 2 29 3 30 4 18 5 17 6 15 7 16 8 14 10 13 11 1 12
REMARK SMILES IDX 2 13 3 14 4 15 9 16 11 17 5 18 8 19 10 20 12 21 6 22 7 23
REMARK SMILES IDX 19 25 20 26 21 27 28 28 22 29 26 30 27 31 23 32 25 33 24 34
REMARK SMILES IDX 33 35 34 36 35 37 36 38 37 39 38 40 99 41 39 42 98 43 40 44
REMARK SMILES IDX 41 45 42 46 92 47 43 48 97 49 91 50 93 51 44 52 96 53 90 54
REMARK SMILES IDX 89 55 45 57 77 58 57 59 76 60 58 61 61 62 75 63 94 64 59 65
REMARK SMILES IDX 60 66 74 68 95 69 62 70 46 71 47 72 55 73 48 74 49 75 53 76
REMARK SMILES IDX 56 77 50 78 51 79 54 80 52 81 78 82 79 83 87 84 80 85 81 86
REMARK SMILES IDX 85 87 88 88 82 89 83 90 86 91 84 92 63 93 64 94 72 95 65 96
REMARK SMILES IDX 66 97 70 98 73 99 67 100 68 101 71 102 69 103
REMARK H PARENT 17 9 7 24 93 56 61 67
REMARK Flexibility Score: inf
ROOT
ATOM      1  C   UNL A   1      31.715  28.858  27.449  1.00  0.00     0.274 C 
ENDROOT
BRANCH   1   2
ATOM      2  O   UNL A   1      31.023  27.629  27.159  1.00  0.00    -0.461 OA
BRANCH   2   3
ATOM      3  C   UNL A   1      31.773  26.680  26.547  1.00  0.00     0.329 C 
ATOM      4  O   UNL A   1      32.974  26.783  26.303  1.00  0.00    -0.250 OA
BRANCH   3   5
ATOM      5  C   UNL A   1      30.954  25.505  26.022  1.00  0.00     0.196 C 
BRANCH   5   6
ATOM      6  N   UNL A   1      30.442  24.489  26.950  1.00  0.00    -0.342 N 
ATOM      7  C   UNL A   1      30.184  23.158  26.757  1.00  0.00     0.221 C 
ATOM      8  O   UNL A   1      29.497  22.565  27.589  1.00  0.00    -0.275 OA
ATOM      9  H   UNL A   1      30.254  24.819  27.858  1.00  0.00     0.164 HD
BRANCH   7  10
ATOM     10  C   UNL A   1      30.819  22.383  25.603  1.00  0.00     0.116 C 
BRANCH  10  11
ATOM     11  C   UNL A   1      32.251  22.771  25.172  1.00  0.00     0.116 C 
ATOM     12  C   UNL A   1      34.018  22.659  23.295  1.00  0.00     0.014 C 
ATOM     13  C   UNL A   1      32.665  22.156  23.806  1.00  0.00     0.034 C 
ATOM     14  C   UNL A   1      32.721  20.659  23.960  1.00  0.00    -0.001 A 
ATOM     15  C   UNL A   1      32.367  19.784  22.930  1.00  0.00     0.011 A 
ATOM     16  C   UNL A   1      33.062  20.136  25.207  1.00  0.00     0.138 A 
ATOM     17  C   UNL A   1      33.263  22.338  26.197  1.00  0.00     0.315 C 
ATOM     18  C   UNL A   1      32.246  18.420  23.199  1.00  0.00     0.047 A 
ATOM     19  C   UNL A   1      32.897  18.795  25.503  1.00  0.00     0.093 A 
ATOM     20  O   UNL A   1      33.524  20.973  26.233  1.00  0.00    -0.426 OA
ATOM     21  O   UNL A   1      33.790  23.113  26.985  1.00  0.00    -0.251 OA
ATOM     22  C   UNL A   1      32.436  17.965  24.500  1.00  0.00     0.119 A 
BRANCH  22  23
ATOM     23  O   UNL A   1      32.078  16.698  24.835  1.00  0.00    -0.508 OA
ATOM     24  H   UNL A   1      31.519  16.203  24.267  1.00  0.00     0.293 HD
ENDBRANCH  22  23
ENDBRANCH  10  11
ENDBRANCH   7  10
ENDBRANCH   5   6
BRANCH   5  25
ATOM     25  C   UNL A   1      29.850  26.109  25.111  1.00  0.00     0.070 C 
BRANCH  25  26
ATOM     26  C   UNL A   1      30.060  26.328  23.602  1.00  0.00    -0.037 C 
ATOM     27  C   UNL A   1      31.286  26.246  23.064  1.00  0.00     0.001 A 
ATOM     28  C   UNL A   1      29.491  27.683  23.204  1.00  0.00     0.174 C 
ATOM     29  C   UNL A   1      31.756  25.523  21.903  1.00  0.00     0.010 A 
ATOM     30  C   UNL A   1      31.632  27.694  22.993  1.00  0.00     0.065 A 
ATOM     31  N   UNL A   1      30.674  28.560  23.090  1.00  0.00    -0.280 NA
ATOM     32  C   UNL A   1      32.919  25.930  21.355  1.00  0.00     0.001 A 
ATOM     33  C   UNL A   1      33.063  27.942  22.741  1.00  0.00     0.028 A 
ATOM     34  C   UNL A   1      33.667  27.037  21.949  1.00  0.00     0.002 A 
ENDBRANCH  25  26
ENDBRANCH   5  25
ENDBRANCH   3   5
ENDBRANCH   2   3
ENDBRANCH   1   2
BRANCH   1  35
ATOM     35  C   UNL A   1      31.779  29.765  26.219  1.00  0.00     0.275 C 
BRANCH  35  36
ATOM     36  O   UNL A   1      33.083  30.356  26.048  1.00  0.00    -0.458 OA
BRANCH  36  37
ATOM     37  C   UNL A   1      33.359  31.404  26.866  1.00  0.00     0.338 C 
ATOM     38  O   UNL A   1      32.656  32.371  27.073  1.00  0.00    -0.246 OA
BRANCH  37  39
ATOM     39  C   UNL A   1      34.588  31.118  27.647  1.00  0.00     0.060 A 
ATOM     40  C   UNL A   1      35.530  32.094  27.975  1.00  0.00     0.016 A 
ATOM     41  C   UNL A   1      34.778  29.806  28.077  1.00  0.00     0.016 A 
ATOM     42  C   UNL A   1      36.689  31.741  28.690  1.00  0.00     0.010 A 
ATOM     43  C   UNL A   1      35.930  29.459  28.784  1.00  0.00     0.010 A 
ATOM     44  C   UNL A   1      36.920  30.411  29.071  1.00  0.00    -0.014 A 
BRANCH  44  45
ATOM     45  C   UNL A   1      38.123  30.009  29.854  1.00  0.00     0.031 A 
ATOM     46  C   UNL A   1      38.318  30.404  31.297  1.00  0.00     0.074 A 
ATOM     47  C   UNL A   1      39.117  29.363  29.219  1.00  0.00     0.049 A 
ATOM     48  N   UNL A   1      39.390  30.322  32.051  1.00  0.00    -0.248 NA
ATOM     49  C   UNL A   1      37.186  31.057  31.953  1.00  0.00     0.031 C 
ATOM     50  C   UNL A   1      39.099  28.969  27.813  1.00  0.00     0.029 A 
ATOM     51  N   UNL A   1      40.330  28.923  29.681  1.00  0.00    -0.354 N 
ATOM     52  C   UNL A   1      39.091  31.013  33.224  1.00  0.00     0.074 A 
ATOM     53  C   UNL A   1      37.754  31.538  33.053  1.00  0.00     0.031 C 
ATOM     54  C   UNL A   1      40.234  28.310  27.533  1.00  0.00     0.029 A 
ATOM     55  C   UNL A   1      41.053  28.238  28.741  1.00  0.00     0.049 A 
ATOM     56  H   UNL A   1      40.649  29.083  30.599  1.00  0.00     0.167 HD
ATOM     57  C   UNL A   1      39.842  31.162  34.346  1.00  0.00     0.037 A 
ATOM     58  C   UNL A   1      42.227  27.588  28.854  1.00  0.00     0.037 A 
ATOM     59  C   UNL A   1      41.076  30.447  34.577  1.00  0.00     0.049 A 
ATOM     60  C   UNL A   1      42.924  27.543  30.186  1.00  0.00     0.074 A 
ATOM     61  C   UNL A   1      41.818  30.357  35.745  1.00  0.00     0.029 A 
ATOM     62  N   UNL A   1      41.712  29.649  33.641  1.00  0.00    -0.354 N 
ATOM     63  N   UNL A   1      42.605  28.143  31.308  1.00  0.00    -0.248 NA
ATOM     64  C   UNL A   1      44.129  26.706  30.278  1.00  0.00     0.031 C 
ATOM     65  C   UNL A   1      42.903  29.508  35.512  1.00  0.00     0.029 A 
ATOM     66  C   UNL A   1      42.820  29.044  34.210  1.00  0.00     0.049 A 
ATOM     67  H   UNL A   1      41.420  29.530  32.708  1.00  0.00     0.167 HD
ATOM     68  C   UNL A   1      43.554  27.739  32.239  1.00  0.00     0.074 A 
ATOM     69  C   UNL A   1      44.442  26.820  31.561  1.00  0.00     0.031 C 
ATOM     70  C   UNL A   1      43.684  28.111  33.535  1.00  0.00     0.037 A 
BRANCH  57  71
ATOM     71  C   UNL A   1      39.341  32.044  35.468  1.00  0.00     0.064 A 
ATOM     72  C   UNL A   1      38.483  31.559  36.467  1.00  0.00     0.173 A 
ATOM     73  C   UNL A   1      39.828  33.356  35.623  1.00  0.00     0.173 A 
ATOM     74  F   UNL A   1      38.009  30.305  36.402  1.00  0.00    -0.203 F 
ATOM     75  C   UNL A   1      38.097  32.356  37.544  1.00  0.00     0.198 A 
ATOM     76  C   UNL A   1      39.479  34.135  36.727  1.00  0.00     0.198 A 
ATOM     77  F   UNL A   1      40.686  33.872  34.729  1.00  0.00    -0.203 F 
ATOM     78  F   UNL A   1      37.240  31.876  38.455  1.00  0.00    -0.200 F 
ATOM     79  C   UNL A   1      38.604  33.639  37.680  1.00  0.00     0.200 A 
ATOM     80  F   UNL A   1      40.006  35.358  36.880  1.00  0.00    -0.200 F 
ATOM     81  F   UNL A   1      38.260  34.389  38.736  1.00  0.00    -0.200 F 
ENDBRANCH  57  71
BRANCH  58  82
ATOM     82  C   UNL A   1      42.735  26.818  27.694  1.00  0.00     0.064 A 
ATOM     83  C   UNL A   1      43.630  27.411  26.791  1.00  0.00     0.173 A 
ATOM     84  C   UNL A   1      42.392  25.475  27.489  1.00  0.00     0.173 A 
ATOM     85  F   UNL A   1      43.984  28.696  26.948  1.00  0.00    -0.203 F 
ATOM     86  C   UNL A   1      44.143  26.697  25.714  1.00  0.00     0.198 A 
ATOM     87  C   UNL A   1      42.931  24.752  26.428  1.00  0.00     0.198 A 
ATOM     88  F   UNL A   1      41.560  24.858  28.342  1.00  0.00    -0.203 F 
ATOM     89  F   UNL A   1      44.966  27.301  24.846  1.00  0.00    -0.200 F 
ATOM     90  C   UNL A   1      43.800  25.366  25.537  1.00  0.00     0.200 A 
ATOM     91  F   UNL A   1      42.617  23.459  26.274  1.00  0.00    -0.200 F 
ATOM     92  F   UNL A   1      44.305  24.674  24.508  1.00  0.00    -0.200 F 
ENDBRANCH  58  82
BRANCH  70  93
ATOM     93  C   UNL A   1      44.815  27.519  34.327  1.00  0.00     0.064 A 
ATOM     94  C   UNL A   1      46.060  28.159  34.409  1.00  0.00     0.173 A 
ATOM     95  C   UNL A   1      44.626  26.351  35.081  1.00  0.00     0.173 A 
ATOM     96  F   UNL A   1      46.294  29.274  33.699  1.00  0.00    -0.203 F 
ATOM     97  C   UNL A   1      47.079  27.645  35.205  1.00  0.00     0.198 A 
ATOM     98  C   UNL A   1      45.638  25.855  35.900  1.00  0.00     0.198 A 
ATOM     99  F   UNL A   1      43.451  25.705  35.046  1.00  0.00    -0.203 F 
ATOM    100  F   UNL A   1      48.271  28.257  35.242  1.00  0.00    -0.200 F 
ATOM    101  C   UNL A   1      46.863  26.500  35.959  1.00  0.00     0.200 A 
ATOM    102  F   UNL A   1      45.423  24.760  36.641  1.00  0.00    -0.200 F 
ATOM    103  F   UNL A   1      47.839  26.020  36.742  1.00  0.00    -0.200 F 
ENDBRANCH  70  93
ENDBRANCH  44  45
ENDBRANCH  37  39
ENDBRANCH  36  37
ENDBRANCH  35  36
ENDBRANCH   1  35
TORSDOF 17
ENDMDL
MODEL 2
REMARK VINA RESULT:     -13.6      0.423      1.895
REMARK SMILES C[C@H]1c2ccc(O)cc2OC(=O)[C@@H]1CC(=O)N[C@@H](CC1=c2ccccc2=NC1)C(=O)OCCOC(=O)c1ccc(-c2c3nc(c(-c4c(F)c(F)c(F)c(F)c4F)c4ccc([nH]4)c(-c4c(F)c(F)c(F)c(F)c4F)c4nc(c(-c5c(F)c(F)c(F)c(F)c5F)c5ccc2[nH]5)C=C4)C=C3)cc1
REMARK SMILES IDX 32 1 31 2 29 3 30 4 18 5 17 6 15 7 16 8 14 10 13 11 1 12
REMARK SMILES IDX 2 13 3 14 4 15 9 16 11 17 5 18 8 19 10 20 12 21 6 22 7 23
REMARK SMILES IDX 19 25 20 26 21 27 28 28 22 29 26 30 27 31 23 32 25 33 24 34
REMARK SMILES IDX 33 35 34 36 35 37 36 38 37 39 38 40 99 41 39 42 98 43 40 44
REMARK SMILES IDX 41 45 42 46 92 47 43 48 97 49 91 50 93 51 44 52 96 53 90 54
REMARK SMILES IDX 89 55 45 57 77 58 57 59 76 60 58 61 61 62 75 63 94 64 59 65
REMARK SMILES IDX 60 66 74 68 95 69 62 70 46 71 47 72 55 73 48 74 49 75 53 76
REMARK SMILES IDX 56 77 50 78 51 79 54 80 52 81 78 82 79 83 87 84 80 85 81 86
REMARK SMILES IDX 85 87 88 88 82 89 83 90 86 91 84 92 63 93 64 94 72 95 65 96
REMARK SMILES IDX 66 97 70 98 73 99 67 100 68 101 71 102 69 103
REMARK H PARENT 17 9 7 24 93 56 61 67
REMARK Flexibility Score: inf
ROOT
ATOM      1  C   UNL A   1      31.738  28.923  27.492  1.00  0.00     0.274 C 
ENDROOT
BRANCH   1   2
ATOM      2  O   UNL A   1      31.016  27.747  27.078  1.00  0.00    -0.461 OA
BRANCH   2   3
ATOM      3  C   UNL A   1      31.782  26.764  26.542  1.00  0.00     0.329 C 
ATOM      4  O   UNL A   1      32.998  26.836  26.371  1.00  0.00    -0.250 OA
BRANCH   3   5
ATOM      5  C   UNL A   1      30.970  25.592  26.001  1.00  0.00     0.196 C 
BRANCH   5   6
ATOM      6  N   UNL A   1      30.471  24.557  26.913  1.00  0.00    -0.342 N 
ATOM      7  C   UNL A   1      30.205  23.231  26.694  1.00  0.00     0.221 C 
ATOM      8  O   UNL A   1      29.531  22.621  27.525  1.00  0.00    -0.275 OA
ATOM      9  H   UNL A   1      30.300  24.865  27.832  1.00  0.00     0.164 HD
BRANCH   7  10
ATOM     10  C   UNL A   1      30.817  22.481  25.512  1.00  0.00     0.116 C 
BRANCH  10  11
ATOM     11  C   UNL A   1      32.237  22.884  25.056  1.00  0.00     0.116 C 
ATOM     12  C   UNL A   1      33.988  22.755  23.166  1.00  0.00     0.014 C 
ATOM     13  C   UNL A   1      32.651  22.239  23.704  1.00  0.00     0.034 C 
ATOM     14  C   UNL A   1      32.737  20.749  23.899  1.00  0.00    -0.001 A 
ATOM     15  C   UNL A   1      32.391  19.839  22.897  1.00  0.00     0.011 A 
ATOM     16  C   UNL A   1      33.101  20.268  25.157  1.00  0.00     0.138 A 
ATOM     17  C   UNL A   1      33.267  22.501  26.083  1.00  0.00     0.315 C 
ATOM     18  C   UNL A   1      32.300  18.481  23.206  1.00  0.00     0.047 A 
ATOM     19  C   UNL A   1      32.966  18.933  25.492  1.00  0.00     0.093 A 
ATOM     20  O   UNL A   1      33.556  21.143  26.154  1.00  0.00    -0.426 OA
ATOM     21  O   UNL A   1      33.786  23.307  26.843  1.00  0.00    -0.251 OA
ATOM     22  C   UNL A   1      32.512  18.066  24.517  1.00  0.00     0.119 A 
BRANCH  22  23
ATOM     23  O   UNL A   1      32.183  16.803  24.891  1.00  0.00    -0.508 OA
ATOM     24  H   UNL A   1      32.759  16.090  24.693  1.00  0.00     0.293 HD
ENDBRANCH  22  23
ENDBRANCH  10  11
ENDBRANCH   7  10
ENDBRANCH   5   6
BRANCH   5  25
ATOM     25  C   UNL A   1      29.858  26.201  25.104  1.00  0.00     0.070 C 
BRANCH  25  26
ATOM     26  C   UNL A   1      30.059  26.443  23.597  1.00  0.00    -0.037 C 
ATOM     27  C   UNL A   1      31.276  26.339  23.045  1.00  0.00     0.001 A 
ATOM     28  C   UNL A   1      29.523  27.821  23.231  1.00  0.00     0.174 C 
ATOM     29  C   UNL A   1      31.715  25.625  21.865  1.00  0.00     0.010 A 
ATOM     30  C   UNL A   1      31.661  27.778  22.998  1.00  0.00     0.065 A 
ATOM     31  N   UNL A   1      30.729  28.667  23.121  1.00  0.00    -0.280 NA
ATOM     32  C   UNL A   1      32.883  26.011  21.313  1.00  0.00     0.001 A 
ATOM     33  C   UNL A   1      33.096  27.992  22.735  1.00  0.00     0.028 A 
ATOM     34  C   UNL A   1      33.667  27.085  21.920  1.00  0.00     0.002 A 
ENDBRANCH  25  26
ENDBRANCH   5  25
ENDBRANCH   3   5
ENDBRANCH   2   3
ENDBRANCH   1   2
BRANCH   1  35
ATOM     35  C   UNL A   1      31.915  29.905  26.333  1.00  0.00     0.275 C 
BRANCH  35  36
ATOM     36  O   UNL A   1      33.270  30.388  26.232  1.00  0.00    -0.458 OA
BRANCH  36  37
ATOM     37  C   UNL A   1      33.585  31.414  27.063  1.00  0.00     0.338 C 
ATOM     38  O   UNL A   1      32.922  32.407  27.279  1.00  0.00    -0.246 OA
BRANCH  37  39
ATOM     39  C   UNL A   1      34.798  31.069  27.845  1.00  0.00     0.060 A 
ATOM     40  C   UNL A   1      35.764  32.008  28.212  1.00  0.00     0.016 A 
ATOM     41  C   UNL A   1      34.947  29.740  28.235  1.00  0.00     0.016 A 
ATOM     42  C   UNL A   1      36.906  31.600  28.925  1.00  0.00     0.010 A 
ATOM     43  C   UNL A   1      36.082  29.339  28.941  1.00  0.00     0.010 A 
ATOM     44  C   UNL A   1      37.095  30.253  29.266  1.00  0.00    -0.014 A 
BRANCH  44  45
ATOM     45  C   UNL A   1      38.280  29.794  30.047  1.00  0.00     0.031 A 
ATOM     46  C   UNL A   1      38.508  30.197  31.483  1.00  0.00     0.074 A 
ATOM     47  C   UNL A   1      39.230  29.083  29.414  1.00  0.00     0.049 A 
ATOM     48  N   UNL A   1      39.580  30.063  32.230  1.00  0.00    -0.248 NA
ATOM     49  C   UNL A   1      37.421  30.923  32.137  1.00  0.00     0.031 C 
ATOM     50  C   UNL A   1      39.178  28.671  28.014  1.00  0.00     0.029 A 
ATOM     51  N   UNL A   1      40.419  28.579  29.874  1.00  0.00    -0.354 N 
ATOM     52  C   UNL A   1      39.330  30.786  33.395  1.00  0.00     0.074 A 
ATOM     53  C   UNL A   1      38.024  31.386  33.226  1.00  0.00     0.031 C 
ATOM     54  C   UNL A   1      40.271  27.943  27.736  1.00  0.00     0.029 A 
ATOM     55  C   UNL A   1      41.094  27.840  28.939  1.00  0.00     0.049 A 
ATOM     56  H   UNL A   1      40.754  28.734  30.787  1.00  0.00     0.167 HD
ATOM     57  C   UNL A   1      40.097  30.908  34.510  1.00  0.00     0.037 A 
ATOM     58  C   UNL A   1      42.229  27.126  29.053  1.00  0.00     0.037 A 
ATOM     59  C   UNL A   1      41.289  30.126  34.742  1.00  0.00     0.049 A 
ATOM     60  C   UNL A   1      42.933  27.059  30.381  1.00  0.00     0.074 A 
ATOM     61  C   UNL A   1      42.034  30.009  35.906  1.00  0.00     0.029 A 
ATOM     62  N   UNL A   1      41.871  29.279  33.813  1.00  0.00    -0.354 N 
ATOM     63  N   UNL A   1      42.658  27.691  31.496  1.00  0.00    -0.248 NA
ATOM     64  C   UNL A   1      44.088  26.155  30.476  1.00  0.00     0.031 C 
ATOM     65  C   UNL A   1      43.066  29.096  35.678  1.00  0.00     0.029 A 
ATOM     66  C   UNL A   1      42.947  28.619  34.383  1.00  0.00     0.049 A 
ATOM     67  H   UNL A   1      41.566  29.164  32.884  1.00  0.00     0.167 HD
ATOM     68  C   UNL A   1      43.589  27.246  32.426  1.00  0.00     0.074 A 
ATOM     69  C   UNL A   1      44.417  26.268  31.755  1.00  0.00     0.031 C 
ATOM     70  C   UNL A   1      43.750  27.628  33.716  1.00  0.00     0.037 A 
BRANCH  57  71
ATOM     71  C   UNL A   1      39.657  31.832  35.623  1.00  0.00     0.064 A 
ATOM     72  C   UNL A   1      40.116  33.154  35.715  1.00  0.00     0.173 A 
ATOM     73  C   UNL A   1      38.661  31.433  36.536  1.00  0.00     0.173 A 
ATOM     74  F   UNL A   1      41.038  33.612  34.854  1.00  0.00    -0.203 F 
ATOM     75  C   UNL A   1      39.637  34.023  36.695  1.00  0.00     0.198 A 
ATOM     76  C   UNL A   1      38.150  32.319  37.485  1.00  0.00     0.198 A 
ATOM     77  F   UNL A   1      38.145  30.196  36.481  1.00  0.00    -0.203 F 
ATOM     78  F   UNL A   1      40.132  35.266  36.783  1.00  0.00    -0.200 F 
ATOM     79  C   UNL A   1      38.647  33.609  37.571  1.00  0.00     0.200 A 
ATOM     80  F   UNL A   1      37.159  31.931  38.301  1.00  0.00    -0.200 F 
ATOM     81  F   UNL A   1      38.162  34.459  38.488  1.00  0.00    -0.200 F 
ENDBRANCH  57  71
BRANCH  58  82
ATOM     82  C   UNL A   1      42.683  26.311  27.900  1.00  0.00     0.064 A 
ATOM     83  C   UNL A   1      42.169  25.021  27.702  1.00  0.00     0.173 A 
ATOM     84  C   UNL A   1      43.584  26.811  26.951  1.00  0.00     0.173 A 
ATOM     85  F   UNL A   1      41.306  24.502  28.589  1.00  0.00    -0.203 F 
ATOM     86  C   UNL A   1      42.559  24.252  26.611  1.00  0.00     0.198 A 
ATOM     87  C   UNL A   1      43.949  26.051  25.842  1.00  0.00     0.198 A 
ATOM     88  F   UNL A   1      44.081  28.050  27.084  1.00  0.00    -0.203 F 
ATOM     89  F   UNL A   1      42.081  23.008  26.468  1.00  0.00    -0.200 F 
ATOM     90  C   UNL A   1      43.442  24.770  25.677  1.00  0.00     0.200 A 
ATOM     91  F   UNL A   1      44.783  26.565  24.927  1.00  0.00    -0.200 F 
ATOM     92  F   UNL A   1      43.805  24.036  24.618  1.00  0.00    -0.200 F 
ENDBRANCH  58  82
BRANCH  70  93
ATOM     93  C   UNL A   1      44.851  26.983  34.508  1.00  0.00     0.064 A 
ATOM     94  C   UNL A   1      44.637  25.789  35.213  1.00  0.00     0.173 A 
ATOM     95  C   UNL A   1      46.150  27.512  34.491  1.00  0.00     0.173 A 
ATOM     96  F   UNL A   1      43.410  25.248  35.268  1.00  0.00    -0.203 F 
ATOM     97  C   UNL A   1      45.680  25.156  35.882  1.00  0.00     0.198 A 
ATOM     98  C   UNL A   1      47.198  26.860  35.137  1.00  0.00     0.198 A 
ATOM     99  F   UNL A   1      46.410  28.646  33.825  1.00  0.00    -0.203 F 
ATOM    100  F   UNL A   1      45.445  24.033  36.575  1.00  0.00    -0.200 F 
ATOM    101  C   UNL A   1      46.961  25.685  35.834  1.00  0.00     0.200 A 
ATOM    102  F   UNL A   1      48.438  27.363  35.076  1.00  0.00    -0.200 F 
ATOM    103  F   UNL A   1      47.968  25.062  36.461  1.00  0.00    -0.200 F 
ENDBRANCH  70  93
ENDBRANCH  44  45
ENDBRANCH  37  39
ENDBRANCH  36  37
ENDBRANCH  35  36
ENDBRANCH   1  35
TORSDOF 17
ENDMDL
MODEL 3
REMARK VINA RESULT:     -13.5      1.029      1.995
REMARK SMILES C[C@H]1c2ccc(O)cc2OC(=O)[C@@H]1CC(=O)N[C@@H](CC1=c2ccccc2=NC1)C(=O)OCCOC(=O)c1ccc(-c2c3nc(c(-c4c(F)c(F)c(F)c(F)c4F)c4ccc([nH]4)c(-c4c(F)c(F)c(F)c(F)c4F)c4nc(c(-c5c(F)c(F)c(F)c(F)c5F)c5ccc2[nH]5)C=C4)C=C3)cc1
REMARK SMILES IDX 32 1 31 2 29 3 30 4 18 5 17 6 15 7 16 8 14 10 13 11 1 12
REMARK SMILES IDX 2 13 3 14 4 15 9 16 11 17 5 18 8 19 10 20 12 21 6 22 7 23
REMARK SMILES IDX 19 25 20 26 21 27 28 28 22 29 26 30 27 31 23 32 25 33 24 34
REMARK SMILES IDX 33 35 34 36 35 37 36 38 37 39 38 40 99 41 39 42 98 43 40 44
REMARK SMILES IDX 41 45 42 46 92 47 43 48 97 49 91 50 93 51 44 52 96 53 90 54
REMARK SMILES IDX 89 55 45 57 77 58 57 59 76 60 58 61 61 62 75 63 94 64 59 65
REMARK SMILES IDX 60 66 74 68 95 69 62 70 46 71 47 72 55 73 48 74 49 75 53 76
REMARK SMILES IDX 56 77 50 78 51 79 54 80 52 81 78 82 79 83 87 84 80 85 81 86
REMARK SMILES IDX 85 87 88 88 82 89 83 90 86 91 84 92 63 93 64 94 72 95 65 96
REMARK SMILES IDX 66 97 70 98 73 99 67 100 68 101 71 102 69 103
REMARK H PARENT 17 9 7 24 93 56 61 67
REMARK Flexibility Score: inf
ROOT
ATOM      1  C   UNL A   1      31.747  29.008  27.400  1.00  0.00     0.274 C 
ENDROOT
BRANCH   1   2
ATOM      2  O   UNL A   1      31.049  27.840  26.926  1.00  0.00    -0.461 OA
BRANCH   2   3
ATOM      3  C   UNL A   1      31.847  26.829  26.500  1.00  0.00     0.329 C 
ATOM      4  O   UNL A   1      33.074  26.885  26.430  1.00  0.00    -0.250 OA
BRANCH   3   5
ATOM      5  C   UNL A   1      31.072  25.640  25.943  1.00  0.00     0.196 C 
BRANCH   5   6
ATOM      6  N   UNL A   1      30.528  24.623  26.852  1.00  0.00    -0.342 N 
ATOM      7  C   UNL A   1      30.743  23.271  26.904  1.00  0.00     0.221 C 
ATOM      8  O   UNL A   1      29.969  22.578  27.566  1.00  0.00    -0.275 OA
ATOM      9  H   UNL A   1      29.910  24.969  27.535  1.00  0.00     0.164 HD
BRANCH   7  10
ATOM     10  C   UNL A   1      31.972  22.634  26.258  1.00  0.00     0.116 C 
BRANCH  10  11
ATOM     11  C   UNL A   1      31.774  21.855  24.939  1.00  0.00     0.116 C 
ATOM     12  C   UNL A   1      32.530  19.839  23.517  1.00  0.00     0.014 C 
ATOM     13  C   UNL A   1      32.813  20.716  24.740  1.00  0.00     0.034 C 
ATOM     14  C   UNL A   1      34.175  21.340  24.597  1.00  0.00    -0.001 A 
ATOM     15  C   UNL A   1      35.334  20.732  25.086  1.00  0.00     0.011 A 
ATOM     16  C   UNL A   1      34.264  22.609  24.025  1.00  0.00     0.138 A 
ATOM     17  C   UNL A   1      31.862  22.771  23.748  1.00  0.00     0.315 C 
ATOM     18  C   UNL A   1      36.531  21.451  25.103  1.00  0.00     0.047 A 
ATOM     19  C   UNL A   1      35.429  23.352  24.081  1.00  0.00     0.093 A 
ATOM     20  O   UNL A   1      33.144  23.205  23.429  1.00  0.00    -0.426 OA
ATOM     21  O   UNL A   1      30.881  23.155  23.126  1.00  0.00    -0.251 OA
ATOM     22  C   UNL A   1      36.535  22.774  24.673  1.00  0.00     0.119 A 
BRANCH  22  23
ATOM     23  O   UNL A   1      37.614  23.563  24.915  1.00  0.00    -0.508 OA
ATOM     24  H   UNL A   1      38.437  23.175  25.141  1.00  0.00     0.293 HD
ENDBRANCH  22  23
ENDBRANCH  10  11
ENDBRANCH   7  10
ENDBRANCH   5   6
BRANCH   5  25
ATOM     25  C   UNL A   1      30.007  26.220  24.973  1.00  0.00     0.070 C 
BRANCH  25  26
ATOM     26  C   UNL A   1      30.340  26.593  23.517  1.00  0.00    -0.037 C 
ATOM     27  C   UNL A   1      31.611  26.779  23.132  1.00  0.00     0.001 A 
ATOM     28  C   UNL A   1      29.571  27.849  23.129  1.00  0.00     0.174 C 
ATOM     29  C   UNL A   1      32.337  26.247  22.000  1.00  0.00     0.010 A 
ATOM     30  C   UNL A   1      31.681  28.266  23.188  1.00  0.00     0.065 A 
ATOM     31  N   UNL A   1      30.571  28.933  23.214  1.00  0.00    -0.280 NA
ATOM     32  C   UNL A   1      33.455  26.901  21.626  1.00  0.00     0.001 A 
ATOM     33  C   UNL A   1      33.058  28.790  23.131  1.00  0.00     0.028 A 
ATOM     34  C   UNL A   1      33.908  28.075  22.370  1.00  0.00     0.002 A 
ENDBRANCH  25  26
ENDBRANCH   5  25
ENDBRANCH   3   5
ENDBRANCH   2   3
ENDBRANCH   1   2
BRANCH   1  35
ATOM     35  C   UNL A   1      31.778  30.107  26.337  1.00  0.00     0.275 C 
BRANCH  35  36
ATOM     36  O   UNL A   1      33.092  30.681  26.188  1.00  0.00    -0.458 OA
BRANCH  36  37
ATOM     37  C   UNL A   1      33.382  31.701  27.036  1.00  0.00     0.338 C 
ATOM     38  O   UNL A   1      32.705  32.685  27.250  1.00  0.00    -0.246 OA
BRANCH  37  39
ATOM     39  C   UNL A   1      34.581  31.359  27.838  1.00  0.00     0.060 A 
ATOM     40  C   UNL A   1      35.518  32.306  28.258  1.00  0.00     0.016 A 
ATOM     41  C   UNL A   1      34.750  30.022  28.193  1.00  0.00     0.016 A 
ATOM     42  C   UNL A   1      36.650  31.901  28.988  1.00  0.00     0.010 A 
ATOM     43  C   UNL A   1      35.876  29.623  28.915  1.00  0.00     0.010 A 
ATOM     44  C   UNL A   1      36.861  30.548  29.292  1.00  0.00    -0.014 A 
BRANCH  44  45
ATOM     45  C   UNL A   1      38.035  30.090  30.089  1.00  0.00     0.031 A 
ATOM     46  C   UNL A   1      38.216  30.450  31.543  1.00  0.00     0.074 A 
ATOM     47  C   UNL A   1      39.018  29.423  29.459  1.00  0.00     0.049 A 
ATOM     48  N   UNL A   1      39.271  30.316  32.314  1.00  0.00    -0.248 NA
ATOM     49  C   UNL A   1      37.095  31.128  32.192  1.00  0.00     0.031 C 
ATOM     50  C   UNL A   1      39.012  29.058  28.046  1.00  0.00     0.029 A 
ATOM     51  N   UNL A   1      40.206  28.933  29.934  1.00  0.00    -0.354 N 
ATOM     52  C   UNL A   1      38.973  30.994  33.495  1.00  0.00     0.074 A 
ATOM     53  C   UNL A   1      37.658  31.569  33.311  1.00  0.00     0.031 C 
ATOM     54  C   UNL A   1      40.130  28.366  27.773  1.00  0.00     0.029 A 
ATOM     55  C   UNL A   1      40.924  28.242  28.993  1.00  0.00     0.049 A 
ATOM     56  H   UNL A   1      40.513  29.064  30.861  1.00  0.00     0.167 HD
ATOM     57  C   UNL A   1      39.708  31.096  34.634  1.00  0.00     0.037 A 
ATOM     58  C   UNL A   1      42.072  27.550  29.115  1.00  0.00     0.037 A 
ATOM     59  C   UNL A   1      40.912  30.335  34.872  1.00  0.00     0.049 A 
ATOM     60  C   UNL A   1      42.742  27.455  30.458  1.00  0.00     0.074 A 
ATOM     61  C   UNL A   1      41.628  30.196  36.051  1.00  0.00     0.029 A 
ATOM     62  N   UNL A   1      41.538  29.534  33.932  1.00  0.00    -0.354 N 
ATOM     63  N   UNL A   1      42.423  28.043  31.586  1.00  0.00    -0.248 NA
ATOM     64  C   UNL A   1      43.916  26.575  30.554  1.00  0.00     0.031 C 
ATOM     65  C   UNL A   1      42.689  29.315  35.821  1.00  0.00     0.029 A 
ATOM     66  C   UNL A   1      42.614  28.879  34.509  1.00  0.00     0.049 A 
ATOM     67  H   UNL A   1      41.260  29.443  32.991  1.00  0.00     0.167 HD
ATOM     68  C   UNL A   1      43.340  27.589  32.525  1.00  0.00     0.074 A 
ATOM     69  C   UNL A   1      44.208  26.653  31.845  1.00  0.00     0.031 C 
ATOM     70  C   UNL A   1      43.458  27.931  33.831  1.00  0.00     0.037 A 
BRANCH  57  71
ATOM     71  C   UNL A   1      39.216  31.972  35.764  1.00  0.00     0.064 A 
ATOM     72  C   UNL A   1      38.311  31.502  36.728  1.00  0.00     0.173 A 
ATOM     73  C   UNL A   1      39.757  33.257  35.965  1.00  0.00     0.173 A 
ATOM     74  F   UNL A   1      37.784  30.273  36.619  1.00  0.00    -0.203 F 
ATOM     75  C   UNL A   1      37.932  32.290  37.814  1.00  0.00     0.198 A 
ATOM     76  C   UNL A   1      39.412  34.025  37.078  1.00  0.00     0.198 A 
ATOM     77  F   UNL A   1      40.660  33.755  35.107  1.00  0.00    -0.203 F 
ATOM     78  F   UNL A   1      37.030  31.827  38.690  1.00  0.00    -0.200 F 
ATOM     79  C   UNL A   1      38.491  33.545  37.995  1.00  0.00     0.200 A 
ATOM     80  F   UNL A   1      39.990  35.219  37.276  1.00  0.00    -0.200 F 
ATOM     81  F   UNL A   1      38.152  34.285  39.061  1.00  0.00    -0.200 F 
ENDBRANCH  57  71
BRANCH  58  82
ATOM     82  C   UNL A   1      42.576  26.785  27.948  1.00  0.00     0.064 A 
ATOM     83  C   UNL A   1      42.127  25.477  27.716  1.00  0.00     0.173 A 
ATOM     84  C   UNL A   1      43.459  27.350  27.020  1.00  0.00     0.173 A 
ATOM     85  F   UNL A   1      41.282  24.896  28.582  1.00  0.00    -0.203 F 
ATOM     86  C   UNL A   1      42.563  24.753  26.611  1.00  0.00     0.198 A 
ATOM     87  C   UNL A   1      43.871  26.635  25.897  1.00  0.00     0.198 A 
ATOM     88  F   UNL A   1      43.894  28.608  27.186  1.00  0.00    -0.203 F 
ATOM     89  F   UNL A   1      42.147  23.491  26.435  1.00  0.00    -0.200 F 
ATOM     90  C   UNL A   1      43.428  25.335  25.698  1.00  0.00     0.200 A 
ATOM     91  F   UNL A   1      44.686  27.209  25.003  1.00  0.00    -0.200 F 
ATOM     92  F   UNL A   1      43.836  24.644  24.627  1.00  0.00    -0.200 F 
ENDBRANCH  58  82
BRANCH  70  93
ATOM     93  C   UNL A   1      44.553  27.285  34.631  1.00  0.00     0.064 A 
ATOM     94  C   UNL A   1      45.805  27.900  34.781  1.00  0.00     0.173 A 
ATOM     95  C   UNL A   1      44.322  26.087  35.324  1.00  0.00     0.173 A 
ATOM     96  F   UNL A   1      46.078  29.041  34.131  1.00  0.00    -0.203 F 
ATOM     97  C   UNL A   1      46.789  27.334  35.585  1.00  0.00     0.198 A 
ATOM     98  C   UNL A   1      45.299  25.539  36.152  1.00  0.00     0.198 A 
ATOM     99  F   UNL A   1      43.140  25.463  35.222  1.00  0.00    -0.203 F 
ATOM    100  F   UNL A   1      47.988  27.923  35.689  1.00  0.00    -0.200 F 
ATOM    101  C   UNL A   1      46.532  26.160  36.279  1.00  0.00     0.200 A 
ATOM    102  F   UNL A   1      45.043  24.415  36.835  1.00  0.00    -0.200 F 
ATOM    103  F   UNL A   1      47.473  25.629  37.071  1.00  0.00    -0.200 F 
ENDBRANCH  70  93
ENDBRANCH  44  45
ENDBRANCH  37  39
ENDBRANCH  36  37
ENDBRANCH  35  36
ENDBRANCH   1  35
TORSDOF 17
ENDMDL
