MODEL 1
REMARK VINA RESULT:     -14.1      0.000      0.000
REMARK SMILES O=C(OCCOC(=O)c1ccc(-n2cc(CSc3nc4ccccc4c(=O)n3-c3ccc(Br)cc3)nn2)cc1)c1ccc(-c2c3nc(c(-c4c(F)c(F)c(F)c(F)c4F)c4ccc([nH]4)c(-c4c(F)c(F)c(F)c(F)c4F)c4nc(c(-c5c(F)c(F)c(F)c(F)c5F)c5ccc2[nH]5)C=C4)C=C3)cc1
REMARK SMILES IDX 6 1 5 2 4 3 3 4 2 5 1 6 40 7 41 8 102 9 42 10 101 11 43 12
REMARK SMILES IDX 44 13 45 14 95 15 46 16 100 17 94 18 96 19 47 20 99 21 93 22
REMARK SMILES IDX 92 23 48 25 80 26 60 27 79 28 61 29 64 30 78 31 97 32 62 33
REMARK SMILES IDX 63 34 77 36 98 37 65 38 49 39 50 40 58 41 51 42 52 43 56 44
REMARK SMILES IDX 59 45 53 46 54 47 57 48 55 49 81 50 82 51 90 52 83 53 84 54
REMARK SMILES IDX 88 55 91 56 85 57 86 58 89 59 87 60 66 61 67 62 75 63 68 64
REMARK SMILES IDX 69 65 73 66 76 67 70 68 71 69 74 70 72 71 7 72 8 73 9 74
REMARK SMILES IDX 10 75 39 76 11 77 38 78 12 79 13 80 14 81 37 82 15 83 36 84
REMARK SMILES IDX 16 85 17 86 18 87 19 88 28 89 20 90 26 91 21 92 25 93 27 94
REMARK SMILES IDX 22 95 24 96 23 97 29 98 30 99 35 100 31 101 34 102 32 103
REMARK SMILES IDX 33 104
REMARK H PARENT 96 24 64 35
REMARK Flexibility Score: inf
ROOT
ATOM      1  O   UNL A   1      44.188  18.671  25.115  1.00  0.00    -0.458 OA
ENDROOT
BRANCH   1   2
ATOM      2  C   UNL A   1      45.583  18.611  25.460  1.00  0.00     0.275 C 
BRANCH   2   3
ATOM      3  C   UNL A   1      46.388  19.574  24.586  1.00  0.00     0.275 C 
BRANCH   3   4
ATOM      4  O   UNL A   1      46.350  20.974  24.931  1.00  0.00    -0.458 OA
BRANCH   4   5
ATOM      5  C   UNL A   1      45.426  21.779  24.367  1.00  0.00     0.338 C 
ATOM      6  O   UNL A   1      44.705  21.447  23.439  1.00  0.00    -0.246 OA
BRANCH   5   7
ATOM      7  C   UNL A   1      45.147  22.985  25.181  1.00  0.00     0.060 A 
ATOM      8  C   UNL A   1      45.861  23.311  26.339  1.00  0.00     0.016 A 
ATOM      9  C   UNL A   1      44.128  23.832  24.728  1.00  0.00     0.016 A 
ATOM     10  C   UNL A   1      45.481  24.411  27.097  1.00  0.00     0.010 A 
ATOM     11  C   UNL A   1      43.774  24.950  25.462  1.00  0.00     0.010 A 
ATOM     12  C   UNL A   1      44.407  25.202  26.679  1.00  0.00    -0.014 A 
BRANCH  12  13
ATOM     13  C   UNL A   1      44.035  26.370  27.476  1.00  0.00     0.031 A 
ATOM     14  C   UNL A   1      44.954  27.538  27.325  1.00  0.00     0.074 A 
ATOM     15  C   UNL A   1      42.866  26.451  28.147  1.00  0.00     0.049 A 
ATOM     16  N   UNL A   1      45.677  28.125  28.224  1.00  0.00    -0.248 NA
ATOM     17  C   UNL A   1      45.183  28.044  25.965  1.00  0.00     0.031 C 
ATOM     18  C   UNL A   1      41.746  25.507  28.153  1.00  0.00     0.029 A 
ATOM     19  N   UNL A   1      42.392  27.471  28.914  1.00  0.00    -0.354 N 
ATOM     20  C   UNL A   1      46.312  29.190  27.577  1.00  0.00     0.074 A 
ATOM     21  C   UNL A   1      46.090  28.999  26.170  1.00  0.00     0.031 C 
ATOM     22  C   UNL A   1      40.653  26.100  28.688  1.00  0.00     0.029 A 
ATOM     23  C   UNL A   1      41.031  27.405  29.197  1.00  0.00     0.049 A 
ATOM     24  H   UNL A   1      42.967  28.199  29.243  1.00  0.00     0.167 HD
ATOM     25  C   UNL A   1      46.784  30.269  28.266  1.00  0.00     0.037 A 
ATOM     26  C   UNL A   1      40.279  28.380  29.773  1.00  0.00     0.037 A 
ATOM     27  C   UNL A   1      46.943  29.962  29.661  1.00  0.00     0.049 A 
ATOM     28  C   UNL A   1      41.214  29.320  30.441  1.00  0.00     0.074 A 
ATOM     29  C   UNL A   1      47.701  29.047  30.363  1.00  0.00     0.029 A 
ATOM     30  N   UNL A   1      45.956  30.368  30.525  1.00  0.00    -0.354 N 
ATOM     31  N   UNL A   1      41.923  29.005  31.489  1.00  0.00    -0.248 NA
ATOM     32  C   UNL A   1      41.719  30.433  29.650  1.00  0.00     0.031 C 
ATOM     33  C   UNL A   1      46.821  28.555  31.371  1.00  0.00     0.029 A 
ATOM     34  C   UNL A   1      45.631  29.278  31.291  1.00  0.00     0.049 A 
ATOM     35  H   UNL A   1      45.558  31.267  30.583  1.00  0.00     0.167 HD
ATOM     36  C   UNL A   1      43.167  29.567  31.251  1.00  0.00     0.074 A 
ATOM     37  C   UNL A   1      42.965  30.486  30.129  1.00  0.00     0.031 C 
ATOM     38  C   UNL A   1      44.300  29.025  31.782  1.00  0.00     0.037 A 
BRANCH  25  39
ATOM     39  C   UNL A   1      46.743  31.693  27.766  1.00  0.00     0.064 A 
ATOM     40  C   UNL A   1      45.510  32.246  27.361  1.00  0.00     0.173 A 
ATOM     41  C   UNL A   1      47.890  32.411  27.364  1.00  0.00     0.173 A 
ATOM     42  F   UNL A   1      44.353  31.644  27.678  1.00  0.00    -0.203 F 
ATOM     43  C   UNL A   1      45.439  33.374  26.538  1.00  0.00     0.198 A 
ATOM     44  C   UNL A   1      47.814  33.566  26.588  1.00  0.00     0.198 A 
ATOM     45  F   UNL A   1      49.127  31.963  27.601  1.00  0.00    -0.203 F 
ATOM     46  F   UNL A   1      44.253  33.783  26.068  1.00  0.00    -0.200 F 
ATOM     47  C   UNL A   1      46.592  34.027  26.144  1.00  0.00     0.200 A 
ATOM     48  F   UNL A   1      48.943  34.177  26.203  1.00  0.00    -0.200 F 
ATOM     49  F   UNL A   1      46.533  35.066  25.302  1.00  0.00    -0.200 F 
ENDBRANCH  25  39
BRANCH  26  50
ATOM     50  C   UNL A   1      38.856  28.733  29.538  1.00  0.00     0.064 A 
ATOM     51  C   UNL A   1      37.980  28.980  30.612  1.00  0.00     0.173 A 
ATOM     52  C   UNL A   1      38.403  29.124  28.264  1.00  0.00     0.173 A 
ATOM     53  F   UNL A   1      38.348  28.679  31.865  1.00  0.00    -0.203 F 
ATOM     54  C   UNL A   1      36.742  29.606  30.424  1.00  0.00     0.198 A 
ATOM     55  C   UNL A   1      37.166  29.746  28.077  1.00  0.00     0.198 A 
ATOM     56  F   UNL A   1      39.192  28.999  27.188  1.00  0.00    -0.203 F 
ATOM     57  F   UNL A   1      35.962  29.879  31.480  1.00  0.00    -0.200 F 
ATOM     58  C   UNL A   1      36.342  30.000  29.158  1.00  0.00     0.200 A 
ATOM     59  F   UNL A   1      36.806  30.155  26.852  1.00  0.00    -0.200 F 
ATOM     60  F   UNL A   1      35.186  30.656  28.985  1.00  0.00    -0.200 F 
ENDBRANCH  26  50
BRANCH  38  61
ATOM     61  C   UNL A   1      44.159  27.927  32.799  1.00  0.00     0.064 A 
ATOM     62  C   UNL A   1      44.105  26.556  32.485  1.00  0.00     0.173 A 
ATOM     63  C   UNL A   1      44.268  28.272  34.152  1.00  0.00     0.173 A 
ATOM     64  F   UNL A   1      44.105  26.135  31.216  1.00  0.00    -0.203 F 
ATOM     65  C   UNL A   1      44.121  25.584  33.485  1.00  0.00     0.198 A 
ATOM     66  C   UNL A   1      44.325  27.299  35.146  1.00  0.00     0.198 A 
ATOM     67  F   UNL A   1      44.383  29.561  34.509  1.00  0.00    -0.203 F 
ATOM     68  F   UNL A   1      44.063  24.284  33.161  1.00  0.00    -0.200 F 
ATOM     69  C   UNL A   1      44.242  25.957  34.813  1.00  0.00     0.200 A 
ATOM     70  F   UNL A   1      44.501  27.665  36.422  1.00  0.00    -0.200 F 
ATOM     71  F   UNL A   1      44.308  25.023  35.772  1.00  0.00    -0.200 F 
ENDBRANCH  38  61
ENDBRANCH  12  13
ENDBRANCH   5   7
ENDBRANCH   4   5
ENDBRANCH   3   4
ENDBRANCH   2   3
ENDBRANCH   1   2
BRANCH   1  72
ATOM     72  C   UNL A   1      43.319  18.347  26.113  1.00  0.00     0.338 C 
ATOM     73  O   UNL A   1      43.393  17.442  26.908  1.00  0.00    -0.246 OA
BRANCH  72  74
ATOM     74  C   UNL A   1      42.250  19.359  26.096  1.00  0.00     0.060 A 
ATOM     75  C   UNL A   1      40.923  18.954  25.937  1.00  0.00     0.018 A 
ATOM     76  C   UNL A   1      42.571  20.708  26.250  1.00  0.00     0.018 A 
ATOM     77  C   UNL A   1      39.895  19.893  26.010  1.00  0.00     0.029 A 
ATOM     78  C   UNL A   1      41.548  21.662  26.244  1.00  0.00     0.029 A 
ATOM     79  C   UNL A   1      40.207  21.252  26.140  1.00  0.00     0.066 A 
BRANCH  79  80
ATOM     80  N   UNL A   1      39.159  22.199  26.116  1.00  0.00    -0.220 N 
ATOM     81  C   UNL A   1      37.936  22.086  25.507  1.00  0.00     0.141 A 
ATOM     82  N   UNL A   1      39.235  23.396  26.743  1.00  0.00    -0.062 NA
ATOM     83  C   UNL A   1      37.250  23.229  25.868  1.00  0.00     0.093 A 
ATOM     84  N   UNL A   1      38.095  24.049  26.555  1.00  0.00    -0.134 NA
BRANCH  83  85
ATOM     85  C   UNL A   1      35.861  23.606  25.540  1.00  0.00     0.138 C 
BRANCH  85  86
ATOM     86  S   UNL A   1      35.285  23.665  23.837  1.00  0.00    -0.081 SA
BRANCH  86  87
ATOM     87  C   UNL A   1      33.590  24.090  23.740  1.00  0.00     0.176 A 
ATOM     88  N   UNL A   1      33.419  25.293  23.274  1.00  0.00    -0.223 NA
ATOM     89  N   UNL A   1      32.515  23.279  24.086  1.00  0.00    -0.255 N 
ATOM     90  C   UNL A   1      32.126  25.820  23.239  1.00  0.00     0.079 A 
ATOM     91  C   UNL A   1      31.425  23.971  24.641  1.00  0.00     0.266 A 
ATOM     92  C   UNL A   1      31.830  26.947  22.471  1.00  0.00     0.029 A 
ATOM     93  C   UNL A   1      31.138  25.289  24.053  1.00  0.00     0.066 A 
ATOM     94  O   UNL A   1      30.700  23.581  25.555  1.00  0.00    -0.268 OA
ATOM     95  C   UNL A   1      30.579  27.567  22.581  1.00  0.00     0.002 A 
ATOM     96  C   UNL A   1      29.905  25.928  24.219  1.00  0.00     0.016 A 
ATOM     97  C   UNL A   1      29.632  27.080  23.485  1.00  0.00     0.001 A 
BRANCH  89  98
ATOM     98  C   UNL A   1      32.432  21.834  23.967  1.00  0.00     0.051 A 
ATOM     99  C   UNL A   1      32.698  21.008  25.077  1.00  0.00     0.028 A 
ATOM    100  C   UNL A   1      32.055  21.161  22.799  1.00  0.00     0.028 A 
ATOM    101  C   UNL A   1      32.846  19.622  24.960  1.00  0.00     0.018 A 
ATOM    102  C   UNL A   1      32.262  19.782  22.646  1.00  0.00     0.018 A 
ATOM    103  C   UNL A   1      32.711  19.027  23.719  1.00  0.00     0.018 A 
ATOM    104  Br  UNL A   1      33.159  17.212  23.485  1.00  0.00    -0.051 Br
ENDBRANCH  89  98
ENDBRANCH  86  87
ENDBRANCH  85  86
ENDBRANCH  83  85
ENDBRANCH  79  80
ENDBRANCH  72  74
ENDBRANCH   1  72
TORSDOF 16
ENDMDL
MODEL 2
REMARK VINA RESULT:     -13.9      1.886      3.276
REMARK SMILES O=C(OCCOC(=O)c1ccc(-n2cc(CSc3nc4ccccc4c(=O)n3-c3ccc(Br)cc3)nn2)cc1)c1ccc(-c2c3nc(c(-c4c(F)c(F)c(F)c(F)c4F)c4ccc([nH]4)c(-c4c(F)c(F)c(F)c(F)c4F)c4nc(c(-c5c(F)c(F)c(F)c(F)c5F)c5ccc2[nH]5)C=C4)C=C3)cc1
REMARK SMILES IDX 6 1 5 2 4 3 3 4 2 5 1 6 40 7 41 8 102 9 42 10 101 11 43 12
REMARK SMILES IDX 44 13 45 14 95 15 46 16 100 17 94 18 96 19 47 20 99 21 93 22
REMARK SMILES IDX 92 23 48 25 80 26 60 27 79 28 61 29 64 30 78 31 97 32 62 33
REMARK SMILES IDX 63 34 77 36 98 37 65 38 49 39 50 40 58 41 51 42 52 43 56 44
REMARK SMILES IDX 59 45 53 46 54 47 57 48 55 49 81 50 82 51 90 52 83 53 84 54
REMARK SMILES IDX 88 55 91 56 85 57 86 58 89 59 87 60 66 61 67 62 75 63 68 64
REMARK SMILES IDX 69 65 73 66 76 67 70 68 71 69 74 70 72 71 7 72 8 73 9 74
REMARK SMILES IDX 10 75 39 76 11 77 38 78 12 79 13 80 14 81 37 82 15 83 36 84
REMARK SMILES IDX 16 85 17 86 18 87 19 88 28 89 20 90 26 91 21 92 25 93 27 94
REMARK SMILES IDX 22 95 24 96 23 97 29 98 30 99 35 100 31 101 34 102 32 103
REMARK SMILES IDX 33 104
REMARK H PARENT 96 24 64 35
REMARK Flexibility Score: inf
ROOT
ATOM      1  O   UNL A   1      40.121  20.485  25.984  1.00  0.00    -0.458 OA
ENDROOT
BRANCH   1   2
ATOM      2  C   UNL A   1      41.255  19.867  26.616  1.00  0.00     0.275 C 
BRANCH   2   3
ATOM      3  C   UNL A   1      42.284  19.443  25.566  1.00  0.00     0.275 C 
BRANCH   3   4
ATOM      4  O   UNL A   1      43.649  19.862  25.767  1.00  0.00    -0.458 OA
BRANCH   4   5
ATOM      5  C   UNL A   1      44.137  20.912  25.076  1.00  0.00     0.338 C 
ATOM      6  O   UNL A   1      44.548  20.844  23.928  1.00  0.00    -0.246 OA
BRANCH   5   7
ATOM      7  C   UNL A   1      43.833  22.211  25.722  1.00  0.00     0.060 A 
ATOM      8  C   UNL A   1      42.863  23.098  25.242  1.00  0.00     0.016 A 
ATOM      9  C   UNL A   1      44.553  22.524  26.881  1.00  0.00     0.016 A 
ATOM     10  C   UNL A   1      42.699  24.335  25.851  1.00  0.00     0.010 A 
ATOM     11  C   UNL A   1      44.362  23.741  27.511  1.00  0.00     0.010 A 
ATOM     12  C   UNL A   1      43.483  24.672  26.958  1.00  0.00    -0.014 A 
BRANCH  12  13
ATOM     13  C   UNL A   1      43.281  25.969  27.601  1.00  0.00     0.031 A 
ATOM     14  C   UNL A   1      44.280  27.011  27.218  1.00  0.00     0.074 A 
ATOM     15  C   UNL A   1      42.183  26.254  28.334  1.00  0.00     0.049 A 
ATOM     16  N   UNL A   1      45.123  27.644  27.969  1.00  0.00    -0.248 NA
ATOM     17  C   UNL A   1      44.437  27.299  25.786  1.00  0.00     0.031 C 
ATOM     18  C   UNL A   1      40.990  25.432  28.556  1.00  0.00     0.029 A 
ATOM     19  N   UNL A   1      41.863  27.411  28.977  1.00  0.00    -0.354 N 
ATOM     20  C   UNL A   1      45.790  28.543  27.131  1.00  0.00     0.074 A 
ATOM     21  C   UNL A   1      45.436  28.182  25.786  1.00  0.00     0.031 C 
ATOM     22  C   UNL A   1      40.001  26.196  29.075  1.00  0.00     0.029 A 
ATOM     23  C   UNL A   1      40.530  27.516  29.361  1.00  0.00     0.049 A 
ATOM     24  H   UNL A   1      42.523  28.118  29.155  1.00  0.00     0.167 HD
ATOM     25  C   UNL A   1      46.408  29.656  27.621  1.00  0.00     0.037 A 
ATOM     26  C   UNL A   1      39.914  28.629  29.841  1.00  0.00     0.037 A 
ATOM     27  C   UNL A   1      46.656  29.532  29.031  1.00  0.00     0.049 A 
ATOM     28  C   UNL A   1      40.978  29.558  30.298  1.00  0.00     0.074 A 
ATOM     29  C   UNL A   1      47.390  28.654  29.804  1.00  0.00     0.029 A 
ATOM     30  N   UNL A   1      45.783  30.146  29.895  1.00  0.00    -0.354 N 
ATOM     31  N   UNL A   1      41.743  29.324  31.328  1.00  0.00    -0.248 NA
ATOM     32  C   UNL A   1      41.509  30.497  29.320  1.00  0.00     0.031 C 
ATOM     33  C   UNL A   1      46.558  28.393  30.931  1.00  0.00     0.029 A 
ATOM     34  C   UNL A   1      45.431  29.209  30.831  1.00  0.00     0.049 A 
ATOM     35  H   UNL A   1      45.469  31.078  29.849  1.00  0.00     0.167 HD
ATOM     36  C   UNL A   1      43.006  29.726  30.924  1.00  0.00     0.074 A 
ATOM     37  C   UNL A   1      42.791  30.496  29.698  1.00  0.00     0.031 C 
ATOM     38  C   UNL A   1      44.129  29.156  31.446  1.00  0.00     0.037 A 
BRANCH  25  39
ATOM     39  C   UNL A   1      46.447  30.995  26.923  1.00  0.00     0.064 A 
ATOM     40  C   UNL A   1      47.657  31.720  26.891  1.00  0.00     0.173 A 
ATOM     41  C   UNL A   1      45.291  31.730  26.581  1.00  0.00     0.173 A 
ATOM     42  F   UNL A   1      48.819  31.126  27.206  1.00  0.00    -0.203 F 
ATOM     43  C   UNL A   1      47.690  33.093  26.630  1.00  0.00     0.198 A 
ATOM     44  C   UNL A   1      45.335  33.088  26.270  1.00  0.00     0.198 A 
ATOM     45  F   UNL A   1      44.066  31.199  26.650  1.00  0.00    -0.203 F 
ATOM     46  F   UNL A   1      48.844  33.765  26.744  1.00  0.00    -0.200 F 
ATOM     47  C   UNL A   1      46.528  33.777  26.330  1.00  0.00     0.200 A 
ATOM     48  F   UNL A   1      44.196  33.738  25.996  1.00  0.00    -0.200 F 
ATOM     49  F   UNL A   1      46.546  35.104  26.147  1.00  0.00    -0.200 F 
ENDBRANCH  25  39
BRANCH  26  50
ATOM     50  C   UNL A   1      38.511  29.082  29.658  1.00  0.00     0.064 A 
ATOM     51  C   UNL A   1      37.708  29.425  30.761  1.00  0.00     0.173 A 
ATOM     52  C   UNL A   1      38.030  29.468  28.393  1.00  0.00     0.173 A 
ATOM     53  F   UNL A   1      38.111  29.134  32.006  1.00  0.00    -0.203 F 
ATOM     54  C   UNL A   1      36.512  30.137  30.608  1.00  0.00     0.198 A 
ATOM     55  C   UNL A   1      36.835  30.175  28.241  1.00  0.00     0.198 A 
ATOM     56  F   UNL A   1      38.756  29.251  27.287  1.00  0.00    -0.203 F 
ATOM     57  F   UNL A   1      35.805  30.500  31.688  1.00  0.00    -0.200 F 
ATOM     58  C   UNL A   1      36.083  30.523  29.348  1.00  0.00     0.200 A 
ATOM     59  F   UNL A   1      36.449  30.575  27.020  1.00  0.00    -0.200 F 
ATOM     60  F   UNL A   1      34.972  31.259  29.205  1.00  0.00    -0.200 F 
ENDBRANCH  26  50
BRANCH  38  61
ATOM     61  C   UNL A   1      43.980  28.227  32.620  1.00  0.00     0.064 A 
ATOM     62  C   UNL A   1      43.849  26.830  32.515  1.00  0.00     0.173 A 
ATOM     63  C   UNL A   1      44.163  28.760  33.902  1.00  0.00     0.173 A 
ATOM     64  F   UNL A   1      43.776  26.228  31.324  1.00  0.00    -0.203 F 
ATOM     65  C   UNL A   1      43.862  26.016  33.647  1.00  0.00     0.198 A 
ATOM     66  C   UNL A   1      44.217  27.942  35.026  1.00  0.00     0.198 A 
ATOM     67  F   UNL A   1      44.353  30.080  34.059  1.00  0.00    -0.203 F 
ATOM     68  F   UNL A   1      43.730  24.687  33.521  1.00  0.00    -0.200 F 
ATOM     69  C   UNL A   1      44.057  26.572  34.900  1.00  0.00     0.200 A 
ATOM     70  F   UNL A   1      44.463  28.481  36.227  1.00  0.00    -0.200 F 
ATOM     71  F   UNL A   1      44.120  25.786  35.983  1.00  0.00    -0.200 F 
ENDBRANCH  38  61
ENDBRANCH  12  13
ENDBRANCH   5   7
ENDBRANCH   4   5
ENDBRANCH   3   4
ENDBRANCH   2   3
ENDBRANCH   1   2
BRANCH   1  72
ATOM     72  C   UNL A   1      39.698  21.653  26.542  1.00  0.00     0.338 C 
ATOM     73  O   UNL A   1      40.236  22.315  27.397  1.00  0.00    -0.246 OA
BRANCH  72  74
ATOM     74  C   UNL A   1      38.443  22.022  25.865  1.00  0.00     0.060 A 
ATOM     75  C   UNL A   1      37.734  21.050  25.157  1.00  0.00     0.018 A 
ATOM     76  C   UNL A   1      37.972  23.332  25.948  1.00  0.00     0.018 A 
ATOM     77  C   UNL A   1      36.500  21.366  24.590  1.00  0.00     0.029 A 
ATOM     78  C   UNL A   1      36.773  23.672  25.312  1.00  0.00     0.029 A 
ATOM     79  C   UNL A   1      36.029  22.683  24.645  1.00  0.00     0.066 A 
BRANCH  79  80
ATOM     80  N   UNL A   1      34.824  23.007  23.982  1.00  0.00    -0.220 N 
ATOM     81  C   UNL A   1      34.487  24.190  23.377  1.00  0.00     0.141 A 
ATOM     82  N   UNL A   1      33.804  22.129  23.839  1.00  0.00    -0.062 NA
ATOM     83  C   UNL A   1      33.259  23.957  22.793  1.00  0.00     0.093 A 
ATOM     84  N   UNL A   1      32.828  22.716  23.159  1.00  0.00    -0.134 NA
BRANCH  83  85
ATOM     85  C   UNL A   1      32.451  24.871  21.962  1.00  0.00     0.138 C 
BRANCH  85  86
ATOM     86  S   UNL A   1      32.849  26.620  21.837  1.00  0.00    -0.081 SA
BRANCH  86  87
ATOM     87  C   UNL A   1      31.692  27.612  22.698  1.00  0.00     0.176 A 
ATOM     88  N   UNL A   1      30.952  28.307  21.883  1.00  0.00    -0.223 NA
ATOM     89  N   UNL A   1      31.526  27.678  24.075  1.00  0.00    -0.255 N 
ATOM     90  C   UNL A   1      30.053  29.232  22.420  1.00  0.00     0.079 A 
ATOM     91  C   UNL A   1      31.168  28.950  24.554  1.00  0.00     0.266 A 
ATOM     92  C   UNL A   1      29.022  29.765  21.645  1.00  0.00     0.029 A 
ATOM     93  C   UNL A   1      30.238  29.713  23.707  1.00  0.00     0.066 A 
ATOM     94  O   UNL A   1      31.551  29.472  25.599  1.00  0.00    -0.268 OA
ATOM     95  C   UNL A   1      28.240  30.816  22.139  1.00  0.00     0.002 A 
ATOM     96  C   UNL A   1      29.506  30.801  24.193  1.00  0.00     0.016 A 
ATOM     97  C   UNL A   1      28.508  31.360  23.397  1.00  0.00     0.001 A 
BRANCH  89  98
ATOM     98  C   UNL A   1      31.717  26.604  25.035  1.00  0.00     0.051 A 
ATOM     99  C   UNL A   1      32.970  26.408  25.648  1.00  0.00     0.028 A 
ATOM    100  C   UNL A   1      30.705  25.731  25.451  1.00  0.00     0.028 A 
ATOM    101  C   UNL A   1      33.264  25.266  26.403  1.00  0.00     0.018 A 
ATOM    102  C   UNL A   1      30.996  24.549  26.150  1.00  0.00     0.018 A 
ATOM    103  C   UNL A   1      32.291  24.299  26.575  1.00  0.00     0.018 A 
ATOM    104  Br  UNL A   1      32.732  22.642  27.358  1.00  0.00    -0.051 Br
ENDBRANCH  89  98
ENDBRANCH  86  87
ENDBRANCH  85  86
ENDBRANCH  83  85
ENDBRANCH  79  80
ENDBRANCH  72  74
ENDBRANCH   1  72
TORSDOF 16
ENDMDL
MODEL 3
REMARK VINA RESULT:     -13.6      6.264     13.163
REMARK SMILES O=C(OCCOC(=O)c1ccc(-n2cc(CSc3nc4ccccc4c(=O)n3-c3ccc(Br)cc3)nn2)cc1)c1ccc(-c2c3nc(c(-c4c(F)c(F)c(F)c(F)c4F)c4ccc([nH]4)c(-c4c(F)c(F)c(F)c(F)c4F)c4nc(c(-c5c(F)c(F)c(F)c(F)c5F)c5ccc2[nH]5)C=C4)C=C3)cc1
REMARK SMILES IDX 6 1 5 2 4 3 3 4 2 5 1 6 40 7 41 8 102 9 42 10 101 11 43 12
REMARK SMILES IDX 44 13 45 14 95 15 46 16 100 17 94 18 96 19 47 20 99 21 93 22
REMARK SMILES IDX 92 23 48 25 80 26 60 27 79 28 61 29 64 30 78 31 97 32 62 33
REMARK SMILES IDX 63 34 77 36 98 37 65 38 49 39 50 40 58 41 51 42 52 43 56 44
REMARK SMILES IDX 59 45 53 46 54 47 57 48 55 49 81 50 82 51 90 52 83 53 84 54
REMARK SMILES IDX 88 55 91 56 85 57 86 58 89 59 87 60 66 61 67 62 75 63 68 64
REMARK SMILES IDX 69 65 73 66 76 67 70 68 71 69 74 70 72 71 7 72 8 73 9 74
REMARK SMILES IDX 10 75 39 76 11 77 38 78 12 79 13 80 14 81 37 82 15 83 36 84
REMARK SMILES IDX 16 85 17 86 18 87 19 88 28 89 20 90 26 91 21 92 25 93 27 94
REMARK SMILES IDX 22 95 24 96 23 97 29 98 30 99 35 100 31 101 34 102 32 103
REMARK SMILES IDX 33 104
REMARK H PARENT 96 24 64 35
REMARK Flexibility Score: inf
ROOT
ATOM      1  O   UNL A   1      32.763  34.935  29.867  1.00  0.00    -0.458 OA
ENDROOT
BRANCH   1   2
ATOM      2  C   UNL A   1      33.459  35.391  28.695  1.00  0.00     0.275 C 
BRANCH   2   3
ATOM      3  C   UNL A   1      33.952  34.199  27.872  1.00  0.00     0.275 C 
BRANCH   3   4
ATOM      4  O   UNL A   1      35.025  33.410  28.424  1.00  0.00    -0.458 OA
BRANCH   4   5
ATOM      5  C   UNL A   1      34.929  32.065  28.442  1.00  0.00     0.338 C 
ATOM      6  O   UNL A   1      33.969  31.443  28.014  1.00  0.00    -0.246 OA
BRANCH   5   7
ATOM      7  C   UNL A   1      36.222  31.404  28.735  1.00  0.00     0.060 A 
ATOM      8  C   UNL A   1      37.273  32.038  29.408  1.00  0.00     0.016 A 
ATOM      9  C   UNL A   1      36.358  30.072  28.327  1.00  0.00     0.016 A 
ATOM     10  C   UNL A   1      38.487  31.382  29.565  1.00  0.00     0.010 A 
ATOM     11  C   UNL A   1      37.555  29.404  28.519  1.00  0.00     0.010 A 
ATOM     12  C   UNL A   1      38.638  30.080  29.078  1.00  0.00    -0.014 A 
BRANCH  12  13
ATOM     13  C   UNL A   1      39.915  29.395  29.274  1.00  0.00     0.031 A 
ATOM     14  C   UNL A   1      40.268  29.143  30.703  1.00  0.00     0.074 A 
ATOM     15  C   UNL A   1      40.625  28.874  28.251  1.00  0.00     0.049 A 
ATOM     16  N   UNL A   1      41.284  29.576  31.379  1.00  0.00    -0.248 NA
ATOM     17  C   UNL A   1      39.293  28.404  31.517  1.00  0.00     0.031 C 
ATOM     18  C   UNL A   1      40.264  28.792  26.833  1.00  0.00     0.029 A 
ATOM     19  N   UNL A   1      41.813  28.209  28.288  1.00  0.00    -0.354 N 
ATOM     20  C   UNL A   1      41.171  29.012  32.653  1.00  0.00     0.074 A 
ATOM     21  C   UNL A   1      39.860  28.429  32.724  1.00  0.00     0.031 C 
ATOM     22  C   UNL A   1      41.091  27.925  26.202  1.00  0.00     0.029 A 
ATOM     23  C   UNL A   1      42.126  27.507  27.128  1.00  0.00     0.049 A 
ATOM     24  H   UNL A   1      42.404  28.225  29.074  1.00  0.00     0.167 HD
ATOM     25  C   UNL A   1      42.252  28.875  33.474  1.00  0.00     0.037 A 
ATOM     26  C   UNL A   1      43.144  26.619  26.973  1.00  0.00     0.037 A 
ATOM     27  C   UNL A   1      43.323  29.742  33.068  1.00  0.00     0.049 A 
ATOM     28  C   UNL A   1      44.109  26.860  28.077  1.00  0.00     0.074 A 
ATOM     29  C   UNL A   1      43.457  31.110  32.942  1.00  0.00     0.029 A 
ATOM     30  N   UNL A   1      44.343  29.200  32.327  1.00  0.00    -0.354 N 
ATOM     31  N   UNL A   1      44.832  27.940  28.176  1.00  0.00    -0.248 NA
ATOM     32  C   UNL A   1      43.901  26.124  29.315  1.00  0.00     0.031 C 
ATOM     33  C   UNL A   1      44.173  31.286  31.722  1.00  0.00     0.029 A 
ATOM     34  C   UNL A   1      44.527  30.023  31.247  1.00  0.00     0.049 A 
ATOM     35  H   UNL A   1      44.845  28.377  32.530  1.00  0.00     0.167 HD
ATOM     36  C   UNL A   1      44.800  28.258  29.524  1.00  0.00     0.074 A 
ATOM     37  C   UNL A   1      44.260  27.070  30.188  1.00  0.00     0.031 C 
ATOM     38  C   UNL A   1      44.933  29.547  29.949  1.00  0.00     0.037 A 
BRANCH  25  39
ATOM     39  C   UNL A   1      42.485  27.706  34.401  1.00  0.00     0.064 A 
ATOM     40  C   UNL A   1      43.014  26.508  33.878  1.00  0.00     0.173 A 
ATOM     41  C   UNL A   1      41.912  27.605  35.688  1.00  0.00     0.173 A 
ATOM     42  F   UNL A   1      43.576  26.482  32.660  1.00  0.00    -0.203 F 
ATOM     43  C   UNL A   1      42.893  25.289  34.552  1.00  0.00     0.198 A 
ATOM     44  C   UNL A   1      41.840  26.397  36.380  1.00  0.00     0.198 A 
ATOM     45  F   UNL A   1      41.297  28.637  36.274  1.00  0.00    -0.203 F 
ATOM     46  F   UNL A   1      43.290  24.155  33.957  1.00  0.00    -0.200 F 
ATOM     47  C   UNL A   1      42.296  25.234  35.798  1.00  0.00     0.200 A 
ATOM     48  F   UNL A   1      41.245  26.360  37.580  1.00  0.00    -0.200 F 
ATOM     49  F   UNL A   1      42.117  24.059  36.416  1.00  0.00    -0.200 F 
ENDBRANCH  25  39
BRANCH  26  50
ATOM     50  C   UNL A   1      43.204  25.391  26.141  1.00  0.00     0.064 A 
ATOM     51  C   UNL A   1      44.297  25.139  25.292  1.00  0.00     0.173 A 
ATOM     52  C   UNL A   1      42.339  24.306  26.381  1.00  0.00     0.173 A 
ATOM     53  F   UNL A   1      45.195  26.104  25.044  1.00  0.00    -0.203 F 
ATOM     54  C   UNL A   1      44.527  23.872  24.743  1.00  0.00     0.198 A 
ATOM     55  C   UNL A   1      42.568  23.043  25.829  1.00  0.00     0.198 A 
ATOM     56  F   UNL A   1      41.310  24.425  27.231  1.00  0.00    -0.203 F 
ATOM     57  F   UNL A   1      45.614  23.655  23.989  1.00  0.00    -0.200 F 
ATOM     58  C   UNL A   1      43.668  22.822  25.023  1.00  0.00     0.200 A 
ATOM     59  F   UNL A   1      41.750  22.026  26.137  1.00  0.00    -0.200 F 
ATOM     60  F   UNL A   1      43.922  21.593  24.550  1.00  0.00    -0.200 F 
ENDBRANCH  26  50
BRANCH  38  61
ATOM     61  C   UNL A   1      45.320  30.595  28.942  1.00  0.00     0.064 A 
ATOM     62  C   UNL A   1      44.406  31.300  28.137  1.00  0.00     0.173 A 
ATOM     63  C   UNL A   1      46.653  31.027  28.928  1.00  0.00     0.173 A 
ATOM     64  F   UNL A   1      43.099  31.024  28.169  1.00  0.00    -0.203 F 
ATOM     65  C   UNL A   1      44.820  32.360  27.331  1.00  0.00     0.198 A 
ATOM     66  C   UNL A   1      47.056  32.111  28.155  1.00  0.00     0.198 A 
ATOM     67  F   UNL A   1      47.559  30.431  29.720  1.00  0.00    -0.203 F 
ATOM     68  F   UNL A   1      43.930  33.014  26.569  1.00  0.00    -0.200 F 
ATOM     69  C   UNL A   1      46.143  32.771  27.349  1.00  0.00     0.200 A 
ATOM     70  F   UNL A   1      48.324  32.538  28.222  1.00  0.00    -0.200 F 
ATOM     71  F   UNL A   1      46.532  33.821  26.614  1.00  0.00    -0.200 F 
ENDBRANCH  38  61
ENDBRANCH  12  13
ENDBRANCH   5   7
ENDBRANCH   4   5
ENDBRANCH   3   4
ENDBRANCH   2   3
ENDBRANCH   1   2
BRANCH   1  72
ATOM     72  C   UNL A   1      32.891  35.720  30.973  1.00  0.00     0.338 C 
ATOM     73  O   UNL A   1      32.339  36.765  31.219  1.00  0.00    -0.246 OA
BRANCH  72  74
ATOM     74  C   UNL A   1      33.818  35.029  31.885  1.00  0.00     0.060 A 
ATOM     75  C   UNL A   1      34.369  35.727  32.961  1.00  0.00     0.018 A 
ATOM     76  C   UNL A   1      34.127  33.686  31.671  1.00  0.00     0.018 A 
ATOM     77  C   UNL A   1      35.176  35.060  33.883  1.00  0.00     0.029 A 
ATOM     78  C   UNL A   1      34.999  33.034  32.548  1.00  0.00     0.029 A 
ATOM     79  C   UNL A   1      35.511  33.718  33.665  1.00  0.00     0.066 A 
BRANCH  79  80
ATOM     80  N   UNL A   1      36.407  33.084  34.555  1.00  0.00    -0.220 N 
ATOM     81  C   UNL A   1      37.325  32.106  34.272  1.00  0.00     0.141 A 
ATOM     82  N   UNL A   1      36.484  33.399  35.869  1.00  0.00    -0.062 NA
ATOM     83  C   UNL A   1      38.013  31.909  35.452  1.00  0.00     0.093 A 
ATOM     84  N   UNL A   1      37.426  32.653  36.432  1.00  0.00    -0.134 NA
BRANCH  83  85
ATOM     85  C   UNL A   1      39.153  31.007  35.707  1.00  0.00     0.138 C 
BRANCH  85  86
ATOM     86  S   UNL A   1      40.842  31.624  35.757  1.00  0.00    -0.081 SA
BRANCH  86  87
ATOM     87  C   UNL A   1      40.910  33.286  36.305  1.00  0.00     0.176 A 
ATOM     88  N   UNL A   1      41.177  33.364  37.576  1.00  0.00    -0.223 NA
ATOM     89  N   UNL A   1      40.729  34.420  35.522  1.00  0.00    -0.255 N 
ATOM     90  C   UNL A   1      41.157  34.620  38.187  1.00  0.00     0.079 A 
ATOM     91  C   UNL A   1      40.094  35.484  36.187  1.00  0.00     0.266 A 
ATOM     92  C   UNL A   1      41.737  34.819  39.441  1.00  0.00     0.029 A 
ATOM     93  C   UNL A   1      40.466  35.668  37.599  1.00  0.00     0.066 A 
ATOM     94  O   UNL A   1      39.276  36.264  35.703  1.00  0.00    -0.268 OA
ATOM     95  C   UNL A   1      41.557  36.032  40.117  1.00  0.00     0.002 A 
ATOM     96  C   UNL A   1      40.228  36.864  38.284  1.00  0.00     0.016 A 
ATOM     97  C   UNL A   1      40.770  37.039  39.555  1.00  0.00     0.001 A 
BRANCH  89  98
ATOM     98  C   UNL A   1      41.085  34.588  34.125  1.00  0.00     0.051 A 
ATOM     99  C   UNL A   1      40.183  34.220  33.107  1.00  0.00     0.028 A 
ATOM    100  C   UNL A   1      42.289  35.148  33.681  1.00  0.00     0.028 A 
ATOM    101  C   UNL A   1      40.559  34.156  31.761  1.00  0.00     0.018 A 
ATOM    102  C   UNL A   1      42.707  35.030  32.347  1.00  0.00     0.018 A 
ATOM    103  C   UNL A   1      41.854  34.482  31.402  1.00  0.00     0.018 A 
ATOM    104  Br  UNL A   1      42.461  34.157  29.647  1.00  0.00    -0.051 Br
ENDBRANCH  89  98
ENDBRANCH  86  87
ENDBRANCH  85  86
ENDBRANCH  83  85
ENDBRANCH  79  80
ENDBRANCH  72  74
ENDBRANCH   1  72
TORSDOF 16
ENDMDL
