MODEL 1
REMARK VINA RESULT:     -11.3      0.000      0.000
REMARK SMILES CC[C@@H](O)C[NH+]1CC(n2cc(C(=O)OCCOC(=O)c3ccc(-c4c5nc(c(-c6c(F)c(F)c(F)c(F)c6F)c6ccc([nH]6)c(-c6c(F)c(F)c(F)c(F)c6F)c6nc(c(-c7c(F)c(F)c(F)c(F)c7F)c7ccc4[nH]7)C=C6)C=C5)cc3)nn2)C1
REMARK SMILES IDX 15 1 14 2 12 3 13 4 11 5 9 6 10 7 84 8 83 9 8 10 6 11 7 12
REMARK SMILES IDX 85 13 5 15 3 16 2 17 1 18 4 19 16 21 17 22 18 23 19 24 20 25
REMARK SMILES IDX 21 26 82 27 22 28 81 29 23 30 24 31 25 32 75 33 26 34 80 35
REMARK SMILES IDX 74 36 76 37 27 38 79 39 73 40 72 41 28 43 60 44 40 45 59 46
REMARK SMILES IDX 41 47 44 48 58 49 77 50 42 51 43 52 57 54 78 55 45 56 29 57
REMARK SMILES IDX 30 58 38 59 31 60 32 61 36 62 39 63 33 64 34 65 37 66 35 67
REMARK SMILES IDX 61 68 62 69 70 70 63 71 64 72 68 73 71 74 65 75 66 76 69 77
REMARK SMILES IDX 67 78 46 79 47 80 55 81 48 82 49 83 53 84 56 85 50 86 51 87
REMARK SMILES IDX 54 88 52 89
REMARK H PARENT 6 14 4 20 76 42 44 53
REMARK Flexibility Score: inf
ROOT
ATOM      1  C   UNL A   1      33.152  34.205  27.987  1.00  0.00     0.275 C 
ENDROOT
BRANCH   1   2
ATOM      2  O   UNL A   1      32.601  34.644  29.237  1.00  0.00    -0.457 OA
BRANCH   2   3
ATOM      3  C   UNL A   1      32.893  35.933  29.596  1.00  0.00     0.360 C 
ATOM      4  O   UNL A   1      32.675  36.912  28.884  1.00  0.00    -0.244 OA
BRANCH   3   5
ATOM      5  C   UNL A   1      33.433  36.024  30.938  1.00  0.00     0.190 A 
ATOM      6  N   UNL A   1      34.339  35.649  32.863  1.00  0.00    -0.237 N 
ATOM      7  C   UNL A   1      33.944  35.011  31.727  1.00  0.00     0.147 A 
ATOM      8  N   UNL A   1      34.044  36.957  32.820  1.00  0.00    -0.066 NA
ATOM      9  N   UNL A   1      33.476  37.201  31.648  1.00  0.00    -0.123 NA
BRANCH   6  10
ATOM     10  C   UNL A   1      35.034  35.016  33.934  1.00  0.00     0.218 C 
ATOM     11  N   UNL A   1      36.242  33.357  34.346  1.00  0.00    -0.329 N 
ATOM     12  C   UNL A   1      36.501  34.645  33.641  1.00  0.00     0.296 C 
ATOM     13  C   UNL A   1      34.810  33.484  33.939  1.00  0.00     0.296 C 
ATOM     14  H   UNL A   1      36.534  33.222  35.313  1.00  0.00     0.348 HD
BRANCH  11  15
ATOM     15  C   UNL A   1      36.862  32.209  33.665  1.00  0.00     0.294 C 
BRANCH  15  16
ATOM     16  C   UNL A   1      37.886  31.403  34.497  1.00  0.00     0.169 C 
BRANCH  16  17
ATOM     17  C   UNL A   1      39.339  31.841  34.283  1.00  0.00     0.034 C 
ATOM     18  C   UNL A   1      39.565  32.372  32.872  1.00  0.00     0.007 C 
ENDBRANCH  16  17
BRANCH  16  19
ATOM     19  O   UNL A   1      37.537  31.549  35.878  1.00  0.00    -0.387 OA
ATOM     20  H   UNL A   1      36.619  31.267  36.011  1.00  0.00     0.211 HD
ENDBRANCH  16  19
ENDBRANCH  15  16
ENDBRANCH  11  15
ENDBRANCH   6  10
ENDBRANCH   3   5
ENDBRANCH   2   3
ENDBRANCH   1   2
BRANCH   1  21
ATOM     21  C   UNL A   1      34.516  33.565  28.196  1.00  0.00     0.275 C 
BRANCH  21  22
ATOM     22  O   UNL A   1      34.383  32.185  28.532  1.00  0.00    -0.458 OA
BRANCH  22  23
ATOM     23  C   UNL A   1      35.121  31.759  29.582  1.00  0.00     0.338 C 
ATOM     24  O   UNL A   1      34.896  31.950  30.766  1.00  0.00    -0.246 OA
BRANCH  23  25
ATOM     25  C   UNL A   1      36.400  31.252  29.072  1.00  0.00     0.060 A 
ATOM     26  C   UNL A   1      36.482  29.882  28.802  1.00  0.00     0.016 A 
ATOM     27  C   UNL A   1      37.543  32.054  29.199  1.00  0.00     0.016 A 
ATOM     28  C   UNL A   1      37.719  29.277  28.866  1.00  0.00     0.010 A 
ATOM     29  C   UNL A   1      38.768  31.447  29.292  1.00  0.00     0.010 A 
ATOM     30  C   UNL A   1      38.825  30.059  29.206  1.00  0.00    -0.014 A 
BRANCH  30  31
ATOM     31  C   UNL A   1      40.100  29.407  29.398  1.00  0.00     0.031 A 
ATOM     32  C   UNL A   1      40.414  29.149  30.821  1.00  0.00     0.074 A 
ATOM     33  C   UNL A   1      40.817  28.945  28.358  1.00  0.00     0.049 A 
ATOM     34  N   UNL A   1      41.399  29.615  31.511  1.00  0.00    -0.248 NA
ATOM     35  C   UNL A   1      39.421  28.402  31.611  1.00  0.00     0.031 C 
ATOM     36  C   UNL A   1      40.441  28.885  26.943  1.00  0.00     0.029 A 
ATOM     37  N   UNL A   1      42.018  28.311  28.380  1.00  0.00    -0.354 N 
ATOM     38  C   UNL A   1      41.252  29.069  32.782  1.00  0.00     0.074 A 
ATOM     39  C   UNL A   1      39.934  28.496  32.837  1.00  0.00     0.031 C 
ATOM     40  C   UNL A   1      41.282  28.046  26.295  1.00  0.00     0.029 A 
ATOM     41  C   UNL A   1      42.313  27.610  27.220  1.00  0.00     0.049 A 
ATOM     42  H   UNL A   1      42.626  28.346  29.153  1.00  0.00     0.167 HD
ATOM     43  C   UNL A   1      42.325  28.899  33.599  1.00  0.00     0.037 A 
ATOM     44  C   UNL A   1      43.269  26.652  27.111  1.00  0.00     0.037 A 
ATOM     45  C   UNL A   1      43.422  29.744  33.205  1.00  0.00     0.049 A 
ATOM     46  C   UNL A   1      44.217  26.848  28.247  1.00  0.00     0.074 A 
ATOM     47  C   UNL A   1      43.575  31.111  33.057  1.00  0.00     0.029 A 
ATOM     48  N   UNL A   1      44.467  29.182  32.511  1.00  0.00    -0.354 N 
ATOM     49  N   UNL A   1      44.996  27.890  28.366  1.00  0.00    -0.248 NA
ATOM     50  C   UNL A   1      43.928  26.142  29.489  1.00  0.00     0.031 C 
ATOM     51  C   UNL A   1      44.368  31.267  31.883  1.00  0.00     0.029 A 
ATOM     52  C   UNL A   1      44.709  29.992  31.430  1.00  0.00     0.049 A 
ATOM     53  H   UNL A   1      44.949  28.356  32.745  1.00  0.00     0.167 HD
ATOM     54  C   UNL A   1      44.952  28.216  29.714  1.00  0.00     0.074 A 
ATOM     55  C   UNL A   1      44.322  27.070  30.366  1.00  0.00     0.031 C 
ATOM     56  C   UNL A   1      45.150  29.497  30.148  1.00  0.00     0.037 A 
BRANCH  43  57
ATOM     57  C   UNL A   1      42.498  27.700  34.496  1.00  0.00     0.064 A 
ATOM     58  C   UNL A   1      42.977  26.499  33.942  1.00  0.00     0.173 A 
ATOM     59  C   UNL A   1      41.937  27.593  35.789  1.00  0.00     0.173 A 
ATOM     60  F   UNL A   1      43.513  26.480  32.712  1.00  0.00    -0.203 F 
ATOM     61  C   UNL A   1      42.827  25.275  34.597  1.00  0.00     0.198 A 
ATOM     62  C   UNL A   1      41.841  26.380  36.464  1.00  0.00     0.198 A 
ATOM     63  F   UNL A   1      41.350  28.625  36.406  1.00  0.00    -0.203 F 
ATOM     64  F   UNL A   1      43.175  24.141  33.974  1.00  0.00    -0.200 F 
ATOM     65  C   UNL A   1      42.253  25.215  35.855  1.00  0.00     0.200 A 
ATOM     66  F   UNL A   1      41.265  26.343  37.674  1.00  0.00    -0.200 F 
ATOM     67  F   UNL A   1      42.048  24.037  36.456  1.00  0.00    -0.200 F 
ENDBRANCH  43  57
BRANCH  44  68
ATOM     68  C   UNL A   1      43.164  25.378  26.353  1.00  0.00     0.064 A 
ATOM     69  C   UNL A   1      44.091  25.045  25.353  1.00  0.00     0.173 A 
ATOM     70  C   UNL A   1      42.298  24.343  26.765  1.00  0.00     0.173 A 
ATOM     71  F   UNL A   1      44.991  25.949  24.941  1.00  0.00    -0.203 F 
ATOM     72  C   UNL A   1      44.150  23.757  24.803  1.00  0.00     0.198 A 
ATOM     73  C   UNL A   1      42.349  23.065  26.210  1.00  0.00     0.198 A 
ATOM     74  F   UNL A   1      41.441  24.520  27.781  1.00  0.00    -0.203 F 
ATOM     75  F   UNL A   1      45.083  23.462  23.889  1.00  0.00    -0.200 F 
ATOM     76  C   UNL A   1      43.282  22.768  25.237  1.00  0.00     0.200 A 
ATOM     77  F   UNL A   1      41.528  22.109  26.667  1.00  0.00    -0.200 F 
ATOM     78  F   UNL A   1      43.370  21.523  24.748  1.00  0.00    -0.200 F 
ENDBRANCH  44  68
BRANCH  56  79
ATOM     79  C   UNL A   1      45.622  30.524  29.157  1.00  0.00     0.064 A 
ATOM     80  C   UNL A   1      46.973  30.722  28.819  1.00  0.00     0.173 A 
ATOM     81  C   UNL A   1      44.664  31.203  28.392  1.00  0.00     0.173 A 
ATOM     82  F   UNL A   1      47.944  30.029  29.426  1.00  0.00    -0.203 F 
ATOM     83  C   UNL A   1      47.344  31.587  27.790  1.00  0.00     0.198 A 
ATOM     84  C   UNL A   1      45.035  32.037  27.341  1.00  0.00     0.198 A 
ATOM     85  F   UNL A   1      43.357  31.009  28.628  1.00  0.00    -0.203 F 
ATOM     86  F   UNL A   1      48.641  31.757  27.490  1.00  0.00    -0.200 F 
ATOM     87  C   UNL A   1      46.374  32.236  27.046  1.00  0.00     0.200 A 
ATOM     88  F   UNL A   1      44.091  32.621  26.591  1.00  0.00    -0.200 F 
ATOM     89  F   UNL A   1      46.727  33.029  26.025  1.00  0.00    -0.200 F 
ENDBRANCH  56  79
ENDBRANCH  30  31
ENDBRANCH  23  25
ENDBRANCH  22  23
ENDBRANCH  21  22
ENDBRANCH   1  21
TORSDOF 16
ENDMDL
MODEL 2
REMARK VINA RESULT:     -11.0      0.594      1.300
REMARK SMILES CC[C@@H](O)C[NH+]1CC(n2cc(C(=O)OCCOC(=O)c3ccc(-c4c5nc(c(-c6c(F)c(F)c(F)c(F)c6F)c6ccc([nH]6)c(-c6c(F)c(F)c(F)c(F)c6F)c6nc(c(-c7c(F)c(F)c(F)c(F)c7F)c7ccc4[nH]7)C=C6)C=C5)cc3)nn2)C1
REMARK SMILES IDX 15 1 14 2 12 3 13 4 11 5 9 6 10 7 84 8 83 9 8 10 6 11 7 12
REMARK SMILES IDX 85 13 5 15 3 16 2 17 1 18 4 19 16 21 17 22 18 23 19 24 20 25
REMARK SMILES IDX 21 26 82 27 22 28 81 29 23 30 24 31 25 32 75 33 26 34 80 35
REMARK SMILES IDX 74 36 76 37 27 38 79 39 73 40 72 41 28 43 60 44 40 45 59 46
REMARK SMILES IDX 41 47 44 48 58 49 77 50 42 51 43 52 57 54 78 55 45 56 29 57
REMARK SMILES IDX 30 58 38 59 31 60 32 61 36 62 39 63 33 64 34 65 37 66 35 67
REMARK SMILES IDX 61 68 62 69 70 70 63 71 64 72 68 73 71 74 65 75 66 76 69 77
REMARK SMILES IDX 67 78 46 79 47 80 55 81 48 82 49 83 53 84 56 85 50 86 51 87
REMARK SMILES IDX 54 88 52 89
REMARK H PARENT 6 14 4 20 76 42 44 53
REMARK Flexibility Score: inf
ROOT
ATOM      1  C   UNL A   1      33.294  34.145  27.919  1.00  0.00     0.275 C 
ENDROOT
BRANCH   1   2
ATOM      2  O   UNL A   1      32.573  34.635  29.060  1.00  0.00    -0.457 OA
BRANCH   2   3
ATOM      3  C   UNL A   1      32.895  35.902  29.467  1.00  0.00     0.360 C 
ATOM      4  O   UNL A   1      32.807  36.899  28.753  1.00  0.00    -0.244 OA
BRANCH   3   5
ATOM      5  C   UNL A   1      33.297  35.949  30.860  1.00  0.00     0.190 A 
ATOM      6  N   UNL A   1      34.168  35.590  32.804  1.00  0.00    -0.237 N 
ATOM      7  C   UNL A   1      34.080  35.049  31.557  1.00  0.00     0.147 A 
ATOM      8  N   UNL A   1      33.443  36.715  32.904  1.00  0.00    -0.066 NA
ATOM      9  N   UNL A   1      32.892  36.942  31.721  1.00  0.00    -0.123 NA
BRANCH   6  10
ATOM     10  C   UNL A   1      34.977  35.059  33.850  1.00  0.00     0.218 C 
ATOM     11  N   UNL A   1      36.281  33.476  34.264  1.00  0.00    -0.329 N 
ATOM     12  C   UNL A   1      36.427  34.718  33.453  1.00  0.00     0.296 C 
ATOM     13  C   UNL A   1      34.816  33.525  33.978  1.00  0.00     0.296 C 
ATOM     14  H   UNL A   1      36.661  33.420  35.209  1.00  0.00     0.348 HD
BRANCH  11  15
ATOM     15  C   UNL A   1      36.886  32.303  33.611  1.00  0.00     0.294 C 
BRANCH  15  16
ATOM     16  C   UNL A   1      37.766  31.407  34.511  1.00  0.00     0.169 C 
BRANCH  16  17
ATOM     17  C   UNL A   1      39.270  31.586  34.280  1.00  0.00     0.034 C 
ATOM     18  C   UNL A   1      39.555  32.396  33.021  1.00  0.00     0.007 C 
ENDBRANCH  16  17
BRANCH  16  19
ATOM     19  O   UNL A   1      37.448  31.712  35.874  1.00  0.00    -0.387 OA
ATOM     20  H   UNL A   1      37.577  30.922  36.421  1.00  0.00     0.211 HD
ENDBRANCH  16  19
ENDBRANCH  15  16
ENDBRANCH  11  15
ENDBRANCH   6  10
ENDBRANCH   3   5
ENDBRANCH   2   3
ENDBRANCH   1   2
BRANCH   1  21
ATOM     21  C   UNL A   1      33.973  32.822  28.240  1.00  0.00     0.275 C 
BRANCH  21  22
ATOM     22  O   UNL A   1      35.110  33.026  29.077  1.00  0.00    -0.458 OA
BRANCH  22  23
ATOM     23  C   UNL A   1      35.445  31.990  29.879  1.00  0.00     0.338 C 
ATOM     24  O   UNL A   1      34.995  31.742  30.986  1.00  0.00    -0.246 OA
BRANCH  23  25
ATOM     25  C   UNL A   1      36.642  31.346  29.327  1.00  0.00     0.060 A 
ATOM     26  C   UNL A   1      36.585  29.964  29.115  1.00  0.00     0.016 A 
ATOM     27  C   UNL A   1      37.858  32.043  29.359  1.00  0.00     0.016 A 
ATOM     28  C   UNL A   1      37.763  29.251  29.143  1.00  0.00     0.010 A 
ATOM     29  C   UNL A   1      39.027  31.330  29.416  1.00  0.00     0.010 A 
ATOM     30  C   UNL A   1      38.953  29.940  29.389  1.00  0.00    -0.014 A 
BRANCH  30  31
ATOM     31  C   UNL A   1      40.173  29.181  29.545  1.00  0.00     0.031 A 
ATOM     32  C   UNL A   1      40.557  28.978  30.959  1.00  0.00     0.074 A 
ATOM     33  C   UNL A   1      40.772  28.591  28.494  1.00  0.00     0.049 A 
ATOM     34  N   UNL A   1      41.625  29.387  31.555  1.00  0.00    -0.248 NA
ATOM     35  C   UNL A   1      39.555  28.379  31.857  1.00  0.00     0.031 C 
ATOM     36  C   UNL A   1      40.297  28.484  27.112  1.00  0.00     0.029 A 
ATOM     37  N   UNL A   1      41.907  27.846  28.483  1.00  0.00    -0.354 N 
ATOM     38  C   UNL A   1      41.515  28.934  32.866  1.00  0.00     0.074 A 
ATOM     39  C   UNL A   1      40.156  28.495  33.039  1.00  0.00     0.031 C 
ATOM     40  C   UNL A   1      41.011  27.531  26.470  1.00  0.00     0.029 A 
ATOM     41  C   UNL A   1      42.058  27.053  27.356  1.00  0.00     0.049 A 
ATOM     42  H   UNL A   1      42.567  27.869  29.213  1.00  0.00     0.167 HD
ATOM     43  C   UNL A   1      42.621  28.711  33.624  1.00  0.00     0.037 A 
ATOM     44  C   UNL A   1      42.911  26.002  27.250  1.00  0.00     0.037 A 
ATOM     45  C   UNL A   1      43.762  29.421  33.109  1.00  0.00     0.049 A 
ATOM     46  C   UNL A   1      43.948  26.173  28.310  1.00  0.00     0.074 A 
ATOM     47  C   UNL A   1      44.029  30.756  32.862  1.00  0.00     0.029 A 
ATOM     48  N   UNL A   1      44.701  28.721  32.389  1.00  0.00    -0.354 N 
ATOM     49  N   UNL A   1      44.826  27.141  28.312  1.00  0.00    -0.248 NA
ATOM     50  C   UNL A   1      43.680  25.573  29.612  1.00  0.00     0.031 C 
ATOM     51  C   UNL A   1      44.752  30.765  31.634  1.00  0.00     0.029 A 
ATOM     52  C   UNL A   1      44.943  29.438  31.245  1.00  0.00     0.049 A 
ATOM     53  H   UNL A   1      45.120  27.867  32.646  1.00  0.00     0.167 HD
ATOM     54  C   UNL A   1      44.904  27.549  29.637  1.00  0.00     0.074 A 
ATOM     55  C   UNL A   1      44.217  26.509  30.400  1.00  0.00     0.031 C 
ATOM     56  C   UNL A   1      45.248  28.828  29.973  1.00  0.00     0.037 A 
BRANCH  43  57
ATOM     57  C   UNL A   1      42.743  27.556  34.585  1.00  0.00     0.064 A 
ATOM     58  C   UNL A   1      43.134  26.298  34.092  1.00  0.00     0.173 A 
ATOM     59  C   UNL A   1      42.209  27.558  35.894  1.00  0.00     0.173 A 
ATOM     60  F   UNL A   1      43.636  26.176  32.853  1.00  0.00    -0.203 F 
ATOM     61  C   UNL A   1      42.926  25.125  34.820  1.00  0.00     0.198 A 
ATOM     62  C   UNL A   1      42.056  26.393  36.640  1.00  0.00     0.198 A 
ATOM     63  F   UNL A   1      41.701  28.657  36.463  1.00  0.00    -0.203 F 
ATOM     64  F   UNL A   1      43.188  23.938  34.256  1.00  0.00    -0.200 F 
ATOM     65  C   UNL A   1      42.381  25.172  36.091  1.00  0.00     0.200 A 
ATOM     66  F   UNL A   1      41.509  26.460  37.862  1.00  0.00    -0.200 F 
ATOM     67  F   UNL A   1      42.120  24.044  36.764  1.00  0.00    -0.200 F 
ENDBRANCH  43  57
BRANCH  44  68
ATOM     68  C   UNL A   1      42.638  24.702  26.586  1.00  0.00     0.064 A 
ATOM     69  C   UNL A   1      43.415  24.257  25.504  1.00  0.00     0.173 A 
ATOM     70  C   UNL A   1      41.767  23.749  27.156  1.00  0.00     0.173 A 
ATOM     71  F   UNL A   1      44.311  25.078  24.938  1.00  0.00    -0.203 F 
ATOM     72  C   UNL A   1      43.328  22.943  25.027  1.00  0.00     0.198 A 
ATOM     73  C   UNL A   1      41.674  22.444  26.675  1.00  0.00     0.198 A 
ATOM     74  F   UNL A   1      41.053  24.034  28.254  1.00  0.00    -0.203 F 
ATOM     75  F   UNL A   1      44.124  22.540  24.027  1.00  0.00    -0.200 F 
ATOM     76  C   UNL A   1      42.462  22.037  25.617  1.00  0.00     0.200 A 
ATOM     77  F   UNL A   1      40.858  21.569  27.280  1.00  0.00    -0.200 F 
ATOM     78  F   UNL A   1      42.414  20.765  25.194  1.00  0.00    -0.200 F 
ENDBRANCH  44  68
BRANCH  56  79
ATOM     79  C   UNL A   1      45.745  29.745  28.890  1.00  0.00     0.064 A 
ATOM     80  C   UNL A   1      44.902  30.531  28.084  1.00  0.00     0.173 A 
ATOM     81  C   UNL A   1      47.124  29.971  28.788  1.00  0.00     0.173 A 
ATOM     82  F   UNL A   1      43.571  30.455  28.198  1.00  0.00    -0.203 F 
ATOM     83  C   UNL A   1      45.421  31.471  27.193  1.00  0.00     0.198 A 
ATOM     84  C   UNL A   1      47.638  30.936  27.925  1.00  0.00     0.198 A 
ATOM     85  F   UNL A   1      47.975  29.294  29.575  1.00  0.00    -0.203 F 
ATOM     86  F   UNL A   1      44.593  32.206  26.435  1.00  0.00    -0.200 F 
ATOM     87  C   UNL A   1      46.787  31.679  27.122  1.00  0.00     0.200 A 
ATOM     88  F   UNL A   1      48.956  31.170  27.899  1.00  0.00    -0.200 F 
ATOM     89  F   UNL A   1      47.284  32.616  26.302  1.00  0.00    -0.200 F 
ENDBRANCH  56  79
ENDBRANCH  30  31
ENDBRANCH  23  25
ENDBRANCH  22  23
ENDBRANCH  21  22
ENDBRANCH   1  21
TORSDOF 16
ENDMDL
MODEL 3
REMARK VINA RESULT:     -11.0      1.715      3.234
REMARK SMILES CC[C@@H](O)C[NH+]1CC(n2cc(C(=O)OCCOC(=O)c3ccc(-c4c5nc(c(-c6c(F)c(F)c(F)c(F)c6F)c6ccc([nH]6)c(-c6c(F)c(F)c(F)c(F)c6F)c6nc(c(-c7c(F)c(F)c(F)c(F)c7F)c7ccc4[nH]7)C=C6)C=C5)cc3)nn2)C1
REMARK SMILES IDX 15 1 14 2 12 3 13 4 11 5 9 6 10 7 84 8 83 9 8 10 6 11 7 12
REMARK SMILES IDX 85 13 5 15 3 16 2 17 1 18 4 19 16 21 17 22 18 23 19 24 20 25
REMARK SMILES IDX 21 26 82 27 22 28 81 29 23 30 24 31 25 32 75 33 26 34 80 35
REMARK SMILES IDX 74 36 76 37 27 38 79 39 73 40 72 41 28 43 60 44 40 45 59 46
REMARK SMILES IDX 41 47 44 48 58 49 77 50 42 51 43 52 57 54 78 55 45 56 29 57
REMARK SMILES IDX 30 58 38 59 31 60 32 61 36 62 39 63 33 64 34 65 37 66 35 67
REMARK SMILES IDX 61 68 62 69 70 70 63 71 64 72 68 73 71 74 65 75 66 76 69 77
REMARK SMILES IDX 67 78 46 79 47 80 55 81 48 82 49 83 53 84 56 85 50 86 51 87
REMARK SMILES IDX 54 88 52 89
REMARK H PARENT 6 14 4 20 76 42 44 53
REMARK Flexibility Score: inf
ROOT
ATOM      1  C   UNL A   1      35.357  34.944  33.843  1.00  0.00     0.275 C 
ENDROOT
BRANCH   1   2
ATOM      2  O   UNL A   1      33.982  35.265  33.587  1.00  0.00    -0.457 OA
BRANCH   2   3
ATOM      3  C   UNL A   1      33.760  36.443  32.923  1.00  0.00     0.360 C 
ATOM      4  O   UNL A   1      33.824  37.552  33.448  1.00  0.00    -0.244 OA
BRANCH   3   5
ATOM      5  C   UNL A   1      33.499  36.240  31.511  1.00  0.00     0.190 A 
ATOM      6  N   UNL A   1      33.481  35.569  29.458  1.00  0.00    -0.237 N 
ATOM      7  C   UNL A   1      34.143  35.389  30.634  1.00  0.00     0.147 A 
ATOM      8  N   UNL A   1      32.529  36.510  29.568  1.00  0.00    -0.066 NA
ATOM      9  N   UNL A   1      32.536  36.939  30.822  1.00  0.00    -0.123 NA
BRANCH   6  10
ATOM     10  C   UNL A   1      33.728  34.810  28.277  1.00  0.00     0.218 C 
ATOM     11  N   UNL A   1      34.143  32.860  27.644  1.00  0.00    -0.329 N 
ATOM     12  C   UNL A   1      32.900  33.518  28.138  1.00  0.00     0.296 C 
ATOM     13  C   UNL A   1      34.922  33.842  28.455  1.00  0.00     0.296 C 
ATOM     14  H   UNL A   1      34.299  32.716  26.647  1.00  0.00     0.348 HD
BRANCH  11  15
ATOM     15  C   UNL A   1      34.316  31.503  28.189  1.00  0.00     0.294 C 
BRANCH  15  16
ATOM     16  C   UNL A   1      34.030  30.340  27.211  1.00  0.00     0.169 C 
BRANCH  16  17
ATOM     17  C   UNL A   1      35.138  29.282  27.167  1.00  0.00     0.034 C 
ATOM     18  C   UNL A   1      36.504  29.884  27.476  1.00  0.00     0.007 C 
ENDBRANCH  16  17
BRANCH  16  19
ATOM     19  O   UNL A   1      32.797  29.730  27.608  1.00  0.00    -0.387 OA
ATOM     20  H   UNL A   1      32.532  30.072  28.475  1.00  0.00     0.211 HD
ENDBRANCH  16  19
ENDBRANCH  15  16
ENDBRANCH  11  15
ENDBRANCH   6  10
ENDBRANCH   3   5
ENDBRANCH   2   3
ENDBRANCH   1   2
BRANCH   1  21
ATOM     21  C   UNL A   1      35.556  33.436  33.893  1.00  0.00     0.275 C 
BRANCH  21  22
ATOM     22  O   UNL A   1      36.331  32.990  32.782  1.00  0.00    -0.458 OA
BRANCH  22  23
ATOM     23  C   UNL A   1      35.659  32.298  31.834  1.00  0.00     0.338 C 
ATOM     24  O   UNL A   1      34.452  32.134  31.760  1.00  0.00    -0.246 OA
BRANCH  23  25
ATOM     25  C   UNL A   1      36.631  31.536  31.042  1.00  0.00     0.060 A 
ATOM     26  C   UNL A   1      36.622  30.144  31.186  1.00  0.00     0.016 A 
ATOM     27  C   UNL A   1      37.713  32.216  30.465  1.00  0.00     0.016 A 
ATOM     28  C   UNL A   1      37.790  29.456  30.939  1.00  0.00     0.010 A 
ATOM     29  C   UNL A   1      38.881  31.535  30.249  1.00  0.00     0.010 A 
ATOM     30  C   UNL A   1      38.925  30.181  30.568  1.00  0.00    -0.014 A 
BRANCH  30  31
ATOM     31  C   UNL A   1      40.180  29.479  30.432  1.00  0.00     0.031 A 
ATOM     32  C   UNL A   1      40.875  29.273  31.721  1.00  0.00     0.074 A 
ATOM     33  C   UNL A   1      40.558  28.935  29.261  1.00  0.00     0.049 A 
ATOM     34  N   UNL A   1      42.030  29.724  32.078  1.00  0.00    -0.248 NA
ATOM     35  C   UNL A   1      40.124  28.612  32.801  1.00  0.00     0.031 C 
ATOM     36  C   UNL A   1      39.795  28.827  28.014  1.00  0.00     0.029 A 
ATOM     37  N   UNL A   1      41.695  28.246  28.981  1.00  0.00    -0.354 N 
ATOM     38  C   UNL A   1      42.232  29.246  33.369  1.00  0.00     0.074 A 
ATOM     39  C   UNL A   1      40.965  28.739  33.825  1.00  0.00     0.031 C 
ATOM     40  C   UNL A   1      40.390  27.919  27.207  1.00  0.00     0.029 A 
ATOM     41  C   UNL A   1      41.627  27.479  27.828  1.00  0.00     0.049 A 
ATOM     42  H   UNL A   1      42.497  28.289  29.549  1.00  0.00     0.167 HD
ATOM     43  C   UNL A   1      43.486  29.064  33.860  1.00  0.00     0.037 A 
ATOM     44  C   UNL A   1      42.481  26.473  27.511  1.00  0.00     0.037 A 
ATOM     45  C   UNL A   1      44.454  29.837  33.125  1.00  0.00     0.049 A 
ATOM     46  C   UNL A   1      43.718  26.677  28.321  1.00  0.00     0.074 A 
ATOM     47  C   UNL A   1      44.602  31.186  32.860  1.00  0.00     0.029 A 
ATOM     48  N   UNL A   1      45.241  29.194  32.199  1.00  0.00    -0.354 N 
ATOM     49  N   UNL A   1      44.532  27.685  28.155  1.00  0.00    -0.248 NA
ATOM     50  C   UNL A   1      43.770  26.044  29.634  1.00  0.00     0.031 C 
ATOM     51  C   UNL A   1      45.035  31.249  31.504  1.00  0.00     0.029 A 
ATOM     52  C   UNL A   1      45.192  29.940  31.049  1.00  0.00     0.049 A 
ATOM     53  H   UNL A   1      45.742  28.358  32.336  1.00  0.00     0.167 HD
ATOM     54  C   UNL A   1      44.882  28.076  29.440  1.00  0.00     0.074 A 
ATOM     55  C   UNL A   1      44.426  26.993  30.309  1.00  0.00     0.031 C 
ATOM     56  C   UNL A   1      45.236  29.365  29.726  1.00  0.00     0.037 A 
BRANCH  43  57
ATOM     57  C   UNL A   1      43.868  27.902  34.740  1.00  0.00     0.064 A 
ATOM     58  C   UNL A   1      43.656  26.593  34.271  1.00  0.00     0.173 A 
ATOM     59  C   UNL A   1      44.145  28.015  36.122  1.00  0.00     0.173 A 
ATOM     60  F   UNL A   1      43.366  26.370  32.980  1.00  0.00    -0.203 F 
ATOM     61  C   UNL A   1      43.638  25.495  35.133  1.00  0.00     0.198 A 
ATOM     62  C   UNL A   1      44.184  26.912  36.969  1.00  0.00     0.198 A 
ATOM     63  F   UNL A   1      44.270  29.197  36.737  1.00  0.00    -0.203 F 
ATOM     64  F   UNL A   1      43.298  24.287  34.663  1.00  0.00    -0.200 F 
ATOM     65  C   UNL A   1      43.896  25.656  36.483  1.00  0.00     0.200 A 
ATOM     66  F   UNL A   1      44.418  27.093  38.277  1.00  0.00    -0.200 F 
ATOM     67  F   UNL A   1      43.815  24.616  37.322  1.00  0.00    -0.200 F 
ENDBRANCH  43  57
BRANCH  44  68
ATOM     68  C   UNL A   1      42.125  25.171  26.889  1.00  0.00     0.064 A 
ATOM     69  C   UNL A   1      42.851  24.658  25.802  1.00  0.00     0.173 A 
ATOM     70  C   UNL A   1      41.221  24.280  27.506  1.00  0.00     0.173 A 
ATOM     71  F   UNL A   1      43.774  25.415  25.192  1.00  0.00    -0.203 F 
ATOM     72  C   UNL A   1      42.685  23.337  25.364  1.00  0.00     0.198 A 
ATOM     73  C   UNL A   1      41.049  22.969  27.063  1.00  0.00     0.198 A 
ATOM     74  F   UNL A   1      40.550  24.631  28.612  1.00  0.00    -0.203 F 
ATOM     75  F   UNL A   1      43.434  22.868  24.357  1.00  0.00    -0.200 F 
ATOM     76  C   UNL A   1      41.788  22.494  25.998  1.00  0.00     0.200 A 
ATOM     77  F   UNL A   1      40.204  22.155  27.712  1.00  0.00    -0.200 F 
ATOM     78  F   UNL A   1      41.665  21.216  25.613  1.00  0.00    -0.200 F 
ENDBRANCH  44  68
BRANCH  56  79
ATOM     79  C   UNL A   1      45.441  30.321  28.583  1.00  0.00     0.064 A 
ATOM     80  C   UNL A   1      44.412  31.096  28.018  1.00  0.00     0.173 A 
ATOM     81  C   UNL A   1      46.751  30.597  28.171  1.00  0.00     0.173 A 
ATOM     82  F   UNL A   1      43.147  30.972  28.436  1.00  0.00    -0.203 F 
ATOM     83  C   UNL A   1      44.682  32.071  27.059  1.00  0.00     0.198 A 
ATOM     84  C   UNL A   1      47.023  31.596  27.241  1.00  0.00     0.198 A 
ATOM     85  F   UNL A   1      47.781  29.932  28.719  1.00  0.00    -0.203 F 
ATOM     86  F   UNL A   1      43.681  32.795  26.535  1.00  0.00    -0.200 F 
ATOM     87  C   UNL A   1      45.988  32.327  26.679  1.00  0.00     0.200 A 
ATOM     88  F   UNL A   1      48.292  31.876  26.916  1.00  0.00    -0.200 F 
ATOM     89  F   UNL A   1      46.255  33.298  25.794  1.00  0.00    -0.200 F 
ENDBRANCH  56  79
ENDBRANCH  30  31
ENDBRANCH  23  25
ENDBRANCH  22  23
ENDBRANCH  21  22
ENDBRANCH   1  21
TORSDOF 16
ENDMDL
