MODEL 1
REMARK VINA RESULT:     -12.3      0.000      0.000
REMARK SMILES CCC(CC)COc1cc2c(cc1Cl)C=C(C(=O)OCCOC(=O)c1ccc(-c3c4nc(c(-c5c(F)c(F)c(F)c(F)c5F)c5ccc([nH]5)c(-c5c(F)c(F)c(F)c(F)c5F)c5nc(c(-c6c(F)c(F)c(F)c(F)c6F)c6ccc3[nH]6)C=C5)C=C4)cc1)[C@@H](C(F)(F)F)O2
REMARK SMILES IDX 20 1 19 2 17 3 18 4 16 5 8 6 9 7 13 8 10 9 12 10 14 11 11 12
REMARK SMILES IDX 93 13 15 14 88 15 7 16 6 17 3 18 2 19 1 20 4 21 5 22 89 23
REMARK SMILES IDX 90 24 91 25 92 26 21 27 22 28 23 29 24 30 25 31 26 32 87 33
REMARK SMILES IDX 27 34 86 35 28 36 29 37 30 38 80 39 31 40 85 41 79 42 81 43
REMARK SMILES IDX 32 44 84 45 78 46 77 47 33 49 65 50 45 51 64 52 46 53 49 54
REMARK SMILES IDX 63 55 82 56 47 57 48 58 62 60 83 61 50 62 34 63 35 64 43 65
REMARK SMILES IDX 36 66 37 67 41 68 44 69 38 70 39 71 42 72 40 73 66 74 67 75
REMARK SMILES IDX 75 76 68 77 69 78 73 79 76 80 70 81 71 82 74 83 72 84 51 85
REMARK SMILES IDX 52 86 60 87 53 88 54 89 58 90 61 91 55 92 56 93 59 94 57 95
REMARK H PARENT 81 48 49 59
REMARK Flexibility Score: inf
ROOT
ATOM      1  C   UNL A   1      31.430  28.662  24.730  1.00  0.00     0.275 C 
ENDROOT
BRANCH   1   2
ATOM      2  O   UNL A   1      32.304  27.614  25.207  1.00  0.00    -0.459 OA
BRANCH   2   3
ATOM      3  C   UNL A   1      31.748  26.815  26.146  1.00  0.00     0.338 C 
ATOM      4  O   UNL A   1      31.032  27.184  27.066  1.00  0.00    -0.246 OA
BRANCH   3   5
ATOM      5  C   UNL A   1      32.048  25.392  25.918  1.00  0.00     0.087 C 
ATOM      6  C   UNL A   1      34.563  21.201  24.855  1.00  0.00     0.141 A 
ATOM      7  C   UNL A   1      33.202  21.448  25.104  1.00  0.00     0.095 A 
ATOM      8  C   UNL A   1      35.463  22.268  24.767  1.00  0.00     0.083 A 
ATOM      9  C   UNL A   1      32.780  22.750  25.380  1.00  0.00     0.131 A 
ATOM     10  C   UNL A   1      35.068  23.530  25.181  1.00  0.00     0.036 A 
ATOM     11  Cl  UNL A   1      37.061  22.110  24.141  1.00  0.00    -0.080 Cl
ATOM     12  C   UNL A   1      33.734  23.757  25.511  1.00  0.00     0.019 A 
ATOM     13  O   UNL A   1      31.439  23.007  25.539  1.00  0.00    -0.475 OA
ATOM     14  C   UNL A   1      33.344  25.072  25.955  1.00  0.00     0.027 C 
ATOM     15  C   UNL A   1      31.024  24.415  25.409  1.00  0.00     0.316 C 
BRANCH   6  16
ATOM     16  O   UNL A   1      34.996  19.917  24.642  1.00  0.00    -0.492 OA
BRANCH  16  17
ATOM     17  C   UNL A   1      33.926  18.945  24.733  1.00  0.00     0.233 C 
BRANCH  17  18
ATOM     18  C   UNL A   1      34.347  17.538  24.229  1.00  0.00     0.026 C 
BRANCH  18  19
ATOM     19  C   UNL A   1      34.177  16.473  25.341  1.00  0.00     0.003 C 
ATOM     20  C   UNL A   1      32.867  15.699  25.243  1.00  0.00     0.004 C 
ENDBRANCH  18  19
BRANCH  18  21
ATOM     21  C   UNL A   1      33.625  17.137  22.924  1.00  0.00     0.003 C 
ATOM     22  C   UNL A   1      32.529  18.084  22.462  1.00  0.00     0.004 C 
ENDBRANCH  18  21
ENDBRANCH  17  18
ENDBRANCH  16  17
ENDBRANCH   6  16
BRANCH  15  23
ATOM     23  C   UNL A   1      30.672  24.760  23.949  1.00  0.00     0.430 C 
ATOM     24  F   UNL A   1      30.201  23.686  23.276  1.00  0.00    -0.167 F 
ATOM     25  F   UNL A   1      29.707  25.712  23.896  1.00  0.00    -0.167 F 
ATOM     26  F   UNL A   1      31.737  25.236  23.262  1.00  0.00    -0.167 F 
ENDBRANCH  15  23
ENDBRANCH   3   5
ENDBRANCH   2   3
ENDBRANCH   1   2
BRANCH   1  27
ATOM     27  C   UNL A   1      31.595  29.957  25.527  1.00  0.00     0.275 C 
BRANCH  27  28
ATOM     28  O   UNL A   1      32.981  30.216  25.822  1.00  0.00    -0.458 OA
BRANCH  28  29
ATOM     29  C   UNL A   1      33.217  31.078  26.834  1.00  0.00     0.338 C 
ATOM     30  O   UNL A   1      32.479  31.962  27.249  1.00  0.00    -0.246 OA
BRANCH  29  31
ATOM     31  C   UNL A   1      34.519  30.784  27.453  1.00  0.00     0.060 A 
ATOM     32  C   UNL A   1      35.377  31.804  27.852  1.00  0.00     0.016 A 
ATOM     33  C   UNL A   1      34.823  29.464  27.760  1.00  0.00     0.016 A 
ATOM     34  C   UNL A   1      36.559  31.480  28.534  1.00  0.00     0.010 A 
ATOM     35  C   UNL A   1      35.926  29.155  28.553  1.00  0.00     0.010 A 
ATOM     36  C   UNL A   1      36.838  30.153  28.918  1.00  0.00    -0.014 A 
BRANCH  36  37
ATOM     37  C   UNL A   1      38.084  29.788  29.656  1.00  0.00     0.031 A 
ATOM     38  C   UNL A   1      38.322  30.300  31.059  1.00  0.00     0.074 A 
ATOM     39  C   UNL A   1      39.033  29.033  29.064  1.00  0.00     0.049 A 
ATOM     40  N   UNL A   1      39.372  30.155  31.832  1.00  0.00    -0.248 NA
ATOM     41  C   UNL A   1      37.261  31.125  31.658  1.00  0.00     0.031 C 
ATOM     42  C   UNL A   1      38.983  28.531  27.690  1.00  0.00     0.029 A 
ATOM     43  N   UNL A   1      40.225  28.548  29.548  1.00  0.00    -0.354 N 
ATOM     44  C   UNL A   1      39.111  30.902  32.975  1.00  0.00     0.074 A 
ATOM     45  C   UNL A   1      37.837  31.553  32.771  1.00  0.00     0.031 C 
ATOM     46  C   UNL A   1      40.056  27.755  27.465  1.00  0.00     0.029 A 
ATOM     47  C   UNL A   1      40.893  27.738  28.660  1.00  0.00     0.049 A 
ATOM     48  H   UNL A   1      40.567  28.759  30.446  1.00  0.00     0.167 HD
ATOM     49  C   UNL A   1      39.839  31.007  34.112  1.00  0.00     0.037 A 
ATOM     50  C   UNL A   1      42.043  27.051  28.797  1.00  0.00     0.037 A 
ATOM     51  C   UNL A   1      41.063  30.294  34.359  1.00  0.00     0.049 A 
ATOM     52  C   UNL A   1      42.803  27.127  30.093  1.00  0.00     0.074 A 
ATOM     53  C   UNL A   1      41.827  30.263  35.513  1.00  0.00     0.029 A 
ATOM     54  N   UNL A   1      41.689  29.463  33.442  1.00  0.00    -0.354 N 
ATOM     55  N   UNL A   1      42.516  27.800  31.180  1.00  0.00    -0.248 NA
ATOM     56  C   UNL A   1      44.046  26.347  30.180  1.00  0.00     0.031 C 
ATOM     57  C   UNL A   1      42.927  29.430  35.287  1.00  0.00     0.029 A 
ATOM     58  C   UNL A   1      42.832  28.918  34.004  1.00  0.00     0.049 A 
ATOM     59  H   UNL A   1      41.369  29.288  32.528  1.00  0.00     0.167 HD
ATOM     60  C   UNL A   1      43.536  27.522  32.080  1.00  0.00     0.074 A 
ATOM     61  C   UNL A   1      44.434  26.594  31.423  1.00  0.00     0.031 C 
ATOM     62  C   UNL A   1      43.716  28.000  33.334  1.00  0.00     0.037 A 
BRANCH  49  63
ATOM     63  C   UNL A   1      39.311  31.899  35.201  1.00  0.00     0.064 A 
ATOM     64  C   UNL A   1      39.568  33.279  35.206  1.00  0.00     0.173 A 
ATOM     65  C   UNL A   1      38.502  31.380  36.223  1.00  0.00     0.173 A 
ATOM     66  F   UNL A   1      40.343  33.825  34.256  1.00  0.00    -0.203 F 
ATOM     67  C   UNL A   1      39.065  34.099  36.212  1.00  0.00     0.198 A 
ATOM     68  C   UNL A   1      37.974  32.209  37.210  1.00  0.00     0.198 A 
ATOM     69  F   UNL A   1      38.215  30.070  36.259  1.00  0.00    -0.203 F 
ATOM     70  F   UNL A   1      39.368  35.405  36.224  1.00  0.00    -0.200 F 
ATOM     71  C   UNL A   1      38.262  33.565  37.209  1.00  0.00     0.200 A 
ATOM     72  F   UNL A   1      37.186  31.695  38.165  1.00  0.00    -0.200 F 
ATOM     73  F   UNL A   1      37.771  34.358  38.171  1.00  0.00    -0.200 F 
ENDBRANCH  49  63
BRANCH  50  74
ATOM     74  C   UNL A   1      42.518  26.182  27.688  1.00  0.00     0.064 A 
ATOM     75  C   UNL A   1      43.481  26.648  26.782  1.00  0.00     0.173 A 
ATOM     76  C   UNL A   1      42.041  24.874  27.522  1.00  0.00     0.173 A 
ATOM     77  F   UNL A   1      43.949  27.900  26.888  1.00  0.00    -0.203 F 
ATOM     78  C   UNL A   1      43.944  25.841  25.745  1.00  0.00     0.198 A 
ATOM     79  C   UNL A   1      42.524  24.059  26.499  1.00  0.00     0.198 A 
ATOM     80  F   UNL A   1      41.123  24.381  28.364  1.00  0.00    -0.203 F 
ATOM     81  F   UNL A   1      44.842  26.321  24.874  1.00  0.00    -0.200 F 
ATOM     82  C   UNL A   1      43.471  24.544  25.609  1.00  0.00     0.200 A 
ATOM     83  F   UNL A   1      42.074  22.803  26.377  1.00  0.00    -0.200 F 
ATOM     84  F   UNL A   1      43.925  23.764  24.618  1.00  0.00    -0.200 F 
ENDBRANCH  50  74
BRANCH  62  85
ATOM     85  C   UNL A   1      44.930  27.534  34.084  1.00  0.00     0.064 A 
ATOM     86  C   UNL A   1      46.143  28.232  34.007  1.00  0.00     0.173 A 
ATOM     87  C   UNL A   1      44.862  26.417  34.929  1.00  0.00     0.173 A 
ATOM     88  F   UNL A   1      46.259  29.299  33.201  1.00  0.00    -0.203 F 
ATOM     89  C   UNL A   1      47.252  27.818  34.740  1.00  0.00     0.198 A 
ATOM     90  C   UNL A   1      45.966  26.022  35.680  1.00  0.00     0.198 A 
ATOM     91  F   UNL A   1      43.721  25.721  35.042  1.00  0.00    -0.203 F 
ATOM     92  F   UNL A   1      48.412  28.480  34.625  1.00  0.00    -0.200 F 
ATOM     93  C   UNL A   1      47.160  26.720  35.581  1.00  0.00     0.200 A 
ATOM     94  F   UNL A   1      45.873  24.967  36.501  1.00  0.00    -0.200 F 
ATOM     95  F   UNL A   1      48.227  26.330  36.293  1.00  0.00    -0.200 F 
ENDBRANCH  62  85
ENDBRANCH  36  37
ENDBRANCH  29  31
ENDBRANCH  28  29
ENDBRANCH  27  28
ENDBRANCH   1  27
TORSDOF 17
ENDMDL
MODEL 2
REMARK VINA RESULT:     -12.2      0.408      1.786
REMARK SMILES CCC(CC)COc1cc2c(cc1Cl)C=C(C(=O)OCCOC(=O)c1ccc(-c3c4nc(c(-c5c(F)c(F)c(F)c(F)c5F)c5ccc([nH]5)c(-c5c(F)c(F)c(F)c(F)c5F)c5nc(c(-c6c(F)c(F)c(F)c(F)c6F)c6ccc3[nH]6)C=C5)C=C4)cc1)[C@@H](C(F)(F)F)O2
REMARK SMILES IDX 20 1 19 2 17 3 18 4 16 5 8 6 9 7 13 8 10 9 12 10 14 11 11 12
REMARK SMILES IDX 93 13 15 14 88 15 7 16 6 17 3 18 2 19 1 20 4 21 5 22 89 23
REMARK SMILES IDX 90 24 91 25 92 26 21 27 22 28 23 29 24 30 25 31 26 32 87 33
REMARK SMILES IDX 27 34 86 35 28 36 29 37 30 38 80 39 31 40 85 41 79 42 81 43
REMARK SMILES IDX 32 44 84 45 78 46 77 47 33 49 65 50 45 51 64 52 46 53 49 54
REMARK SMILES IDX 63 55 82 56 47 57 48 58 62 60 83 61 50 62 34 63 35 64 43 65
REMARK SMILES IDX 36 66 37 67 41 68 44 69 38 70 39 71 42 72 40 73 66 74 67 75
REMARK SMILES IDX 75 76 68 77 69 78 73 79 76 80 70 81 71 82 74 83 72 84 51 85
REMARK SMILES IDX 52 86 60 87 53 88 54 89 58 90 61 91 55 92 56 93 59 94 57 95
REMARK H PARENT 81 48 49 59
REMARK Flexibility Score: inf
ROOT
ATOM      1  C   UNL A   1      31.418  28.840  24.960  1.00  0.00     0.275 C 
ENDROOT
BRANCH   1   2
ATOM      2  O   UNL A   1      32.281  27.791  25.455  1.00  0.00    -0.459 OA
BRANCH   2   3
ATOM      3  C   UNL A   1      31.706  26.995  26.385  1.00  0.00     0.338 C 
ATOM      4  O   UNL A   1      31.059  27.375  27.350  1.00  0.00    -0.246 OA
BRANCH   3   5
ATOM      5  C   UNL A   1      31.889  25.564  26.087  1.00  0.00     0.087 C 
ATOM      6  C   UNL A   1      34.059  21.234  24.836  1.00  0.00     0.141 A 
ATOM      7  C   UNL A   1      32.720  21.583  25.083  1.00  0.00     0.095 A 
ATOM      8  C   UNL A   1      35.046  22.225  24.812  1.00  0.00     0.083 A 
ATOM      9  C   UNL A   1      32.405  22.900  25.422  1.00  0.00     0.131 A 
ATOM     10  C   UNL A   1      34.752  23.493  25.287  1.00  0.00     0.036 A 
ATOM     11  Cl  UNL A   1      36.635  21.964  24.195  1.00  0.00    -0.080 Cl
ATOM     12  C   UNL A   1      33.438  23.815  25.614  1.00  0.00     0.019 A 
ATOM     13  O   UNL A   1      31.088  23.262  25.580  1.00  0.00    -0.475 OA
ATOM     14  C   UNL A   1      33.153  25.134  26.121  1.00  0.00     0.027 C 
ATOM     15  C   UNL A   1      30.794  24.704  25.518  1.00  0.00     0.316 C 
BRANCH   6  16
ATOM     16  O   UNL A   1      34.386  19.932  24.562  1.00  0.00    -0.492 OA
BRANCH  16  17
ATOM     17  C   UNL A   1      33.275  19.024  24.763  1.00  0.00     0.233 C 
BRANCH  17  18
ATOM     18  C   UNL A   1      33.659  17.539  24.517  1.00  0.00     0.026 C 
BRANCH  18  19
ATOM     19  C   UNL A   1      33.286  17.096  23.081  1.00  0.00     0.003 C 
ATOM     20  C   UNL A   1      32.433  18.114  22.335  1.00  0.00     0.004 C 
ENDBRANCH  18  19
BRANCH  18  21
ATOM     21  C   UNL A   1      35.139  17.249  24.850  1.00  0.00     0.003 C 
ATOM     22  C   UNL A   1      35.451  15.822  25.270  1.00  0.00     0.004 C 
ENDBRANCH  18  21
ENDBRANCH  17  18
ENDBRANCH  16  17
ENDBRANCH   6  16
BRANCH  15  23
ATOM     23  C   UNL A   1      30.494  25.151  24.074  1.00  0.00     0.430 C 
ATOM     24  F   UNL A   1      29.599  26.164  24.035  1.00  0.00    -0.167 F 
ATOM     25  F   UNL A   1      31.620  25.598  23.462  1.00  0.00    -0.167 F 
ATOM     26  F   UNL A   1      30.003  24.143  23.315  1.00  0.00    -0.167 F 
ENDBRANCH  15  23
ENDBRANCH   3   5
ENDBRANCH   2   3
ENDBRANCH   1   2
BRANCH   1  27
ATOM     27  C   UNL A   1      31.675  30.175  25.662  1.00  0.00     0.275 C 
BRANCH  27  28
ATOM     28  O   UNL A   1      33.068  30.333  25.990  1.00  0.00    -0.458 OA
BRANCH  28  29
ATOM     29  C   UNL A   1      33.349  31.249  26.942  1.00  0.00     0.338 C 
ATOM     30  O   UNL A   1      32.648  32.184  27.307  1.00  0.00    -0.246 OA
BRANCH  29  31
ATOM     31  C   UNL A   1      34.648  30.948  27.563  1.00  0.00     0.060 A 
ATOM     32  C   UNL A   1      35.531  31.962  27.921  1.00  0.00     0.016 A 
ATOM     33  C   UNL A   1      34.925  29.632  27.915  1.00  0.00     0.016 A 
ATOM     34  C   UNL A   1      36.710  31.635  28.607  1.00  0.00     0.010 A 
ATOM     35  C   UNL A   1      36.026  29.327  28.711  1.00  0.00     0.010 A 
ATOM     36  C   UNL A   1      36.962  30.317  29.036  1.00  0.00    -0.014 A 
BRANCH  36  37
ATOM     37  C   UNL A   1      38.205  29.949  29.778  1.00  0.00     0.031 A 
ATOM     38  C   UNL A   1      38.427  30.441  31.191  1.00  0.00     0.074 A 
ATOM     39  C   UNL A   1      39.165  29.212  29.183  1.00  0.00     0.049 A 
ATOM     40  N   UNL A   1      39.471  30.293  31.971  1.00  0.00    -0.248 NA
ATOM     41  C   UNL A   1      37.353  31.248  31.794  1.00  0.00     0.031 C 
ATOM     42  C   UNL A   1      39.131  28.731  27.801  1.00  0.00     0.029 A 
ATOM     43  N   UNL A   1      40.356  28.729  29.670  1.00  0.00    -0.354 N 
ATOM     44  C   UNL A   1      39.194  31.019  33.124  1.00  0.00     0.074 A 
ATOM     45  C   UNL A   1      37.916  31.663  32.919  1.00  0.00     0.031 C 
ATOM     46  C   UNL A   1      40.212  27.968  27.573  1.00  0.00     0.029 A 
ATOM     47  C   UNL A   1      41.039  27.939  28.775  1.00  0.00     0.049 A 
ATOM     48  H   UNL A   1      40.689  28.928  30.574  1.00  0.00     0.167 HD
ATOM     49  C   UNL A   1      39.911  31.112  34.269  1.00  0.00     0.037 A 
ATOM     50  C   UNL A   1      42.193  27.259  28.911  1.00  0.00     0.037 A 
ATOM     51  C   UNL A   1      41.138  30.405  34.515  1.00  0.00     0.049 A 
ATOM     52  C   UNL A   1      42.941  27.320  30.215  1.00  0.00     0.074 A 
ATOM     53  C   UNL A   1      41.892  30.362  35.675  1.00  0.00     0.029 A 
ATOM     54  N   UNL A   1      41.779  29.594  33.590  1.00  0.00    -0.354 N 
ATOM     55  N   UNL A   1      42.640  27.974  31.310  1.00  0.00    -0.248 NA
ATOM     56  C   UNL A   1      44.190  26.549  30.301  1.00  0.00     0.031 C 
ATOM     57  C   UNL A   1      43.002  29.542  35.445  1.00  0.00     0.029 A 
ATOM     58  C   UNL A   1      42.922  29.049  34.154  1.00  0.00     0.049 A 
ATOM     59  H   UNL A   1      41.469  29.430  32.671  1.00  0.00     0.167 HD
ATOM     60  C   UNL A   1      43.653  27.690  32.215  1.00  0.00     0.074 A 
ATOM     61  C   UNL A   1      44.565  26.780  31.551  1.00  0.00     0.031 C 
ATOM     62  C   UNL A   1      43.819  28.149  33.478  1.00  0.00     0.037 A 
BRANCH  49  63
ATOM     63  C   UNL A   1      39.366  31.982  35.367  1.00  0.00     0.064 A 
ATOM     64  C   UNL A   1      38.530  31.462  36.366  1.00  0.00     0.173 A 
ATOM     65  C   UNL A   1      39.717  33.339  35.447  1.00  0.00     0.173 A 
ATOM     66  F   UNL A   1      38.157  30.173  36.331  1.00  0.00    -0.203 F 
ATOM     67  C   UNL A   1      38.038  32.273  37.385  1.00  0.00     0.198 A 
ATOM     68  C   UNL A   1      39.249  34.140  36.486  1.00  0.00     0.198 A 
ATOM     69  F   UNL A   1      40.523  33.885  34.524  1.00  0.00    -0.203 F 
ATOM     70  F   UNL A   1      37.200  31.764  38.298  1.00  0.00    -0.200 F 
ATOM     71  C   UNL A   1      38.404  33.609  37.449  1.00  0.00     0.200 A 
ATOM     72  F   UNL A   1      39.615  35.428  36.555  1.00  0.00    -0.200 F 
ATOM     73  F   UNL A   1      37.937  34.386  38.436  1.00  0.00    -0.200 F 
ENDBRANCH  49  63
BRANCH  50  74
ATOM     74  C   UNL A   1      42.685  26.411  27.793  1.00  0.00     0.064 A 
ATOM     75  C   UNL A   1      42.280  25.073  27.685  1.00  0.00     0.173 A 
ATOM     76  C   UNL A   1      43.543  26.917  26.807  1.00  0.00     0.173 A 
ATOM     77  F   UNL A   1      41.478  24.539  28.618  1.00  0.00    -0.203 F 
ATOM     78  C   UNL A   1      42.723  24.269  26.637  1.00  0.00     0.198 A 
ATOM     79  C   UNL A   1      43.966  26.118  25.745  1.00  0.00     0.198 A 
ATOM     80  F   UNL A   1      43.955  28.191  26.864  1.00  0.00    -0.203 F 
ATOM     81  F   UNL A   1      42.346  22.985  26.574  1.00  0.00    -0.200 F 
ATOM     82  C   UNL A   1      43.559  24.794  25.663  1.00  0.00     0.200 A 
ATOM     83  F   UNL A   1      44.764  26.633  24.800  1.00  0.00    -0.200 F 
ATOM     84  F   UNL A   1      43.976  24.025  24.649  1.00  0.00    -0.200 F 
ENDBRANCH  50  74
BRANCH  62  85
ATOM     85  C   UNL A   1      45.030  27.681  34.230  1.00  0.00     0.064 A 
ATOM     86  C   UNL A   1      46.221  28.420  34.223  1.00  0.00     0.173 A 
ATOM     87  C   UNL A   1      44.980  26.517  35.011  1.00  0.00     0.173 A 
ATOM     88  F   UNL A   1      46.319  29.534  33.479  1.00  0.00    -0.203 F 
ATOM     89  C   UNL A   1      47.326  28.002  34.958  1.00  0.00     0.198 A 
ATOM     90  C   UNL A   1      46.079  26.116  35.766  1.00  0.00     0.198 A 
ATOM     91  F   UNL A   1      43.860  25.780  35.056  1.00  0.00    -0.203 F 
ATOM     92  F   UNL A   1      48.465  28.706  34.909  1.00  0.00    -0.200 F 
ATOM     93  C   UNL A   1      47.251  26.856  35.736  1.00  0.00     0.200 A 
ATOM     94  F   UNL A   1      46.002  25.014  36.525  1.00  0.00    -0.200 F 
ATOM     95  F   UNL A   1      48.313  26.461  36.452  1.00  0.00    -0.200 F 
ENDBRANCH  62  85
ENDBRANCH  36  37
ENDBRANCH  29  31
ENDBRANCH  28  29
ENDBRANCH  27  28
ENDBRANCH   1  27
TORSDOF 17
ENDMDL
MODEL 3
REMARK VINA RESULT:     -12.0      1.404      2.699
REMARK SMILES CCC(CC)COc1cc2c(cc1Cl)C=C(C(=O)OCCOC(=O)c1ccc(-c3c4nc(c(-c5c(F)c(F)c(F)c(F)c5F)c5ccc([nH]5)c(-c5c(F)c(F)c(F)c(F)c5F)c5nc(c(-c6c(F)c(F)c(F)c(F)c6F)c6ccc3[nH]6)C=C5)C=C4)cc1)[C@@H](C(F)(F)F)O2
REMARK SMILES IDX 20 1 19 2 17 3 18 4 16 5 8 6 9 7 13 8 10 9 12 10 14 11 11 12
REMARK SMILES IDX 93 13 15 14 88 15 7 16 6 17 3 18 2 19 1 20 4 21 5 22 89 23
REMARK SMILES IDX 90 24 91 25 92 26 21 27 22 28 23 29 24 30 25 31 26 32 87 33
REMARK SMILES IDX 27 34 86 35 28 36 29 37 30 38 80 39 31 40 85 41 79 42 81 43
REMARK SMILES IDX 32 44 84 45 78 46 77 47 33 49 65 50 45 51 64 52 46 53 49 54
REMARK SMILES IDX 63 55 82 56 47 57 48 58 62 60 83 61 50 62 34 63 35 64 43 65
REMARK SMILES IDX 36 66 37 67 41 68 44 69 38 70 39 71 42 72 40 73 66 74 67 75
REMARK SMILES IDX 75 76 68 77 69 78 73 79 76 80 70 81 71 82 74 83 72 84 51 85
REMARK SMILES IDX 52 86 60 87 53 88 54 89 58 90 61 91 55 92 56 93 59 94 57 95
REMARK H PARENT 81 48 49 59
REMARK Flexibility Score: inf
ROOT
ATOM      1  C   UNL A   1      31.289  30.969  26.075  1.00  0.00     0.275 C 
ENDROOT
BRANCH   1   2
ATOM      2  O   UNL A   1      32.221  29.961  26.528  1.00  0.00    -0.459 OA
BRANCH   2   3
ATOM      3  C   UNL A   1      32.712  29.179  25.539  1.00  0.00     0.338 C 
ATOM      4  O   UNL A   1      33.292  29.572  24.538  1.00  0.00    -0.246 OA
BRANCH   3   5
ATOM      5  C   UNL A   1      32.528  27.744  25.819  1.00  0.00     0.087 C 
ATOM      6  C   UNL A   1      33.349  22.813  25.970  1.00  0.00     0.141 A 
ATOM      7  C   UNL A   1      32.255  23.600  26.366  1.00  0.00     0.095 A 
ATOM      8  C   UNL A   1      34.431  23.402  25.307  1.00  0.00     0.083 A 
ATOM      9  C   UNL A   1      32.310  24.985  26.200  1.00  0.00     0.131 A 
ATOM     10  C   UNL A   1      34.543  24.782  25.276  1.00  0.00     0.036 A 
ATOM     11  Cl  UNL A   1      35.648  22.495  24.489  1.00  0.00    -0.080 Cl
ATOM     12  C   UNL A   1      33.493  25.566  25.747  1.00  0.00     0.019 A 
ATOM     13  O   UNL A   1      31.209  25.748  26.508  1.00  0.00    -0.475 OA
ATOM     14  C   UNL A   1      33.633  27.000  25.721  1.00  0.00     0.027 C 
ATOM     15  C   UNL A   1      31.172  27.105  25.933  1.00  0.00     0.316 C 
BRANCH   6  16
ATOM     16  O   UNL A   1      33.329  21.459  26.184  1.00  0.00    -0.492 OA
BRANCH  16  17
ATOM     17  C   UNL A   1      32.330  20.782  25.383  1.00  0.00     0.233 C 
BRANCH  17  18
ATOM     18  C   UNL A   1      32.943  20.015  24.179  1.00  0.00     0.026 C 
BRANCH  18  19
ATOM     19  C   UNL A   1      32.812  18.483  24.368  1.00  0.00     0.003 C 
ATOM     20  C   UNL A   1      32.884  17.704  23.061  1.00  0.00     0.004 C 
ENDBRANCH  18  19
BRANCH  18  21
ATOM     21  C   UNL A   1      32.368  20.485  22.825  1.00  0.00     0.003 C 
ATOM     22  C   UNL A   1      32.125  21.980  22.698  1.00  0.00     0.004 C 
ENDBRANCH  18  21
ENDBRANCH  17  18
ENDBRANCH  16  17
ENDBRANCH   6  16
BRANCH  15  23
ATOM     23  C   UNL A   1      30.490  27.106  24.551  1.00  0.00     0.430 C 
ATOM     24  F   UNL A   1      31.334  26.711  23.571  1.00  0.00    -0.167 F 
ATOM     25  F   UNL A   1      29.436  26.252  24.531  1.00  0.00    -0.167 F 
ATOM     26  F   UNL A   1      30.016  28.329  24.213  1.00  0.00    -0.167 F 
ENDBRANCH  15  23
ENDBRANCH   3   5
ENDBRANCH   2   3
ENDBRANCH   1   2
BRANCH   1  27
ATOM     27  C   UNL A   1      31.412  32.267  26.876  1.00  0.00     0.275 C 
BRANCH  27  28
ATOM     28  O   UNL A   1      32.739  32.820  26.774  1.00  0.00    -0.458 OA
BRANCH  28  29
ATOM     29  C   UNL A   1      33.155  33.551  27.830  1.00  0.00     0.338 C 
ATOM     30  O   UNL A   1      32.604  34.525  28.327  1.00  0.00    -0.246 OA
BRANCH  29  31
ATOM     31  C   UNL A   1      34.392  32.979  28.382  1.00  0.00     0.060 A 
ATOM     32  C   UNL A   1      35.491  33.780  28.677  1.00  0.00     0.016 A 
ATOM     33  C   UNL A   1      34.401  31.635  28.737  1.00  0.00     0.016 A 
ATOM     34  C   UNL A   1      36.610  33.209  29.301  1.00  0.00     0.010 A 
ATOM     35  C   UNL A   1      35.454  31.101  29.475  1.00  0.00     0.010 A 
ATOM     36  C   UNL A   1      36.598  31.868  29.733  1.00  0.00    -0.014 A 
BRANCH  36  37
ATOM     37  C   UNL A   1      37.774  31.243  30.410  1.00  0.00     0.031 A 
ATOM     38  C   UNL A   1      38.081  31.558  31.858  1.00  0.00     0.074 A 
ATOM     39  C   UNL A   1      38.602  30.426  29.728  1.00  0.00     0.049 A 
ATOM     40  N   UNL A   1      39.094  31.176  32.597  1.00  0.00    -0.248 NA
ATOM     41  C   UNL A   1      37.152  32.461  32.556  1.00  0.00     0.031 C 
ATOM     42  C   UNL A   1      38.482  30.089  28.309  1.00  0.00     0.029 A 
ATOM     43  N   UNL A   1      39.706  29.719  30.141  1.00  0.00    -0.354 N 
ATOM     44  C   UNL A   1      38.944  31.824  33.817  1.00  0.00     0.074 A 
ATOM     45  C   UNL A   1      37.781  32.675  33.702  1.00  0.00     0.031 C 
ATOM     46  C   UNL A   1      39.429  29.193  27.986  1.00  0.00     0.029 A 
ATOM     47  C   UNL A   1      40.250  28.922  29.162  1.00  0.00     0.049 A 
ATOM     48  H   UNL A   1      40.073  29.778  31.052  1.00  0.00     0.167 HD
ATOM     49  C   UNL A   1      39.676  31.696  34.950  1.00  0.00     0.037 A 
ATOM     50  C   UNL A   1      41.285  28.061  29.209  1.00  0.00     0.037 A 
ATOM     51  C   UNL A   1      40.779  30.786  35.102  1.00  0.00     0.049 A 
ATOM     52  C   UNL A   1      42.042  27.881  30.496  1.00  0.00     0.074 A 
ATOM     53  C   UNL A   1      41.526  30.517  36.236  1.00  0.00     0.029 A 
ATOM     54  N   UNL A   1      41.278  29.977  34.092  1.00  0.00    -0.354 N 
ATOM     55  N   UNL A   1      41.856  28.467  31.653  1.00  0.00    -0.248 NA
ATOM     56  C   UNL A   1      43.156  26.921  30.481  1.00  0.00     0.031 C 
ATOM     57  C   UNL A   1      42.491  29.560  35.906  1.00  0.00     0.029 A 
ATOM     58  C   UNL A   1      42.325  29.210  34.577  1.00  0.00     0.049 A 
ATOM     59  H   UNL A   1      40.938  29.952  33.169  1.00  0.00     0.167 HD
ATOM     60  C   UNL A   1      42.819  27.944  32.504  1.00  0.00     0.074 A 
ATOM     61  C   UNL A   1      43.572  26.971  31.739  1.00  0.00     0.031 C 
ATOM     62  C   UNL A   1      43.065  28.250  33.800  1.00  0.00     0.037 A 
BRANCH  49  63
ATOM     63  C   UNL A   1      39.282  32.532  36.135  1.00  0.00     0.064 A 
ATOM     64  C   UNL A   1      38.363  32.065  37.088  1.00  0.00     0.173 A 
ATOM     65  C   UNL A   1      39.861  33.793  36.346  1.00  0.00     0.173 A 
ATOM     66  F   UNL A   1      37.775  30.869  36.928  1.00  0.00    -0.203 F 
ATOM     67  C   UNL A   1      38.013  32.842  38.188  1.00  0.00     0.198 A 
ATOM     68  C   UNL A   1      39.531  34.554  37.466  1.00  0.00     0.198 A 
ATOM     69  F   UNL A   1      40.753  34.283  35.473  1.00  0.00    -0.203 F 
ATOM     70  F   UNL A   1      37.094  32.395  39.056  1.00  0.00    -0.200 F 
ATOM     71  C   UNL A   1      38.602  34.082  38.380  1.00  0.00     0.200 A 
ATOM     72  F   UNL A   1      40.113  35.746  37.658  1.00  0.00    -0.200 F 
ATOM     73  F   UNL A   1      38.271  34.825  39.446  1.00  0.00    -0.200 F 
ENDBRANCH  49  63
BRANCH  50  74
ATOM     74  C   UNL A   1      41.628  27.257  28.006  1.00  0.00     0.064 A 
ATOM     75  C   UNL A   1      40.993  26.030  27.766  1.00  0.00     0.173 A 
ATOM     76  C   UNL A   1      42.573  27.698  27.070  1.00  0.00     0.173 A 
ATOM     77  F   UNL A   1      40.099  25.556  28.646  1.00  0.00    -0.203 F 
ATOM     78  C   UNL A   1      41.297  25.271  26.638  1.00  0.00     0.198 A 
ATOM     79  C   UNL A   1      42.858  26.950  25.929  1.00  0.00     0.198 A 
ATOM     80  F   UNL A   1      43.205  28.866  27.253  1.00  0.00    -0.203 F 
ATOM     81  F   UNL A   1      40.697  24.088  26.447  1.00  0.00    -0.200 F 
ATOM     82  C   UNL A   1      42.222  25.735  25.716  1.00  0.00     0.200 A 
ATOM     83  F   UNL A   1      43.744  27.407  25.034  1.00  0.00    -0.200 F 
ATOM     84  F   UNL A   1      42.506  25.011  24.625  1.00  0.00    -0.200 F 
ENDBRANCH  50  74
BRANCH  62  85
ATOM     85  C   UNL A   1      44.193  27.530  34.479  1.00  0.00     0.064 A 
ATOM     86  C   UNL A   1      43.976  26.331  35.172  1.00  0.00     0.173 A 
ATOM     87  C   UNL A   1      45.507  28.011  34.386  1.00  0.00     0.173 A 
ATOM     88  F   UNL A   1      42.734  25.839  35.298  1.00  0.00    -0.203 F 
ATOM     89  C   UNL A   1      45.034  25.646  35.761  1.00  0.00     0.198 A 
ATOM     90  C   UNL A   1      46.566  27.310  34.954  1.00  0.00     0.198 A 
ATOM     91  F   UNL A   1      45.765  29.151  33.727  1.00  0.00    -0.203 F 
ATOM     92  F   UNL A   1      44.800  24.519  36.448  1.00  0.00    -0.200 F 
ATOM     93  C   UNL A   1      46.329  26.130  35.645  1.00  0.00     0.200 A 
ATOM     94  F   UNL A   1      47.818  27.773  34.832  1.00  0.00    -0.200 F 
ATOM     95  F   UNL A   1      47.347  25.463  36.205  1.00  0.00    -0.200 F 
ENDBRANCH  62  85
ENDBRANCH  36  37
ENDBRANCH  29  31
ENDBRANCH  28  29
ENDBRANCH  27  28
ENDBRANCH   1  27
TORSDOF 17
ENDMDL
