MODEL 1
REMARK VINA RESULT:     -11.3      0.000      0.000
REMARK SMILES C/C(=C\C(=O)OCCOC(=O)c1ccc(-c2c3nc(c(-c4c(F)c(F)c(F)c(F)c4F)c4ccc([nH]4)c(-c4c(F)c(F)c(F)c(F)c4F)c4nc(c(-c5c(F)c(F)c(F)c(F)c5F)c5ccc2[nH]5)C=C4)C=C3)cc1)CSc1ccc(N)c(C)c1
REMARK SMILES IDX 7 1 6 2 4 3 5 4 3 5 1 6 2 7 75 8 76 9 77 10 78 11 84 12
REMARK SMILES IDX 79 13 82 14 80 15 83 16 81 17 8 20 9 21 10 22 11 23 12 24
REMARK SMILES IDX 13 25 74 26 14 27 73 28 15 29 16 30 17 31 67 32 18 33 72 34
REMARK SMILES IDX 66 35 68 36 19 37 71 38 65 39 64 40 20 42 52 43 32 44 51 45
REMARK SMILES IDX 33 46 36 47 50 48 69 49 34 50 35 51 49 53 70 54 37 55 21 56
REMARK SMILES IDX 22 57 30 58 23 59 24 60 28 61 31 62 25 63 26 64 29 65 27 66
REMARK SMILES IDX 53 67 54 68 62 69 55 70 56 71 60 72 63 73 57 74 58 75 61 76
REMARK SMILES IDX 59 77 38 78 39 79 47 80 40 81 41 82 45 83 48 84 42 85 43 86
REMARK SMILES IDX 46 87 44 88
REMARK H PARENT 81 18 81 19 68 41 36 52
REMARK Flexibility Score: inf
ROOT
ATOM      1  C   UNL A   1      42.593  21.157  26.133  1.00  0.00     0.275 C 
ENDROOT
BRANCH   1   2
ATOM      2  O   UNL A   1      41.278  21.223  25.550  1.00  0.00    -0.459 OA
BRANCH   2   3
ATOM      3  C   UNL A   1      40.247  21.302  26.418  1.00  0.00     0.330 C 
ATOM      4  O   UNL A   1      40.335  21.374  27.638  1.00  0.00    -0.247 OA
BRANCH   3   5
ATOM      5  C   UNL A   1      38.937  21.460  25.751  1.00  0.00     0.093 C 
ATOM      6  C   UNL A   1      38.371  23.884  26.192  1.00  0.00     0.040 C 
ATOM      7  C   UNL A   1      38.085  22.501  25.670  1.00  0.00    -0.056 C 
BRANCH   7   8
ATOM      8  C   UNL A   1      36.790  22.312  24.904  1.00  0.00     0.105 C 
BRANCH   8   9
ATOM      9  S   UNL A   1      35.320  22.024  25.936  1.00  0.00    -0.122 SA
BRANCH   9  10
ATOM     10  C   UNL A   1      34.432  20.691  25.142  1.00  0.00     0.008 A 
ATOM     11  C   UNL A   1      33.210  21.031  24.555  1.00  0.00     0.017 A 
ATOM     12  C   UNL A   1      34.901  19.386  24.981  1.00  0.00     0.020 A 
ATOM     13  C   UNL A   1      32.458  20.084  23.857  1.00  0.00     0.027 A 
ATOM     14  C   UNL A   1      34.154  18.426  24.261  1.00  0.00    -0.027 A 
ATOM     15  C   UNL A   1      32.896  18.765  23.735  1.00  0.00     0.034 A 
ATOM     16  C   UNL A   1      34.710  17.040  24.085  1.00  0.00     0.046 C 
BRANCH  15  17
ATOM     17  N   UNL A   1      32.151  17.873  22.971  1.00  0.00    -0.399 N 
ATOM     18  H   UNL A   1      32.456  17.622  22.070  1.00  0.00     0.156 HD
ATOM     19  H   UNL A   1      31.316  17.495  23.331  1.00  0.00     0.156 HD
ENDBRANCH  15  17
ENDBRANCH   9  10
ENDBRANCH   8   9
ENDBRANCH   7   8
ENDBRANCH   3   5
ENDBRANCH   2   3
ENDBRANCH   1   2
BRANCH   1  20
ATOM     20  C   UNL A   1      43.612  21.949  25.306  1.00  0.00     0.275 C 
BRANCH  20  21
ATOM     21  O   UNL A   1      43.043  23.156  24.760  1.00  0.00    -0.458 OA
BRANCH  21  22
ATOM     22  C   UNL A   1      43.749  24.279  25.023  1.00  0.00     0.338 C 
ATOM     23  O   UNL A   1      44.779  24.645  24.483  1.00  0.00    -0.246 OA
BRANCH  22  24
ATOM     24  C   UNL A   1      43.053  25.115  26.015  1.00  0.00     0.060 A 
ATOM     25  C   UNL A   1      43.568  26.390  26.256  1.00  0.00     0.016 A 
ATOM     26  C   UNL A   1      42.008  24.615  26.794  1.00  0.00     0.016 A 
ATOM     27  C   UNL A   1      43.074  27.156  27.307  1.00  0.00     0.010 A 
ATOM     28  C   UNL A   1      41.503  25.393  27.845  1.00  0.00     0.010 A 
ATOM     29  C   UNL A   1      42.054  26.656  28.125  1.00  0.00    -0.014 A 
BRANCH  29  30
ATOM     30  C   UNL A   1      41.621  27.452  29.300  1.00  0.00     0.031 A 
ATOM     31  C   UNL A   1      42.393  27.385  30.587  1.00  0.00     0.074 A 
ATOM     32  C   UNL A   1      40.574  28.289  29.186  1.00  0.00     0.049 A 
ATOM     33  N   UNL A   1      42.183  28.022  31.714  1.00  0.00    -0.248 NA
ATOM     34  C   UNL A   1      43.556  26.485  30.615  1.00  0.00     0.031 C 
ATOM     35  C   UNL A   1      39.769  28.467  27.977  1.00  0.00     0.029 A 
ATOM     36  N   UNL A   1      40.017  29.154  30.092  1.00  0.00    -0.354 N 
ATOM     37  C   UNL A   1      43.177  27.594  32.583  1.00  0.00     0.074 A 
ATOM     38  C   UNL A   1      43.979  26.627  31.863  1.00  0.00     0.031 C 
ATOM     39  C   UNL A   1      38.829  29.396  28.213  1.00  0.00     0.029 A 
ATOM     40  C   UNL A   1      38.944  29.853  29.595  1.00  0.00     0.049 A 
ATOM     41  H   UNL A   1      40.354  29.263  31.011  1.00  0.00     0.167 HD
ATOM     42  C   UNL A   1      43.402  27.978  33.863  1.00  0.00     0.037 A 
ATOM     43  C   UNL A   1      38.139  30.751  30.192  1.00  0.00     0.037 A 
ATOM     44  C   UNL A   1      42.613  28.950  34.575  1.00  0.00     0.049 A 
ATOM     45  C   UNL A   1      38.393  31.134  31.622  1.00  0.00     0.074 A 
ATOM     46  C   UNL A   1      42.770  29.410  35.872  1.00  0.00     0.029 A 
ATOM     47  N   UNL A   1      41.516  29.615  34.048  1.00  0.00    -0.354 N 
ATOM     48  N   UNL A   1      39.338  30.727  32.434  1.00  0.00    -0.248 NA
ATOM     49  C   UNL A   1      37.467  32.107  32.220  1.00  0.00     0.031 C 
ATOM     50  C   UNL A   1      41.747  30.326  36.141  1.00  0.00     0.029 A 
ATOM     51  C   UNL A   1      40.976  30.468  34.998  1.00  0.00     0.049 A 
ATOM     52  H   UNL A   1      41.170  29.497  33.133  1.00  0.00     0.167 HD
ATOM     53  C   UNL A   1      39.135  31.403  33.628  1.00  0.00     0.074 A 
ATOM     54  C   UNL A   1      37.985  32.263  33.431  1.00  0.00     0.031 C 
ATOM     55  C   UNL A   1      39.834  31.318  34.786  1.00  0.00     0.037 A 
BRANCH  42  56
ATOM     56  C   UNL A   1      44.540  27.325  34.591  1.00  0.00     0.064 A 
ATOM     57  C   UNL A   1      45.825  27.888  34.603  1.00  0.00     0.173 A 
ATOM     58  C   UNL A   1      44.332  26.144  35.319  1.00  0.00     0.173 A 
ATOM     59  F   UNL A   1      46.078  29.008  33.910  1.00  0.00    -0.203 F 
ATOM     60  C   UNL A   1      46.866  27.278  35.301  1.00  0.00     0.198 A 
ATOM     61  C   UNL A   1      45.369  25.551  36.034  1.00  0.00     0.198 A 
ATOM     62  F   UNL A   1      43.120  25.569  35.343  1.00  0.00    -0.203 F 
ATOM     63  F   UNL A   1      48.095  27.811  35.266  1.00  0.00    -0.200 F 
ATOM     64  C   UNL A   1      46.636  26.115  36.020  1.00  0.00     0.200 A 
ATOM     65  F   UNL A   1      45.142  24.432  36.737  1.00  0.00    -0.200 F 
ATOM     66  F   UNL A   1      47.637  25.533  36.694  1.00  0.00    -0.200 F 
ENDBRANCH  42  56
BRANCH  43  67
ATOM     67  C   UNL A   1      37.015  31.350  29.431  1.00  0.00     0.064 A 
ATOM     68  C   UNL A   1      35.892  30.588  29.081  1.00  0.00     0.173 A 
ATOM     69  C   UNL A   1      37.042  32.697  29.039  1.00  0.00     0.173 A 
ATOM     70  F   UNL A   1      35.833  29.291  29.412  1.00  0.00    -0.203 F 
ATOM     71  C   UNL A   1      34.843  31.149  28.355  1.00  0.00     0.198 A 
ATOM     72  C   UNL A   1      35.981  33.263  28.337  1.00  0.00     0.198 A 
ATOM     73  F   UNL A   1      38.096  33.465  29.351  1.00  0.00    -0.203 F 
ATOM     74  F   UNL A   1      33.798  30.390  27.998  1.00  0.00    -0.200 F 
ATOM     75  C   UNL A   1      34.885  32.486  27.990  1.00  0.00     0.200 A 
ATOM     76  F   UNL A   1      36.021  34.556  27.995  1.00  0.00    -0.200 F 
ATOM     77  F   UNL A   1      33.874  33.025  27.296  1.00  0.00    -0.200 F 
ENDBRANCH  43  67
BRANCH  55  78
ATOM     78  C   UNL A   1      39.390  32.196  35.918  1.00  0.00     0.064 A 
ATOM     79  C   UNL A   1      39.941  33.470  36.117  1.00  0.00     0.173 A 
ATOM     80  C   UNL A   1      38.388  31.766  36.801  1.00  0.00     0.173 A 
ATOM     81  F   UNL A   1      40.914  33.917  35.309  1.00  0.00    -0.203 F 
ATOM     82  C   UNL A   1      39.524  34.272  37.176  1.00  0.00     0.198 A 
ATOM     83  C   UNL A   1      37.955  32.581  37.843  1.00  0.00     0.198 A 
ATOM     84  F   UNL A   1      37.825  30.558  36.649  1.00  0.00    -0.203 F 
ATOM     85  F   UNL A   1      40.098  35.466  37.377  1.00  0.00    -0.200 F 
ATOM     86  C   UNL A   1      38.529  33.829  38.035  1.00  0.00     0.200 A 
ATOM     87  F   UNL A   1      36.987  32.156  38.668  1.00  0.00    -0.200 F 
ATOM     88  F   UNL A   1      38.130  34.602  39.054  1.00  0.00    -0.200 F 
ENDBRANCH  55  78
ENDBRANCH  29  30
ENDBRANCH  22  24
ENDBRANCH  21  22
ENDBRANCH  20  21
ENDBRANCH   1  20
TORSDOF 15
ENDMDL
MODEL 2
REMARK VINA RESULT:     -11.3      5.361     10.829
REMARK SMILES C/C(=C\C(=O)OCCOC(=O)c1ccc(-c2c3nc(c(-c4c(F)c(F)c(F)c(F)c4F)c4ccc([nH]4)c(-c4c(F)c(F)c(F)c(F)c4F)c4nc(c(-c5c(F)c(F)c(F)c(F)c5F)c5ccc2[nH]5)C=C4)C=C3)cc1)CSc1ccc(N)c(C)c1
REMARK SMILES IDX 7 1 6 2 4 3 5 4 3 5 1 6 2 7 75 8 76 9 77 10 78 11 84 12
REMARK SMILES IDX 79 13 82 14 80 15 83 16 81 17 8 20 9 21 10 22 11 23 12 24
REMARK SMILES IDX 13 25 74 26 14 27 73 28 15 29 16 30 17 31 67 32 18 33 72 34
REMARK SMILES IDX 66 35 68 36 19 37 71 38 65 39 64 40 20 42 52 43 32 44 51 45
REMARK SMILES IDX 33 46 36 47 50 48 69 49 34 50 35 51 49 53 70 54 37 55 21 56
REMARK SMILES IDX 22 57 30 58 23 59 24 60 28 61 31 62 25 63 26 64 29 65 27 66
REMARK SMILES IDX 53 67 54 68 62 69 55 70 56 71 60 72 63 73 57 74 58 75 61 76
REMARK SMILES IDX 59 77 38 78 39 79 47 80 40 81 41 82 45 83 48 84 42 85 43 86
REMARK SMILES IDX 46 87 44 88
REMARK H PARENT 81 18 81 19 68 41 36 52
REMARK Flexibility Score: inf
ROOT
ATOM      1  C   UNL A   1      34.079  34.829  29.302  1.00  0.00     0.275 C 
ENDROOT
BRANCH   1   2
ATOM      2  O   UNL A   1      33.644  34.536  30.643  1.00  0.00    -0.459 OA
BRANCH   2   3
ATOM      3  C   UNL A   1      34.395  33.652  31.331  1.00  0.00     0.330 C 
ATOM      4  O   UNL A   1      34.053  32.527  31.673  1.00  0.00    -0.247 OA
BRANCH   3   5
ATOM      5  C   UNL A   1      35.792  34.101  31.522  1.00  0.00     0.093 C 
ATOM      6  C   UNL A   1      35.894  34.575  34.002  1.00  0.00     0.040 C 
ATOM      7  C   UNL A   1      36.456  34.548  32.606  1.00  0.00    -0.056 C 
BRANCH   7   8
ATOM      8  C   UNL A   1      37.909  34.950  32.443  1.00  0.00     0.105 C 
BRANCH   8   9
ATOM      9  S   UNL A   1      38.594  34.696  30.777  1.00  0.00    -0.122 SA
BRANCH   9  10
ATOM     10  C   UNL A   1      40.162  33.876  31.025  1.00  0.00     0.008 A 
ATOM     11  C   UNL A   1      40.784  34.097  32.258  1.00  0.00     0.017 A 
ATOM     12  C   UNL A   1      40.754  32.973  30.140  1.00  0.00     0.020 A 
ATOM     13  C   UNL A   1      41.984  33.461  32.584  1.00  0.00     0.027 A 
ATOM     14  C   UNL A   1      41.960  32.311  30.470  1.00  0.00    -0.027 A 
ATOM     15  C   UNL A   1      42.607  32.595  31.684  1.00  0.00     0.034 A 
ATOM     16  C   UNL A   1      42.547  31.322  29.501  1.00  0.00     0.046 C 
BRANCH  15  17
ATOM     17  N   UNL A   1      43.762  31.929  32.078  1.00  0.00    -0.399 N 
ATOM     18  H   UNL A   1      44.361  32.334  32.746  1.00  0.00     0.156 HD
ATOM     19  H   UNL A   1      43.983  31.053  31.686  1.00  0.00     0.156 HD
ENDBRANCH  15  17
ENDBRANCH   9  10
ENDBRANCH   8   9
ENDBRANCH   7   8
ENDBRANCH   3   5
ENDBRANCH   2   3
ENDBRANCH   1   2
BRANCH   1  20
ATOM     20  C   UNL A   1      33.190  34.138  28.261  1.00  0.00     0.275 C 
BRANCH  20  21
ATOM     21  O   UNL A   1      33.954  33.306  27.366  1.00  0.00    -0.458 OA
BRANCH  21  22
ATOM     22  C   UNL A   1      33.875  31.981  27.625  1.00  0.00     0.338 C 
ATOM     23  O   UNL A   1      32.914  31.252  27.448  1.00  0.00    -0.246 OA
BRANCH  22  24
ATOM     24  C   UNL A   1      35.176  31.458  28.073  1.00  0.00     0.060 A 
ATOM     25  C   UNL A   1      35.211  30.146  28.549  1.00  0.00     0.016 A 
ATOM     26  C   UNL A   1      36.306  32.272  28.162  1.00  0.00     0.016 A 
ATOM     27  C   UNL A   1      36.360  29.653  29.158  1.00  0.00     0.010 A 
ATOM     28  C   UNL A   1      37.467  31.771  28.765  1.00  0.00     0.010 A 
ATOM     29  C   UNL A   1      37.491  30.468  29.292  1.00  0.00    -0.014 A 
BRANCH  29  30
ATOM     30  C   UNL A   1      38.664  29.950  30.038  1.00  0.00     0.031 A 
ATOM     31  C   UNL A   1      38.895  30.357  31.466  1.00  0.00     0.074 A 
ATOM     32  C   UNL A   1      39.484  29.059  29.452  1.00  0.00     0.049 A 
ATOM     33  N   UNL A   1      39.850  29.993  32.288  1.00  0.00    -0.248 NA
ATOM     34  C   UNL A   1      37.925  31.295  32.051  1.00  0.00     0.031 C 
ATOM     35  C   UNL A   1      39.342  28.561  28.083  1.00  0.00     0.029 A 
ATOM     36  N   UNL A   1      40.587  28.405  29.935  1.00  0.00    -0.354 N 
ATOM     37  C   UNL A   1      39.602  30.664  33.478  1.00  0.00     0.074 A 
ATOM     38  C   UNL A   1      38.420  31.473  33.268  1.00  0.00     0.031 C 
ATOM     39  C   UNL A   1      40.314  27.667  27.842  1.00  0.00     0.029 A 
ATOM     40  C   UNL A   1      41.164  27.555  29.024  1.00  0.00     0.049 A 
ATOM     41  H   UNL A   1      40.933  28.532  30.849  1.00  0.00     0.167 HD
ATOM     42  C   UNL A   1      40.296  30.603  34.641  1.00  0.00     0.037 A 
ATOM     43  C   UNL A   1      42.262  26.784  29.127  1.00  0.00     0.037 A 
ATOM     44  C   UNL A   1      41.463  29.788  34.854  1.00  0.00     0.049 A 
ATOM     45  C   UNL A   1      43.030  26.761  30.418  1.00  0.00     0.074 A 
ATOM     46  C   UNL A   1      42.228  29.655  36.002  1.00  0.00     0.029 A 
ATOM     47  N   UNL A   1      42.036  28.963  33.898  1.00  0.00    -0.354 N 
ATOM     48  N   UNL A   1      42.785  27.395  31.539  1.00  0.00    -0.248 NA
ATOM     49  C   UNL A   1      44.229  25.911  30.460  1.00  0.00     0.031 C 
ATOM     50  C   UNL A   1      43.283  28.778  35.728  1.00  0.00     0.029 A 
ATOM     51  C   UNL A   1      43.153  28.332  34.422  1.00  0.00     0.049 A 
ATOM     52  H   UNL A   1      41.699  28.845  32.980  1.00  0.00     0.167 HD
ATOM     53  C   UNL A   1      43.783  27.009  32.423  1.00  0.00     0.074 A 
ATOM     54  C   UNL A   1      44.629  26.071  31.714  1.00  0.00     0.031 C 
ATOM     55  C   UNL A   1      43.983  27.400  33.705  1.00  0.00     0.037 A 
BRANCH  42  56
ATOM     56  C   UNL A   1      39.821  31.465  35.773  1.00  0.00     0.064 A 
ATOM     57  C   UNL A   1      40.504  32.632  36.147  1.00  0.00     0.173 A 
ATOM     58  C   UNL A   1      38.644  31.141  36.466  1.00  0.00     0.173 A 
ATOM     59  F   UNL A   1      41.641  32.977  35.525  1.00  0.00    -0.203 F 
ATOM     60  C   UNL A   1      40.038  33.431  37.189  1.00  0.00     0.198 A 
ATOM     61  C   UNL A   1      38.169  31.956  37.491  1.00  0.00     0.198 A 
ATOM     62  F   UNL A   1      37.952  30.038  36.144  1.00  0.00    -0.203 F 
ATOM     63  F   UNL A   1      40.727  34.520  37.556  1.00  0.00    -0.200 F 
ATOM     64  C   UNL A   1      38.868  33.096  37.855  1.00  0.00     0.200 A 
ATOM     65  F   UNL A   1      37.033  31.635  38.127  1.00  0.00    -0.200 F 
ATOM     66  F   UNL A   1      38.418  33.869  38.853  1.00  0.00    -0.200 F 
ENDBRANCH  42  56
BRANCH  43  67
ATOM     67  C   UNL A   1      42.698  25.967  27.967  1.00  0.00     0.064 A 
ATOM     68  C   UNL A   1      43.625  26.463  27.041  1.00  0.00     0.173 A 
ATOM     69  C   UNL A   1      42.195  24.673  27.763  1.00  0.00     0.173 A 
ATOM     70  F   UNL A   1      44.114  27.703  27.182  1.00  0.00    -0.203 F 
ATOM     71  C   UNL A   1      44.023  25.700  25.945  1.00  0.00     0.198 A 
ATOM     72  C   UNL A   1      42.615  23.901  26.682  1.00  0.00     0.198 A 
ATOM     73  F   UNL A   1      41.306  24.155  28.623  1.00  0.00    -0.203 F 
ATOM     74  F   UNL A   1      44.881  26.211  25.053  1.00  0.00    -0.200 F 
ATOM     75  C   UNL A   1      43.523  24.418  25.771  1.00  0.00     0.200 A 
ATOM     76  F   UNL A   1      42.137  22.660  26.523  1.00  0.00    -0.200 F 
ATOM     77  F   UNL A   1      43.911  23.683  24.720  1.00  0.00    -0.200 F 
ENDBRANCH  43  67
BRANCH  55  78
ATOM     78  C   UNL A   1      45.147  26.792  34.429  1.00  0.00     0.064 A 
ATOM     79  C   UNL A   1      45.027  25.576  35.118  1.00  0.00     0.173 A 
ATOM     80  C   UNL A   1      46.400  27.422  34.418  1.00  0.00     0.173 A 
ATOM     81  F   UNL A   1      43.845  24.945  35.172  1.00  0.00    -0.203 F 
ATOM     82  C   UNL A   1      46.114  25.027  35.792  1.00  0.00     0.198 A 
ATOM     83  C   UNL A   1      47.491  26.856  35.071  1.00  0.00     0.198 A 
ATOM     84  F   UNL A   1      46.567  28.584  33.768  1.00  0.00    -0.203 F 
ATOM     85  F   UNL A   1      45.966  23.888  36.485  1.00  0.00    -0.200 F 
ATOM     86  C   UNL A   1      47.345  25.664  35.765  1.00  0.00     0.200 A 
ATOM     87  F   UNL A   1      48.683  27.469  35.037  1.00  0.00    -0.200 F 
ATOM     88  F   UNL A   1      48.391  25.133  36.415  1.00  0.00    -0.200 F 
ENDBRANCH  55  78
ENDBRANCH  29  30
ENDBRANCH  22  24
ENDBRANCH  21  22
ENDBRANCH  20  21
ENDBRANCH   1  20
TORSDOF 15
ENDMDL
MODEL 3
REMARK VINA RESULT:     -11.2      3.909      8.833
REMARK SMILES C/C(=C\C(=O)OCCOC(=O)c1ccc(-c2c3nc(c(-c4c(F)c(F)c(F)c(F)c4F)c4ccc([nH]4)c(-c4c(F)c(F)c(F)c(F)c4F)c4nc(c(-c5c(F)c(F)c(F)c(F)c5F)c5ccc2[nH]5)C=C4)C=C3)cc1)CSc1ccc(N)c(C)c1
REMARK SMILES IDX 7 1 6 2 4 3 5 4 3 5 1 6 2 7 75 8 76 9 77 10 78 11 84 12
REMARK SMILES IDX 79 13 82 14 80 15 83 16 81 17 8 20 9 21 10 22 11 23 12 24
REMARK SMILES IDX 13 25 74 26 14 27 73 28 15 29 16 30 17 31 67 32 18 33 72 34
REMARK SMILES IDX 66 35 68 36 19 37 71 38 65 39 64 40 20 42 52 43 32 44 51 45
REMARK SMILES IDX 33 46 36 47 50 48 69 49 34 50 35 51 49 53 70 54 37 55 21 56
REMARK SMILES IDX 22 57 30 58 23 59 24 60 28 61 31 62 25 63 26 64 29 65 27 66
REMARK SMILES IDX 53 67 54 68 62 69 55 70 56 71 60 72 63 73 57 74 58 75 61 76
REMARK SMILES IDX 59 77 38 78 39 79 47 80 40 81 41 82 45 83 48 84 42 85 43 86
REMARK SMILES IDX 46 87 44 88
REMARK H PARENT 81 18 81 19 68 41 36 52
REMARK Flexibility Score: inf
ROOT
ATOM      1  C   UNL A   1      31.374  29.075  25.427  1.00  0.00     0.275 C 
ENDROOT
BRANCH   1   2
ATOM      2  O   UNL A   1      31.565  29.088  24.000  1.00  0.00    -0.459 OA
BRANCH   2   3
ATOM      3  C   UNL A   1      32.782  28.706  23.560  1.00  0.00     0.330 C 
ATOM      4  O   UNL A   1      33.494  29.324  22.778  1.00  0.00    -0.247 OA
BRANCH   3   5
ATOM      5  C   UNL A   1      33.294  27.498  24.244  1.00  0.00     0.093 C 
ATOM      6  C   UNL A   1      33.376  25.792  22.380  1.00  0.00     0.040 C 
ATOM      7  C   UNL A   1      33.511  26.240  23.811  1.00  0.00    -0.056 C 
BRANCH   7   8
ATOM      8  C   UNL A   1      34.037  25.221  24.802  1.00  0.00     0.105 C 
BRANCH   8   9
ATOM      9  S   UNL A   1      34.342  23.565  24.114  1.00  0.00    -0.122 SA
BRANCH   9  10
ATOM     10  C   UNL A   1      35.890  23.028  24.829  1.00  0.00     0.008 A 
ATOM     11  C   UNL A   1      36.310  21.738  24.489  1.00  0.00     0.017 A 
ATOM     12  C   UNL A   1      36.741  23.816  25.605  1.00  0.00     0.020 A 
ATOM     13  C   UNL A   1      37.531  21.235  24.943  1.00  0.00     0.027 A 
ATOM     14  C   UNL A   1      37.988  23.320  26.054  1.00  0.00    -0.027 A 
ATOM     15  C   UNL A   1      38.365  21.999  25.760  1.00  0.00     0.034 A 
ATOM     16  C   UNL A   1      38.889  24.213  26.862  1.00  0.00     0.046 C 
BRANCH  15  17
ATOM     17  N   UNL A   1      39.603  21.486  26.130  1.00  0.00    -0.399 N 
ATOM     18  H   UNL A   1      39.797  21.297  27.076  1.00  0.00     0.156 HD
ATOM     19  H   UNL A   1      40.288  21.312  25.444  1.00  0.00     0.156 HD
ENDBRANCH  15  17
ENDBRANCH   9  10
ENDBRANCH   8   9
ENDBRANCH   7   8
ENDBRANCH   3   5
ENDBRANCH   2   3
ENDBRANCH   1   2
BRANCH   1  20
ATOM     20  C   UNL A   1      31.797  30.405  26.061  1.00  0.00     0.275 C 
BRANCH  20  21
ATOM     21  O   UNL A   1      33.225  30.487  26.242  1.00  0.00    -0.458 OA
BRANCH  21  22
ATOM     22  C   UNL A   1      33.622  31.368  27.187  1.00  0.00     0.338 C 
ATOM     23  O   UNL A   1      32.970  32.283  27.662  1.00  0.00    -0.246 OA
BRANCH  22  24
ATOM     24  C   UNL A   1      34.963  31.027  27.690  1.00  0.00     0.060 A 
ATOM     25  C   UNL A   1      35.214  29.688  27.991  1.00  0.00     0.016 A 
ATOM     26  C   UNL A   1      35.907  32.010  27.995  1.00  0.00     0.016 A 
ATOM     27  C   UNL A   1      36.390  29.325  28.641  1.00  0.00     0.010 A 
ATOM     28  C   UNL A   1      37.096  31.642  28.639  1.00  0.00     0.010 A 
ATOM     29  C   UNL A   1      37.330  30.302  28.991  1.00  0.00    -0.014 A 
BRANCH  29  30
ATOM     30  C   UNL A   1      38.524  29.900  29.775  1.00  0.00     0.031 A 
ATOM     31  C   UNL A   1      38.713  30.400  31.180  1.00  0.00     0.074 A 
ATOM     32  C   UNL A   1      39.402  29.027  29.248  1.00  0.00     0.049 A 
ATOM     33  N   UNL A   1      39.678  30.143  32.029  1.00  0.00    -0.248 NA
ATOM     34  C   UNL A   1      37.681  31.310  31.702  1.00  0.00     0.031 C 
ATOM     35  C   UNL A   1      39.306  28.445  27.910  1.00  0.00     0.029 A 
ATOM     36  N   UNL A   1      40.537  28.470  29.778  1.00  0.00    -0.354 N 
ATOM     37  C   UNL A   1      39.376  30.863  33.177  1.00  0.00     0.074 A 
ATOM     38  C   UNL A   1      38.150  31.586  32.911  1.00  0.00     0.031 C 
ATOM     39  C   UNL A   1      40.333  27.599  27.728  1.00  0.00     0.029 A 
ATOM     40  C   UNL A   1      41.175  27.607  28.922  1.00  0.00     0.049 A 
ATOM     41  H   UNL A   1      40.863  28.670  30.686  1.00  0.00     0.167 HD
ATOM     42  C   UNL A   1      40.059  30.912  34.347  1.00  0.00     0.037 A 
ATOM     43  C   UNL A   1      42.316  26.910  29.078  1.00  0.00     0.037 A 
ATOM     44  C   UNL A   1      41.271  30.182  34.616  1.00  0.00     0.049 A 
ATOM     45  C   UNL A   1      43.068  27.008  30.375  1.00  0.00     0.074 A 
ATOM     46  C   UNL A   1      42.028  30.161  35.776  1.00  0.00     0.029 A 
ATOM     47  N   UNL A   1      41.903  29.341  33.713  1.00  0.00    -0.354 N 
ATOM     48  N   UNL A   1      42.772  27.688  31.455  1.00  0.00    -0.248 NA
ATOM     49  C   UNL A   1      44.315  26.236  30.475  1.00  0.00     0.031 C 
ATOM     50  C   UNL A   1      43.137  29.336  35.562  1.00  0.00     0.029 A 
ATOM     51  C   UNL A   1      43.049  28.810  34.283  1.00  0.00     0.049 A 
ATOM     52  H   UNL A   1      41.585  29.150  32.801  1.00  0.00     0.167 HD
ATOM     53  C   UNL A   1      43.781  27.415  32.368  1.00  0.00     0.074 A 
ATOM     54  C   UNL A   1      44.691  26.491  31.721  1.00  0.00     0.031 C 
ATOM     55  C   UNL A   1      43.943  27.890  33.627  1.00  0.00     0.037 A 
BRANCH  42  56
ATOM     56  C   UNL A   1      39.520  31.806  35.424  1.00  0.00     0.064 A 
ATOM     57  C   UNL A   1      38.606  31.339  36.380  1.00  0.00     0.173 A 
ATOM     58  C   UNL A   1      39.956  33.137  35.525  1.00  0.00     0.173 A 
ATOM     59  F   UNL A   1      38.149  30.080  36.318  1.00  0.00    -0.203 F 
ATOM     60  C   UNL A   1      38.132  32.179  37.386  1.00  0.00     0.198 A 
ATOM     61  C   UNL A   1      39.497  33.965  36.546  1.00  0.00     0.198 A 
ATOM     62  F   UNL A   1      40.833  33.630  34.637  1.00  0.00    -0.203 F 
ATOM     63  F   UNL A   1      37.229  31.724  38.266  1.00  0.00    -0.200 F 
ATOM     64  C   UNL A   1      38.582  33.488  37.472  1.00  0.00     0.200 A 
ATOM     65  F   UNL A   1      39.941  35.227  36.632  1.00  0.00    -0.200 F 
ATOM     66  F   UNL A   1      38.128  34.292  38.442  1.00  0.00    -0.200 F 
ENDBRANCH  42  56
BRANCH  43  67
ATOM     67  C   UNL A   1      42.814  26.057  27.971  1.00  0.00     0.064 A 
ATOM     68  C   UNL A   1      43.671  26.572  26.990  1.00  0.00     0.173 A 
ATOM     69  C   UNL A   1      42.441  24.708  27.873  1.00  0.00     0.173 A 
ATOM     70  F   UNL A   1      44.034  27.861  27.029  1.00  0.00    -0.203 F 
ATOM     71  C   UNL A   1      44.127  25.773  25.944  1.00  0.00     0.198 A 
ATOM     72  C   UNL A   1      42.919  23.903  26.842  1.00  0.00     0.198 A 
ATOM     73  F   UNL A   1      41.622  24.170  28.789  1.00  0.00    -0.203 F 
ATOM     74  F   UNL A   1      44.915  26.299  24.997  1.00  0.00    -0.200 F 
ATOM     75  C   UNL A   1      43.756  24.438  25.875  1.00  0.00     0.200 A 
ATOM     76  F   UNL A   1      42.567  22.612  26.785  1.00  0.00    -0.200 F 
ATOM     77  F   UNL A   1      44.200  23.669  24.871  1.00  0.00    -0.200 F 
ENDBRANCH  43  67
BRANCH  55  78
ATOM     78  C   UNL A   1      45.132  27.396  34.395  1.00  0.00     0.064 A 
ATOM     79  C   UNL A   1      45.072  26.227  35.169  1.00  0.00     0.173 A 
ATOM     80  C   UNL A   1      46.351  28.087  34.341  1.00  0.00     0.173 A 
ATOM     81  F   UNL A   1      43.923  25.541  35.265  1.00  0.00    -0.203 F 
ATOM     82  C   UNL A   1      46.182  25.784  35.882  1.00  0.00     0.198 A 
ATOM     83  C   UNL A   1      47.467  27.627  35.035  1.00  0.00     0.198 A 
ATOM     84  F   UNL A   1      46.462  29.207  33.611  1.00  0.00    -0.203 F 
ATOM     85  F   UNL A   1      46.089  24.692  36.653  1.00  0.00    -0.200 F 
ATOM     86  C   UNL A   1      47.379  26.481  35.811  1.00  0.00     0.200 A 
ATOM     87  F   UNL A   1      48.626  28.297  34.960  1.00  0.00    -0.200 F 
ATOM     88  F   UNL A   1      48.447  26.053  36.499  1.00  0.00    -0.200 F 
ENDBRANCH  55  78
ENDBRANCH  29  30
ENDBRANCH  22  24
ENDBRANCH  21  22
ENDBRANCH  20  21
ENDBRANCH   1  20
TORSDOF 15
ENDMDL
