MODEL 1
REMARK VINA RESULT:     -11.4      0.000      0.000
REMARK SMILES CC(C)COc1cccc(N2C[C@@H](C(=O)OCCOC(=O)c3ccc(-c4c5nc(c(-c6c(F)c(F)c(F)c(F)c6F)c6ccc([nH]6)c(-c6c(F)c(F)c(F)c(F)c6F)c6nc(c(-c7c(F)c(F)c(F)c(F)c7F)c7ccc4[nH]7)C=C6)C=C5)cc3)CC2=O)c1
REMARK SMILES IDX 17 1 16 2 14 3 15 4 13 5 11 6 12 7 86 8 85 9 87 10 10 11
REMARK SMILES IDX 6 12 7 13 88 14 8 15 9 16 5 17 4 18 2 19 1 20 3 21 18 22
REMARK SMILES IDX 19 23 20 24 21 25 22 26 23 27 84 28 24 29 83 30 25 31 26 32
REMARK SMILES IDX 27 33 77 34 28 35 82 36 76 37 78 38 29 39 81 40 75 41 74 42
REMARK SMILES IDX 30 44 62 45 42 46 61 47 43 48 46 49 60 50 79 51 44 52 45 53
REMARK SMILES IDX 59 55 80 56 47 57 31 58 32 59 40 60 33 61 34 62 38 63 41 64
REMARK SMILES IDX 35 65 36 66 39 67 37 68 63 69 64 70 72 71 65 72 66 73 70 74
REMARK SMILES IDX 73 75 67 76 68 77 71 78 69 79 48 80 49 81 57 82 50 83 51 84
REMARK SMILES IDX 55 85 58 86 52 87 53 88 56 89 54 90
REMARK H PARENT 78 43 46 54
REMARK Flexibility Score: inf
ROOT
ATOM      1  C   UNL A   1      33.194  34.999  28.645  1.00  0.00     0.274 C 
ENDROOT
BRANCH   1   2
ATOM      2  O   UNL A   1      34.472  34.352  28.802  1.00  0.00    -0.462 OA
BRANCH   2   3
ATOM      3  C   UNL A   1      34.461  33.058  29.203  1.00  0.00     0.311 C 
ATOM      4  O   UNL A   1      34.278  32.679  30.353  1.00  0.00    -0.252 OA
BRANCH   3   5
ATOM      5  C   UNL A   1      34.609  32.091  28.060  1.00  0.00     0.128 C 
ATOM      6  N   UNL A   1      33.568  30.279  27.039  1.00  0.00    -0.311 N 
ATOM      7  C   UNL A   1      33.258  31.531  27.684  1.00  0.00     0.141 C 
ATOM      8  C   UNL A   1      34.877  29.868  27.334  1.00  0.00     0.227 C 
ATOM      9  C   UNL A   1      35.471  30.868  28.290  1.00  0.00     0.117 C 
ATOM     10  O   UNL A   1      35.470  28.867  26.962  1.00  0.00    -0.274 OA
BRANCH   6  11
ATOM     11  C   UNL A   1      32.535  29.445  26.542  1.00  0.00     0.047 A 
ATOM     12  C   UNL A   1      31.442  28.590  24.577  1.00  0.00     0.121 A 
ATOM     13  C   UNL A   1      31.006  27.465  25.264  1.00  0.00     0.046 A 
ATOM     14  C   UNL A   1      32.075  29.634  25.242  1.00  0.00     0.072 A 
ATOM     15  C   UNL A   1      31.315  27.340  26.617  1.00  0.00     0.006 A 
ATOM     16  C   UNL A   1      32.117  28.302  27.239  1.00  0.00     0.026 A 
BRANCH  12  17
ATOM     17  O   UNL A   1      31.339  28.659  23.213  1.00  0.00    -0.493 OA
BRANCH  17  18
ATOM     18  C   UNL A   1      30.005  28.294  22.776  1.00  0.00     0.232 C 
BRANCH  18  19
ATOM     19  C   UNL A   1      29.003  29.475  22.819  1.00  0.00     0.020 C 
ATOM     20  C   UNL A   1      29.103  30.367  21.571  1.00  0.00     0.011 C 
ATOM     21  C   UNL A   1      27.561  28.977  22.928  1.00  0.00     0.011 C 
ENDBRANCH  18  19
ENDBRANCH  17  18
ENDBRANCH  12  17
ENDBRANCH   6  11
ENDBRANCH   3   5
ENDBRANCH   2   3
ENDBRANCH   1   2
BRANCH   1  22
ATOM     22  C   UNL A   1      32.967  35.999  29.780  1.00  0.00     0.275 C 
BRANCH  22  23
ATOM     23  O   UNL A   1      32.416  35.352  30.945  1.00  0.00    -0.458 OA
BRANCH  23  24
ATOM     24  C   UNL A   1      32.769  35.904  32.126  1.00  0.00     0.338 C 
ATOM     25  O   UNL A   1      32.204  36.806  32.728  1.00  0.00    -0.246 OA
BRANCH  24  26
ATOM     26  C   UNL A   1      33.903  35.176  32.701  1.00  0.00     0.060 A 
ATOM     27  C   UNL A   1      35.179  35.710  32.529  1.00  0.00     0.016 A 
ATOM     28  C   UNL A   1      33.736  33.920  33.278  1.00  0.00     0.016 A 
ATOM     29  C   UNL A   1      36.303  34.966  32.857  1.00  0.00     0.010 A 
ATOM     30  C   UNL A   1      34.867  33.198  33.678  1.00  0.00     0.010 A 
ATOM     31  C   UNL A   1      36.158  33.707  33.449  1.00  0.00    -0.014 A 
BRANCH  31  32
ATOM     32  C   UNL A   1      37.368  32.931  33.815  1.00  0.00     0.031 A 
ATOM     33  C   UNL A   1      38.034  33.157  35.141  1.00  0.00     0.074 A 
ATOM     34  C   UNL A   1      37.840  31.996  32.969  1.00  0.00     0.049 A 
ATOM     35  N   UNL A   1      39.173  32.690  35.583  1.00  0.00    -0.248 NA
ATOM     36  C   UNL A   1      37.325  34.021  36.098  1.00  0.00     0.031 C 
ATOM     37  C   UNL A   1      37.236  31.633  31.685  1.00  0.00     0.029 A 
ATOM     38  N   UNL A   1      38.934  31.175  33.065  1.00  0.00    -0.354 N 
ATOM     39  C   UNL A   1      39.336  33.228  36.852  1.00  0.00     0.074 A 
ATOM     40  C   UNL A   1      38.180  34.060  37.111  1.00  0.00     0.031 C 
ATOM     41  C   UNL A   1      37.956  30.651  31.123  1.00  0.00     0.029 A 
ATOM     42  C   UNL A   1      39.111  30.370  31.966  1.00  0.00     0.049 A 
ATOM     43  H   UNL A   1      39.535  31.164  33.844  1.00  0.00     0.167 HD
ATOM     44  C   UNL A   1      40.359  33.040  37.718  1.00  0.00     0.037 A 
ATOM     45  C   UNL A   1      40.116  29.531  31.655  1.00  0.00     0.037 A 
ATOM     46  C   UNL A   1      41.492  32.189  37.463  1.00  0.00     0.049 A 
ATOM     47  C   UNL A   1      41.274  29.399  32.603  1.00  0.00     0.074 A 
ATOM     48  C   UNL A   1      42.594  31.950  38.266  1.00  0.00     0.029 A 
ATOM     49  N   UNL A   1      41.658  31.425  36.317  1.00  0.00    -0.354 N 
ATOM     50  N   UNL A   1      41.455  29.964  33.772  1.00  0.00    -0.248 NA
ATOM     51  C   UNL A   1      42.379  28.528  32.179  1.00  0.00     0.031 C 
ATOM     52  C   UNL A   1      43.439  31.061  37.594  1.00  0.00     0.029 A 
ATOM     53  C   UNL A   1      42.848  30.720  36.388  1.00  0.00     0.049 A 
ATOM     54  H   UNL A   1      41.023  31.388  35.566  1.00  0.00     0.167 HD
ATOM     55  C   UNL A   1      42.684  29.511  34.227  1.00  0.00     0.074 A 
ATOM     56  C   UNL A   1      43.197  28.608  33.217  1.00  0.00     0.031 C 
ATOM     57  C   UNL A   1      43.335  29.822  35.373  1.00  0.00     0.037 A 
BRANCH  44  58
ATOM     58  C   UNL A   1      40.318  33.792  39.014  1.00  0.00     0.064 A 
ATOM     59  C   UNL A   1      39.617  33.305  40.126  1.00  0.00     0.173 A 
ATOM     60  C   UNL A   1      41.029  34.993  39.157  1.00  0.00     0.173 A 
ATOM     61  F   UNL A   1      38.911  32.169  40.033  1.00  0.00    -0.203 F 
ATOM     62  C   UNL A   1      39.618  34.001  41.332  1.00  0.00     0.198 A 
ATOM     63  C   UNL A   1      41.045  35.676  40.371  1.00  0.00     0.198 A 
ATOM     64  F   UNL A   1      41.717  35.499  38.123  1.00  0.00    -0.203 F 
ATOM     65  F   UNL A   1      38.917  33.535  42.375  1.00  0.00    -0.200 F 
ATOM     66  C   UNL A   1      40.337  35.181  41.456  1.00  0.00     0.200 A 
ATOM     67  F   UNL A   1      41.747  36.812  40.490  1.00  0.00    -0.200 F 
ATOM     68  F   UNL A   1      40.344  35.846  42.620  1.00  0.00    -0.200 F 
ENDBRANCH  44  58
BRANCH  45  69
ATOM     69  C   UNL A   1      40.094  28.790  30.368  1.00  0.00     0.064 A 
ATOM     70  C   UNL A   1      40.682  29.328  29.216  1.00  0.00     0.173 A 
ATOM     71  C   UNL A   1      39.476  27.535  30.262  1.00  0.00     0.173 A 
ATOM     72  F   UNL A   1      41.261  30.537  29.263  1.00  0.00    -0.203 F 
ATOM     73  C   UNL A   1      40.640  28.645  28.003  1.00  0.00     0.198 A 
ATOM     74  C   UNL A   1      39.461  26.840  29.056  1.00  0.00     0.198 A 
ATOM     75  F   UNL A   1      38.898  26.978  31.336  1.00  0.00    -0.203 F 
ATOM     76  F   UNL A   1      41.172  29.200  26.906  1.00  0.00    -0.200 F 
ATOM     77  C   UNL A   1      40.036  27.399  27.925  1.00  0.00     0.200 A 
ATOM     78  F   UNL A   1      38.887  25.631  28.989  1.00  0.00    -0.200 F 
ATOM     79  F   UNL A   1      40.000  26.741  26.759  1.00  0.00    -0.200 F 
ENDBRANCH  45  69
BRANCH  57  80
ATOM     80  C   UNL A   1      44.657  29.157  35.603  1.00  0.00     0.064 A 
ATOM     81  C   UNL A   1      44.750  27.935  36.284  1.00  0.00     0.173 A 
ATOM     82  C   UNL A   1      45.838  29.735  35.115  1.00  0.00     0.173 A 
ATOM     83  F   UNL A   1      43.648  27.356  36.784  1.00  0.00    -0.203 F 
ATOM     84  C   UNL A   1      45.984  27.324  36.487  1.00  0.00     0.198 A 
ATOM     85  C   UNL A   1      47.067  29.110  35.300  1.00  0.00     0.198 A 
ATOM     86  F   UNL A   1      45.798  30.902  34.455  1.00  0.00    -0.203 F 
ATOM     87  F   UNL A   1      46.057  26.178  37.177  1.00  0.00    -0.200 F 
ATOM     88  C   UNL A   1      47.140  27.909  35.990  1.00  0.00     0.200 A 
ATOM     89  F   UNL A   1      48.182  29.672  34.815  1.00  0.00    -0.200 F 
ATOM     90  F   UNL A   1      48.327  27.319  36.186  1.00  0.00    -0.200 F 
ENDBRANCH  57  80
ENDBRANCH  31  32
ENDBRANCH  24  26
ENDBRANCH  23  24
ENDBRANCH  22  23
ENDBRANCH   1  22
TORSDOF 15
ENDMDL
MODEL 2
REMARK VINA RESULT:     -11.3      5.711      9.732
REMARK SMILES CC(C)COc1cccc(N2C[C@@H](C(=O)OCCOC(=O)c3ccc(-c4c5nc(c(-c6c(F)c(F)c(F)c(F)c6F)c6ccc([nH]6)c(-c6c(F)c(F)c(F)c(F)c6F)c6nc(c(-c7c(F)c(F)c(F)c(F)c7F)c7ccc4[nH]7)C=C6)C=C5)cc3)CC2=O)c1
REMARK SMILES IDX 17 1 16 2 14 3 15 4 13 5 11 6 12 7 86 8 85 9 87 10 10 11
REMARK SMILES IDX 6 12 7 13 88 14 8 15 9 16 5 17 4 18 2 19 1 20 3 21 18 22
REMARK SMILES IDX 19 23 20 24 21 25 22 26 23 27 84 28 24 29 83 30 25 31 26 32
REMARK SMILES IDX 27 33 77 34 28 35 82 36 76 37 78 38 29 39 81 40 75 41 74 42
REMARK SMILES IDX 30 44 62 45 42 46 61 47 43 48 46 49 60 50 79 51 44 52 45 53
REMARK SMILES IDX 59 55 80 56 47 57 31 58 32 59 40 60 33 61 34 62 38 63 41 64
REMARK SMILES IDX 35 65 36 66 39 67 37 68 63 69 64 70 72 71 65 72 66 73 70 74
REMARK SMILES IDX 73 75 67 76 68 77 71 78 69 79 48 80 49 81 57 82 50 83 51 84
REMARK SMILES IDX 55 85 58 86 52 87 53 88 56 89 54 90
REMARK H PARENT 78 43 46 54
REMARK Flexibility Score: inf
ROOT
ATOM      1  C   UNL A   1      35.894  20.833  24.687  1.00  0.00     0.274 C 
ENDROOT
BRANCH   1   2
ATOM      2  O   UNL A   1      35.635  22.249  24.748  1.00  0.00    -0.462 OA
BRANCH   2   3
ATOM      3  C   UNL A   1      35.532  22.906  23.568  1.00  0.00     0.311 C 
ATOM      4  O   UNL A   1      36.439  23.040  22.756  1.00  0.00    -0.252 OA
BRANCH   3   5
ATOM      5  C   UNL A   1      34.137  23.399  23.293  1.00  0.00     0.128 C 
ATOM      6  N   UNL A   1      32.743  25.235  23.602  1.00  0.00    -0.311 N 
ATOM      7  C   UNL A   1      34.116  24.909  23.305  1.00  0.00     0.141 C 
ATOM      8  C   UNL A   1      32.065  24.130  24.137  1.00  0.00     0.227 C 
ATOM      9  C   UNL A   1      33.052  23.002  24.273  1.00  0.00     0.117 C 
ATOM     10  O   UNL A   1      30.901  24.044  24.499  1.00  0.00    -0.274 OA
BRANCH   6  11
ATOM     11  C   UNL A   1      32.326  26.586  23.703  1.00  0.00     0.047 A 
ATOM     12  C   UNL A   1      30.758  28.245  22.942  1.00  0.00     0.121 A 
ATOM     13  C   UNL A   1      30.914  28.982  24.108  1.00  0.00     0.046 A 
ATOM     14  C   UNL A   1      31.560  27.139  22.681  1.00  0.00     0.072 A 
ATOM     15  C   UNL A   1      31.809  28.529  25.076  1.00  0.00     0.006 A 
ATOM     16  C   UNL A   1      32.474  27.312  24.894  1.00  0.00     0.026 A 
BRANCH  12  17
ATOM     17  O   UNL A   1      29.751  28.537  22.061  1.00  0.00    -0.493 OA
BRANCH  17  18
ATOM     18  C   UNL A   1      29.347  29.925  22.178  1.00  0.00     0.232 C 
BRANCH  18  19
ATOM     19  C   UNL A   1      27.836  30.099  22.471  1.00  0.00     0.020 C 
ATOM     20  C   UNL A   1      27.218  28.841  23.100  1.00  0.00     0.011 C 
ATOM     21  C   UNL A   1      27.586  31.273  23.420  1.00  0.00     0.011 C 
ENDBRANCH  18  19
ENDBRANCH  17  18
ENDBRANCH  12  17
ENDBRANCH   6  11
ENDBRANCH   3   5
ENDBRANCH   2   3
ENDBRANCH   1   2
BRANCH   1  22
ATOM     22  C   UNL A   1      37.367  20.553  24.987  1.00  0.00     0.275 C 
BRANCH  22  23
ATOM     23  O   UNL A   1      37.960  21.627  25.745  1.00  0.00    -0.458 OA
BRANCH  23  24
ATOM     24  C   UNL A   1      39.187  21.364  26.245  1.00  0.00     0.338 C 
ATOM     25  O   UNL A   1      39.800  20.306  26.202  1.00  0.00    -0.246 OA
BRANCH  24  26
ATOM     26  C   UNL A   1      39.790  22.593  26.767  1.00  0.00     0.060 A 
ATOM     27  C   UNL A   1      39.342  23.811  26.259  1.00  0.00     0.016 A 
ATOM     28  C   UNL A   1      40.876  22.549  27.638  1.00  0.00     0.016 A 
ATOM     29  C   UNL A   1      40.018  24.986  26.549  1.00  0.00     0.010 A 
ATOM     30  C   UNL A   1      41.514  23.745  27.991  1.00  0.00     0.010 A 
ATOM     31  C   UNL A   1      41.103  24.968  27.431  1.00  0.00    -0.014 A 
BRANCH  31  32
ATOM     32  C   UNL A   1      41.803  26.235  27.751  1.00  0.00     0.031 A 
ATOM     33  C   UNL A   1      41.127  27.277  28.592  1.00  0.00     0.074 A 
ATOM     34  C   UNL A   1      43.063  26.427  27.316  1.00  0.00     0.049 A 
ATOM     35  N   UNL A   1      41.509  28.500  28.858  1.00  0.00    -0.248 NA
ATOM     36  C   UNL A   1      39.851  26.895  29.219  1.00  0.00     0.031 C 
ATOM     37  C   UNL A   1      43.853  25.457  26.554  1.00  0.00     0.029 A 
ATOM     38  N   UNL A   1      43.904  27.501  27.458  1.00  0.00    -0.354 N 
ATOM     39  C   UNL A   1      40.509  29.044  29.653  1.00  0.00     0.074 A 
ATOM     40  C   UNL A   1      39.500  28.021  29.825  1.00  0.00     0.031 C 
ATOM     41  C   UNL A   1      45.067  25.973  26.313  1.00  0.00     0.029 A 
ATOM     42  C   UNL A   1      45.115  27.334  26.833  1.00  0.00     0.049 A 
ATOM     43  H   UNL A   1      43.662  28.314  27.959  1.00  0.00     0.167 HD
ATOM     44  C   UNL A   1      40.446  30.286  30.188  1.00  0.00     0.037 A 
ATOM     45  C   UNL A   1      46.133  28.197  26.661  1.00  0.00     0.037 A 
ATOM     46  C   UNL A   1      41.468  31.288  30.034  1.00  0.00     0.049 A 
ATOM     47  C   UNL A   1      46.003  29.592  27.204  1.00  0.00     0.074 A 
ATOM     48  C   UNL A   1      41.488  32.586  30.517  1.00  0.00     0.029 A 
ATOM     49  N   UNL A   1      42.661  31.096  29.354  1.00  0.00    -0.354 N 
ATOM     50  N   UNL A   1      45.024  30.123  27.896  1.00  0.00    -0.248 NA
ATOM     51  C   UNL A   1      47.110  30.516  26.923  1.00  0.00     0.031 C 
ATOM     52  C   UNL A   1      42.683  33.187  30.105  1.00  0.00     0.029 A 
ATOM     53  C   UNL A   1      43.421  32.253  29.396  1.00  0.00     0.049 A 
ATOM     54  H   UNL A   1      42.929  30.260  28.908  1.00  0.00     0.167 HD
ATOM     55  C   UNL A   1      45.400  31.435  28.142  1.00  0.00     0.074 A 
ATOM     56  C   UNL A   1      46.706  31.615  27.542  1.00  0.00     0.031 C 
ATOM     57  C   UNL A   1      44.721  32.407  28.797  1.00  0.00     0.037 A 
BRANCH  44  58
ATOM     58  C   UNL A   1      39.217  30.644  30.967  1.00  0.00     0.064 A 
ATOM     59  C   UNL A   1      39.139  30.445  32.353  1.00  0.00     0.173 A 
ATOM     60  C   UNL A   1      38.120  31.237  30.324  1.00  0.00     0.173 A 
ATOM     61  F   UNL A   1      40.156  29.868  33.009  1.00  0.00    -0.203 F 
ATOM     62  C   UNL A   1      38.001  30.815  33.065  1.00  0.00     0.198 A 
ATOM     63  C   UNL A   1      36.992  31.625  31.042  1.00  0.00     0.198 A 
ATOM     64  F   UNL A   1      38.147  31.450  29.000  1.00  0.00    -0.203 F 
ATOM     65  F   UNL A   1      37.933  30.589  34.384  1.00  0.00    -0.200 F 
ATOM     66  C   UNL A   1      36.932  31.410  32.411  1.00  0.00     0.200 A 
ATOM     67  F   UNL A   1      35.963  32.207  30.409  1.00  0.00    -0.200 F 
ATOM     68  F   UNL A   1      35.840  31.774  33.099  1.00  0.00    -0.200 F 
ENDBRANCH  44  58
BRANCH  45  69
ATOM     69  C   UNL A   1      47.340  27.782  25.903  1.00  0.00     0.064 A 
ATOM     70  C   UNL A   1      48.509  27.389  26.567  1.00  0.00     0.173 A 
ATOM     71  C   UNL A   1      47.352  27.782  24.499  1.00  0.00     0.173 A 
ATOM     72  F   UNL A   1      48.553  27.399  27.906  1.00  0.00    -0.203 F 
ATOM     73  C   UNL A   1      49.650  27.022  25.856  1.00  0.00     0.198 A 
ATOM     74  C   UNL A   1      48.483  27.387  23.790  1.00  0.00     0.198 A 
ATOM     75  F   UNL A   1      46.258  28.151  23.818  1.00  0.00    -0.203 F 
ATOM     76  F   UNL A   1      50.768  26.691  26.514  1.00  0.00    -0.200 F 
ATOM     77  C   UNL A   1      49.634  27.015  24.469  1.00  0.00     0.200 A 
ATOM     78  F   UNL A   1      48.459  27.370  22.450  1.00  0.00    -0.200 F 
ATOM     79  F   UNL A   1      50.730  26.660  23.786  1.00  0.00    -0.200 F 
ENDBRANCH  45  69
BRANCH  57  80
ATOM     80  C   UNL A   1      45.396  33.739  28.920  1.00  0.00     0.064 A 
ATOM     81  C   UNL A   1      46.266  34.019  29.982  1.00  0.00     0.173 A 
ATOM     82  C   UNL A   1      45.188  34.732  27.952  1.00  0.00     0.173 A 
ATOM     83  F   UNL A   1      46.479  33.105  30.941  1.00  0.00    -0.203 F 
ATOM     84  C   UNL A   1      46.891  35.259  30.083  1.00  0.00     0.198 A 
ATOM     85  C   UNL A   1      45.832  35.962  28.044  1.00  0.00     0.198 A 
ATOM     86  F   UNL A   1      44.366  34.508  26.917  1.00  0.00    -0.203 F 
ATOM     87  F   UNL A   1      47.687  35.524  31.128  1.00  0.00    -0.200 F 
ATOM     88  C   UNL A   1      46.678  36.227  29.112  1.00  0.00     0.200 A 
ATOM     89  F   UNL A   1      45.631  36.894  27.103  1.00  0.00    -0.200 F 
ATOM     90  F   UNL A   1      47.281  37.420  29.210  1.00  0.00    -0.200 F 
ENDBRANCH  57  80
ENDBRANCH  31  32
ENDBRANCH  24  26
ENDBRANCH  23  24
ENDBRANCH  22  23
ENDBRANCH   1  22
TORSDOF 15
ENDMDL
MODEL 3
REMARK VINA RESULT:     -11.3      3.771      9.256
REMARK SMILES CC(C)COc1cccc(N2C[C@@H](C(=O)OCCOC(=O)c3ccc(-c4c5nc(c(-c6c(F)c(F)c(F)c(F)c6F)c6ccc([nH]6)c(-c6c(F)c(F)c(F)c(F)c6F)c6nc(c(-c7c(F)c(F)c(F)c(F)c7F)c7ccc4[nH]7)C=C6)C=C5)cc3)CC2=O)c1
REMARK SMILES IDX 17 1 16 2 14 3 15 4 13 5 11 6 12 7 86 8 85 9 87 10 10 11
REMARK SMILES IDX 6 12 7 13 88 14 8 15 9 16 5 17 4 18 2 19 1 20 3 21 18 22
REMARK SMILES IDX 19 23 20 24 21 25 22 26 23 27 84 28 24 29 83 30 25 31 26 32
REMARK SMILES IDX 27 33 77 34 28 35 82 36 76 37 78 38 29 39 81 40 75 41 74 42
REMARK SMILES IDX 30 44 62 45 42 46 61 47 43 48 46 49 60 50 79 51 44 52 45 53
REMARK SMILES IDX 59 55 80 56 47 57 31 58 32 59 40 60 33 61 34 62 38 63 41 64
REMARK SMILES IDX 35 65 36 66 39 67 37 68 63 69 64 70 72 71 65 72 66 73 70 74
REMARK SMILES IDX 73 75 67 76 68 77 71 78 69 79 48 80 49 81 57 82 50 83 51 84
REMARK SMILES IDX 55 85 58 86 52 87 53 88 56 89 54 90
REMARK H PARENT 78 43 46 54
REMARK Flexibility Score: inf
ROOT
ATOM      1  C   UNL A   1      32.273  29.018  25.235  1.00  0.00     0.274 C 
ENDROOT
BRANCH   1   2
ATOM      2  O   UNL A   1      31.068  28.240  25.376  1.00  0.00    -0.462 OA
BRANCH   2   3
ATOM      3  C   UNL A   1      31.050  27.307  26.357  1.00  0.00     0.311 C 
ATOM      4  O   UNL A   1      31.210  27.536  27.550  1.00  0.00    -0.252 OA
BRANCH   3   5
ATOM      5  C   UNL A   1      30.718  25.930  25.848  1.00  0.00     0.128 C 
ATOM      6  N   UNL A   1      31.697  23.904  25.258  1.00  0.00    -0.311 N 
ATOM      7  C   UNL A   1      31.817  24.966  26.227  1.00  0.00     0.141 C 
ATOM      8  C   UNL A   1      30.936  24.312  24.152  1.00  0.00     0.227 C 
ATOM      9  C   UNL A   1      30.570  25.758  24.351  1.00  0.00     0.117 C 
ATOM     10  O   UNL A   1      30.632  23.678  23.153  1.00  0.00    -0.274 OA
BRANCH   6  11
ATOM     11  C   UNL A   1      32.579  22.795  25.288  1.00  0.00     0.047 A 
ATOM     12  C   UNL A   1      32.795  20.419  24.978  1.00  0.00     0.121 A 
ATOM     13  C   UNL A   1      34.148  20.542  24.692  1.00  0.00     0.046 A 
ATOM     14  C   UNL A   1      32.053  21.512  25.411  1.00  0.00     0.072 A 
ATOM     15  C   UNL A   1      34.733  21.806  24.730  1.00  0.00     0.006 A 
ATOM     16  C   UNL A   1      33.940  22.932  24.979  1.00  0.00     0.026 A 
BRANCH  12  17
ATOM     17  O   UNL A   1      32.139  19.237  24.757  1.00  0.00    -0.493 OA
BRANCH  17  18
ATOM     18  C   UNL A   1      32.835  18.132  25.388  1.00  0.00     0.232 C 
BRANCH  18  19
ATOM     19  C   UNL A   1      33.280  17.037  24.386  1.00  0.00     0.020 C 
ATOM     20  C   UNL A   1      32.947  17.410  22.933  1.00  0.00     0.011 C 
ATOM     21  C   UNL A   1      34.785  16.781  24.475  1.00  0.00     0.011 C 
ENDBRANCH  18  19
ENDBRANCH  17  18
ENDBRANCH  12  17
ENDBRANCH   6  11
ENDBRANCH   3   5
ENDBRANCH   2   3
ENDBRANCH   1   2
BRANCH   1  22
ATOM     22  C   UNL A   1      32.042  30.443  25.740  1.00  0.00     0.275 C 
BRANCH  22  23
ATOM     23  O   UNL A   1      32.550  30.613  27.078  1.00  0.00    -0.458 OA
BRANCH  23  24
ATOM     24  C   UNL A   1      33.289  31.727  27.271  1.00  0.00     0.338 C 
ATOM     25  O   UNL A   1      32.942  32.890  27.116  1.00  0.00    -0.246 OA
BRANCH  24  26
ATOM     26  C   UNL A   1      34.593  31.373  27.838  1.00  0.00     0.060 A 
ATOM     27  C   UNL A   1      34.780  30.066  28.284  1.00  0.00     0.016 A 
ATOM     28  C   UNL A   1      35.570  32.341  28.059  1.00  0.00     0.016 A 
ATOM     29  C   UNL A   1      35.905  29.729  29.023  1.00  0.00     0.010 A 
ATOM     30  C   UNL A   1      36.740  31.984  28.740  1.00  0.00     0.010 A 
ATOM     31  C   UNL A   1      36.904  30.682  29.246  1.00  0.00    -0.014 A 
BRANCH  31  32
ATOM     32  C   UNL A   1      38.113  30.303  30.018  1.00  0.00     0.031 A 
ATOM     33  C   UNL A   1      39.141  29.397  29.408  1.00  0.00     0.074 A 
ATOM     34  C   UNL A   1      38.300  30.808  31.252  1.00  0.00     0.049 A 
ATOM     35  N   UNL A   1      40.183  28.836  29.967  1.00  0.00    -0.248 NA
ATOM     36  C   UNL A   1      38.979  29.078  27.981  1.00  0.00     0.031 C 
ATOM     37  C   UNL A   1      37.408  31.758  31.922  1.00  0.00     0.029 A 
ATOM     38  N   UNL A   1      39.305  30.600  32.160  1.00  0.00    -0.354 N 
ATOM     39  C   UNL A   1      40.781  28.073  28.973  1.00  0.00     0.074 A 
ATOM     40  C   UNL A   1      39.986  28.239  27.774  1.00  0.00     0.031 C 
ATOM     41  C   UNL A   1      37.915  32.062  33.125  1.00  0.00     0.029 A 
ATOM     42  C   UNL A   1      39.123  31.274  33.342  1.00  0.00     0.049 A 
ATOM     43  H   UNL A   1      40.082  30.021  31.983  1.00  0.00     0.167 HD
ATOM     44  C   UNL A   1      41.894  27.307  29.058  1.00  0.00     0.037 A 
ATOM     45  C   UNL A   1      39.827  31.229  34.489  1.00  0.00     0.037 A 
ATOM     46  C   UNL A   1      42.695  27.170  30.247  1.00  0.00     0.049 A 
ATOM     47  C   UNL A   1      41.014  30.313  34.577  1.00  0.00     0.074 A 
ATOM     48  C   UNL A   1      43.827  26.398  30.444  1.00  0.00     0.029 A 
ATOM     49  N   UNL A   1      42.451  27.834  31.440  1.00  0.00    -0.354 N 
ATOM     50  N   UNL A   1      41.534  29.542  33.654  1.00  0.00    -0.248 NA
ATOM     51  C   UNL A   1      41.701  30.245  35.874  1.00  0.00     0.031 C 
ATOM     52  C   UNL A   1      44.253  26.577  31.764  1.00  0.00     0.029 A 
ATOM     53  C   UNL A   1      43.407  27.484  32.379  1.00  0.00     0.049 A 
ATOM     54  H   UNL A   1      41.709  28.463  31.595  1.00  0.00     0.167 HD
ATOM     55  C   UNL A   1      42.612  28.906  34.252  1.00  0.00     0.074 A 
ATOM     56  C   UNL A   1      42.685  29.397  35.613  1.00  0.00     0.031 C 
ATOM     57  C   UNL A   1      43.461  27.991  33.726  1.00  0.00     0.037 A 
BRANCH  44  58
ATOM     58  C   UNL A   1      42.298  26.532  27.841  1.00  0.00     0.064 A 
ATOM     59  C   UNL A   1      43.279  27.006  26.958  1.00  0.00     0.173 A 
ATOM     60  C   UNL A   1      41.728  25.277  27.581  1.00  0.00     0.173 A 
ATOM     61  F   UNL A   1      43.841  28.206  27.156  1.00  0.00    -0.203 F 
ATOM     62  C   UNL A   1      43.664  26.256  25.850  1.00  0.00     0.198 A 
ATOM     63  C   UNL A   1      42.131  24.520  26.484  1.00  0.00     0.198 A 
ATOM     64  F   UNL A   1      40.787  24.779  28.398  1.00  0.00    -0.203 F 
ATOM     65  F   UNL A   1      44.582  26.739  25.000  1.00  0.00    -0.200 F 
ATOM     66  C   UNL A   1      43.096  25.012  25.617  1.00  0.00     0.200 A 
ATOM     67  F   UNL A   1      41.586  23.315  26.266  1.00  0.00    -0.200 F 
ATOM     68  F   UNL A   1      43.475  24.287  24.555  1.00  0.00    -0.200 F 
ENDBRANCH  44  58
BRANCH  45  69
ATOM     69  C   UNL A   1      39.397  32.037  35.657  1.00  0.00     0.064 A 
ATOM     70  C   UNL A   1      38.467  31.538  36.578  1.00  0.00     0.173 A 
ATOM     71  C   UNL A   1      39.900  33.330  35.871  1.00  0.00     0.173 A 
ATOM     72  F   UNL A   1      37.939  30.318  36.400  1.00  0.00    -0.203 F 
ATOM     73  C   UNL A   1      38.045  32.305  37.661  1.00  0.00     0.198 A 
ATOM     74  C   UNL A   1      39.500  34.085  36.970  1.00  0.00     0.198 A 
ATOM     75  F   UNL A   1      40.792  33.854  35.018  1.00  0.00    -0.203 F 
ATOM     76  F   UNL A   1      37.123  31.821  38.503  1.00  0.00    -0.200 F 
ATOM     77  C   UNL A   1      38.567  33.575  37.860  1.00  0.00     0.200 A 
ATOM     78  F   UNL A   1      40.015  35.306  37.165  1.00  0.00    -0.200 F 
ATOM     79  F   UNL A   1      38.163  34.311  38.904  1.00  0.00    -0.200 F 
ENDBRANCH  45  69
BRANCH  57  80
ATOM     80  C   UNL A   1      44.553  27.488  34.619  1.00  0.00     0.064 A 
ATOM     81  C   UNL A   1      45.779  28.158  34.720  1.00  0.00     0.173 A 
ATOM     82  C   UNL A   1      44.359  26.340  35.400  1.00  0.00     0.173 A 
ATOM     83  F   UNL A   1      46.015  29.251  33.976  1.00  0.00    -0.203 F 
ATOM     84  C   UNL A   1      46.785  27.684  35.557  1.00  0.00     0.198 A 
ATOM     85  C   UNL A   1      45.358  25.881  36.253  1.00  0.00     0.198 A 
ATOM     86  F   UNL A   1      43.201  25.666  35.339  1.00  0.00    -0.203 F 
ATOM     87  F   UNL A   1      47.967  28.314  35.607  1.00  0.00    -0.200 F 
ATOM     88  C   UNL A   1      46.572  26.549  36.327  1.00  0.00     0.200 A 
ATOM     89  F   UNL A   1      45.150  24.789  37.001  1.00  0.00    -0.200 F 
ATOM     90  F   UNL A   1      47.541  26.094  37.133  1.00  0.00    -0.200 F 
ENDBRANCH  57  80
ENDBRANCH  31  32
ENDBRANCH  24  26
ENDBRANCH  23  24
ENDBRANCH  22  23
ENDBRANCH   1  22
TORSDOF 15
ENDMDL
