MODEL 1
REMARK VINA RESULT:     -12.4      0.000      0.000
REMARK SMILES Cc1nn(C)c(=O)c(C(=O)N2CCCC[C@H]2C(=O)OCCOC(=O)c2ccc(-c3c4nc(c(-c5c(F)c(F)c(F)c(F)c5F)c5ccc([nH]5)c(-c5c(F)c(F)c(F)c(F)c5F)c5nc(c(-c6c(F)c(F)c(F)c(F)c6F)c6ccc3[nH]6)C=C5)C=C4)cc2)c1C
REMARK SMILES IDX 20 1 19 2 17 3 18 4 16 5 11 6 12 7 13 8 15 9 14 10 9 11
REMARK SMILES IDX 10 12 8 13 1 14 2 15 3 16 88 17 4 18 89 19 5 20 6 21 7 22
REMARK SMILES IDX 21 23 22 24 23 25 24 26 25 27 26 28 87 29 27 30 86 31 28 32
REMARK SMILES IDX 29 33 30 34 80 35 31 36 85 37 79 38 81 39 32 40 84 41 78 42
REMARK SMILES IDX 77 43 33 45 65 46 45 47 64 48 46 49 49 50 63 51 82 52 47 53
REMARK SMILES IDX 48 54 62 56 83 57 50 58 34 59 35 60 43 61 36 62 37 63 41 64
REMARK SMILES IDX 44 65 38 66 39 67 42 68 40 69 66 70 67 71 75 72 68 73 69 74
REMARK SMILES IDX 73 75 76 76 70 77 71 78 74 79 72 80 51 81 52 82 60 83 53 84
REMARK SMILES IDX 54 85 58 86 61 87 55 88 56 89 59 90 57 91
REMARK H PARENT 81 44 49 55
REMARK Flexibility Score: inf
ROOT
ATOM      1  C   UNL A   1      31.507  29.452  24.452  1.00  0.00     0.274 C 
ENDROOT
BRANCH   1   2
ATOM      2  O   UNL A   1      31.397  28.024  24.257  1.00  0.00    -0.461 OA
BRANCH   2   3
ATOM      3  C   UNL A   1      32.399  27.406  23.575  1.00  0.00     0.328 C 
ATOM      4  O   UNL A   1      33.320  28.007  23.032  1.00  0.00    -0.250 OA
BRANCH   3   5
ATOM      5  C   UNL A   1      32.334  25.858  23.693  1.00  0.00     0.195 C 
ATOM      6  N   UNL A   1      33.621  25.148  23.886  1.00  0.00    -0.325 N 
ATOM      7  C   UNL A   1      34.192  25.268  25.227  1.00  0.00     0.121 C 
ATOM      8  C   UNL A   1      33.164  24.971  26.335  1.00  0.00     0.022 C 
ATOM      9  C   UNL A   1      31.299  25.461  24.750  1.00  0.00     0.037 C 
ATOM     10  C   UNL A   1      31.850  25.729  26.143  1.00  0.00     0.005 C 
BRANCH   6  11
ATOM     11  C   UNL A   1      33.803  23.955  23.175  1.00  0.00     0.260 C 
ATOM     12  O   UNL A   1      33.755  23.942  21.946  1.00  0.00    -0.269 OA
BRANCH  11  13
ATOM     13  C   UNL A   1      34.256  22.731  23.941  1.00  0.00     0.111 A 
ATOM     14  C   UNL A   1      37.358  20.734  24.888  1.00  0.00     0.069 C 
ATOM     15  C   UNL A   1      35.900  21.076  24.645  1.00  0.00     0.062 A 
ATOM     16  N   UNL A   1      35.031  20.192  24.997  1.00  0.00    -0.175 NA
ATOM     17  C   UNL A   1      35.554  22.372  24.002  1.00  0.00    -0.010 A 
ATOM     18  N   UNL A   1      33.712  20.497  24.827  1.00  0.00    -0.232 N 
ATOM     19  C   UNL A   1      36.698  23.075  23.379  1.00  0.00     0.047 C 
ATOM     20  C   UNL A   1      32.806  19.415  25.174  1.00  0.00     0.178 C 
ATOM     21  C   UNL A   1      33.234  21.745  24.422  1.00  0.00     0.279 A 
ATOM     22  O   UNL A   1      32.042  22.044  24.449  1.00  0.00    -0.267 OA
ENDBRANCH  11  13
ENDBRANCH   6  11
ENDBRANCH   3   5
ENDBRANCH   2   3
ENDBRANCH   1   2
BRANCH   1  23
ATOM     23  C   UNL A   1      31.786  29.813  25.918  1.00  0.00     0.275 C 
BRANCH  23  24
ATOM     24  O   UNL A   1      33.158  30.200  26.081  1.00  0.00    -0.458 OA
BRANCH  24  25
ATOM     25  C   UNL A   1      33.423  31.228  26.926  1.00  0.00     0.338 C 
ATOM     26  O   UNL A   1      32.732  32.176  27.201  1.00  0.00    -0.246 OA
BRANCH  25  27
ATOM     27  C   UNL A   1      34.677  30.890  27.612  1.00  0.00     0.060 A 
ATOM     28  C   UNL A   1      35.599  31.912  27.853  1.00  0.00     0.016 A 
ATOM     29  C   UNL A   1      34.891  29.593  28.074  1.00  0.00     0.016 A 
ATOM     30  C   UNL A   1      36.714  31.657  28.639  1.00  0.00     0.010 A 
ATOM     31  C   UNL A   1      36.025  29.330  28.834  1.00  0.00     0.010 A 
ATOM     32  C   UNL A   1      36.923  30.366  29.135  1.00  0.00    -0.014 A 
BRANCH  32  33
ATOM     33  C   UNL A   1      38.128  30.077  29.929  1.00  0.00     0.031 A 
ATOM     34  C   UNL A   1      39.159  29.160  29.359  1.00  0.00     0.074 A 
ATOM     35  C   UNL A   1      38.274  30.637  31.140  1.00  0.00     0.049 A 
ATOM     36  N   UNL A   1      40.253  28.706  29.908  1.00  0.00    -0.248 NA
ATOM     37  C   UNL A   1      38.928  28.693  27.982  1.00  0.00     0.031 C 
ATOM     38  C   UNL A   1      37.343  31.589  31.746  1.00  0.00     0.029 A 
ATOM     39  N   UNL A   1      39.257  30.480  32.081  1.00  0.00    -0.354 N 
ATOM     40  C   UNL A   1      40.844  27.905  28.944  1.00  0.00     0.074 A 
ATOM     41  C   UNL A   1      39.978  27.911  27.786  1.00  0.00     0.031 C 
ATOM     42  C   UNL A   1      37.797  31.927  32.964  1.00  0.00     0.029 A 
ATOM     43  C   UNL A   1      39.029  31.188  33.234  1.00  0.00     0.049 A 
ATOM     44  H   UNL A   1      40.052  29.916  31.943  1.00  0.00     0.167 HD
ATOM     45  C   UNL A   1      42.013  27.229  29.028  1.00  0.00     0.037 A 
ATOM     46  C   UNL A   1      39.731  31.211  34.382  1.00  0.00     0.037 A 
ATOM     47  C   UNL A   1      42.846  27.218  30.198  1.00  0.00     0.049 A 
ATOM     48  C   UNL A   1      40.975  30.369  34.485  1.00  0.00     0.074 A 
ATOM     49  C   UNL A   1      44.042  26.556  30.401  1.00  0.00     0.029 A 
ATOM     50  N   UNL A   1      42.559  27.903  31.372  1.00  0.00    -0.354 N 
ATOM     51  N   UNL A   1      41.533  29.607  33.575  1.00  0.00    -0.248 NA
ATOM     52  C   UNL A   1      41.680  30.378  35.774  1.00  0.00     0.031 C 
ATOM     53  C   UNL A   1      44.457  26.803  31.713  1.00  0.00     0.029 A 
ATOM     54  C   UNL A   1      43.543  27.656  32.314  1.00  0.00     0.049 A 
ATOM     55  H   UNL A   1      41.772  28.477  31.514  1.00  0.00     0.167 HD
ATOM     56  C   UNL A   1      42.660  29.058  34.171  1.00  0.00     0.074 A 
ATOM     57  C   UNL A   1      42.713  29.586  35.520  1.00  0.00     0.031 C 
ATOM     58  C   UNL A   1      43.567  28.197  33.651  1.00  0.00     0.037 A 
BRANCH  45  59
ATOM     59  C   UNL A   1      42.430  26.429  27.833  1.00  0.00     0.064 A 
ATOM     60  C   UNL A   1      43.313  26.949  26.876  1.00  0.00     0.173 A 
ATOM     61  C   UNL A   1      41.953  25.123  27.651  1.00  0.00     0.173 A 
ATOM     62  F   UNL A   1      43.778  28.202  26.996  1.00  0.00    -0.203 F 
ATOM     63  C   UNL A   1      43.690  26.196  25.768  1.00  0.00     0.198 A 
ATOM     64  C   UNL A   1      42.350  24.364  26.554  1.00  0.00     0.198 A 
ATOM     65  F   UNL A   1      41.102  24.584  28.536  1.00  0.00    -0.203 F 
ATOM     66  F   UNL A   1      44.502  26.726  24.843  1.00  0.00    -0.200 F 
ATOM     67  C   UNL A   1      43.214  24.902  25.611  1.00  0.00     0.200 A 
ATOM     68  F   UNL A   1      41.893  23.113  26.406  1.00  0.00    -0.200 F 
ATOM     69  F   UNL A   1      43.580  24.176  24.545  1.00  0.00    -0.200 F 
ENDBRANCH  45  59
BRANCH  46  70
ATOM     70  C   UNL A   1      39.270  32.056  35.513  1.00  0.00     0.064 A 
ATOM     71  C   UNL A   1      38.450  31.527  36.517  1.00  0.00     0.173 A 
ATOM     72  C   UNL A   1      39.660  33.399  35.628  1.00  0.00     0.173 A 
ATOM     73  F   UNL A   1      38.032  30.255  36.440  1.00  0.00    -0.203 F 
ATOM     74  C   UNL A   1      38.035  32.309  37.594  1.00  0.00     0.198 A 
ATOM     75  C   UNL A   1      39.263  34.173  36.715  1.00  0.00     0.198 A 
ATOM     76  F   UNL A   1      40.443  33.953  34.690  1.00  0.00    -0.203 F 
ATOM     77  F   UNL A   1      37.228  31.786  38.527  1.00  0.00    -0.200 F 
ATOM     78  C   UNL A   1      38.448  33.629  37.696  1.00  0.00     0.200 A 
ATOM     79  F   UNL A   1      39.673  35.445  36.816  1.00  0.00    -0.200 F 
ATOM     80  F   UNL A   1      38.058  34.377  38.738  1.00  0.00    -0.200 F 
ENDBRANCH  46  70
BRANCH  58  81
ATOM     81  C   UNL A   1      44.701  27.772  34.533  1.00  0.00     0.064 A 
ATOM     82  C   UNL A   1      44.626  26.602  35.301  1.00  0.00     0.173 A 
ATOM     83  C   UNL A   1      45.907  28.488  34.534  1.00  0.00     0.173 A 
ATOM     84  F   UNL A   1      43.488  25.891  35.340  1.00  0.00    -0.203 F 
ATOM     85  C   UNL A   1      45.719  26.165  36.043  1.00  0.00     0.198 A 
ATOM     86  C   UNL A   1      47.006  28.035  35.257  1.00  0.00     0.198 A 
ATOM     87  F   UNL A   1      46.028  29.609  33.808  1.00  0.00    -0.203 F 
ATOM     88  F   UNL A   1      45.622  25.055  36.788  1.00  0.00    -0.200 F 
ATOM     89  C   UNL A   1      46.911  26.875  36.011  1.00  0.00     0.200 A 
ATOM     90  F   UNL A   1      48.161  28.714  35.213  1.00  0.00    -0.200 F 
ATOM     91  F   UNL A   1      47.970  26.440  36.709  1.00  0.00    -0.200 F 
ENDBRANCH  58  81
ENDBRANCH  32  33
ENDBRANCH  25  27
ENDBRANCH  24  25
ENDBRANCH  23  24
ENDBRANCH   1  23
TORSDOF 13
ENDMDL
MODEL 2
REMARK VINA RESULT:     -12.4      0.282      1.611
REMARK SMILES Cc1nn(C)c(=O)c(C(=O)N2CCCC[C@H]2C(=O)OCCOC(=O)c2ccc(-c3c4nc(c(-c5c(F)c(F)c(F)c(F)c5F)c5ccc([nH]5)c(-c5c(F)c(F)c(F)c(F)c5F)c5nc(c(-c6c(F)c(F)c(F)c(F)c6F)c6ccc3[nH]6)C=C5)C=C4)cc2)c1C
REMARK SMILES IDX 20 1 19 2 17 3 18 4 16 5 11 6 12 7 13 8 15 9 14 10 9 11
REMARK SMILES IDX 10 12 8 13 1 14 2 15 3 16 88 17 4 18 89 19 5 20 6 21 7 22
REMARK SMILES IDX 21 23 22 24 23 25 24 26 25 27 26 28 87 29 27 30 86 31 28 32
REMARK SMILES IDX 29 33 30 34 80 35 31 36 85 37 79 38 81 39 32 40 84 41 78 42
REMARK SMILES IDX 77 43 33 45 65 46 45 47 64 48 46 49 49 50 63 51 82 52 47 53
REMARK SMILES IDX 48 54 62 56 83 57 50 58 34 59 35 60 43 61 36 62 37 63 41 64
REMARK SMILES IDX 44 65 38 66 39 67 42 68 40 69 66 70 67 71 75 72 68 73 69 74
REMARK SMILES IDX 73 75 76 76 70 77 71 78 74 79 72 80 51 81 52 82 60 83 53 84
REMARK SMILES IDX 54 85 58 86 61 87 55 88 56 89 59 90 57 91
REMARK H PARENT 81 44 49 55
REMARK Flexibility Score: inf
ROOT
ATOM      1  C   UNL A   1      31.406  29.601  24.801  1.00  0.00     0.274 C 
ENDROOT
BRANCH   1   2
ATOM      2  O   UNL A   1      31.279  28.213  24.421  1.00  0.00    -0.461 OA
BRANCH   2   3
ATOM      3  C   UNL A   1      32.349  27.628  23.818  1.00  0.00     0.328 C 
ATOM      4  O   UNL A   1      33.336  28.249  23.438  1.00  0.00    -0.250 OA
BRANCH   3   5
ATOM      5  C   UNL A   1      32.254  26.077  23.809  1.00  0.00     0.195 C 
ATOM      6  N   UNL A   1      33.514  25.329  24.040  1.00  0.00    -0.325 N 
ATOM      7  C   UNL A   1      33.984  25.332  25.424  1.00  0.00     0.121 C 
ATOM      8  C   UNL A   1      32.870  24.971  26.426  1.00  0.00     0.022 C 
ATOM      9  C   UNL A   1      31.138  25.619  24.751  1.00  0.00     0.037 C 
ATOM     10  C   UNL A   1      31.585  25.767  26.198  1.00  0.00     0.005 C 
BRANCH   6  11
ATOM     11  C   UNL A   1      33.732  24.191  23.252  1.00  0.00     0.260 C 
ATOM     12  O   UNL A   1      33.778  24.276  22.026  1.00  0.00    -0.269 OA
BRANCH  11  13
ATOM     13  C   UNL A   1      34.109  22.903  23.951  1.00  0.00     0.111 A 
ATOM     14  C   UNL A   1      37.103  20.783  24.974  1.00  0.00     0.069 C 
ATOM     15  C   UNL A   1      35.673  21.169  24.646  1.00  0.00     0.062 A 
ATOM     16  N   UNL A   1      34.769  20.275  24.856  1.00  0.00    -0.175 NA
ATOM     17  C   UNL A   1      35.394  22.517  24.083  1.00  0.00    -0.010 A 
ATOM     18  N   UNL A   1      33.471  20.616  24.608  1.00  0.00    -0.232 N 
ATOM     19  C   UNL A   1      36.592  23.247  23.611  1.00  0.00     0.047 C 
ATOM     20  C   UNL A   1      32.529  19.525  24.795  1.00  0.00     0.178 C 
ATOM     21  C   UNL A   1      33.041  21.900  24.269  1.00  0.00     0.279 A 
ATOM     22  O   UNL A   1      31.854  22.217  24.226  1.00  0.00    -0.267 OA
ENDBRANCH  11  13
ENDBRANCH   6  11
ENDBRANCH   3   5
ENDBRANCH   2   3
ENDBRANCH   1   2
BRANCH   1  23
ATOM     23  C   UNL A   1      31.962  29.760  26.224  1.00  0.00     0.275 C 
BRANCH  23  24
ATOM     24  O   UNL A   1      33.300  30.274  26.178  1.00  0.00    -0.458 OA
BRANCH  24  25
ATOM     25  C   UNL A   1      33.604  31.304  27.008  1.00  0.00     0.338 C 
ATOM     26  O   UNL A   1      32.949  32.281  27.269  1.00  0.00    -0.246 OA
BRANCH  25  27
ATOM     27  C   UNL A   1      34.847  30.930  27.697  1.00  0.00     0.060 A 
ATOM     28  C   UNL A   1      35.803  31.922  27.929  1.00  0.00     0.016 A 
ATOM     29  C   UNL A   1      35.017  29.631  28.170  1.00  0.00     0.016 A 
ATOM     30  C   UNL A   1      36.908  31.638  28.718  1.00  0.00     0.010 A 
ATOM     31  C   UNL A   1      36.142  29.337  28.932  1.00  0.00     0.010 A 
ATOM     32  C   UNL A   1      37.074  30.345  29.225  1.00  0.00    -0.014 A 
BRANCH  32  33
ATOM     33  C   UNL A   1      38.269  30.022  30.022  1.00  0.00     0.031 A 
ATOM     34  C   UNL A   1      39.280  29.086  29.449  1.00  0.00     0.074 A 
ATOM     35  C   UNL A   1      38.422  30.570  31.238  1.00  0.00     0.049 A 
ATOM     36  N   UNL A   1      40.361  28.602  30.000  1.00  0.00    -0.248 NA
ATOM     37  C   UNL A   1      39.044  28.633  28.069  1.00  0.00     0.031 C 
ATOM     38  C   UNL A   1      37.511  31.539  31.846  1.00  0.00     0.029 A 
ATOM     39  N   UNL A   1      39.397  30.384  32.181  1.00  0.00    -0.354 N 
ATOM     40  C   UNL A   1      40.938  27.794  29.033  1.00  0.00     0.074 A 
ATOM     41  C   UNL A   1      40.077  27.829  27.871  1.00  0.00     0.031 C 
ATOM     42  C   UNL A   1      37.968  31.858  33.069  1.00  0.00     0.029 A 
ATOM     43  C   UNL A   1      39.181  31.089  33.339  1.00  0.00     0.049 A 
ATOM     44  H   UNL A   1      40.179  29.802  32.042  1.00  0.00     0.167 HD
ATOM     45  C   UNL A   1      42.090  27.091  29.116  1.00  0.00     0.037 A 
ATOM     46  C   UNL A   1      39.878  31.088  34.489  1.00  0.00     0.037 A 
ATOM     47  C   UNL A   1      42.917  27.053  30.290  1.00  0.00     0.049 A 
ATOM     48  C   UNL A   1      41.102  30.216  34.591  1.00  0.00     0.074 A 
ATOM     49  C   UNL A   1      44.097  26.362  30.493  1.00  0.00     0.029 A 
ATOM     50  N   UNL A   1      42.642  27.736  31.468  1.00  0.00    -0.354 N 
ATOM     51  N   UNL A   1      41.646  29.448  33.679  1.00  0.00    -0.248 NA
ATOM     52  C   UNL A   1      41.801  30.200  35.883  1.00  0.00     0.031 C 
ATOM     53  C   UNL A   1      44.512  26.590  31.809  1.00  0.00     0.029 A 
ATOM     54  C   UNL A   1      43.616  27.460  32.412  1.00  0.00     0.049 A 
ATOM     55  H   UNL A   1      41.868  28.327  31.611  1.00  0.00     0.167 HD
ATOM     56  C   UNL A   1      42.757  28.869  34.275  1.00  0.00     0.074 A 
ATOM     57  C   UNL A   1      42.817  29.386  35.628  1.00  0.00     0.031 C 
ATOM     58  C   UNL A   1      43.647  27.991  33.752  1.00  0.00     0.037 A 
BRANCH  45  59
ATOM     59  C   UNL A   1      42.494  26.290  27.918  1.00  0.00     0.064 A 
ATOM     60  C   UNL A   1      43.394  26.795  26.969  1.00  0.00     0.173 A 
ATOM     61  C   UNL A   1      41.986  24.997  27.724  1.00  0.00     0.173 A 
ATOM     62  F   UNL A   1      43.889  28.036  27.101  1.00  0.00    -0.203 F 
ATOM     63  C   UNL A   1      43.758  26.041  25.857  1.00  0.00     0.198 A 
ATOM     64  C   UNL A   1      42.370  24.237  26.623  1.00  0.00     0.198 A 
ATOM     65  F   UNL A   1      41.117  24.473  28.601  1.00  0.00    -0.203 F 
ATOM     66  F   UNL A   1      44.587  26.558  24.940  1.00  0.00    -0.200 F 
ATOM     67  C   UNL A   1      43.251  24.760  25.689  1.00  0.00     0.200 A 
ATOM     68  F   UNL A   1      41.883  22.999  26.464  1.00  0.00    -0.200 F 
ATOM     69  F   UNL A   1      43.605  24.034  24.619  1.00  0.00    -0.200 F 
ENDBRANCH  45  59
BRANCH  46  70
ATOM     70  C   UNL A   1      39.433  31.935  35.624  1.00  0.00     0.064 A 
ATOM     71  C   UNL A   1      39.975  33.210  35.825  1.00  0.00     0.173 A 
ATOM     72  C   UNL A   1      38.439  31.500  36.514  1.00  0.00     0.173 A 
ATOM     73  F   UNL A   1      40.944  33.662  35.015  1.00  0.00    -0.203 F 
ATOM     74  C   UNL A   1      39.543  34.019  36.875  1.00  0.00     0.198 A 
ATOM     75  C   UNL A   1      37.992  32.318  37.550  1.00  0.00     0.198 A 
ATOM     76  F   UNL A   1      37.890  30.285  36.367  1.00  0.00    -0.203 F 
ATOM     77  F   UNL A   1      40.097  35.225  37.061  1.00  0.00    -0.200 F 
ATOM     78  C   UNL A   1      38.546  33.576  37.731  1.00  0.00     0.200 A 
ATOM     79  F   UNL A   1      37.021  31.890  38.368  1.00  0.00    -0.200 F 
ATOM     80  F   UNL A   1      38.122  34.359  38.733  1.00  0.00    -0.200 F 
ENDBRANCH  46  70
BRANCH  58  81
ATOM     81  C   UNL A   1      44.767  27.533  34.636  1.00  0.00     0.064 A 
ATOM     82  C   UNL A   1      45.953  28.271  34.749  1.00  0.00     0.173 A 
ATOM     83  C   UNL A   1      44.613  26.400  35.449  1.00  0.00     0.173 A 
ATOM     84  F   UNL A   1      46.150  29.355  33.982  1.00  0.00    -0.203 F 
ATOM     85  C   UNL A   1      46.948  27.889  35.643  1.00  0.00     0.198 A 
ATOM     86  C   UNL A   1      45.598  26.035  36.360  1.00  0.00     0.198 A 
ATOM     87  F   UNL A   1      43.491  25.668  35.381  1.00  0.00    -0.203 F 
ATOM     88  F   UNL A   1      48.084  28.596  35.722  1.00  0.00    -0.200 F 
ATOM     89  C   UNL A   1      46.765  26.779  36.456  1.00  0.00     0.200 A 
ATOM     90  F   UNL A   1      45.414  24.972  37.155  1.00  0.00    -0.200 F 
ATOM     91  F   UNL A   1      47.715  26.426  37.333  1.00  0.00    -0.200 F 
ENDBRANCH  58  81
ENDBRANCH  32  33
ENDBRANCH  25  27
ENDBRANCH  24  25
ENDBRANCH  23  24
ENDBRANCH   1  23
TORSDOF 13
ENDMDL
MODEL 3
REMARK VINA RESULT:     -12.2      0.585      1.981
REMARK SMILES Cc1nn(C)c(=O)c(C(=O)N2CCCC[C@H]2C(=O)OCCOC(=O)c2ccc(-c3c4nc(c(-c5c(F)c(F)c(F)c(F)c5F)c5ccc([nH]5)c(-c5c(F)c(F)c(F)c(F)c5F)c5nc(c(-c6c(F)c(F)c(F)c(F)c6F)c6ccc3[nH]6)C=C5)C=C4)cc2)c1C
REMARK SMILES IDX 20 1 19 2 17 3 18 4 16 5 11 6 12 7 13 8 15 9 14 10 9 11
REMARK SMILES IDX 10 12 8 13 1 14 2 15 3 16 88 17 4 18 89 19 5 20 6 21 7 22
REMARK SMILES IDX 21 23 22 24 23 25 24 26 25 27 26 28 87 29 27 30 86 31 28 32
REMARK SMILES IDX 29 33 30 34 80 35 31 36 85 37 79 38 81 39 32 40 84 41 78 42
REMARK SMILES IDX 77 43 33 45 65 46 45 47 64 48 46 49 49 50 63 51 82 52 47 53
REMARK SMILES IDX 48 54 62 56 83 57 50 58 34 59 35 60 43 61 36 62 37 63 41 64
REMARK SMILES IDX 44 65 38 66 39 67 42 68 40 69 66 70 67 71 75 72 68 73 69 74
REMARK SMILES IDX 73 75 76 76 70 77 71 78 74 79 72 80 51 81 52 82 60 83 53 84
REMARK SMILES IDX 54 85 58 86 61 87 55 88 56 89 59 90 57 91
REMARK H PARENT 81 44 49 55
REMARK Flexibility Score: inf
ROOT
ATOM      1  C   UNL A   1      31.626  29.317  24.750  1.00  0.00     0.274 C 
ENDROOT
BRANCH   1   2
ATOM      2  O   UNL A   1      32.583  28.253  24.952  1.00  0.00    -0.461 OA
BRANCH   2   3
ATOM      3  C   UNL A   1      33.109  27.665  23.844  1.00  0.00     0.328 C 
ATOM      4  O   UNL A   1      33.878  28.232  23.076  1.00  0.00    -0.250 OA
BRANCH   3   5
ATOM      5  C   UNL A   1      32.755  26.154  23.747  1.00  0.00     0.195 C 
ATOM      6  N   UNL A   1      33.882  25.197  23.856  1.00  0.00    -0.325 N 
ATOM      7  C   UNL A   1      34.415  25.027  25.207  1.00  0.00     0.121 C 
ATOM      8  C   UNL A   1      33.309  24.784  26.251  1.00  0.00     0.022 C 
ATOM      9  C   UNL A   1      31.627  25.821  24.727  1.00  0.00     0.037 C 
ATOM     10  C   UNL A   1      32.165  25.793  26.150  1.00  0.00     0.005 C 
BRANCH   6  11
ATOM     11  C   UNL A   1      33.868  24.096  22.989  1.00  0.00     0.260 C 
ATOM     12  O   UNL A   1      33.615  24.240  21.795  1.00  0.00    -0.269 OA
BRANCH  11  13
ATOM     13  C   UNL A   1      34.365  22.768  23.517  1.00  0.00     0.111 A 
ATOM     14  C   UNL A   1      33.199  19.553  25.194  1.00  0.00     0.069 C 
ATOM     15  C   UNL A   1      34.120  20.659  24.713  1.00  0.00     0.062 A 
ATOM     16  N   UNL A   1      35.382  20.488  24.907  1.00  0.00    -0.175 NA
ATOM     17  C   UNL A   1      33.532  21.872  24.083  1.00  0.00    -0.010 A 
ATOM     18  N   UNL A   1      36.230  21.451  24.444  1.00  0.00    -0.232 N 
ATOM     19  C   UNL A   1      32.070  22.013  24.266  1.00  0.00     0.047 C 
ATOM     20  C   UNL A   1      37.626  21.217  24.775  1.00  0.00     0.178 C 
ATOM     21  C   UNL A   1      35.840  22.541  23.663  1.00  0.00     0.279 A 
ATOM     22  O   UNL A   1      36.645  23.291  23.114  1.00  0.00    -0.267 OA
ENDBRANCH  11  13
ENDBRANCH   6  11
ENDBRANCH   3   5
ENDBRANCH   2   3
ENDBRANCH   1   2
BRANCH   1  23
ATOM     23  C   UNL A   1      31.787  30.441  25.784  1.00  0.00     0.275 C 
BRANCH  23  24
ATOM     24  O   UNL A   1      33.104  30.407  26.352  1.00  0.00    -0.458 OA
BRANCH  24  25
ATOM     25  C   UNL A   1      33.495  31.476  27.091  1.00  0.00     0.338 C 
ATOM     26  O   UNL A   1      32.902  32.504  27.304  1.00  0.00    -0.246 OA
BRANCH  25  27
ATOM     27  C   UNL A   1      34.745  31.087  27.757  1.00  0.00     0.060 A 
ATOM     28  C   UNL A   1      35.715  32.069  27.977  1.00  0.00     0.016 A 
ATOM     29  C   UNL A   1      34.910  29.784  28.220  1.00  0.00     0.016 A 
ATOM     30  C   UNL A   1      36.830  31.769  28.746  1.00  0.00     0.010 A 
ATOM     31  C   UNL A   1      36.045  29.475  28.962  1.00  0.00     0.010 A 
ATOM     32  C   UNL A   1      36.992  30.472  29.243  1.00  0.00    -0.014 A 
BRANCH  32  33
ATOM     33  C   UNL A   1      38.197  30.134  30.018  1.00  0.00     0.031 A 
ATOM     34  C   UNL A   1      39.190  29.192  29.423  1.00  0.00     0.074 A 
ATOM     35  C   UNL A   1      38.376  30.673  31.234  1.00  0.00     0.049 A 
ATOM     36  N   UNL A   1      40.276  28.695  29.953  1.00  0.00    -0.248 NA
ATOM     37  C   UNL A   1      38.927  28.750  28.044  1.00  0.00     0.031 C 
ATOM     38  C   UNL A   1      37.484  31.646  31.864  1.00  0.00     0.029 A 
ATOM     39  N   UNL A   1      39.365  30.473  32.161  1.00  0.00    -0.354 N 
ATOM     40  C   UNL A   1      40.828  27.888  28.972  1.00  0.00     0.074 A 
ATOM     41  C   UNL A   1      39.949  27.937  27.825  1.00  0.00     0.031 C 
ATOM     42  C   UNL A   1      37.964  31.954  33.081  1.00  0.00     0.029 A 
ATOM     43  C   UNL A   1      39.174  31.173  33.326  1.00  0.00     0.049 A 
ATOM     44  H   UNL A   1      40.139  29.884  32.005  1.00  0.00     0.167 HD
ATOM     45  C   UNL A   1      41.975  27.174  29.032  1.00  0.00     0.037 A 
ATOM     46  C   UNL A   1      39.891  31.158  34.464  1.00  0.00     0.037 A 
ATOM     47  C   UNL A   1      42.822  27.121  30.191  1.00  0.00     0.049 A 
ATOM     48  C   UNL A   1      41.107  30.275  34.541  1.00  0.00     0.074 A 
ATOM     49  C   UNL A   1      43.999  26.418  30.370  1.00  0.00     0.029 A 
ATOM     50  N   UNL A   1      42.573  27.799  31.377  1.00  0.00    -0.354 N 
ATOM     51  N   UNL A   1      41.629  29.506  33.615  1.00  0.00    -0.248 NA
ATOM     52  C   UNL A   1      41.828  30.244  35.821  1.00  0.00     0.031 C 
ATOM     53  C   UNL A   1      44.437  26.634  31.680  1.00  0.00     0.029 A 
ATOM     54  C   UNL A   1      43.560  27.509  32.303  1.00  0.00     0.049 A 
ATOM     55  H   UNL A   1      41.806  28.397  31.537  1.00  0.00     0.167 HD
ATOM     56  C   UNL A   1      42.745  28.914  34.189  1.00  0.00     0.074 A 
ATOM     57  C   UNL A   1      42.832  29.423  35.544  1.00  0.00     0.031 C 
ATOM     58  C   UNL A   1      43.618  28.031  33.646  1.00  0.00     0.037 A 
BRANCH  45  59
ATOM     59  C   UNL A   1      42.352  26.376  27.822  1.00  0.00     0.064 A 
ATOM     60  C   UNL A   1      41.801  25.109  27.581  1.00  0.00     0.173 A 
ATOM     61  C   UNL A   1      43.262  26.890  26.887  1.00  0.00     0.173 A 
ATOM     62  F   UNL A   1      40.943  24.567  28.458  1.00  0.00    -0.203 F 
ATOM     63  C   UNL A   1      42.163  24.376  26.454  1.00  0.00     0.198 A 
ATOM     64  C   UNL A   1      43.604  26.164  25.750  1.00  0.00     0.198 A 
ATOM     65  F   UNL A   1      43.820  28.095  27.078  1.00  0.00    -0.203 F 
ATOM     66  F   UNL A   1      41.658  23.150  26.263  1.00  0.00    -0.200 F 
ATOM     67  C   UNL A   1      43.059  24.907  25.536  1.00  0.00     0.200 A 
ATOM     68  F   UNL A   1      44.465  26.679  24.863  1.00  0.00    -0.200 F 
ATOM     69  F   UNL A   1      43.404  24.201  24.450  1.00  0.00    -0.200 F 
ENDBRANCH  45  59
BRANCH  46  70
ATOM     70  C   UNL A   1      39.472  32.002  35.611  1.00  0.00     0.064 A 
ATOM     71  C   UNL A   1      39.985  33.294  35.778  1.00  0.00     0.173 A 
ATOM     72  C   UNL A   1      38.533  31.547  36.549  1.00  0.00     0.173 A 
ATOM     73  F   UNL A   1      40.903  33.766  34.921  1.00  0.00    -0.203 F 
ATOM     74  C   UNL A   1      39.577  34.100  36.840  1.00  0.00     0.198 A 
ATOM     75  C   UNL A   1      38.109  32.361  37.597  1.00  0.00     0.198 A 
ATOM     76  F   UNL A   1      38.013  30.315  36.436  1.00  0.00    -0.203 F 
ATOM     77  F   UNL A   1      40.104  35.323  36.991  1.00  0.00    -0.200 F 
ATOM     78  C   UNL A   1      38.633  33.636  37.744  1.00  0.00     0.200 A 
ATOM     79  F   UNL A   1      37.189  31.912  38.462  1.00  0.00    -0.200 F 
ATOM     80  F   UNL A   1      38.232  34.415  38.757  1.00  0.00    -0.200 F 
ENDBRANCH  46  70
BRANCH  58  81
ATOM     81  C   UNL A   1      44.748  27.558  34.508  1.00  0.00     0.064 A 
ATOM     82  C   UNL A   1      44.643  26.383  35.266  1.00  0.00     0.173 A 
ATOM     83  C   UNL A   1      45.978  28.233  34.500  1.00  0.00     0.173 A 
ATOM     84  F   UNL A   1      43.482  25.712  35.313  1.00  0.00    -0.203 F 
ATOM     85  C   UNL A   1      45.730  25.902  35.988  1.00  0.00     0.198 A 
ATOM     86  C   UNL A   1      47.070  27.735  35.203  1.00  0.00     0.198 A 
ATOM     87  F   UNL A   1      46.127  29.356  33.783  1.00  0.00    -0.203 F 
ATOM     88  F   UNL A   1      45.604  24.788  36.723  1.00  0.00    -0.200 F 
ATOM     89  C   UNL A   1      46.946  26.570  35.947  1.00  0.00     0.200 A 
ATOM     90  F   UNL A   1      48.247  28.374  35.151  1.00  0.00    -0.200 F 
ATOM     91  F   UNL A   1      47.998  26.093  36.626  1.00  0.00    -0.200 F 
ENDBRANCH  58  81
ENDBRANCH  32  33
ENDBRANCH  25  27
ENDBRANCH  24  25
ENDBRANCH  23  24
ENDBRANCH   1  23
TORSDOF 13
ENDMDL
