MODEL 1
REMARK VINA RESULT:     -12.3      0.000      0.000
REMARK SMILES CC(C)CCc1cc2c(cc1Cl)C=C(C(=O)OCCOC(=O)c1ccc(-c3c4nc(c(-c5c(F)c(F)c(F)c(F)c5F)c5ccc([nH]5)c(-c5c(F)c(F)c(F)c(F)c5F)c5nc(c(-c6c(F)c(F)c(F)c(F)c6F)c6ccc3[nH]6)C=C5)C=C4)cc1)[C@@H](C(F)(F)F)O2
REMARK SMILES IDX 18 1 17 2 15 3 16 4 14 5 6 6 7 7 11 8 8 9 10 10 12 11 9 12
REMARK SMILES IDX 91 13 13 14 86 15 5 16 4 17 2 18 1 19 3 20 87 21 88 22 89 23
REMARK SMILES IDX 90 24 19 25 20 26 21 27 22 28 23 29 24 30 85 31 25 32 84 33
REMARK SMILES IDX 26 34 27 35 28 36 78 37 29 38 83 39 77 40 79 41 30 42 82 43
REMARK SMILES IDX 76 44 75 45 31 47 63 48 43 49 62 50 44 51 47 52 61 53 80 54
REMARK SMILES IDX 45 55 46 56 60 58 81 59 48 60 32 61 33 62 41 63 34 64 35 65
REMARK SMILES IDX 39 66 42 67 36 68 37 69 40 70 38 71 64 72 65 73 73 74 66 75
REMARK SMILES IDX 67 76 71 77 74 78 68 79 69 80 72 81 70 82 49 83 50 84 58 85
REMARK SMILES IDX 51 86 52 87 56 88 59 89 53 90 54 91 57 92 55 93
REMARK H PARENT 79 46 47 57
REMARK Flexibility Score: inf
ROOT
ATOM      1  C   UNL A   1      31.686  29.417  24.899  1.00  0.00     0.275 C 
ENDROOT
BRANCH   1   2
ATOM      2  O   UNL A   1      32.082  28.256  25.663  1.00  0.00    -0.459 OA
BRANCH   2   3
ATOM      3  C   UNL A   1      32.897  27.404  25.003  1.00  0.00     0.338 C 
ATOM      4  O   UNL A   1      33.813  27.708  24.253  1.00  0.00    -0.246 OA
BRANCH   3   5
ATOM      5  C   UNL A   1      32.592  26.004  25.334  1.00  0.00     0.087 C 
ATOM      6  C   UNL A   1      33.202  21.013  25.621  1.00  0.00    -0.026 A 
ATOM      7  C   UNL A   1      32.071  21.876  25.600  1.00  0.00     0.052 A 
ATOM      8  C   UNL A   1      34.472  21.613  25.586  1.00  0.00     0.045 A 
ATOM      9  C   UNL A   1      32.205  23.266  25.585  1.00  0.00     0.128 A 
ATOM     10  C   UNL A   1      34.599  23.000  25.676  1.00  0.00     0.032 A 
ATOM     11  Cl  UNL A   1      35.959  20.772  25.341  1.00  0.00    -0.084 Cl
ATOM     12  C   UNL A   1      33.472  23.818  25.677  1.00  0.00     0.019 A 
ATOM     13  O   UNL A   1      31.072  24.032  25.487  1.00  0.00    -0.475 OA
ATOM     14  C   UNL A   1      33.639  25.252  25.679  1.00  0.00     0.027 C 
ATOM     15  C   UNL A   1      31.234  25.425  25.055  1.00  0.00     0.316 C 
BRANCH   6  16
ATOM     16  C   UNL A   1      32.903  19.526  25.592  1.00  0.00     0.037 C 
BRANCH  16  17
ATOM     17  C   UNL A   1      32.997  18.706  24.294  1.00  0.00     0.008 C 
BRANCH  17  18
ATOM     18  C   UNL A   1      33.998  17.534  24.301  1.00  0.00    -0.017 C 
ATOM     19  C   UNL A   1      33.655  16.494  25.366  1.00  0.00     0.007 C 
ATOM     20  C   UNL A   1      34.032  16.875  22.918  1.00  0.00     0.007 C 
ENDBRANCH  17  18
ENDBRANCH  16  17
ENDBRANCH   6  16
BRANCH  15  21
ATOM     21  C   UNL A   1      30.857  25.566  23.572  1.00  0.00     0.430 C 
ATOM     22  F   UNL A   1      30.292  26.769  23.317  1.00  0.00    -0.167 F 
ATOM     23  F   UNL A   1      31.954  25.477  22.777  1.00  0.00    -0.167 F 
ATOM     24  F   UNL A   1      29.988  24.613  23.168  1.00  0.00    -0.167 F 
ENDBRANCH  15  21
ENDBRANCH   3   5
ENDBRANCH   2   3
ENDBRANCH   1   2
BRANCH   1  25
ATOM     25  C   UNL A   1      31.586  30.661  25.784  1.00  0.00     0.275 C 
BRANCH  25  26
ATOM     26  O   UNL A   1      32.410  30.520  26.957  1.00  0.00    -0.458 OA
BRANCH  26  27
ATOM     27  C   UNL A   1      33.151  31.602  27.284  1.00  0.00     0.338 C 
ATOM     28  O   UNL A   1      32.820  32.774  27.228  1.00  0.00    -0.246 OA
BRANCH  27  29
ATOM     29  C   UNL A   1      34.479  31.183  27.765  1.00  0.00     0.060 A 
ATOM     30  C   UNL A   1      35.432  32.142  28.099  1.00  0.00     0.016 A 
ATOM     31  C   UNL A   1      34.721  29.839  28.039  1.00  0.00     0.016 A 
ATOM     32  C   UNL A   1      36.627  31.743  28.710  1.00  0.00     0.010 A 
ATOM     33  C   UNL A   1      35.836  29.468  28.786  1.00  0.00     0.010 A 
ATOM     34  C   UNL A   1      36.826  30.407  29.106  1.00  0.00    -0.014 A 
BRANCH  34  35
ATOM     35  C   UNL A   1      38.062  29.975  29.825  1.00  0.00     0.031 A 
ATOM     36  C   UNL A   1      38.322  30.431  31.243  1.00  0.00     0.074 A 
ATOM     37  C   UNL A   1      38.984  29.215  29.200  1.00  0.00     0.049 A 
ATOM     38  N   UNL A   1      39.373  30.232  32.000  1.00  0.00    -0.248 NA
ATOM     39  C   UNL A   1      37.285  31.259  31.878  1.00  0.00     0.031 C 
ATOM     40  C   UNL A   1      38.911  28.762  27.810  1.00  0.00     0.029 A 
ATOM     41  N   UNL A   1      40.165  28.679  29.657  1.00  0.00    -0.354 N 
ATOM     42  C   UNL A   1      39.142  30.948  33.169  1.00  0.00     0.074 A 
ATOM     43  C   UNL A   1      37.880  31.633  33.001  1.00  0.00     0.031 C 
ATOM     44  C   UNL A   1      39.959  27.965  27.549  1.00  0.00     0.029 A 
ATOM     45  C   UNL A   1      40.804  27.884  28.736  1.00  0.00     0.049 A 
ATOM     46  H   UNL A   1      40.519  28.848  30.560  1.00  0.00     0.167 HD
ATOM     47  C   UNL A   1      39.890  31.006  34.297  1.00  0.00     0.037 A 
ATOM     48  C   UNL A   1      41.935  27.159  28.838  1.00  0.00     0.037 A 
ATOM     49  C   UNL A   1      41.103  30.263  34.503  1.00  0.00     0.049 A 
ATOM     50  C   UNL A   1      42.702  27.165  30.131  1.00  0.00     0.074 A 
ATOM     51  C   UNL A   1      41.900  30.204  35.633  1.00  0.00     0.029 A 
ATOM     52  N   UNL A   1      41.683  29.425  33.562  1.00  0.00    -0.354 N 
ATOM     53  N   UNL A   1      42.453  27.822  31.237  1.00  0.00    -0.248 NA
ATOM     54  C   UNL A   1      43.906  26.324  30.192  1.00  0.00     0.031 C 
ATOM     55  C   UNL A   1      42.969  29.342  35.372  1.00  0.00     0.029 A 
ATOM     56  C   UNL A   1      42.820  28.837  34.091  1.00  0.00     0.049 A 
ATOM     57  H   UNL A   1      41.337  29.271  32.653  1.00  0.00     0.167 HD
ATOM     58  C   UNL A   1      43.452  27.461  32.129  1.00  0.00     0.074 A 
ATOM     59  C   UNL A   1      44.305  26.512  31.443  1.00  0.00     0.031 C 
ATOM     60  C   UNL A   1      43.649  27.884  33.401  1.00  0.00     0.037 A 
BRANCH  47  61
ATOM     61  C   UNL A   1      39.397  31.879  35.416  1.00  0.00     0.064 A 
ATOM     62  C   UNL A   1      39.749  33.235  35.498  1.00  0.00     0.173 A 
ATOM     63  C   UNL A   1      38.531  31.367  36.394  1.00  0.00     0.173 A 
ATOM     64  F   UNL A   1      40.582  33.771  34.593  1.00  0.00    -0.203 F 
ATOM     65  C   UNL A   1      39.279  34.037  36.534  1.00  0.00     0.198 A 
ATOM     66  C   UNL A   1      38.038  32.180  37.411  1.00  0.00     0.198 A 
ATOM     67  F   UNL A   1      38.155  30.079  36.359  1.00  0.00    -0.203 F 
ATOM     68  F   UNL A   1      39.671  35.316  36.618  1.00  0.00    -0.200 F 
ATOM     69  C   UNL A   1      38.418  33.512  37.486  1.00  0.00     0.200 A 
ATOM     70  F   UNL A   1      37.193  31.676  38.321  1.00  0.00    -0.200 F 
ATOM     71  F   UNL A   1      37.959  34.289  38.476  1.00  0.00    -0.200 F 
ENDBRANCH  47  61
BRANCH  48  72
ATOM     72  C   UNL A   1      42.367  26.309  27.699  1.00  0.00     0.064 A 
ATOM     73  C   UNL A   1      43.363  26.754  26.819  1.00  0.00     0.173 A 
ATOM     74  C   UNL A   1      41.825  25.034  27.484  1.00  0.00     0.173 A 
ATOM     75  F   UNL A   1      43.897  27.974  26.974  1.00  0.00    -0.203 F 
ATOM     76  C   UNL A   1      43.797  25.958  25.761  1.00  0.00     0.198 A 
ATOM     77  C   UNL A   1      42.276  24.230  26.439  1.00  0.00     0.198 A 
ATOM     78  F   UNL A   1      40.873  24.563  28.302  1.00  0.00    -0.203 F 
ATOM     79  F   UNL A   1      44.730  26.418  24.918  1.00  0.00    -0.200 F 
ATOM     80  C   UNL A   1      43.259  24.693  25.577  1.00  0.00     0.200 A 
ATOM     81  F   UNL A   1      41.764  23.003  26.271  1.00  0.00    -0.200 F 
ATOM     82  F   UNL A   1      43.685  23.923  24.566  1.00  0.00    -0.200 F 
ENDBRANCH  48  72
BRANCH  60  83
ATOM     83  C   UNL A   1      44.808  27.301  34.151  1.00  0.00     0.064 A 
ATOM     84  C   UNL A   1      46.063  27.925  34.160  1.00  0.00     0.173 A 
ATOM     85  C   UNL A   1      44.644  26.136  34.915  1.00  0.00     0.173 A 
ATOM     86  F   UNL A   1      46.270  29.034  33.435  1.00  0.00    -0.203 F 
ATOM     87  C   UNL A   1      47.120  27.391  34.892  1.00  0.00     0.198 A 
ATOM     88  C   UNL A   1      45.696  25.619  35.664  1.00  0.00     0.198 A 
ATOM     89  F   UNL A   1      43.458  25.508  34.945  1.00  0.00    -0.203 F 
ATOM     90  F   UNL A   1      48.322  27.982  34.858  1.00  0.00    -0.200 F 
ATOM     91  C   UNL A   1      46.934  26.243  35.649  1.00  0.00     0.200 A 
ATOM     92  F   UNL A   1      45.512  24.516  36.404  1.00  0.00    -0.200 F 
ATOM     93  F   UNL A   1      47.951  25.734  36.359  1.00  0.00    -0.200 F 
ENDBRANCH  60  83
ENDBRANCH  34  35
ENDBRANCH  27  29
ENDBRANCH  26  27
ENDBRANCH  25  26
ENDBRANCH   1  25
TORSDOF 15
ENDMDL
MODEL 2
REMARK VINA RESULT:     -12.2      4.478      9.842
REMARK SMILES CC(C)CCc1cc2c(cc1Cl)C=C(C(=O)OCCOC(=O)c1ccc(-c3c4nc(c(-c5c(F)c(F)c(F)c(F)c5F)c5ccc([nH]5)c(-c5c(F)c(F)c(F)c(F)c5F)c5nc(c(-c6c(F)c(F)c(F)c(F)c6F)c6ccc3[nH]6)C=C5)C=C4)cc1)[C@@H](C(F)(F)F)O2
REMARK SMILES IDX 18 1 17 2 15 3 16 4 14 5 6 6 7 7 11 8 8 9 10 10 12 11 9 12
REMARK SMILES IDX 91 13 13 14 86 15 5 16 4 17 2 18 1 19 3 20 87 21 88 22 89 23
REMARK SMILES IDX 90 24 19 25 20 26 21 27 22 28 23 29 24 30 85 31 25 32 84 33
REMARK SMILES IDX 26 34 27 35 28 36 78 37 29 38 83 39 77 40 79 41 30 42 82 43
REMARK SMILES IDX 76 44 75 45 31 47 63 48 43 49 62 50 44 51 47 52 61 53 80 54
REMARK SMILES IDX 45 55 46 56 60 58 81 59 48 60 32 61 33 62 41 63 34 64 35 65
REMARK SMILES IDX 39 66 42 67 36 68 37 69 40 70 38 71 64 72 65 73 73 74 66 75
REMARK SMILES IDX 67 76 71 77 74 78 68 79 69 80 72 81 70 82 49 83 50 84 58 85
REMARK SMILES IDX 51 86 52 87 56 88 59 89 53 90 54 91 57 92 55 93
REMARK H PARENT 79 46 47 57
REMARK Flexibility Score: inf
ROOT
ATOM      1  C   UNL A   1      36.463  22.439  23.912  1.00  0.00     0.275 C 
ENDROOT
BRANCH   1   2
ATOM      2  O   UNL A   1      35.037  22.241  24.037  1.00  0.00    -0.459 OA
BRANCH   2   3
ATOM      3  C   UNL A   1      34.456  22.958  25.024  1.00  0.00     0.338 C 
ATOM      4  O   UNL A   1      34.461  22.692  26.216  1.00  0.00    -0.246 OA
BRANCH   3   5
ATOM      5  C   UNL A   1      33.829  24.181  24.501  1.00  0.00     0.087 C 
ATOM      6  C   UNL A   1      31.474  28.632  24.549  1.00  0.00    -0.026 A 
ATOM      7  C   UNL A   1      31.566  27.567  23.610  1.00  0.00     0.052 A 
ATOM      8  C   UNL A   1      32.198  28.502  25.745  1.00  0.00     0.045 A 
ATOM      9  C   UNL A   1      32.372  26.450  23.840  1.00  0.00     0.128 A 
ATOM     10  C   UNL A   1      33.080  27.435  25.923  1.00  0.00     0.032 A 
ATOM     11  Cl  UNL A   1      32.032  29.530  27.121  1.00  0.00    -0.084 Cl
ATOM     12  C   UNL A   1      33.165  26.418  24.975  1.00  0.00     0.019 A 
ATOM     13  O   UNL A   1      32.350  25.428  22.926  1.00  0.00    -0.475 OA
ATOM     14  C   UNL A   1      34.019  25.283  25.230  1.00  0.00     0.027 C 
ATOM     15  C   UNL A   1      32.848  24.120  23.365  1.00  0.00     0.316 C 
BRANCH   6  16
ATOM     16  C   UNL A   1      30.526  29.760  24.184  1.00  0.00     0.037 C 
BRANCH  16  17
ATOM     17  C   UNL A   1      29.362  29.553  23.199  1.00  0.00     0.008 C 
BRANCH  17  18
ATOM     18  C   UNL A   1      28.678  30.832  22.678  1.00  0.00    -0.017 C 
ATOM     19  C   UNL A   1      28.157  30.661  21.252  1.00  0.00     0.007 C 
ATOM     20  C   UNL A   1      27.527  31.219  23.611  1.00  0.00     0.007 C 
ENDBRANCH  17  18
ENDBRANCH  16  17
ENDBRANCH   6  16
BRANCH  15  21
ATOM     21  C   UNL A   1      31.671  23.187  23.690  1.00  0.00     0.430 C 
ATOM     22  F   UNL A   1      30.530  23.603  23.094  1.00  0.00    -0.167 F 
ATOM     23  F   UNL A   1      31.906  21.928  23.242  1.00  0.00    -0.167 F 
ATOM     24  F   UNL A   1      31.431  23.104  25.018  1.00  0.00    -0.167 F 
ENDBRANCH  15  21
ENDBRANCH   3   5
ENDBRANCH   2   3
ENDBRANCH   1   2
BRANCH   1  25
ATOM     25  C   UNL A   1      37.246  21.284  24.539  1.00  0.00     0.275 C 
BRANCH  25  26
ATOM     26  O   UNL A   1      37.649  21.612  25.882  1.00  0.00    -0.458 OA
BRANCH  26  27
ATOM     27  C   UNL A   1      38.974  21.516  26.134  1.00  0.00     0.338 C 
ATOM     28  O   UNL A   1      39.703  20.561  25.925  1.00  0.00    -0.246 OA
BRANCH  27  29
ATOM     29  C   UNL A   1      39.476  22.778  26.706  1.00  0.00     0.060 A 
ATOM     30  C   UNL A   1      40.550  22.761  27.591  1.00  0.00     0.016 A 
ATOM     31  C   UNL A   1      38.983  23.992  26.236  1.00  0.00     0.016 A 
ATOM     32  C   UNL A   1      41.126  23.970  28.000  1.00  0.00     0.010 A 
ATOM     33  C   UNL A   1      39.658  25.177  26.519  1.00  0.00     0.010 A 
ATOM     34  C   UNL A   1      40.719  25.193  27.433  1.00  0.00    -0.014 A 
BRANCH  34  35
ATOM     35  C   UNL A   1      41.372  26.485  27.800  1.00  0.00     0.031 A 
ATOM     36  C   UNL A   1      42.783  26.787  27.350  1.00  0.00     0.074 A 
ATOM     37  C   UNL A   1      40.727  27.377  28.581  1.00  0.00     0.049 A 
ATOM     38  N   UNL A   1      43.546  27.813  27.638  1.00  0.00    -0.248 NA
ATOM     39  C   UNL A   1      43.442  25.781  26.501  1.00  0.00     0.031 C 
ATOM     40  C   UNL A   1      39.394  27.193  29.157  1.00  0.00     0.029 A 
ATOM     41  N   UNL A   1      41.104  28.624  29.019  1.00  0.00    -0.354 N 
ATOM     42  C   UNL A   1      44.778  27.548  27.050  1.00  0.00     0.074 A 
ATOM     43  C   UNL A   1      44.682  26.242  26.439  1.00  0.00     0.031 C 
ATOM     44  C   UNL A   1      39.038  28.310  29.812  1.00  0.00     0.029 A 
ATOM     45  C   UNL A   1      40.133  29.272  29.743  1.00  0.00     0.049 A 
ATOM     46  H   UNL A   1      41.987  29.016  28.831  1.00  0.00     0.167 HD
ATOM     47  C   UNL A   1      45.881  28.332  26.991  1.00  0.00     0.037 A 
ATOM     48  C   UNL A   1      40.117  30.508  30.280  1.00  0.00     0.037 A 
ATOM     49  C   UNL A   1      45.957  29.665  27.524  1.00  0.00     0.049 A 
ATOM     50  C   UNL A   1      41.320  31.397  30.124  1.00  0.00     0.074 A 
ATOM     51  C   UNL A   1      47.008  30.564  27.459  1.00  0.00     0.029 A 
ATOM     52  N   UNL A   1      44.928  30.302  28.201  1.00  0.00    -0.354 N 
ATOM     53  N   UNL A   1      42.463  31.143  29.538  1.00  0.00    -0.248 NA
ATOM     54  C   UNL A   1      41.225  32.747  30.698  1.00  0.00     0.031 C 
ATOM     55  C   UNL A   1      46.620  31.740  28.109  1.00  0.00     0.029 A 
ATOM     56  C   UNL A   1      45.316  31.586  28.548  1.00  0.00     0.049 A 
ATOM     57  H   UNL A   1      44.052  29.902  28.404  1.00  0.00     0.167 HD
ATOM     58  C   UNL A   1      43.217  32.303  29.655  1.00  0.00     0.074 A 
ATOM     59  C   UNL A   1      42.394  33.269  30.353  1.00  0.00     0.031 C 
ATOM     60  C   UNL A   1      44.481  32.541  29.228  1.00  0.00     0.037 A 
BRANCH  47  61
ATOM     61  C   UNL A   1      47.091  27.780  26.291  1.00  0.00     0.064 A 
ATOM     62  C   UNL A   1      47.212  27.823  24.894  1.00  0.00     0.173 A 
ATOM     63  C   UNL A   1      48.157  27.240  27.025  1.00  0.00     0.173 A 
ATOM     64  F   UNL A   1      46.216  28.319  24.144  1.00  0.00    -0.203 F 
ATOM     65  C   UNL A   1      48.341  27.316  24.256  1.00  0.00     0.198 A 
ATOM     66  C   UNL A   1      49.299  26.763  26.385  1.00  0.00     0.198 A 
ATOM     67  F   UNL A   1      48.098  27.183  28.365  1.00  0.00    -0.203 F 
ATOM     68  F   UNL A   1      48.411  27.322  22.917  1.00  0.00    -0.200 F 
ATOM     69  C   UNL A   1      49.387  26.794  25.002  1.00  0.00     0.200 A 
ATOM     70  F   UNL A   1      50.316  26.274  27.108  1.00  0.00    -0.200 F 
ATOM     71  F   UNL A   1      50.477  26.317  24.386  1.00  0.00    -0.200 F 
ENDBRANCH  47  61
BRANCH  48  72
ATOM     72  C   UNL A   1      38.888  31.000  30.954  1.00  0.00     0.064 A 
ATOM     73  C   UNL A   1      37.843  31.559  30.206  1.00  0.00     0.173 A 
ATOM     74  C   UNL A   1      38.717  30.895  32.341  1.00  0.00     0.173 A 
ATOM     75  F   UNL A   1      37.971  31.697  28.878  1.00  0.00    -0.203 F 
ATOM     76  C   UNL A   1      36.674  32.003  30.820  1.00  0.00     0.198 A 
ATOM     77  C   UNL A   1      37.537  31.318  32.952  1.00  0.00     0.198 A 
ATOM     78  F   UNL A   1      39.685  30.363  33.100  1.00  0.00    -0.203 F 
ATOM     79  F   UNL A   1      35.702  32.559  30.085  1.00  0.00    -0.200 F 
ATOM     80  C   UNL A   1      36.518  31.874  32.192  1.00  0.00     0.200 A 
ATOM     81  F   UNL A   1      37.384  31.181  34.276  1.00  0.00    -0.200 F 
ATOM     82  F   UNL A   1      35.389  32.290  32.781  1.00  0.00    -0.200 F 
ENDBRANCH  48  72
BRANCH  60  83
ATOM     83  C   UNL A   1      45.044  33.909  29.468  1.00  0.00     0.064 A 
ATOM     84  C   UNL A   1      45.781  34.205  30.623  1.00  0.00     0.173 A 
ATOM     85  C   UNL A   1      44.892  34.917  28.504  1.00  0.00     0.173 A 
ATOM     86  F   UNL A   1      45.942  33.277  31.577  1.00  0.00    -0.203 F 
ATOM     87  C   UNL A   1      46.330  35.471  30.814  1.00  0.00     0.198 A 
ATOM     88  C   UNL A   1      45.462  36.173  28.688  1.00  0.00     0.198 A 
ATOM     89  F   UNL A   1      44.202  34.678  27.378  1.00  0.00    -0.203 F 
ATOM     90  F   UNL A   1      47.000  35.745  31.941  1.00  0.00    -0.200 F 
ATOM     91  C   UNL A   1      46.175  36.450  29.843  1.00  0.00     0.200 A 
ATOM     92  F   UNL A   1      45.323  37.115  27.745  1.00  0.00    -0.200 F 
ATOM     93  F   UNL A   1      46.711  37.666  30.026  1.00  0.00    -0.200 F 
ENDBRANCH  60  83
ENDBRANCH  34  35
ENDBRANCH  27  29
ENDBRANCH  26  27
ENDBRANCH  25  26
ENDBRANCH   1  25
TORSDOF 15
ENDMDL
MODEL 3
REMARK VINA RESULT:     -12.2      0.418      1.666
REMARK SMILES CC(C)CCc1cc2c(cc1Cl)C=C(C(=O)OCCOC(=O)c1ccc(-c3c4nc(c(-c5c(F)c(F)c(F)c(F)c5F)c5ccc([nH]5)c(-c5c(F)c(F)c(F)c(F)c5F)c5nc(c(-c6c(F)c(F)c(F)c(F)c6F)c6ccc3[nH]6)C=C5)C=C4)cc1)[C@@H](C(F)(F)F)O2
REMARK SMILES IDX 18 1 17 2 15 3 16 4 14 5 6 6 7 7 11 8 8 9 10 10 12 11 9 12
REMARK SMILES IDX 91 13 13 14 86 15 5 16 4 17 2 18 1 19 3 20 87 21 88 22 89 23
REMARK SMILES IDX 90 24 19 25 20 26 21 27 22 28 23 29 24 30 85 31 25 32 84 33
REMARK SMILES IDX 26 34 27 35 28 36 78 37 29 38 83 39 77 40 79 41 30 42 82 43
REMARK SMILES IDX 76 44 75 45 31 47 63 48 43 49 62 50 44 51 47 52 61 53 80 54
REMARK SMILES IDX 45 55 46 56 60 58 81 59 48 60 32 61 33 62 41 63 34 64 35 65
REMARK SMILES IDX 39 66 42 67 36 68 37 69 40 70 38 71 64 72 65 73 73 74 66 75
REMARK SMILES IDX 67 76 71 77 74 78 68 79 69 80 72 81 70 82 49 83 50 84 58 85
REMARK SMILES IDX 51 86 52 87 56 88 59 89 53 90 54 91 57 92 55 93
REMARK H PARENT 79 46 47 57
REMARK Flexibility Score: inf
ROOT
ATOM      1  C   UNL A   1      31.410  29.443  25.124  1.00  0.00     0.275 C 
ENDROOT
BRANCH   1   2
ATOM      2  O   UNL A   1      31.522  28.109  25.665  1.00  0.00    -0.459 OA
BRANCH   2   3
ATOM      3  C   UNL A   1      32.522  27.371  25.136  1.00  0.00     0.338 C 
ATOM      4  O   UNL A   1      33.505  27.796  24.548  1.00  0.00    -0.246 OA
BRANCH   3   5
ATOM      5  C   UNL A   1      32.329  25.937  25.396  1.00  0.00     0.087 C 
ATOM      6  C   UNL A   1      33.364  21.010  25.502  1.00  0.00    -0.026 A 
ATOM      7  C   UNL A   1      32.164  21.772  25.471  1.00  0.00     0.052 A 
ATOM      8  C   UNL A   1      34.576  21.717  25.544  1.00  0.00     0.045 A 
ATOM      9  C   UNL A   1      32.175  23.168  25.518  1.00  0.00     0.128 A 
ATOM     10  C   UNL A   1      34.579  23.105  25.696  1.00  0.00     0.032 A 
ATOM     11  Cl  UNL A   1      36.140  21.020  25.326  1.00  0.00    -0.084 Cl
ATOM     12  C   UNL A   1      33.384  23.822  25.684  1.00  0.00     0.019 A 
ATOM     13  O   UNL A   1      30.984  23.837  25.405  1.00  0.00    -0.475 OA
ATOM     14  C   UNL A   1      33.425  25.263  25.753  1.00  0.00     0.027 C 
ATOM     15  C   UNL A   1      31.039  25.256  25.038  1.00  0.00     0.316 C 
BRANCH   6  16
ATOM     16  C   UNL A   1      33.198  19.505  25.400  1.00  0.00     0.037 C 
BRANCH  16  17
ATOM     17  C   UNL A   1      32.721  18.829  24.103  1.00  0.00     0.008 C 
BRANCH  17  18
ATOM     18  C   UNL A   1      32.880  17.297  24.037  1.00  0.00    -0.017 C 
ATOM     19  C   UNL A   1      34.034  16.881  23.127  1.00  0.00     0.007 C 
ATOM     20  C   UNL A   1      33.098  16.739  25.446  1.00  0.00     0.007 C 
ENDBRANCH  17  18
ENDBRANCH  16  17
ENDBRANCH   6  16
BRANCH  15  21
ATOM     21  C   UNL A   1      30.707  25.431  23.548  1.00  0.00     0.430 C 
ATOM     22  F   UNL A   1      30.093  26.613  23.313  1.00  0.00    -0.167 F 
ATOM     23  F   UNL A   1      31.833  25.421  22.790  1.00  0.00    -0.167 F 
ATOM     24  F   UNL A   1      29.899  24.452  23.082  1.00  0.00    -0.167 F 
ENDBRANCH  15  21
ENDBRANCH   3   5
ENDBRANCH   2   3
ENDBRANCH   1   2
BRANCH   1  25
ATOM     25  C   UNL A   1      31.760  30.503  26.170  1.00  0.00     0.275 C 
BRANCH  25  26
ATOM     26  O   UNL A   1      33.187  30.683  26.255  1.00  0.00    -0.458 OA
BRANCH  26  27
ATOM     27  C   UNL A   1      33.612  31.539  27.210  1.00  0.00     0.338 C 
ATOM     28  O   UNL A   1      33.040  32.531  27.628  1.00  0.00    -0.246 OA
BRANCH  27  29
ATOM     29  C   UNL A   1      34.917  31.104  27.739  1.00  0.00     0.060 A 
ATOM     30  C   UNL A   1      35.889  32.049  28.057  1.00  0.00     0.016 A 
ATOM     31  C   UNL A   1      35.113  29.767  28.073  1.00  0.00     0.016 A 
ATOM     32  C   UNL A   1      37.058  31.642  28.711  1.00  0.00     0.010 A 
ATOM     33  C   UNL A   1      36.200  29.396  28.861  1.00  0.00     0.010 A 
ATOM     34  C   UNL A   1      37.209  30.319  29.166  1.00  0.00    -0.014 A 
BRANCH  34  35
ATOM     35  C   UNL A   1      38.415  29.883  29.932  1.00  0.00     0.031 A 
ATOM     36  C   UNL A   1      38.626  30.342  31.356  1.00  0.00     0.074 A 
ATOM     37  C   UNL A   1      39.356  29.117  29.343  1.00  0.00     0.049 A 
ATOM     38  N   UNL A   1      39.647  30.140  32.153  1.00  0.00    -0.248 NA
ATOM     39  C   UNL A   1      37.570  31.177  31.951  1.00  0.00     0.031 C 
ATOM     40  C   UNL A   1      39.332  28.660  27.953  1.00  0.00     0.029 A 
ATOM     41  N   UNL A   1      40.517  28.576  29.845  1.00  0.00    -0.354 N 
ATOM     42  C   UNL A   1      39.376  30.861  33.310  1.00  0.00     0.074 A 
ATOM     43  C   UNL A   1      38.125  31.551  33.094  1.00  0.00     0.031 C 
ATOM     44  C   UNL A   1      40.385  27.857  27.733  1.00  0.00     0.029 A 
ATOM     45  C   UNL A   1      41.185  27.775  28.950  1.00  0.00     0.049 A 
ATOM     46  H   UNL A   1      40.838  28.746  30.759  1.00  0.00     0.167 HD
ATOM     47  C   UNL A   1      40.083  30.918  34.465  1.00  0.00     0.037 A 
ATOM     48  C   UNL A   1      42.308  27.045  29.096  1.00  0.00     0.037 A 
ATOM     49  C   UNL A   1      41.284  30.169  34.717  1.00  0.00     0.049 A 
ATOM     50  C   UNL A   1      43.027  27.051  30.416  1.00  0.00     0.074 A 
ATOM     51  C   UNL A   1      42.038  30.110  35.877  1.00  0.00     0.029 A 
ATOM     52  N   UNL A   1      41.893  29.327  33.800  1.00  0.00    -0.354 N 
ATOM     53  N   UNL A   1      42.741  27.712  31.510  1.00  0.00    -0.248 NA
ATOM     54  C   UNL A   1      44.224  26.204  30.523  1.00  0.00     0.031 C 
ATOM     55  C   UNL A   1      43.112  29.242  35.657  1.00  0.00     0.029 A 
ATOM     56  C   UNL A   1      43.008  28.735  34.373  1.00  0.00     0.049 A 
ATOM     57  H   UNL A   1      41.581  29.172  32.880  1.00  0.00     0.167 HD
ATOM     58  C   UNL A   1      43.705  27.349  32.439  1.00  0.00     0.074 A 
ATOM     59  C   UNL A   1      44.577  26.394  31.787  1.00  0.00     0.031 C 
ATOM     60  C   UNL A   1      43.856  27.775  33.717  1.00  0.00     0.037 A 
BRANCH  47  61
ATOM     61  C   UNL A   1      39.553  31.797  35.562  1.00  0.00     0.064 A 
ATOM     62  C   UNL A   1      38.607  31.328  36.486  1.00  0.00     0.173 A 
ATOM     63  C   UNL A   1      40.025  33.109  35.719  1.00  0.00     0.173 A 
ATOM     64  F   UNL A   1      38.115  30.084  36.374  1.00  0.00    -0.203 F 
ATOM     65  C   UNL A   1      38.129  32.148  37.504  1.00  0.00     0.198 A 
ATOM     66  C   UNL A   1      39.569  33.916  36.757  1.00  0.00     0.198 A 
ATOM     67  F   UNL A   1      40.938  33.606  34.869  1.00  0.00    -0.203 F 
ATOM     68  F   UNL A   1      37.187  31.692  38.342  1.00  0.00    -0.200 F 
ATOM     69  C   UNL A   1      38.615  33.439  37.644  1.00  0.00     0.200 A 
ATOM     70  F   UNL A   1      40.052  35.158  36.902  1.00  0.00    -0.200 F 
ATOM     71  F   UNL A   1      38.162  34.223  38.631  1.00  0.00    -0.200 F 
ENDBRANCH  47  61
BRANCH  48  72
ATOM     72  C   UNL A   1      42.778  26.190  27.976  1.00  0.00     0.064 A 
ATOM     73  C   UNL A   1      42.308  24.876  27.841  1.00  0.00     0.173 A 
ATOM     74  C   UNL A   1      43.671  26.668  27.008  1.00  0.00     0.173 A 
ATOM     75  F   UNL A   1      41.468  24.368  28.754  1.00  0.00    -0.203 F 
ATOM     76  C   UNL A   1      42.720  24.068  26.783  1.00  0.00     0.198 A 
ATOM     77  C   UNL A   1      44.064  25.868  25.937  1.00  0.00     0.198 A 
ATOM     78  F   UNL A   1      44.144  27.920  27.091  1.00  0.00    -0.203 F 
ATOM     79  F   UNL A   1      42.279  22.807  26.693  1.00  0.00    -0.200 F 
ATOM     80  C   UNL A   1      43.592  24.568  25.826  1.00  0.00     0.200 A 
ATOM     81  F   UNL A   1      44.896  26.357  25.007  1.00  0.00    -0.200 F 
ATOM     82  F   UNL A   1      43.978  23.796  24.802  1.00  0.00    -0.200 F 
ENDBRANCH  48  72
BRANCH  60  83
ATOM     83  C   UNL A   1      44.984  27.188  34.510  1.00  0.00     0.064 A 
ATOM     84  C   UNL A   1      46.241  27.807  34.565  1.00  0.00     0.173 A 
ATOM     85  C   UNL A   1      44.787  26.025  35.269  1.00  0.00     0.173 A 
ATOM     86  F   UNL A   1      46.480  28.914  33.847  1.00  0.00    -0.203 F 
ATOM     87  C   UNL A   1      47.267  27.270  35.337  1.00  0.00     0.198 A 
ATOM     88  C   UNL A   1      45.808  25.505  36.058  1.00  0.00     0.198 A 
ATOM     89  F   UNL A   1      43.598  25.402  35.256  1.00  0.00    -0.203 F 
ATOM     90  F   UNL A   1      48.473  27.856  35.348  1.00  0.00    -0.200 F 
ATOM     91  C   UNL A   1      47.048  26.124  36.088  1.00  0.00     0.200 A 
ATOM     92  F   UNL A   1      45.591  24.405  36.792  1.00  0.00    -0.200 F 
ATOM     93  F   UNL A   1      48.036  25.613  36.837  1.00  0.00    -0.200 F 
ENDBRANCH  60  83
ENDBRANCH  34  35
ENDBRANCH  27  29
ENDBRANCH  26  27
ENDBRANCH  25  26
ENDBRANCH   1  25
TORSDOF 15
ENDMDL
