MODEL 1
REMARK VINA RESULT:     -12.5      0.000      0.000
REMARK SMILES O=C(COc1cc(-c2ccccc2)nc(Nc2ccccc2Br)n1)OCCOC(=O)c1ccc(-c2c3nc(c(-c4c(F)c(F)c(F)c(F)c4F)c4ccc([nH]4)c(-c4c(F)c(F)c(F)c(F)c4F)c4nc(c(-c5c(F)c(F)c(F)c(F)c5F)c5ccc2[nH]5)C=C4)C=C3)cc1
REMARK SMILES IDX 26 1 25 2 2 3 1 4 3 5 4 6 5 7 6 8 24 9 7 10 15 11 14 12 8 13
REMARK SMILES IDX 9 14 13 15 10 16 12 17 11 18 16 19 17 21 18 22 22 23 19 24
REMARK SMILES IDX 21 25 23 26 20 27 27 28 28 29 29 30 30 31 31 32 32 33 93 34
REMARK SMILES IDX 33 35 92 36 34 37 35 38 36 39 86 40 37 41 91 42 85 43 87 44
REMARK SMILES IDX 38 45 90 46 84 47 83 48 39 50 71 51 51 52 70 53 52 54 55 55
REMARK SMILES IDX 69 56 88 57 53 58 54 59 68 61 89 62 56 63 40 64 41 65 49 66
REMARK SMILES IDX 42 67 43 68 47 69 50 70 44 71 45 72 48 73 46 74 72 75 73 76
REMARK SMILES IDX 81 77 74 78 75 79 79 80 82 81 76 82 77 83 80 84 78 85 57 86
REMARK SMILES IDX 58 87 66 88 59 89 60 90 64 91 67 92 61 93 62 94 65 95 63 96
REMARK H PARENT 16 20 87 49 55 60
REMARK Flexibility Score: inf
ROOT
ATOM      1  C   UNL A   1      42.624  20.544  26.282  1.00  0.00     0.274 C 
ENDROOT
BRANCH   1   2
ATOM      2  O   UNL A   1      41.271  20.536  25.778  1.00  0.00    -0.460 OA
BRANCH   2   3
ATOM      3  C   UNL A   1      40.217  21.026  26.475  1.00  0.00     0.344 C 
ATOM      4  O   UNL A   1      40.353  21.388  27.641  1.00  0.00    -0.248 OA
BRANCH   3   5
ATOM      5  C   UNL A   1      38.893  21.200  25.750  1.00  0.00     0.353 C 
BRANCH   5   6
ATOM      6  O   UNL A   1      38.337  22.493  25.958  1.00  0.00    -0.466 OA
BRANCH   6   7
ATOM      7  C   UNL A   1      37.000  22.502  25.665  1.00  0.00     0.219 A 
ATOM      8  C   UNL A   1      36.358  23.649  25.302  1.00  0.00     0.097 A 
ATOM      9  N   UNL A   1      36.405  21.314  25.734  1.00  0.00    -0.177 NA
ATOM     10  C   UNL A   1      35.009  23.531  25.049  1.00  0.00     0.080 A 
ATOM     11  C   UNL A   1      35.088  21.274  25.476  1.00  0.00     0.231 A 
ATOM     12  N   UNL A   1      34.355  22.351  25.143  1.00  0.00    -0.212 NA
BRANCH  10  13
ATOM     13  C   UNL A   1      34.237  24.730  24.689  1.00  0.00     0.000 A 
ATOM     14  C   UNL A   1      33.769  24.940  23.383  1.00  0.00     0.010 A 
ATOM     15  C   UNL A   1      33.854  25.650  25.685  1.00  0.00     0.010 A 
ATOM     16  C   UNL A   1      32.915  26.011  23.095  1.00  0.00     0.001 A 
ATOM     17  C   UNL A   1      33.004  26.718  25.398  1.00  0.00     0.001 A 
ATOM     18  C   UNL A   1      32.528  26.893  24.104  1.00  0.00     0.000 A 
ENDBRANCH  10  13
BRANCH  11  19
ATOM     19  N   UNL A   1      34.427  20.051  25.623  1.00  0.00    -0.323 N 
ATOM     20  H   UNL A   1      34.444  19.615  26.505  1.00  0.00     0.170 HD
BRANCH  19  21
ATOM     21  C   UNL A   1      33.738  19.411  24.578  1.00  0.00     0.055 A 
ATOM     22  C   UNL A   1      32.721  20.101  23.908  1.00  0.00     0.027 A 
ATOM     23  C   UNL A   1      34.020  18.090  24.186  1.00  0.00     0.041 A 
ATOM     24  C   UNL A   1      32.075  19.528  22.808  1.00  0.00     0.002 A 
ATOM     25  C   UNL A   1      33.391  17.526  23.071  1.00  0.00     0.018 A 
ATOM     26  Br  UNL A   1      35.238  17.016  25.179  1.00  0.00    -0.049 Br
ATOM     27  C   UNL A   1      32.425  18.251  22.376  1.00  0.00     0.001 A 
ENDBRANCH  19  21
ENDBRANCH  11  19
ENDBRANCH   6   7
ENDBRANCH   5   6
ENDBRANCH   3   5
ENDBRANCH   2   3
ENDBRANCH   1   2
BRANCH   1  28
ATOM     28  C   UNL A   1      43.523  21.390  25.379  1.00  0.00     0.275 C 
BRANCH  28  29
ATOM     29  O   UNL A   1      42.875  22.644  25.084  1.00  0.00    -0.458 OA
BRANCH  29  30
ATOM     30  C   UNL A   1      43.677  23.739  25.048  1.00  0.00     0.338 C 
ATOM     31  O   UNL A   1      44.525  24.001  24.214  1.00  0.00    -0.246 OA
BRANCH  30  32
ATOM     32  C   UNL A   1      43.223  24.685  26.092  1.00  0.00     0.060 A 
ATOM     33  C   UNL A   1      43.746  25.983  26.096  1.00  0.00     0.016 A 
ATOM     34  C   UNL A   1      42.266  24.309  27.039  1.00  0.00     0.016 A 
ATOM     35  C   UNL A   1      43.313  26.911  27.048  1.00  0.00     0.010 A 
ATOM     36  C   UNL A   1      41.845  25.234  28.000  1.00  0.00     0.010 A 
ATOM     37  C   UNL A   1      42.371  26.536  28.016  1.00  0.00    -0.014 A 
BRANCH  37  38
ATOM     38  C   UNL A   1      41.969  27.473  29.094  1.00  0.00     0.031 A 
ATOM     39  C   UNL A   1      42.722  27.479  30.390  1.00  0.00     0.074 A 
ATOM     40  C   UNL A   1      40.898  28.272  28.947  1.00  0.00     0.049 A 
ATOM     41  N   UNL A   1      42.473  28.150  31.486  1.00  0.00    -0.248 NA
ATOM     42  C   UNL A   1      43.905  26.608  30.467  1.00  0.00     0.031 C 
ATOM     43  C   UNL A   1      40.079  28.360  27.745  1.00  0.00     0.029 A 
ATOM     44  N   UNL A   1      40.304  29.146  29.829  1.00  0.00    -0.354 N 
ATOM     45  C   UNL A   1      43.459  27.776  32.386  1.00  0.00     0.074 A 
ATOM     46  C   UNL A   1      44.305  26.811  31.715  1.00  0.00     0.031 C 
ATOM     47  C   UNL A   1      39.075  29.223  27.975  1.00  0.00     0.029 A 
ATOM     48  C   UNL A   1      39.167  29.734  29.335  1.00  0.00     0.049 A 
ATOM     49  H   UNL A   1      40.661  29.329  30.728  1.00  0.00     0.167 HD
ATOM     50  C   UNL A   1      43.639  28.203  33.659  1.00  0.00     0.037 A 
ATOM     51  C   UNL A   1      38.279  30.571  29.907  1.00  0.00     0.037 A 
ATOM     52  C   UNL A   1      42.805  29.162  34.331  1.00  0.00     0.049 A 
ATOM     53  C   UNL A   1      38.481  30.993  31.335  1.00  0.00     0.074 A 
ATOM     54  C   UNL A   1      42.958  29.695  35.600  1.00  0.00     0.029 A 
ATOM     55  N   UNL A   1      41.654  29.723  33.799  1.00  0.00    -0.354 N 
ATOM     56  N   UNL A   1      39.450  30.679  32.158  1.00  0.00    -0.248 NA
ATOM     57  C   UNL A   1      37.458  31.873  31.920  1.00  0.00     0.031 C 
ATOM     58  C   UNL A   1      41.873  30.538  35.857  1.00  0.00     0.029 A 
ATOM     59  C   UNL A   1      41.065  30.564  34.732  1.00  0.00     0.049 A 
ATOM     60  H   UNL A   1      41.307  29.551  32.895  1.00  0.00     0.167 HD
ATOM     61  C   UNL A   1      39.159  31.324  33.351  1.00  0.00     0.074 A 
ATOM     62  C   UNL A   1      37.937  32.071  33.140  1.00  0.00     0.031 C 
ATOM     63  C   UNL A   1      39.841  31.291  34.520  1.00  0.00     0.037 A 
BRANCH  50  64
ATOM     64  C   UNL A   1      44.778  27.612  34.428  1.00  0.00     0.064 A 
ATOM     65  C   UNL A   1      46.043  28.216  34.443  1.00  0.00     0.173 A 
ATOM     66  C   UNL A   1      44.581  26.466  35.212  1.00  0.00     0.173 A 
ATOM     67  F   UNL A   1      46.280  29.306  33.698  1.00  0.00    -0.203 F 
ATOM     68  C   UNL A   1      47.074  27.687  35.214  1.00  0.00     0.198 A 
ATOM     69  C   UNL A   1      45.608  25.953  35.997  1.00  0.00     0.198 A 
ATOM     70  F   UNL A   1      43.386  25.857  35.228  1.00  0.00    -0.203 F 
ATOM     71  F   UNL A   1      48.284  28.265  35.197  1.00  0.00    -0.200 F 
ATOM     72  C   UNL A   1      46.854  26.562  35.996  1.00  0.00     0.200 A 
ATOM     73  F   UNL A   1      45.392  24.871  36.758  1.00  0.00    -0.200 F 
ATOM     74  F   UNL A   1      47.845  26.063  36.748  1.00  0.00    -0.200 F 
ENDBRANCH  50  64
BRANCH  51  75
ATOM     75  C   UNL A   1      37.096  31.050  29.142  1.00  0.00     0.064 A 
ATOM     76  C   UNL A   1      37.032  32.365  28.658  1.00  0.00     0.173 A 
ATOM     77  C   UNL A   1      35.993  30.216  28.906  1.00  0.00     0.173 A 
ATOM     78  F   UNL A   1      38.049  33.210  28.883  1.00  0.00    -0.203 F 
ATOM     79  C   UNL A   1      35.900  32.832  27.991  1.00  0.00     0.198 A 
ATOM     80  C   UNL A   1      34.875  30.676  28.215  1.00  0.00     0.198 A 
ATOM     81  F   UNL A   1      36.004  28.947  29.343  1.00  0.00    -0.203 F 
ATOM     82  F   UNL A   1      35.842  34.110  27.591  1.00  0.00    -0.200 F 
ATOM     83  C   UNL A   1      34.825  31.986  27.766  1.00  0.00     0.200 A 
ATOM     84  F   UNL A   1      33.844  29.849  27.992  1.00  0.00    -0.200 F 
ATOM     85  F   UNL A   1      33.735  32.438  27.132  1.00  0.00    -0.200 F 
ENDBRANCH  51  75
BRANCH  63  86
ATOM     86  C   UNL A   1      39.279  32.079  35.665  1.00  0.00     0.064 A 
ATOM     87  C   UNL A   1      38.421  31.487  36.604  1.00  0.00     0.173 A 
ATOM     88  C   UNL A   1      39.625  33.425  35.848  1.00  0.00     0.173 A 
ATOM     89  F   UNL A   1      38.045  30.207  36.461  1.00  0.00    -0.203 F 
ATOM     90  C   UNL A   1      37.916  32.220  37.674  1.00  0.00     0.198 A 
ATOM     91  C   UNL A   1      39.139  34.149  36.932  1.00  0.00     0.198 A 
ATOM     92  F   UNL A   1      40.444  34.037  34.979  1.00  0.00    -0.203 F 
ATOM     93  F   UNL A   1      37.066  31.646  38.535  1.00  0.00    -0.200 F 
ATOM     94  C   UNL A   1      38.280  33.548  37.841  1.00  0.00     0.200 A 
ATOM     95  F   UNL A   1      39.499  35.429  37.099  1.00  0.00    -0.200 F 
ATOM     96  F   UNL A   1      37.799  34.250  38.875  1.00  0.00    -0.200 F 
ENDBRANCH  63  86
ENDBRANCH  37  38
ENDBRANCH  30  32
ENDBRANCH  29  30
ENDBRANCH  28  29
ENDBRANCH   1  28
TORSDOF 16
ENDMDL
MODEL 2
REMARK VINA RESULT:     -12.4      1.112      3.249
REMARK SMILES O=C(COc1cc(-c2ccccc2)nc(Nc2ccccc2Br)n1)OCCOC(=O)c1ccc(-c2c3nc(c(-c4c(F)c(F)c(F)c(F)c4F)c4ccc([nH]4)c(-c4c(F)c(F)c(F)c(F)c4F)c4nc(c(-c5c(F)c(F)c(F)c(F)c5F)c5ccc2[nH]5)C=C4)C=C3)cc1
REMARK SMILES IDX 26 1 25 2 2 3 1 4 3 5 4 6 5 7 6 8 24 9 7 10 15 11 14 12 8 13
REMARK SMILES IDX 9 14 13 15 10 16 12 17 11 18 16 19 17 21 18 22 22 23 19 24
REMARK SMILES IDX 21 25 23 26 20 27 27 28 28 29 29 30 30 31 31 32 32 33 93 34
REMARK SMILES IDX 33 35 92 36 34 37 35 38 36 39 86 40 37 41 91 42 85 43 87 44
REMARK SMILES IDX 38 45 90 46 84 47 83 48 39 50 71 51 51 52 70 53 52 54 55 55
REMARK SMILES IDX 69 56 88 57 53 58 54 59 68 61 89 62 56 63 40 64 41 65 49 66
REMARK SMILES IDX 42 67 43 68 47 69 50 70 44 71 45 72 48 73 46 74 72 75 73 76
REMARK SMILES IDX 81 77 74 78 75 79 79 80 82 81 76 82 77 83 80 84 78 85 57 86
REMARK SMILES IDX 58 87 66 88 59 89 60 90 64 91 67 92 61 93 62 94 65 95 63 96
REMARK H PARENT 16 20 87 49 55 60
REMARK Flexibility Score: inf
ROOT
ATOM      1  C   UNL A   1      42.199  20.870  26.615  1.00  0.00     0.274 C 
ENDROOT
BRANCH   1   2
ATOM      2  O   UNL A   1      40.871  20.643  26.093  1.00  0.00    -0.460 OA
BRANCH   2   3
ATOM      3  C   UNL A   1      39.809  21.426  26.402  1.00  0.00     0.344 C 
ATOM      4  O   UNL A   1      39.862  22.204  27.352  1.00  0.00    -0.248 OA
BRANCH   3   5
ATOM      5  C   UNL A   1      38.593  21.381  25.491  1.00  0.00     0.353 C 
BRANCH   5   6
ATOM      6  O   UNL A   1      37.761  22.523  25.658  1.00  0.00    -0.466 OA
BRANCH   6   7
ATOM      7  C   UNL A   1      36.493  22.272  25.209  1.00  0.00     0.219 A 
ATOM      8  C   UNL A   1      35.982  21.007  25.189  1.00  0.00     0.097 A 
ATOM      9  N   UNL A   1      35.809  23.348  24.830  1.00  0.00    -0.177 NA
ATOM     10  C   UNL A   1      34.701  20.881  24.699  1.00  0.00     0.080 A 
ATOM     11  C   UNL A   1      34.567  23.151  24.362  1.00  0.00     0.231 A 
ATOM     12  N   UNL A   1      33.982  21.944  24.269  1.00  0.00    -0.212 NA
BRANCH  10  13
ATOM     13  C   UNL A   1      34.093  19.546  24.610  1.00  0.00     0.000 A 
ATOM     14  C   UNL A   1      32.703  19.373  24.530  1.00  0.00     0.010 A 
ATOM     15  C   UNL A   1      34.909  18.403  24.494  1.00  0.00     0.010 A 
ATOM     16  C   UNL A   1      32.153  18.107  24.299  1.00  0.00     0.001 A 
ATOM     17  C   UNL A   1      34.361  17.141  24.266  1.00  0.00     0.001 A 
ATOM     18  C   UNL A   1      32.983  16.995  24.160  1.00  0.00     0.000 A 
ENDBRANCH  10  13
BRANCH  11  19
ATOM     19  N   UNL A   1      33.863  24.259  23.882  1.00  0.00    -0.323 N 
ATOM     20  H   UNL A   1      33.887  24.445  22.916  1.00  0.00     0.170 HD
BRANCH  19  21
ATOM     21  C   UNL A   1      33.121  25.123  24.708  1.00  0.00     0.055 A 
ATOM     22  C   UNL A   1      33.795  25.926  25.636  1.00  0.00     0.027 A 
ATOM     23  C   UNL A   1      31.718  25.201  24.652  1.00  0.00     0.041 A 
ATOM     24  C   UNL A   1      33.099  26.858  26.411  1.00  0.00     0.002 A 
ATOM     25  C   UNL A   1      31.024  26.150  25.409  1.00  0.00     0.018 A 
ATOM     26  Br  UNL A   1      30.716  23.997  23.570  1.00  0.00    -0.049 Br
ATOM     27  C   UNL A   1      31.718  26.986  26.282  1.00  0.00     0.001 A 
ENDBRANCH  19  21
ENDBRANCH  11  19
ENDBRANCH   6   7
ENDBRANCH   5   6
ENDBRANCH   3   5
ENDBRANCH   2   3
ENDBRANCH   1   2
BRANCH   1  28
ATOM     28  C   UNL A   1      43.127  21.374  25.509  1.00  0.00     0.275 C 
BRANCH  28  29
ATOM     29  O   UNL A   1      42.645  22.637  25.008  1.00  0.00    -0.458 OA
BRANCH  29  30
ATOM     30  C   UNL A   1      43.525  23.671  25.046  1.00  0.00     0.338 C 
ATOM     31  O   UNL A   1      44.434  23.891  24.266  1.00  0.00    -0.246 OA
BRANCH  30  32
ATOM     32  C   UNL A   1      43.082  24.621  26.091  1.00  0.00     0.060 A 
ATOM     33  C   UNL A   1      43.481  25.960  25.994  1.00  0.00     0.016 A 
ATOM     34  C   UNL A   1      42.257  24.208  27.141  1.00  0.00     0.016 A 
ATOM     35  C   UNL A   1      43.052  26.890  26.946  1.00  0.00     0.010 A 
ATOM     36  C   UNL A   1      41.842  25.136  28.100  1.00  0.00     0.010 A 
ATOM     37  C   UNL A   1      42.242  26.479  28.015  1.00  0.00    -0.014 A 
BRANCH  37  38
ATOM     38  C   UNL A   1      41.857  27.426  29.089  1.00  0.00     0.031 A 
ATOM     39  C   UNL A   1      42.617  27.433  30.381  1.00  0.00     0.074 A 
ATOM     40  C   UNL A   1      40.793  28.236  28.943  1.00  0.00     0.049 A 
ATOM     41  N   UNL A   1      42.381  28.114  31.473  1.00  0.00    -0.248 NA
ATOM     42  C   UNL A   1      43.791  26.551  30.456  1.00  0.00     0.031 C 
ATOM     43  C   UNL A   1      39.968  28.324  27.745  1.00  0.00     0.029 A 
ATOM     44  N   UNL A   1      40.213  29.121  29.822  1.00  0.00    -0.354 N 
ATOM     45  C   UNL A   1      43.368  27.736  32.370  1.00  0.00     0.074 A 
ATOM     46  C   UNL A   1      44.200  26.758  31.701  1.00  0.00     0.031 C 
ATOM     47  C   UNL A   1      38.974  29.199  27.975  1.00  0.00     0.029 A 
ATOM     48  C   UNL A   1      39.079  29.717  29.332  1.00  0.00     0.049 A 
ATOM     49  H   UNL A   1      40.576  29.307  30.719  1.00  0.00     0.167 HD
ATOM     50  C   UNL A   1      43.559  28.169  33.640  1.00  0.00     0.037 A 
ATOM     51  C   UNL A   1      38.203  30.567  29.903  1.00  0.00     0.037 A 
ATOM     52  C   UNL A   1      42.739  29.141  34.310  1.00  0.00     0.049 A 
ATOM     53  C   UNL A   1      38.417  30.996  31.327  1.00  0.00     0.074 A 
ATOM     54  C   UNL A   1      42.905  29.681  35.575  1.00  0.00     0.029 A 
ATOM     55  N   UNL A   1      41.591  29.710  33.782  1.00  0.00    -0.354 N 
ATOM     56  N   UNL A   1      39.387  30.678  32.147  1.00  0.00    -0.248 NA
ATOM     57  C   UNL A   1      37.406  31.890  31.912  1.00  0.00     0.031 C 
ATOM     58  C   UNL A   1      41.829  30.536  35.832  1.00  0.00     0.029 A 
ATOM     59  C   UNL A   1      41.016  30.563  34.712  1.00  0.00     0.049 A 
ATOM     60  H   UNL A   1      41.237  29.535  32.881  1.00  0.00     0.167 HD
ATOM     61  C   UNL A   1      39.110  31.334  33.337  1.00  0.00     0.074 A 
ATOM     62  C   UNL A   1      37.895  32.091  33.128  1.00  0.00     0.031 C 
ATOM     63  C   UNL A   1      39.798  31.301  34.503  1.00  0.00     0.037 A 
BRANCH  50  64
ATOM     64  C   UNL A   1      44.697  27.572  34.406  1.00  0.00     0.064 A 
ATOM     65  C   UNL A   1      44.541  26.394  35.151  1.00  0.00     0.173 A 
ATOM     66  C   UNL A   1      45.973  28.149  34.338  1.00  0.00     0.173 A 
ATOM     67  F   UNL A   1      43.336  25.815  35.255  1.00  0.00    -0.203 F 
ATOM     68  C   UNL A   1      45.625  25.819  35.807  1.00  0.00     0.198 A 
ATOM     69  C   UNL A   1      47.059  27.560  34.978  1.00  0.00     0.198 A 
ATOM     70  F   UNL A   1      46.168  29.275  33.636  1.00  0.00    -0.203 F 
ATOM     71  F   UNL A   1      45.452  24.706  36.534  1.00  0.00    -0.200 F 
ATOM     72  C   UNL A   1      46.884  26.397  35.714  1.00  0.00     0.200 A 
ATOM     73  F   UNL A   1      48.275  28.114  34.880  1.00  0.00    -0.200 F 
ATOM     74  F   UNL A   1      47.929  25.833  36.335  1.00  0.00    -0.200 F 
ENDBRANCH  50  64
BRANCH  51  75
ATOM     75  C   UNL A   1      37.020  31.053  29.141  1.00  0.00     0.064 A 
ATOM     76  C   UNL A   1      36.959  32.371  28.666  1.00  0.00     0.173 A 
ATOM     77  C   UNL A   1      35.915  30.222  28.902  1.00  0.00     0.173 A 
ATOM     78  F   UNL A   1      37.977  33.212  28.894  1.00  0.00    -0.203 F 
ATOM     79  C   UNL A   1      35.827  32.845  28.002  1.00  0.00     0.198 A 
ATOM     80  C   UNL A   1      34.798  30.689  28.214  1.00  0.00     0.198 A 
ATOM     81  F   UNL A   1      35.923  28.952  29.331  1.00  0.00    -0.203 F 
ATOM     82  F   UNL A   1      35.772  34.124  27.609  1.00  0.00    -0.200 F 
ATOM     83  C   UNL A   1      34.750  32.002  27.772  1.00  0.00     0.200 A 
ATOM     84  F   UNL A   1      33.764  29.866  27.987  1.00  0.00    -0.200 F 
ATOM     85  F   UNL A   1      33.661  32.461  27.142  1.00  0.00    -0.200 F 
ENDBRANCH  51  75
BRANCH  63  86
ATOM     86  C   UNL A   1      39.251  32.102  35.645  1.00  0.00     0.064 A 
ATOM     87  C   UNL A   1      38.382  31.527  36.585  1.00  0.00     0.173 A 
ATOM     88  C   UNL A   1      39.621  33.442  35.824  1.00  0.00     0.173 A 
ATOM     89  F   UNL A   1      37.983  30.254  36.446  1.00  0.00    -0.203 F 
ATOM     90  C   UNL A   1      37.890  32.273  37.654  1.00  0.00     0.198 A 
ATOM     91  C   UNL A   1      39.148  34.177  36.907  1.00  0.00     0.198 A 
ATOM     92  F   UNL A   1      40.451  34.037  34.954  1.00  0.00    -0.203 F 
ATOM     93  F   UNL A   1      37.030  31.716  38.516  1.00  0.00    -0.200 F 
ATOM     94  C   UNL A   1      38.279  33.594  37.818  1.00  0.00     0.200 A 
ATOM     95  F   UNL A   1      39.532  35.451  37.071  1.00  0.00    -0.200 F 
ATOM     96  F   UNL A   1      37.810  34.308  38.850  1.00  0.00    -0.200 F 
ENDBRANCH  63  86
ENDBRANCH  37  38
ENDBRANCH  30  32
ENDBRANCH  29  30
ENDBRANCH  28  29
ENDBRANCH   1  28
TORSDOF 16
ENDMDL
MODEL 3
REMARK VINA RESULT:     -12.4      5.999     12.039
REMARK SMILES O=C(COc1cc(-c2ccccc2)nc(Nc2ccccc2Br)n1)OCCOC(=O)c1ccc(-c2c3nc(c(-c4c(F)c(F)c(F)c(F)c4F)c4ccc([nH]4)c(-c4c(F)c(F)c(F)c(F)c4F)c4nc(c(-c5c(F)c(F)c(F)c(F)c5F)c5ccc2[nH]5)C=C4)C=C3)cc1
REMARK SMILES IDX 26 1 25 2 2 3 1 4 3 5 4 6 5 7 6 8 24 9 7 10 15 11 14 12 8 13
REMARK SMILES IDX 9 14 13 15 10 16 12 17 11 18 16 19 17 21 18 22 22 23 19 24
REMARK SMILES IDX 21 25 23 26 20 27 27 28 28 29 29 30 30 31 31 32 32 33 93 34
REMARK SMILES IDX 33 35 92 36 34 37 35 38 36 39 86 40 37 41 91 42 85 43 87 44
REMARK SMILES IDX 38 45 90 46 84 47 83 48 39 50 71 51 51 52 70 53 52 54 55 55
REMARK SMILES IDX 69 56 88 57 53 58 54 59 68 61 89 62 56 63 40 64 41 65 49 66
REMARK SMILES IDX 42 67 43 68 47 69 50 70 44 71 45 72 48 73 46 74 72 75 73 76
REMARK SMILES IDX 81 77 74 78 75 79 79 80 82 81 76 82 77 83 80 84 78 85 57 86
REMARK SMILES IDX 58 87 66 88 59 89 60 90 64 91 67 92 61 93 62 94 65 95 63 96
REMARK H PARENT 16 20 87 49 55 60
REMARK Flexibility Score: inf
ROOT
ATOM      1  C   UNL A   1      34.724  33.924  29.067  1.00  0.00     0.274 C 
ENDROOT
BRANCH   1   2
ATOM      2  O   UNL A   1      33.852  33.852  30.217  1.00  0.00    -0.460 OA
BRANCH   2   3
ATOM      3  C   UNL A   1      34.006  34.631  31.315  1.00  0.00     0.344 C 
ATOM      4  O   UNL A   1      33.682  35.816  31.290  1.00  0.00    -0.248 OA
BRANCH   3   5
ATOM      5  C   UNL A   1      34.503  33.981  32.595  1.00  0.00     0.353 C 
BRANCH   5   6
ATOM      6  O   UNL A   1      34.907  32.632  32.386  1.00  0.00    -0.466 OA
BRANCH   6   7
ATOM      7  C   UNL A   1      35.964  32.310  33.194  1.00  0.00     0.219 A 
ATOM      8  C   UNL A   1      36.775  31.249  32.916  1.00  0.00     0.097 A 
ATOM      9  N   UNL A   1      36.143  33.122  34.232  1.00  0.00    -0.177 NA
ATOM     10  C   UNL A   1      37.794  31.017  33.813  1.00  0.00     0.080 A 
ATOM     11  C   UNL A   1      37.155  32.835  35.066  1.00  0.00     0.231 A 
ATOM     12  N   UNL A   1      37.991  31.795  34.902  1.00  0.00    -0.212 NA
BRANCH  10  13
ATOM     13  C   UNL A   1      38.689  29.870  33.604  1.00  0.00     0.000 A 
ATOM     14  C   UNL A   1      38.285  28.743  32.872  1.00  0.00     0.010 A 
ATOM     15  C   UNL A   1      40.026  29.926  34.048  1.00  0.00     0.010 A 
ATOM     16  C   UNL A   1      39.198  27.729  32.561  1.00  0.00     0.001 A 
ATOM     17  C   UNL A   1      40.935  28.914  33.739  1.00  0.00     0.001 A 
ATOM     18  C   UNL A   1      40.523  27.820  32.988  1.00  0.00     0.000 A 
ENDBRANCH  10  13
BRANCH  11  19
ATOM     19  N   UNL A   1      37.310  33.627  36.207  1.00  0.00    -0.323 N 
ATOM     20  H   UNL A   1      36.587  33.629  36.875  1.00  0.00     0.170 HD
BRANCH  19  21
ATOM     21  C   UNL A   1      38.444  34.422  36.451  1.00  0.00     0.055 A 
ATOM     22  C   UNL A   1      39.031  35.119  35.388  1.00  0.00     0.027 A 
ATOM     23  C   UNL A   1      39.028  34.533  37.725  1.00  0.00     0.041 A 
ATOM     24  C   UNL A   1      40.105  35.986  35.609  1.00  0.00     0.002 A 
ATOM     25  C   UNL A   1      40.087  35.418  37.952  1.00  0.00     0.018 A 
ATOM     26  Br  UNL A   1      38.420  33.458  39.174  1.00  0.00    -0.049 Br
ATOM     27  C   UNL A   1      40.618  36.152  36.893  1.00  0.00     0.001 A 
ENDBRANCH  19  21
ENDBRANCH  11  19
ENDBRANCH   6   7
ENDBRANCH   5   6
ENDBRANCH   3   5
ENDBRANCH   2   3
ENDBRANCH   1   2
BRANCH   1  28
ATOM     28  C   UNL A   1      34.247  32.963  27.977  1.00  0.00     0.275 C 
BRANCH  28  29
ATOM     29  O   UNL A   1      34.086  31.642  28.529  1.00  0.00    -0.458 OA
BRANCH  29  30
ATOM     30  C   UNL A   1      34.434  30.608  27.720  1.00  0.00     0.338 C 
ATOM     31  O   UNL A   1      33.818  30.190  26.756  1.00  0.00    -0.246 OA
BRANCH  30  32
ATOM     32  C   UNL A   1      35.804  30.177  28.078  1.00  0.00     0.060 A 
ATOM     33  C   UNL A   1      36.033  29.661  29.359  1.00  0.00     0.016 A 
ATOM     34  C   UNL A   1      36.849  30.250  27.152  1.00  0.00     0.016 A 
ATOM     35  C   UNL A   1      37.309  29.214  29.717  1.00  0.00     0.010 A 
ATOM     36  C   UNL A   1      38.127  29.817  27.517  1.00  0.00     0.010 A 
ATOM     37  C   UNL A   1      38.367  29.304  28.803  1.00  0.00    -0.014 A 
BRANCH  37  38
ATOM     38  C   UNL A   1      39.748  28.928  29.192  1.00  0.00     0.031 A 
ATOM     39  C   UNL A   1      40.587  29.892  29.976  1.00  0.00     0.074 A 
ATOM     40  C   UNL A   1      40.279  27.758  28.797  1.00  0.00     0.049 A 
ATOM     41  N   UNL A   1      41.842  29.793  30.331  1.00  0.00    -0.248 NA
ATOM     42  C   UNL A   1      39.929  31.134  30.408  1.00  0.00     0.031 C 
ATOM     43  C   UNL A   1      39.576  26.737  28.030  1.00  0.00     0.029 A 
ATOM     44  N   UNL A   1      41.544  27.244  28.969  1.00  0.00    -0.354 N 
ATOM     45  C   UNL A   1      42.130  30.962  31.019  1.00  0.00     0.074 A 
ATOM     46  C   UNL A   1      40.923  31.762  31.021  1.00  0.00     0.031 C 
ATOM     47  C   UNL A   1      40.429  25.730  27.778  1.00  0.00     0.029 A 
ATOM     48  C   UNL A   1      41.734  26.036  28.346  1.00  0.00     0.049 A 
ATOM     49  H   UNL A   1      42.245  27.701  29.487  1.00  0.00     0.167 HD
ATOM     50  C   UNL A   1      43.299  31.331  31.594  1.00  0.00     0.037 A 
ATOM     51  C   UNL A   1      42.832  25.264  28.220  1.00  0.00     0.037 A 
ATOM     52  C   UNL A   1      44.501  30.541  31.597  1.00  0.00     0.049 A 
ATOM     53  C   UNL A   1      44.126  25.721  28.832  1.00  0.00     0.074 A 
ATOM     54  C   UNL A   1      45.710  30.817  32.215  1.00  0.00     0.029 A 
ATOM     55  N   UNL A   1      44.655  29.329  30.943  1.00  0.00    -0.354 N 
ATOM     56  N   UNL A   1      44.371  26.801  29.531  1.00  0.00    -0.248 NA
ATOM     57  C   UNL A   1      45.300  24.859  28.626  1.00  0.00     0.031 C 
ATOM     58  C   UNL A   1      46.611  29.798  31.890  1.00  0.00     0.029 A 
ATOM     59  C   UNL A   1      45.952  28.866  31.107  1.00  0.00     0.049 A 
ATOM     60  H   UNL A   1      43.949  28.866  30.437  1.00  0.00     0.167 HD
ATOM     61  C   UNL A   1      45.720  26.747  29.852  1.00  0.00     0.074 A 
ATOM     62  C   UNL A   1      46.237  25.515  29.296  1.00  0.00     0.031 C 
ATOM     63  C   UNL A   1      46.464  27.647  30.538  1.00  0.00     0.037 A 
BRANCH  50  64
ATOM     64  C   UNL A   1      43.347  32.672  32.255  1.00  0.00     0.064 A 
ATOM     65  C   UNL A   1      43.549  33.847  31.517  1.00  0.00     0.173 A 
ATOM     66  C   UNL A   1      43.122  32.786  33.634  1.00  0.00     0.173 A 
ATOM     67  F   UNL A   1      43.782  33.784  30.198  1.00  0.00    -0.203 F 
ATOM     68  C   UNL A   1      43.528  35.091  32.141  1.00  0.00     0.198 A 
ATOM     69  C   UNL A   1      43.081  34.033  34.251  1.00  0.00     0.198 A 
ATOM     70  F   UNL A   1      42.923  31.689  34.380  1.00  0.00    -0.203 F 
ATOM     71  F   UNL A   1      43.746  36.202  31.422  1.00  0.00    -0.200 F 
ATOM     72  C   UNL A   1      43.287  35.184  33.504  1.00  0.00     0.200 A 
ATOM     73  F   UNL A   1      42.839  34.122  35.566  1.00  0.00    -0.200 F 
ATOM     74  F   UNL A   1      43.254  36.384  34.099  1.00  0.00    -0.200 F 
ENDBRANCH  50  64
BRANCH  51  75
ATOM     75  C   UNL A   1      42.769  23.987  27.458  1.00  0.00     0.064 A 
ATOM     76  C   UNL A   1      42.439  22.782  28.094  1.00  0.00     0.173 A 
ATOM     77  C   UNL A   1      43.070  23.940  26.089  1.00  0.00     0.173 A 
ATOM     78  F   UNL A   1      42.172  22.770  29.408  1.00  0.00    -0.203 F 
ATOM     79  C   UNL A   1      42.436  21.576  27.394  1.00  0.00     0.198 A 
ATOM     80  C   UNL A   1      43.040  22.739  25.385  1.00  0.00     0.198 A 
ATOM     81  F   UNL A   1      43.389  25.064  25.431  1.00  0.00    -0.203 F 
ATOM     82  F   UNL A   1      42.174  20.431  28.039  1.00  0.00    -0.200 F 
ATOM     83  C   UNL A   1      42.732  21.556  26.040  1.00  0.00     0.200 A 
ATOM     84  F   UNL A   1      43.317  22.728  24.074  1.00  0.00    -0.200 F 
ATOM     85  F   UNL A   1      42.737  20.396  25.370  1.00  0.00    -0.200 F 
ENDBRANCH  51  75
BRANCH  63  86
ATOM     86  C   UNL A   1      47.918  27.336  30.722  1.00  0.00     0.064 A 
ATOM     87  C   UNL A   1      48.884  27.820  29.826  1.00  0.00     0.173 A 
ATOM     88  C   UNL A   1      48.358  26.580  31.817  1.00  0.00     0.173 A 
ATOM     89  F   UNL A   1      48.512  28.532  28.752  1.00  0.00    -0.203 F 
ATOM     90  C   UNL A   1      50.236  27.542  30.012  1.00  0.00     0.198 A 
ATOM     91  C   UNL A   1      49.711  26.324  32.014  1.00  0.00     0.198 A 
ATOM     92  F   UNL A   1      47.474  26.096  32.703  1.00  0.00    -0.203 F 
ATOM     93  F   UNL A   1      51.136  27.979  29.122  1.00  0.00    -0.200 F 
ATOM     94  C   UNL A   1      50.649  26.800  31.109  1.00  0.00     0.200 A 
ATOM     95  F   UNL A   1      50.111  25.616  33.080  1.00  0.00    -0.200 F 
ATOM     96  F   UNL A   1      51.950  26.538  31.290  1.00  0.00    -0.200 F 
ENDBRANCH  63  86
ENDBRANCH  37  38
ENDBRANCH  30  32
ENDBRANCH  29  30
ENDBRANCH  28  29
ENDBRANCH   1  28
TORSDOF 16
ENDMDL
