MODEL 1
REMARK VINA RESULT:     -12.3      0.000      0.000
REMARK SMILES CC(=O)c1ccccc1S(=O)(=O)N1CCC(C(=O)OCCOC(=O)c2ccc(-c3c4nc(c(-c5c(F)c(F)c(F)c(F)c5F)c5ccc([nH]5)c(-c5c(F)c(F)c(F)c(F)c5F)c5nc(c(-c6c(F)c(F)c(F)c(F)c6F)c6ccc3[nH]6)C=C5)C=C4)cc2)CC1
REMARK SMILES IDX 20 1 19 2 17 3 18 4 16 5 13 6 14 7 89 8 15 9 88 10 10 11
REMARK SMILES IDX 11 12 12 13 9 14 4 15 5 16 6 17 8 18 7 19 2 20 1 21 3 22
REMARK SMILES IDX 21 23 22 24 23 25 24 26 25 27 26 28 87 29 27 30 86 31 28 32
REMARK SMILES IDX 29 33 30 34 80 35 31 36 85 37 79 38 81 39 32 40 84 41 78 42
REMARK SMILES IDX 77 43 33 45 65 46 45 47 64 48 46 49 49 50 63 51 82 52 47 53
REMARK SMILES IDX 48 54 62 56 83 57 50 58 34 59 35 60 43 61 36 62 37 63 41 64
REMARK SMILES IDX 44 65 38 66 39 67 42 68 40 69 66 70 67 71 75 72 68 73 69 74
REMARK SMILES IDX 73 75 76 76 70 77 71 78 74 79 72 80 51 81 52 82 60 83 53 84
REMARK SMILES IDX 54 85 58 86 61 87 55 88 56 89 59 90 57 91
REMARK H PARENT 81 44 49 55
REMARK Flexibility Score: inf
ROOT
ATOM      1  C   UNL A   1      31.497  29.157  24.945  1.00  0.00     0.274 C 
ENDROOT
BRANCH   1   2
ATOM      2  O   UNL A   1      30.589  29.339  23.842  1.00  0.00    -0.462 OA
BRANCH   2   3
ATOM      3  C   UNL A   1      29.857  28.258  23.474  1.00  0.00     0.309 C 
ATOM      4  O   UNL A   1      28.655  28.282  23.236  1.00  0.00    -0.252 OA
BRANCH   3   5
ATOM      5  C   UNL A   1      30.682  26.991  23.346  1.00  0.00     0.102 C 
ATOM      6  N   UNL A   1      32.149  24.720  22.994  1.00  0.00    -0.198 NA
ATOM      7  C   UNL A   1      30.717  24.438  23.280  1.00  0.00     0.103 C 
ATOM      8  C   UNL A   1      32.348  25.750  21.919  1.00  0.00     0.103 C 
ATOM      9  C   UNL A   1      29.971  25.694  23.728  1.00  0.00     0.032 C 
ATOM     10  C   UNL A   1      31.279  26.849  21.956  1.00  0.00     0.032 C 
BRANCH   6  11
ATOM     11  S   UNL A   1      33.117  23.316  22.823  1.00  0.00     0.243 S 
ATOM     12  O   UNL A   1      33.550  23.236  21.449  1.00  0.00    -0.207 OA
ATOM     13  O   UNL A   1      32.405  22.212  23.445  1.00  0.00    -0.207 OA
BRANCH  11  14
ATOM     14  C   UNL A   1      34.583  23.490  23.804  1.00  0.00     0.093 A 
ATOM     15  C   UNL A   1      34.661  24.062  25.069  1.00  0.00     0.037 A 
ATOM     16  C   UNL A   1      35.886  24.084  25.759  1.00  0.00     0.013 A 
ATOM     17  C   UNL A   1      37.022  23.494  25.205  1.00  0.00     0.001 A 
ATOM     18  C   UNL A   1      35.739  22.903  23.251  1.00  0.00     0.022 A 
ATOM     19  C   UNL A   1      36.946  22.894  23.953  1.00  0.00     0.001 A 
BRANCH  15  20
ATOM     20  C   UNL A   1      33.513  24.555  25.837  1.00  0.00     0.161 C 
ATOM     21  C   UNL A   1      33.311  26.045  25.845  1.00  0.00     0.093 C 
ATOM     22  O   UNL A   1      32.703  23.759  26.298  1.00  0.00    -0.294 OA
ENDBRANCH  15  20
ENDBRANCH  11  14
ENDBRANCH   6  11
ENDBRANCH   3   5
ENDBRANCH   2   3
ENDBRANCH   1   2
BRANCH   1  23
ATOM     23  C   UNL A   1      31.688  30.463  25.721  1.00  0.00     0.275 C 
BRANCH  23  24
ATOM     24  O   UNL A   1      32.599  30.311  26.828  1.00  0.00    -0.458 OA
BRANCH  24  25
ATOM     25  C   UNL A   1      33.249  31.439  27.193  1.00  0.00     0.338 C 
ATOM     26  O   UNL A   1      32.832  32.584  27.147  1.00  0.00    -0.246 OA
BRANCH  25  27
ATOM     27  C   UNL A   1      34.574  31.115  27.737  1.00  0.00     0.060 A 
ATOM     28  C   UNL A   1      34.818  29.806  28.152  1.00  0.00     0.016 A 
ATOM     29  C   UNL A   1      35.518  32.117  27.971  1.00  0.00     0.016 A 
ATOM     30  C   UNL A   1      35.981  29.498  28.854  1.00  0.00     0.010 A 
ATOM     31  C   UNL A   1      36.703  31.800  28.644  1.00  0.00     0.010 A 
ATOM     32  C   UNL A   1      36.932  30.493  29.116  1.00  0.00    -0.014 A 
BRANCH  32  33
ATOM     33  C   UNL A   1      38.156  30.170  29.894  1.00  0.00     0.031 A 
ATOM     34  C   UNL A   1      39.197  29.243  29.329  1.00  0.00     0.074 A 
ATOM     35  C   UNL A   1      38.331  30.708  31.116  1.00  0.00     0.049 A 
ATOM     36  N   UNL A   1      40.286  28.777  29.890  1.00  0.00    -0.248 NA
ATOM     37  C   UNL A   1      38.986  28.774  27.950  1.00  0.00     0.031 C 
ATOM     38  C   UNL A   1      37.412  31.641  31.766  1.00  0.00     0.029 A 
ATOM     39  N   UNL A   1      39.341  30.541  32.031  1.00  0.00    -0.354 N 
ATOM     40  C   UNL A   1      40.870  27.937  28.950  1.00  0.00     0.074 A 
ATOM     41  C   UNL A   1      40.012  27.949  27.784  1.00  0.00     0.031 C 
ATOM     42  C   UNL A   1      37.899  31.967  32.974  1.00  0.00     0.029 A 
ATOM     43  C   UNL A   1      39.136  31.227  33.203  1.00  0.00     0.049 A 
ATOM     44  H   UNL A   1      40.135  29.984  31.864  1.00  0.00     0.167 HD
ATOM     45  C   UNL A   1      42.019  27.226  29.052  1.00  0.00     0.037 A 
ATOM     46  C   UNL A   1      39.850  31.236  34.345  1.00  0.00     0.037 A 
ATOM     47  C   UNL A   1      42.890  27.243  30.199  1.00  0.00     0.049 A 
ATOM     48  C   UNL A   1      41.099  30.404  34.443  1.00  0.00     0.074 A 
ATOM     49  C   UNL A   1      44.104  26.598  30.371  1.00  0.00     0.029 A 
ATOM     50  N   UNL A   1      42.639  27.936  31.374  1.00  0.00    -0.354 N 
ATOM     51  N   UNL A   1      41.659  29.641  33.537  1.00  0.00    -0.248 NA
ATOM     52  C   UNL A   1      41.814  30.435  35.726  1.00  0.00     0.031 C 
ATOM     53  C   UNL A   1      44.563  26.862  31.665  1.00  0.00     0.029 A 
ATOM     54  C   UNL A   1      43.662  27.712  32.284  1.00  0.00     0.049 A 
ATOM     55  H   UNL A   1      41.852  28.503  31.537  1.00  0.00     0.167 HD
ATOM     56  C   UNL A   1      42.805  29.125  34.128  1.00  0.00     0.074 A 
ATOM     57  C   UNL A   1      42.867  29.673  35.466  1.00  0.00     0.031 C 
ATOM     58  C   UNL A   1      43.721  28.273  33.608  1.00  0.00     0.037 A 
BRANCH  45  59
ATOM     59  C   UNL A   1      42.402  26.342  27.901  1.00  0.00     0.064 A 
ATOM     60  C   UNL A   1      41.871  25.054  27.749  1.00  0.00     0.173 A 
ATOM     61  C   UNL A   1      43.260  26.821  26.898  1.00  0.00     0.173 A 
ATOM     62  F   UNL A   1      41.054  24.545  28.684  1.00  0.00    -0.203 F 
ATOM     63  C   UNL A   1      42.197  24.270  26.644  1.00  0.00     0.198 A 
ATOM     64  C   UNL A   1      43.563  26.046  25.782  1.00  0.00     0.198 A 
ATOM     65  F   UNL A   1      43.788  28.051  26.991  1.00  0.00    -0.203 F 
ATOM     66  F   UNL A   1      41.704  23.029  26.535  1.00  0.00    -0.200 F 
ATOM     67  C   UNL A   1      43.036  24.771  25.658  1.00  0.00     0.200 A 
ATOM     68  F   UNL A   1      44.362  26.537  24.824  1.00  0.00    -0.200 F 
ATOM     69  F   UNL A   1      43.337  24.021  24.589  1.00  0.00    -0.200 F 
ENDBRANCH  45  59
BRANCH  46  70
ATOM     70  C   UNL A   1      39.390  32.048  35.502  1.00  0.00     0.064 A 
ATOM     71  C   UNL A   1      39.853  33.357  35.694  1.00  0.00     0.173 A 
ATOM     72  C   UNL A   1      38.500  31.524  36.451  1.00  0.00     0.173 A 
ATOM     73  F   UNL A   1      40.726  33.891  34.828  1.00  0.00    -0.203 F 
ATOM     74  C   UNL A   1      39.462  34.101  36.804  1.00  0.00     0.198 A 
ATOM     75  C   UNL A   1      38.085  32.280  37.544  1.00  0.00     0.198 A 
ATOM     76  F   UNL A   1      38.030  30.275  36.313  1.00  0.00    -0.203 F 
ATOM     77  F   UNL A   1      39.963  35.330  36.994  1.00  0.00    -0.200 F 
ATOM     78  C   UNL A   1      38.574  33.565  37.725  1.00  0.00     0.200 A 
ATOM     79  F   UNL A   1      37.220  31.761  38.426  1.00  0.00    -0.200 F 
ATOM     80  F   UNL A   1      38.202  34.281  38.795  1.00  0.00    -0.200 F 
ENDBRANCH  46  70
BRANCH  58  81
ATOM     81  C   UNL A   1      44.896  27.917  34.472  1.00  0.00     0.064 A 
ATOM     82  C   UNL A   1      44.883  26.790  35.305  1.00  0.00     0.173 A 
ATOM     83  C   UNL A   1      46.059  28.701  34.444  1.00  0.00     0.173 A 
ATOM     84  F   UNL A   1      43.788  26.019  35.381  1.00  0.00    -0.203 F 
ATOM     85  C   UNL A   1      45.983  26.476  36.101  1.00  0.00     0.198 A 
ATOM     86  C   UNL A   1      47.168  28.367  35.218  1.00  0.00     0.198 A 
ATOM     87  F   UNL A   1      46.125  29.786  33.658  1.00  0.00    -0.203 F 
ATOM     88  F   UNL A   1      45.929  25.424  36.929  1.00  0.00    -0.200 F 
ATOM     89  C   UNL A   1      47.125  27.260  36.052  1.00  0.00     0.200 A 
ATOM     90  F   UNL A   1      48.275  29.119  35.159  1.00  0.00    -0.200 F 
ATOM     91  F   UNL A   1      48.183  26.954  36.814  1.00  0.00    -0.200 F 
ENDBRANCH  58  81
ENDBRANCH  32  33
ENDBRANCH  25  27
ENDBRANCH  24  25
ENDBRANCH  23  24
ENDBRANCH   1  23
TORSDOF 14
ENDMDL
MODEL 2
REMARK VINA RESULT:     -12.1      0.422      1.664
REMARK SMILES CC(=O)c1ccccc1S(=O)(=O)N1CCC(C(=O)OCCOC(=O)c2ccc(-c3c4nc(c(-c5c(F)c(F)c(F)c(F)c5F)c5ccc([nH]5)c(-c5c(F)c(F)c(F)c(F)c5F)c5nc(c(-c6c(F)c(F)c(F)c(F)c6F)c6ccc3[nH]6)C=C5)C=C4)cc2)CC1
REMARK SMILES IDX 20 1 19 2 17 3 18 4 16 5 13 6 14 7 89 8 15 9 88 10 10 11
REMARK SMILES IDX 11 12 12 13 9 14 4 15 5 16 6 17 8 18 7 19 2 20 1 21 3 22
REMARK SMILES IDX 21 23 22 24 23 25 24 26 25 27 26 28 87 29 27 30 86 31 28 32
REMARK SMILES IDX 29 33 30 34 80 35 31 36 85 37 79 38 81 39 32 40 84 41 78 42
REMARK SMILES IDX 77 43 33 45 65 46 45 47 64 48 46 49 49 50 63 51 82 52 47 53
REMARK SMILES IDX 48 54 62 56 83 57 50 58 34 59 35 60 43 61 36 62 37 63 41 64
REMARK SMILES IDX 44 65 38 66 39 67 42 68 40 69 66 70 67 71 75 72 68 73 69 74
REMARK SMILES IDX 73 75 76 76 70 77 71 78 74 79 72 80 51 81 52 82 60 83 53 84
REMARK SMILES IDX 54 85 58 86 61 87 55 88 56 89 59 90 57 91
REMARK H PARENT 81 44 49 55
REMARK Flexibility Score: inf
ROOT
ATOM      1  C   UNL A   1      31.537  29.032  24.894  1.00  0.00     0.274 C 
ENDROOT
BRANCH   1   2
ATOM      2  O   UNL A   1      30.284  29.192  24.203  1.00  0.00    -0.462 OA
BRANCH   2   3
ATOM      3  C   UNL A   1      30.137  28.500  23.045  1.00  0.00     0.309 C 
ATOM      4  O   UNL A   1      29.490  28.891  22.080  1.00  0.00    -0.252 OA
BRANCH   3   5
ATOM      5  C   UNL A   1      30.891  27.184  23.034  1.00  0.00     0.102 C 
ATOM      6  N   UNL A   1      32.222  24.807  22.894  1.00  0.00    -0.198 NA
ATOM      7  C   UNL A   1      30.803  24.645  23.306  1.00  0.00     0.103 C 
ATOM      8  C   UNL A   1      32.392  25.678  21.682  1.00  0.00     0.103 C 
ATOM      9  C   UNL A   1      30.149  25.988  23.630  1.00  0.00     0.032 C 
ATOM     10  C   UNL A   1      31.382  26.829  21.640  1.00  0.00     0.032 C 
BRANCH   6  11
ATOM     11  S   UNL A   1      33.109  23.342  22.851  1.00  0.00     0.243 S 
ATOM     12  O   UNL A   1      33.545  23.124  21.493  1.00  0.00    -0.207 OA
ATOM     13  O   UNL A   1      32.331  22.335  23.554  1.00  0.00    -0.207 OA
BRANCH  11  14
ATOM     14  C   UNL A   1      34.577  23.514  23.829  1.00  0.00     0.093 A 
ATOM     15  C   UNL A   1      34.657  24.086  25.095  1.00  0.00     0.037 A 
ATOM     16  C   UNL A   1      35.883  24.105  25.783  1.00  0.00     0.013 A 
ATOM     17  C   UNL A   1      37.018  23.514  25.228  1.00  0.00     0.001 A 
ATOM     18  C   UNL A   1      35.731  22.925  23.275  1.00  0.00     0.022 A 
ATOM     19  C   UNL A   1      36.939  22.914  23.976  1.00  0.00     0.001 A 
BRANCH  15  20
ATOM     20  C   UNL A   1      33.511  24.581  25.864  1.00  0.00     0.161 C 
ATOM     21  C   UNL A   1      32.779  23.564  26.695  1.00  0.00     0.093 C 
ATOM     22  O   UNL A   1      33.293  25.787  25.921  1.00  0.00    -0.294 OA
ENDBRANCH  15  20
ENDBRANCH  11  14
ENDBRANCH   6  11
ENDBRANCH   3   5
ENDBRANCH   2   3
ENDBRANCH   1   2
BRANCH   1  23
ATOM     23  C   UNL A   1      31.801  30.211  25.834  1.00  0.00     0.275 C 
BRANCH  23  24
ATOM     24  O   UNL A   1      33.210  30.446  26.032  1.00  0.00    -0.458 OA
BRANCH  24  25
ATOM     25  C   UNL A   1      33.511  31.304  27.033  1.00  0.00     0.338 C 
ATOM     26  O   UNL A   1      32.812  32.199  27.480  1.00  0.00    -0.246 OA
BRANCH  25  27
ATOM     27  C   UNL A   1      34.829  30.990  27.600  1.00  0.00     0.060 A 
ATOM     28  C   UNL A   1      35.095  29.669  27.964  1.00  0.00     0.016 A 
ATOM     29  C   UNL A   1      35.738  32.004  27.905  1.00  0.00     0.016 A 
ATOM     30  C   UNL A   1      36.247  29.360  28.684  1.00  0.00     0.010 A 
ATOM     31  C   UNL A   1      36.912  31.687  28.598  1.00  0.00     0.010 A 
ATOM     32  C   UNL A   1      37.163  30.367  29.017  1.00  0.00    -0.014 A 
BRANCH  32  33
ATOM     33  C   UNL A   1      38.374  30.040  29.815  1.00  0.00     0.031 A 
ATOM     34  C   UNL A   1      39.415  29.100  29.271  1.00  0.00     0.074 A 
ATOM     35  C   UNL A   1      38.536  30.586  31.034  1.00  0.00     0.049 A 
ATOM     36  N   UNL A   1      40.492  28.630  29.851  1.00  0.00    -0.248 NA
ATOM     37  C   UNL A   1      39.220  28.622  27.894  1.00  0.00     0.031 C 
ATOM     38  C   UNL A   1      37.616  31.531  31.665  1.00  0.00     0.029 A 
ATOM     39  N   UNL A   1      39.532  30.418  31.965  1.00  0.00    -0.354 N 
ATOM     40  C   UNL A   1      41.083  27.778  28.926  1.00  0.00     0.074 A 
ATOM     41  C   UNL A   1      40.241  27.787  27.748  1.00  0.00     0.031 C 
ATOM     42  C   UNL A   1      38.088  31.863  32.877  1.00  0.00     0.029 A 
ATOM     43  C   UNL A   1      39.316  31.115  33.128  1.00  0.00     0.049 A 
ATOM     44  H   UNL A   1      40.324  29.853  31.813  1.00  0.00     0.167 HD
ATOM     45  C   UNL A   1      42.225  27.059  29.049  1.00  0.00     0.037 A 
ATOM     46  C   UNL A   1      40.014  31.128  34.280  1.00  0.00     0.037 A 
ATOM     47  C   UNL A   1      43.080  27.077  30.209  1.00  0.00     0.049 A 
ATOM     48  C   UNL A   1      41.255  30.287  34.402  1.00  0.00     0.074 A 
ATOM     49  C   UNL A   1      44.286  26.425  30.402  1.00  0.00     0.029 A 
ATOM     50  N   UNL A   1      42.818  27.782  31.374  1.00  0.00    -0.354 N 
ATOM     51  N   UNL A   1      41.821  29.511  33.510  1.00  0.00    -0.248 NA
ATOM     52  C   UNL A   1      41.953  30.322  35.695  1.00  0.00     0.031 C 
ATOM     53  C   UNL A   1      44.729  26.695  31.701  1.00  0.00     0.029 A 
ATOM     54  C   UNL A   1      43.826  27.557  32.300  1.00  0.00     0.049 A 
ATOM     55  H   UNL A   1      42.033  28.357  31.522  1.00  0.00     0.167 HD
ATOM     56  C   UNL A   1      42.955  28.991  34.121  1.00  0.00     0.074 A 
ATOM     57  C   UNL A   1      43.003  29.550  35.455  1.00  0.00     0.031 C 
ATOM     58  C   UNL A   1      43.871  28.129  33.621  1.00  0.00     0.037 A 
BRANCH  45  59
ATOM     59  C   UNL A   1      42.617  26.162  27.911  1.00  0.00     0.064 A 
ATOM     60  C   UNL A   1      42.063  24.884  27.751  1.00  0.00     0.173 A 
ATOM     61  C   UNL A   1      43.507  26.621  26.927  1.00  0.00     0.173 A 
ATOM     62  F   UNL A   1      41.214  24.396  28.668  1.00  0.00    -0.203 F 
ATOM     63  C   UNL A   1      42.399  24.090  26.657  1.00  0.00     0.198 A 
ATOM     64  C   UNL A   1      43.820  25.835  25.821  1.00  0.00     0.198 A 
ATOM     65  F   UNL A   1      44.057  27.839  27.028  1.00  0.00    -0.203 F 
ATOM     66  F   UNL A   1      41.884  22.859  26.540  1.00  0.00    -0.200 F 
ATOM     67  C   UNL A   1      43.271  24.570  25.688  1.00  0.00     0.200 A 
ATOM     68  F   UNL A   1      44.650  26.306  24.880  1.00  0.00    -0.200 F 
ATOM     69  F   UNL A   1      43.581  23.810  24.630  1.00  0.00    -0.200 F 
ENDBRANCH  45  59
BRANCH  46  70
ATOM     70  C   UNL A   1      39.544  31.952  35.424  1.00  0.00     0.064 A 
ATOM     71  C   UNL A   1      38.631  31.439  36.356  1.00  0.00     0.173 A 
ATOM     72  C   UNL A   1      39.978  33.274  35.595  1.00  0.00     0.173 A 
ATOM     73  F   UNL A   1      38.167  30.188  36.218  1.00  0.00    -0.203 F 
ATOM     74  C   UNL A   1      38.152  32.225  37.400  1.00  0.00     0.198 A 
ATOM     75  C   UNL A   1      39.522  34.050  36.658  1.00  0.00     0.198 A 
ATOM     76  F   UNL A   1      40.850  33.813  34.729  1.00  0.00    -0.203 F 
ATOM     77  F   UNL A   1      37.236  31.729  38.244  1.00  0.00    -0.200 F 
ATOM     78  C   UNL A   1      38.602  33.529  37.554  1.00  0.00     0.200 A 
ATOM     79  F   UNL A   1      39.967  35.306  36.808  1.00  0.00    -0.200 F 
ATOM     80  F   UNL A   1      38.137  34.286  38.557  1.00  0.00    -0.200 F 
ENDBRANCH  46  70
BRANCH  58  81
ATOM     81  C   UNL A   1      45.031  27.769  34.503  1.00  0.00     0.064 A 
ATOM     82  C   UNL A   1      46.204  28.536  34.528  1.00  0.00     0.173 A 
ATOM     83  C   UNL A   1      44.954  26.657  35.355  1.00  0.00     0.173 A 
ATOM     84  F   UNL A   1      46.333  29.598  33.719  1.00  0.00    -0.203 F 
ATOM     85  C   UNL A   1      47.270  28.185  35.352  1.00  0.00     0.198 A 
ATOM     86  C   UNL A   1      46.011  26.327  36.201  1.00  0.00     0.198 A 
ATOM     87  F   UNL A   1      43.851  25.894  35.376  1.00  0.00    -0.203 F 
ATOM     88  F   UNL A   1      48.402  28.903  35.321  1.00  0.00    -0.200 F 
ATOM     89  C   UNL A   1      47.171  27.087  36.192  1.00  0.00     0.200 A 
ATOM     90  F   UNL A   1      45.907  25.272  37.021  1.00  0.00    -0.200 F 
ATOM     91  F   UNL A   1      48.196  26.754  36.988  1.00  0.00    -0.200 F 
ENDBRANCH  58  81
ENDBRANCH  32  33
ENDBRANCH  25  27
ENDBRANCH  24  25
ENDBRANCH  23  24
ENDBRANCH   1  23
TORSDOF 14
ENDMDL
MODEL 3
REMARK VINA RESULT:     -11.9      3.273      8.397
REMARK SMILES CC(=O)c1ccccc1S(=O)(=O)N1CCC(C(=O)OCCOC(=O)c2ccc(-c3c4nc(c(-c5c(F)c(F)c(F)c(F)c5F)c5ccc([nH]5)c(-c5c(F)c(F)c(F)c(F)c5F)c5nc(c(-c6c(F)c(F)c(F)c(F)c6F)c6ccc3[nH]6)C=C5)C=C4)cc2)CC1
REMARK SMILES IDX 20 1 19 2 17 3 18 4 16 5 13 6 14 7 89 8 15 9 88 10 10 11
REMARK SMILES IDX 11 12 12 13 9 14 4 15 5 16 6 17 8 18 7 19 2 20 1 21 3 22
REMARK SMILES IDX 21 23 22 24 23 25 24 26 25 27 26 28 87 29 27 30 86 31 28 32
REMARK SMILES IDX 29 33 30 34 80 35 31 36 85 37 79 38 81 39 32 40 84 41 78 42
REMARK SMILES IDX 77 43 33 45 65 46 45 47 64 48 46 49 49 50 63 51 82 52 47 53
REMARK SMILES IDX 48 54 62 56 83 57 50 58 34 59 35 60 43 61 36 62 37 63 41 64
REMARK SMILES IDX 44 65 38 66 39 67 42 68 40 69 66 70 67 71 75 72 68 73 69 74
REMARK SMILES IDX 73 75 76 76 70 77 71 78 74 79 72 80 51 81 52 82 60 83 53 84
REMARK SMILES IDX 54 85 58 86 61 87 55 88 56 89 59 90 57 91
REMARK H PARENT 81 44 49 55
REMARK Flexibility Score: inf
ROOT
ATOM      1  C   UNL A   1      42.490  20.867  26.278  1.00  0.00     0.274 C 
ENDROOT
BRANCH   1   2
ATOM      2  O   UNL A   1      41.140  21.367  26.293  1.00  0.00    -0.462 OA
BRANCH   2   3
ATOM      3  C   UNL A   1      40.161  20.478  25.988  1.00  0.00     0.309 C 
ATOM      4  O   UNL A   1      40.357  19.305  25.688  1.00  0.00    -0.252 OA
BRANCH   3   5
ATOM      5  C   UNL A   1      38.766  21.065  26.088  1.00  0.00     0.102 C 
ATOM      6  N   UNL A   1      36.241  22.096  26.148  1.00  0.00    -0.198 NA
ATOM      7  C   UNL A   1      37.276  23.130  25.880  1.00  0.00     0.103 C 
ATOM      8  C   UNL A   1      36.385  20.875  25.284  1.00  0.00     0.103 C 
ATOM      9  C   UNL A   1      38.689  22.591  26.106  1.00  0.00     0.032 C 
ATOM     10  C   UNL A   1      37.851  20.526  25.001  1.00  0.00     0.032 C 
BRANCH   6  11
ATOM     11  S   UNL A   1      34.646  22.713  26.252  1.00  0.00     0.243 S 
ATOM     12  O   UNL A   1      34.705  24.139  26.038  1.00  0.00    -0.207 OA
ATOM     13  O   UNL A   1      34.039  22.166  27.454  1.00  0.00    -0.207 OA
BRANCH  11  14
ATOM     14  C   UNL A   1      33.670  22.045  24.933  1.00  0.00     0.093 A 
ATOM     15  C   UNL A   1      33.606  22.532  23.632  1.00  0.00     0.037 A 
ATOM     16  C   UNL A   1      32.828  21.865  22.667  1.00  0.00     0.013 A 
ATOM     17  C   UNL A   1      32.153  20.689  22.990  1.00  0.00     0.001 A 
ATOM     18  C   UNL A   1      32.978  20.858  25.250  1.00  0.00     0.022 A 
ATOM     19  C   UNL A   1      32.237  20.179  24.281  1.00  0.00     0.001 A 
BRANCH  15  20
ATOM     20  C   UNL A   1      34.401  23.650  23.116  1.00  0.00     0.161 C 
ATOM     21  C   UNL A   1      33.720  24.990  23.083  1.00  0.00     0.093 C 
ATOM     22  O   UNL A   1      35.595  23.491  22.884  1.00  0.00    -0.294 OA
ENDBRANCH  15  20
ENDBRANCH  11  14
ENDBRANCH   6  11
ENDBRANCH   3   5
ENDBRANCH   2   3
ENDBRANCH   1   2
BRANCH   1  23
ATOM     23  C   UNL A   1      43.388  21.735  25.392  1.00  0.00     0.275 C 
BRANCH  23  24
ATOM     24  O   UNL A   1      42.732  22.949  24.976  1.00  0.00    -0.458 OA
BRANCH  24  25
ATOM     25  C   UNL A   1      43.483  24.069  25.079  1.00  0.00     0.338 C 
ATOM     26  O   UNL A   1      44.484  24.353  24.441  1.00  0.00    -0.246 OA
BRANCH  25  27
ATOM     27  C   UNL A   1      42.899  24.991  26.061  1.00  0.00     0.060 A 
ATOM     28  C   UNL A   1      43.488  26.245  26.224  1.00  0.00     0.016 A 
ATOM     29  C   UNL A   1      41.874  24.576  26.913  1.00  0.00     0.016 A 
ATOM     30  C   UNL A   1      43.097  27.072  27.275  1.00  0.00     0.010 A 
ATOM     31  C   UNL A   1      41.457  25.422  27.947  1.00  0.00     0.010 A 
ATOM     32  C   UNL A   1      42.084  26.666  28.153  1.00  0.00    -0.014 A 
BRANCH  32  33
ATOM     33  C   UNL A   1      41.692  27.534  29.294  1.00  0.00     0.031 A 
ATOM     34  C   UNL A   1      42.436  27.462  30.599  1.00  0.00     0.074 A 
ATOM     35  C   UNL A   1      40.660  28.389  29.157  1.00  0.00     0.049 A 
ATOM     36  N   UNL A   1      42.189  28.076  31.730  1.00  0.00    -0.248 NA
ATOM     37  C   UNL A   1      43.612  26.580  30.642  1.00  0.00     0.031 C 
ATOM     38  C   UNL A   1      39.874  28.575  27.939  1.00  0.00     0.029 A 
ATOM     39  N   UNL A   1      40.091  29.256  30.058  1.00  0.00    -0.354 N 
ATOM     40  C   UNL A   1      43.155  27.632  32.625  1.00  0.00     0.074 A 
ATOM     41  C   UNL A   1      43.988  26.688  31.909  1.00  0.00     0.031 C 
ATOM     42  C   UNL A   1      38.927  29.499  28.164  1.00  0.00     0.029 A 
ATOM     43  C   UNL A   1      39.006  29.932  29.555  1.00  0.00     0.049 A 
ATOM     44  H   UNL A   1      40.428  29.382  30.974  1.00  0.00     0.167 HD
ATOM     45  C   UNL A   1      43.330  27.984  33.921  1.00  0.00     0.037 A 
ATOM     46  C   UNL A   1      38.153  30.782  30.157  1.00  0.00     0.037 A 
ATOM     47  C   UNL A   1      42.522  28.949  34.622  1.00  0.00     0.049 A 
ATOM     48  C   UNL A   1      38.349  31.122  31.609  1.00  0.00     0.074 A 
ATOM     49  C   UNL A   1      42.659  29.410  35.920  1.00  0.00     0.029 A 
ATOM     50  N   UNL A   1      41.421  29.598  34.084  1.00  0.00    -0.354 N 
ATOM     51  N   UNL A   1      39.284  30.721  32.435  1.00  0.00    -0.248 NA
ATOM     52  C   UNL A   1      37.365  32.032  32.213  1.00  0.00     0.031 C 
ATOM     53  C   UNL A   1      41.614  30.301  36.184  1.00  0.00     0.029 A 
ATOM     54  C   UNL A   1      40.854  30.435  35.034  1.00  0.00     0.049 A 
ATOM     55  H   UNL A   1      41.090  29.483  33.164  1.00  0.00     0.167 HD
ATOM     56  C   UNL A   1      39.021  31.351  33.644  1.00  0.00     0.074 A 
ATOM     57  C   UNL A   1      37.846  32.171  33.440  1.00  0.00     0.031 C 
ATOM     58  C   UNL A   1      39.692  31.257  34.817  1.00  0.00     0.037 A 
BRANCH  45  59
ATOM     59  C   UNL A   1      44.426  27.306  34.691  1.00  0.00     0.064 A 
ATOM     60  C   UNL A   1      45.699  27.878  34.825  1.00  0.00     0.173 A 
ATOM     61  C   UNL A   1      44.174  26.100  35.364  1.00  0.00     0.173 A 
ATOM     62  F   UNL A   1      45.994  29.025  34.195  1.00  0.00    -0.203 F 
ATOM     63  C   UNL A   1      46.685  27.258  35.589  1.00  0.00     0.198 A 
ATOM     64  C   UNL A   1      45.153  25.497  36.149  1.00  0.00     0.198 A 
ATOM     65  F   UNL A   1      42.969  25.516  35.276  1.00  0.00    -0.203 F 
ATOM     66  F   UNL A   1      47.905  27.805  35.678  1.00  0.00    -0.200 F 
ATOM     67  C   UNL A   1      46.408  26.074  36.258  1.00  0.00     0.200 A 
ATOM     68  F   UNL A   1      44.879  24.361  36.805  1.00  0.00    -0.200 F 
ATOM     69  F   UNL A   1      47.354  25.488  37.004  1.00  0.00    -0.200 F 
ENDBRANCH  45  59
BRANCH  46  70
ATOM     70  C   UNL A   1      37.018  31.361  29.392  1.00  0.00     0.064 A 
ATOM     71  C   UNL A   1      37.014  32.713  29.019  1.00  0.00     0.173 A 
ATOM     72  C   UNL A   1      35.905  30.583  29.040  1.00  0.00     0.173 A 
ATOM     73  F   UNL A   1      38.044  33.502  29.358  1.00  0.00    -0.203 F 
ATOM     74  C   UNL A   1      35.929  33.269  28.346  1.00  0.00     0.198 A 
ATOM     75  C   UNL A   1      34.835  31.133  28.339  1.00  0.00     0.198 A 
ATOM     76  F   UNL A   1      35.860  29.285  29.376  1.00  0.00    -0.203 F 
ATOM     77  F   UNL A   1      35.926  34.576  28.052  1.00  0.00    -0.200 F 
ATOM     78  C   UNL A   1      34.843  32.478  28.001  1.00  0.00     0.200 A 
ATOM     79  F   UNL A   1      33.792  30.363  28.000  1.00  0.00    -0.200 F 
ATOM     80  F   UNL A   1      33.799  33.015  27.357  1.00  0.00    -0.200 F 
ENDBRANCH  46  70
BRANCH  58  81
ATOM     81  C   UNL A   1      39.200  32.097  35.960  1.00  0.00     0.064 A 
ATOM     82  C   UNL A   1      38.276  31.605  36.892  1.00  0.00     0.173 A 
ATOM     83  C   UNL A   1      39.682  33.403  36.137  1.00  0.00     0.173 A 
ATOM     84  F   UNL A   1      37.772  30.369  36.755  1.00  0.00    -0.203 F 
ATOM     85  C   UNL A   1      37.830  32.400  37.945  1.00  0.00     0.198 A 
ATOM     86  C   UNL A   1      39.257  34.184  37.209  1.00  0.00     0.198 A 
ATOM     87  F   UNL A   1      40.573  33.919  35.278  1.00  0.00    -0.203 F 
ATOM     88  F   UNL A   1      36.907  31.927  38.794  1.00  0.00    -0.200 F 
ATOM     89  C   UNL A   1      38.325  33.685  38.106  1.00  0.00     0.200 A 
ATOM     90  F   UNL A   1      39.746  35.421  37.370  1.00  0.00    -0.200 F 
ATOM     91  F   UNL A   1      37.898  34.446  39.123  1.00  0.00    -0.200 F 
ENDBRANCH  58  81
ENDBRANCH  32  33
ENDBRANCH  25  27
ENDBRANCH  24  25
ENDBRANCH  23  24
ENDBRANCH   1  23
TORSDOF 14
ENDMDL
