MODEL 1
REMARK VINA RESULT:     -13.2      0.000      0.000
REMARK SMILES CC1(C)CCCC[C@H]1NC(=O)Nc1ccccc1C(=O)OCCOC(=O)c1ccc(-c2c3nc(c(-c4c(F)c(F)c(F)c(F)c4F)c4ccc([nH]4)c(-c4c(F)c(F)c(F)c(F)c4F)c4nc(c(-c5c(F)c(F)c(F)c(F)c5F)c5ccc2[nH]5)C=C4)C=C3)cc1
REMARK SMILES IDX 22 1 21 2 19 3 20 4 18 5 13 6 14 7 15 8 17 9 16 10 12 11
REMARK SMILES IDX 9 12 10 13 11 15 8 17 1 18 2 19 3 20 4 21 5 22 7 23 6 24
REMARK SMILES IDX 23 25 24 26 25 27 26 28 27 29 28 30 89 31 29 32 88 33 30 34
REMARK SMILES IDX 31 35 32 36 82 37 33 38 87 39 81 40 83 41 34 42 86 43 80 44
REMARK SMILES IDX 79 45 35 47 67 48 47 49 66 50 48 51 51 52 65 53 84 54 49 55
REMARK SMILES IDX 50 56 64 58 85 59 52 60 36 61 37 62 45 63 38 64 39 65 43 66
REMARK SMILES IDX 46 67 40 68 41 69 44 70 42 71 68 72 69 73 77 74 70 75 71 76
REMARK SMILES IDX 75 77 78 78 72 79 73 80 76 81 74 82 53 83 54 84 62 85 55 86
REMARK SMILES IDX 56 87 60 88 63 89 57 90 58 91 61 92 59 93
REMARK H PARENT 9 14 12 16 83 46 51 57
REMARK Flexibility Score: inf
ROOT
ATOM      1  C   UNL A   1      31.863  28.693  27.162  1.00  0.00     0.275 C 
ENDROOT
BRANCH   1   2
ATOM      2  O   UNL A   1      32.863  28.044  26.343  1.00  0.00    -0.458 OA
BRANCH   2   3
ATOM      3  C   UNL A   1      32.496  26.815  25.937  1.00  0.00     0.340 C 
ATOM      4  O   UNL A   1      33.107  25.782  26.162  1.00  0.00    -0.246 OA
BRANCH   3   5
ATOM      5  C   UNL A   1      31.275  26.733  25.138  1.00  0.00     0.083 A 
ATOM      6  C   UNL A   1      30.187  25.920  25.478  1.00  0.00     0.057 A 
ATOM      7  C   UNL A   1      29.030  25.991  24.680  1.00  0.00     0.027 A 
ATOM      8  C   UNL A   1      28.904  26.951  23.670  1.00  0.00     0.002 A 
ATOM      9  C   UNL A   1      31.153  27.670  24.093  1.00  0.00     0.018 A 
ATOM     10  C   UNL A   1      29.961  27.804  23.386  1.00  0.00     0.001 A 
BRANCH   6  11
ATOM     11  N   UNL A   1      30.123  25.017  26.554  1.00  0.00    -0.307 N 
ATOM     12  N   UNL A   1      30.897  22.881  25.858  1.00  0.00    -0.335 N 
ATOM     13  C   UNL A   1      30.148  23.672  26.651  1.00  0.00     0.319 C 
ATOM     14  H   UNL A   1      30.703  21.923  25.971  1.00  0.00     0.165 HD
ATOM     15  O   UNL A   1      29.560  23.139  27.597  1.00  0.00    -0.248 OA
ATOM     16  H   UNL A   1      30.045  25.464  27.427  1.00  0.00     0.171 HD
BRANCH  12  17
ATOM     17  C   UNL A   1      31.940  23.143  24.863  1.00  0.00     0.089 C 
ATOM     18  C   UNL A   1      32.499  20.680  24.331  1.00  0.00     0.013 C 
ATOM     19  C   UNL A   1      33.052  22.053  24.763  1.00  0.00    -0.015 C 
ATOM     20  C   UNL A   1      33.769  21.856  26.113  1.00  0.00     0.013 C 
ATOM     21  C   UNL A   1      34.104  22.557  23.732  1.00  0.00     0.008 C 
ATOM     22  C   UNL A   1      33.517  22.965  22.376  1.00  0.00     0.001 C 
ATOM     23  C   UNL A   1      31.298  23.371  23.478  1.00  0.00     0.025 C 
ATOM     24  C   UNL A   1      32.339  23.922  22.510  1.00  0.00     0.002 C 
ENDBRANCH  12  17
ENDBRANCH   6  11
ENDBRANCH   3   5
ENDBRANCH   2   3
ENDBRANCH   1   2
BRANCH   1  25
ATOM     25  C   UNL A   1      31.790  30.226  27.040  1.00  0.00     0.275 C 
BRANCH  25  26
ATOM     26  O   UNL A   1      32.998  30.829  26.526  1.00  0.00    -0.458 OA
BRANCH  26  27
ATOM     27  C   UNL A   1      33.548  31.791  27.307  1.00  0.00     0.338 C 
ATOM     28  O   UNL A   1      33.020  32.818  27.693  1.00  0.00    -0.246 OA
BRANCH  27  29
ATOM     29  C   UNL A   1      34.921  31.429  27.722  1.00  0.00     0.060 A 
ATOM     30  C   UNL A   1      35.197  30.097  28.035  1.00  0.00     0.016 A 
ATOM     31  C   UNL A   1      35.858  32.416  28.021  1.00  0.00     0.016 A 
ATOM     32  C   UNL A   1      36.374  29.735  28.667  1.00  0.00     0.010 A 
ATOM     33  C   UNL A   1      37.061  32.053  28.646  1.00  0.00     0.010 A 
ATOM     34  C   UNL A   1      37.307  30.714  28.998  1.00  0.00    -0.014 A 
BRANCH  34  35
ATOM     35  C   UNL A   1      38.456  30.328  29.846  1.00  0.00     0.031 A 
ATOM     36  C   UNL A   1      39.508  29.425  29.271  1.00  0.00     0.074 A 
ATOM     37  C   UNL A   1      38.613  30.868  31.068  1.00  0.00     0.049 A 
ATOM     38  N   UNL A   1      40.510  28.834  29.866  1.00  0.00    -0.248 NA
ATOM     39  C   UNL A   1      39.424  29.163  27.824  1.00  0.00     0.031 C 
ATOM     40  C   UNL A   1      37.734  31.873  31.667  1.00  0.00     0.029 A 
ATOM     41  N   UNL A   1      39.573  30.650  32.022  1.00  0.00    -0.354 N 
ATOM     42  C   UNL A   1      41.146  28.093  28.878  1.00  0.00     0.074 A 
ATOM     43  C   UNL A   1      40.427  28.316  27.644  1.00  0.00     0.031 C 
ATOM     44  C   UNL A   1      38.193  32.182  32.890  1.00  0.00     0.029 A 
ATOM     45  C   UNL A   1      39.347  31.338  33.189  1.00  0.00     0.049 A 
ATOM     46  H   UNL A   1      40.348  30.059  31.884  1.00  0.00     0.167 HD
ATOM     47  C   UNL A   1      42.228  27.290  29.005  1.00  0.00     0.037 A 
ATOM     48  C   UNL A   1      39.969  31.248  34.379  1.00  0.00     0.037 A 
ATOM     49  C   UNL A   1      42.942  27.103  30.241  1.00  0.00     0.049 A 
ATOM     50  C   UNL A   1      41.103  30.269  34.524  1.00  0.00     0.074 A 
ATOM     51  C   UNL A   1      44.020  26.278  30.505  1.00  0.00     0.029 A 
ATOM     52  N   UNL A   1      42.645  27.768  31.424  1.00  0.00    -0.354 N 
ATOM     53  N   UNL A   1      41.648  29.491  33.619  1.00  0.00    -0.248 NA
ATOM     54  C   UNL A   1      41.698  30.139  35.861  1.00  0.00     0.031 C 
ATOM     55  C   UNL A   1      44.352  26.415  31.856  1.00  0.00     0.029 A 
ATOM     56  C   UNL A   1      43.512  27.362  32.423  1.00  0.00     0.049 A 
ATOM     57  H   UNL A   1      41.925  28.429  31.535  1.00  0.00     0.167 HD
ATOM     58  C   UNL A   1      42.658  28.795  34.268  1.00  0.00     0.074 A 
ATOM     59  C   UNL A   1      42.663  29.257  35.641  1.00  0.00     0.031 C 
ATOM     60  C   UNL A   1      43.502  27.855  33.778  1.00  0.00     0.037 A 
BRANCH  47  61
ATOM     61  C   UNL A   1      42.658  26.509  27.800  1.00  0.00     0.064 A 
ATOM     62  C   UNL A   1      43.635  26.983  26.913  1.00  0.00     0.173 A 
ATOM     63  C   UNL A   1      42.085  25.255  27.535  1.00  0.00     0.173 A 
ATOM     64  F   UNL A   1      44.199  28.185  27.109  1.00  0.00    -0.203 F 
ATOM     65  C   UNL A   1      44.009  26.239  25.796  1.00  0.00     0.198 A 
ATOM     66  C   UNL A   1      42.479  24.504  26.432  1.00  0.00     0.198 A 
ATOM     67  F   UNL A   1      41.143  24.757  28.350  1.00  0.00    -0.203 F 
ATOM     68  F   UNL A   1      44.913  26.731  24.936  1.00  0.00    -0.200 F 
ATOM     69  C   UNL A   1      43.435  24.999  25.559  1.00  0.00     0.200 A 
ATOM     70  F   UNL A   1      41.929  23.301  26.211  1.00  0.00    -0.200 F 
ATOM     71  F   UNL A   1      43.798  24.283  24.485  1.00  0.00    -0.200 F 
ENDBRANCH  47  61
BRANCH  48  72
ATOM     72  C   UNL A   1      39.487  32.044  35.539  1.00  0.00     0.064 A 
ATOM     73  C   UNL A   1      39.976  33.333  35.790  1.00  0.00     0.173 A 
ATOM     74  C   UNL A   1      38.544  31.521  36.438  1.00  0.00     0.173 A 
ATOM     75  F   UNL A   1      40.899  33.870  34.977  1.00  0.00    -0.203 F 
ATOM     76  C   UNL A   1      39.555  34.059  36.903  1.00  0.00     0.198 A 
ATOM     77  C   UNL A   1      38.099  32.261  37.532  1.00  0.00     0.198 A 
ATOM     78  F   UNL A   1      38.047  30.289  36.250  1.00  0.00    -0.203 F 
ATOM     79  F   UNL A   1      40.078  35.268  37.148  1.00  0.00    -0.200 F 
ATOM     80  C   UNL A   1      38.613  33.525  37.769  1.00  0.00     0.200 A 
ATOM     81  F   UNL A   1      37.178  31.744  38.357  1.00  0.00    -0.200 F 
ATOM     82  F   UNL A   1      38.208  34.225  38.838  1.00  0.00    -0.200 F 
ENDBRANCH  48  72
BRANCH  60  83
ATOM     83  C   UNL A   1      44.528  27.301  34.721  1.00  0.00     0.064 A 
ATOM     84  C   UNL A   1      44.319  26.100  35.412  1.00  0.00     0.173 A 
ATOM     85  C   UNL A   1      45.751  27.964  34.901  1.00  0.00     0.173 A 
ATOM     86  F   UNL A   1      43.158  25.440  35.285  1.00  0.00    -0.203 F 
ATOM     87  C   UNL A   1      45.292  25.593  36.269  1.00  0.00     0.198 A 
ATOM     88  C   UNL A   1      46.732  27.438  35.736  1.00  0.00     0.198 A 
ATOM     89  F   UNL A   1      45.999  29.114  34.256  1.00  0.00    -0.203 F 
ATOM     90  F   UNL A   1      45.055  24.467  36.956  1.00  0.00    -0.200 F 
ATOM     91  C   UNL A   1      46.499  26.258  36.424  1.00  0.00     0.200 A 
ATOM     92  F   UNL A   1      47.904  28.075  35.874  1.00  0.00    -0.200 F 
ATOM     93  F   UNL A   1      47.437  25.763  37.243  1.00  0.00    -0.200 F 
ENDBRANCH  60  83
ENDBRANCH  34  35
ENDBRANCH  27  29
ENDBRANCH  26  27
ENDBRANCH  25  26
ENDBRANCH   1  25
TORSDOF 13
ENDMDL
MODEL 2
REMARK VINA RESULT:     -12.9      0.373      1.985
REMARK SMILES CC1(C)CCCC[C@H]1NC(=O)Nc1ccccc1C(=O)OCCOC(=O)c1ccc(-c2c3nc(c(-c4c(F)c(F)c(F)c(F)c4F)c4ccc([nH]4)c(-c4c(F)c(F)c(F)c(F)c4F)c4nc(c(-c5c(F)c(F)c(F)c(F)c5F)c5ccc2[nH]5)C=C4)C=C3)cc1
REMARK SMILES IDX 22 1 21 2 19 3 20 4 18 5 13 6 14 7 15 8 17 9 16 10 12 11
REMARK SMILES IDX 9 12 10 13 11 15 8 17 1 18 2 19 3 20 4 21 5 22 7 23 6 24
REMARK SMILES IDX 23 25 24 26 25 27 26 28 27 29 28 30 89 31 29 32 88 33 30 34
REMARK SMILES IDX 31 35 32 36 82 37 33 38 87 39 81 40 83 41 34 42 86 43 80 44
REMARK SMILES IDX 79 45 35 47 67 48 47 49 66 50 48 51 51 52 65 53 84 54 49 55
REMARK SMILES IDX 50 56 64 58 85 59 52 60 36 61 37 62 45 63 38 64 39 65 43 66
REMARK SMILES IDX 46 67 40 68 41 69 44 70 42 71 68 72 69 73 77 74 70 75 71 76
REMARK SMILES IDX 75 77 78 78 72 79 73 80 76 81 74 82 53 83 54 84 62 85 55 86
REMARK SMILES IDX 56 87 60 88 63 89 57 90 58 91 61 92 59 93
REMARK H PARENT 9 14 12 16 83 46 51 57
REMARK Flexibility Score: inf
ROOT
ATOM      1  C   UNL A   1      32.368  28.451  27.752  1.00  0.00     0.275 C 
ENDROOT
BRANCH   1   2
ATOM      2  O   UNL A   1      31.824  27.204  27.261  1.00  0.00    -0.458 OA
BRANCH   2   3
ATOM      3  C   UNL A   1      32.051  27.009  25.949  1.00  0.00     0.340 C 
ATOM      4  O   UNL A   1      33.151  26.973  25.418  1.00  0.00    -0.246 OA
BRANCH   3   5
ATOM      5  C   UNL A   1      30.871  26.856  25.101  1.00  0.00     0.083 A 
ATOM      6  C   UNL A   1      29.815  25.987  25.402  1.00  0.00     0.057 A 
ATOM      7  C   UNL A   1      28.691  25.990  24.556  1.00  0.00     0.027 A 
ATOM      8  C   UNL A   1      28.555  26.937  23.535  1.00  0.00     0.002 A 
ATOM      9  C   UNL A   1      30.743  27.780  24.044  1.00  0.00     0.018 A 
ATOM     10  C   UNL A   1      29.576  27.844  23.287  1.00  0.00     0.001 A 
BRANCH   6  11
ATOM     11  N   UNL A   1      29.756  25.088  26.481  1.00  0.00    -0.307 N 
ATOM     12  N   UNL A   1      30.651  22.987  25.827  1.00  0.00    -0.335 N 
ATOM     13  C   UNL A   1      29.839  23.746  26.589  1.00  0.00     0.319 C 
ATOM     14  H   UNL A   1      30.498  22.021  25.941  1.00  0.00     0.165 HD
ATOM     15  O   UNL A   1      29.244  23.192  27.517  1.00  0.00    -0.248 OA
ATOM     16  H   UNL A   1      29.627  25.536  27.348  1.00  0.00     0.171 HD
BRANCH  12  17
ATOM     17  C   UNL A   1      31.715  23.291  24.868  1.00  0.00     0.089 C 
ATOM     18  C   UNL A   1      32.389  20.852  24.355  1.00  0.00     0.013 C 
ATOM     19  C   UNL A   1      32.873  22.246  24.805  1.00  0.00    -0.015 C 
ATOM     20  C   UNL A   1      33.552  22.078  26.177  1.00  0.00     0.013 C 
ATOM     21  C   UNL A   1      33.937  22.793  23.808  1.00  0.00     0.008 C 
ATOM     22  C   UNL A   1      33.379  23.178  22.434  1.00  0.00     0.001 C 
ATOM     23  C   UNL A   1      31.110  23.494  23.461  1.00  0.00     0.025 C 
ATOM     24  C   UNL A   1      32.160  24.087  22.529  1.00  0.00     0.002 C 
ENDBRANCH  12  17
ENDBRANCH   6  11
ENDBRANCH   3   5
ENDBRANCH   2   3
ENDBRANCH   1   2
BRANCH   1  25
ATOM     25  C   UNL A   1      31.993  29.708  26.947  1.00  0.00     0.275 C 
BRANCH  25  26
ATOM     26  O   UNL A   1      33.132  30.437  26.437  1.00  0.00    -0.458 OA
BRANCH  26  27
ATOM     27  C   UNL A   1      33.616  31.406  27.251  1.00  0.00     0.338 C 
ATOM     28  O   UNL A   1      33.022  32.385  27.666  1.00  0.00    -0.246 OA
BRANCH  27  29
ATOM     29  C   UNL A   1      35.008  31.120  27.661  1.00  0.00     0.060 A 
ATOM     30  C   UNL A   1      35.374  29.796  27.911  1.00  0.00     0.016 A 
ATOM     31  C   UNL A   1      35.873  32.153  28.019  1.00  0.00     0.016 A 
ATOM     32  C   UNL A   1      36.569  29.484  28.536  1.00  0.00     0.010 A 
ATOM     33  C   UNL A   1      37.093  31.843  28.638  1.00  0.00     0.010 A 
ATOM     34  C   UNL A   1      37.429  30.508  28.925  1.00  0.00    -0.014 A 
BRANCH  34  35
ATOM     35  C   UNL A   1      38.596  30.160  29.765  1.00  0.00     0.031 A 
ATOM     36  C   UNL A   1      39.657  29.265  29.194  1.00  0.00     0.074 A 
ATOM     37  C   UNL A   1      38.759  30.726  30.975  1.00  0.00     0.049 A 
ATOM     38  N   UNL A   1      40.678  28.704  29.786  1.00  0.00    -0.248 NA
ATOM     39  C   UNL A   1      39.559  28.973  27.753  1.00  0.00     0.031 C 
ATOM     40  C   UNL A   1      37.869  31.726  31.566  1.00  0.00     0.029 A 
ATOM     41  N   UNL A   1      39.735  30.544  31.920  1.00  0.00    -0.354 N 
ATOM     42  C   UNL A   1      41.315  27.956  28.805  1.00  0.00     0.074 A 
ATOM     43  C   UNL A   1      40.575  28.142  27.576  1.00  0.00     0.031 C 
ATOM     44  C   UNL A   1      38.338  32.066  32.777  1.00  0.00     0.029 A 
ATOM     45  C   UNL A   1      39.511  31.250  33.076  1.00  0.00     0.049 A 
ATOM     46  H   UNL A   1      40.519  29.965  31.783  1.00  0.00     0.167 HD
ATOM     47  C   UNL A   1      42.413  27.176  28.932  1.00  0.00     0.037 A 
ATOM     48  C   UNL A   1      40.150  31.195  34.260  1.00  0.00     0.037 A 
ATOM     49  C   UNL A   1      43.146  27.026  30.162  1.00  0.00     0.049 A 
ATOM     50  C   UNL A   1      41.305  30.239  34.408  1.00  0.00     0.074 A 
ATOM     51  C   UNL A   1      44.243  26.227  30.427  1.00  0.00     0.029 A 
ATOM     52  N   UNL A   1      42.852  27.708  31.335  1.00  0.00    -0.354 N 
ATOM     53  N   UNL A   1      41.851  29.455  33.511  1.00  0.00    -0.248 NA
ATOM     54  C   UNL A   1      41.919  30.147  35.740  1.00  0.00     0.031 C 
ATOM     55  C   UNL A   1      44.590  26.396  31.771  1.00  0.00     0.029 A 
ATOM     56  C   UNL A   1      43.740  27.337  32.331  1.00  0.00     0.049 A 
ATOM     57  H   UNL A   1      42.122  28.358  31.444  1.00  0.00     0.167 HD
ATOM     58  C   UNL A   1      42.883  28.790  34.159  1.00  0.00     0.074 A 
ATOM     59  C   UNL A   1      42.897  29.279  35.523  1.00  0.00     0.031 C 
ATOM     60  C   UNL A   1      43.738  27.856  33.676  1.00  0.00     0.037 A 
BRANCH  47  61
ATOM     61  C   UNL A   1      42.842  26.380  27.736  1.00  0.00     0.064 A 
ATOM     62  C   UNL A   1      42.316  25.111  27.457  1.00  0.00     0.173 A 
ATOM     63  C   UNL A   1      43.790  26.908  26.847  1.00  0.00     0.173 A 
ATOM     64  F   UNL A   1      41.422  24.552  28.286  1.00  0.00    -0.203 F 
ATOM     65  C   UNL A   1      42.740  24.390  26.342  1.00  0.00     0.198 A 
ATOM     66  C   UNL A   1      44.193  26.196  25.720  1.00  0.00     0.198 A 
ATOM     67  F   UNL A   1      44.327  28.117  27.069  1.00  0.00    -0.203 F 
ATOM     68  F   UNL A   1      42.258  23.160  26.117  1.00  0.00    -0.200 F 
ATOM     69  C   UNL A   1      43.673  24.935  25.472  1.00  0.00     0.200 A 
ATOM     70  F   UNL A   1      45.088  26.730  24.876  1.00  0.00    -0.200 F 
ATOM     71  F   UNL A   1      44.076  24.242  24.398  1.00  0.00    -0.200 F 
ENDBRANCH  47  61
BRANCH  48  72
ATOM     72  C   UNL A   1      39.668  32.004  35.411  1.00  0.00     0.064 A 
ATOM     73  C   UNL A   1      38.693  31.510  36.288  1.00  0.00     0.173 A 
ATOM     74  C   UNL A   1      40.154  33.300  35.642  1.00  0.00     0.173 A 
ATOM     75  F   UNL A   1      38.175  30.288  36.096  1.00  0.00    -0.203 F 
ATOM     76  C   UNL A   1      38.211  32.288  37.340  1.00  0.00     0.198 A 
ATOM     77  C   UNL A   1      39.696  34.064  36.714  1.00  0.00     0.198 A 
ATOM     78  F   UNL A   1      41.083  33.825  34.830  1.00  0.00    -0.203 F 
ATOM     79  F   UNL A   1      37.242  31.812  38.133  1.00  0.00    -0.200 F 
ATOM     80  C   UNL A   1      38.718  33.561  37.556  1.00  0.00     0.200 A 
ATOM     81  F   UNL A   1      40.199  35.288  36.924  1.00  0.00    -0.200 F 
ATOM     82  F   UNL A   1      38.255  34.307  38.568  1.00  0.00    -0.200 F 
ENDBRANCH  48  72
BRANCH  60  83
ATOM     83  C   UNL A   1      44.786  27.340  34.616  1.00  0.00     0.064 A 
ATOM     84  C   UNL A   1      46.020  27.986  34.768  1.00  0.00     0.173 A 
ATOM     85  C   UNL A   1      44.532  26.206  35.401  1.00  0.00     0.173 A 
ATOM     86  F   UNL A   1      46.315  29.065  34.025  1.00  0.00    -0.203 F 
ATOM     87  C   UNL A   1      46.973  27.502  35.660  1.00  0.00     0.198 A 
ATOM     88  C   UNL A   1      45.476  25.742  36.313  1.00  0.00     0.198 A 
ATOM     89  F   UNL A   1      43.363  25.557  35.295  1.00  0.00    -0.203 F 
ATOM     90  F   UNL A   1      48.165  28.108  35.758  1.00  0.00    -0.200 F 
ATOM     91  C   UNL A   1      46.697  26.386  36.436  1.00  0.00     0.200 A 
ATOM     92  F   UNL A   1      45.202  24.671  37.071  1.00  0.00    -0.200 F 
ATOM     93  F   UNL A   1      47.612  25.927  37.300  1.00  0.00    -0.200 F 
ENDBRANCH  60  83
ENDBRANCH  34  35
ENDBRANCH  27  29
ENDBRANCH  26  27
ENDBRANCH  25  26
ENDBRANCH   1  25
TORSDOF 13
ENDMDL
MODEL 3
REMARK VINA RESULT:     -12.8      4.298      9.766
REMARK SMILES CC1(C)CCCC[C@H]1NC(=O)Nc1ccccc1C(=O)OCCOC(=O)c1ccc(-c2c3nc(c(-c4c(F)c(F)c(F)c(F)c4F)c4ccc([nH]4)c(-c4c(F)c(F)c(F)c(F)c4F)c4nc(c(-c5c(F)c(F)c(F)c(F)c5F)c5ccc2[nH]5)C=C4)C=C3)cc1
REMARK SMILES IDX 22 1 21 2 19 3 20 4 18 5 13 6 14 7 15 8 17 9 16 10 12 11
REMARK SMILES IDX 9 12 10 13 11 15 8 17 1 18 2 19 3 20 4 21 5 22 7 23 6 24
REMARK SMILES IDX 23 25 24 26 25 27 26 28 27 29 28 30 89 31 29 32 88 33 30 34
REMARK SMILES IDX 31 35 32 36 82 37 33 38 87 39 81 40 83 41 34 42 86 43 80 44
REMARK SMILES IDX 79 45 35 47 67 48 47 49 66 50 48 51 51 52 65 53 84 54 49 55
REMARK SMILES IDX 50 56 64 58 85 59 52 60 36 61 37 62 45 63 38 64 39 65 43 66
REMARK SMILES IDX 46 67 40 68 41 69 44 70 42 71 68 72 69 73 77 74 70 75 71 76
REMARK SMILES IDX 75 77 78 78 72 79 73 80 76 81 74 82 53 83 54 84 62 85 55 86
REMARK SMILES IDX 56 87 60 88 63 89 57 90 58 91 61 92 59 93
REMARK H PARENT 9 14 12 16 83 46 51 57
REMARK Flexibility Score: inf
ROOT
ATOM      1  C   UNL A   1      36.656  22.749  23.804  1.00  0.00     0.275 C 
ENDROOT
BRANCH   1   2
ATOM      2  O   UNL A   1      35.950  23.545  24.783  1.00  0.00    -0.458 OA
BRANCH   2   3
ATOM      3  C   UNL A   1      34.786  24.039  24.322  1.00  0.00     0.340 C 
ATOM      4  O   UNL A   1      34.489  25.223  24.274  1.00  0.00    -0.246 OA
BRANCH   3   5
ATOM      5  C   UNL A   1      33.799  23.061  23.870  1.00  0.00     0.083 A 
ATOM      6  C   UNL A   1      33.244  23.067  22.585  1.00  0.00     0.057 A 
ATOM      7  C   UNL A   1      32.369  22.023  22.235  1.00  0.00     0.027 A 
ATOM      8  C   UNL A   1      32.175  20.925  23.081  1.00  0.00     0.002 A 
ATOM      9  C   UNL A   1      33.566  21.971  24.732  1.00  0.00     0.018 A 
ATOM     10  C   UNL A   1      32.787  20.891  24.326  1.00  0.00     0.001 A 
BRANCH   6  11
ATOM     11  N   UNL A   1      33.467  24.028  21.583  1.00  0.00    -0.307 N 
ATOM     12  N   UNL A   1      31.889  25.792  21.793  1.00  0.00    -0.335 N 
ATOM     13  C   UNL A   1      32.729  25.031  21.064  1.00  0.00     0.319 C 
ATOM     14  H   UNL A   1      31.333  26.389  21.244  1.00  0.00     0.165 HD
ATOM     15  O   UNL A   1      32.925  25.360  19.891  1.00  0.00    -0.248 OA
ATOM     16  H   UNL A   1      34.358  23.953  21.171  1.00  0.00     0.171 HD
BRANCH  12  17
ATOM     17  C   UNL A   1      31.629  25.920  23.229  1.00  0.00     0.089 C 
ATOM     18  C   UNL A   1      29.902  27.832  23.069  1.00  0.00     0.013 C 
ATOM     19  C   UNL A   1      31.221  27.350  23.705  1.00  0.00    -0.015 C 
ATOM     20  C   UNL A   1      32.306  28.388  23.359  1.00  0.00     0.013 C 
ATOM     21  C   UNL A   1      31.084  27.300  25.256  1.00  0.00     0.008 C 
ATOM     22  C   UNL A   1      30.163  26.191  25.775  1.00  0.00     0.001 C 
ATOM     23  C   UNL A   1      30.559  24.894  23.662  1.00  0.00     0.025 C 
ATOM     24  C   UNL A   1      30.495  24.827  25.184  1.00  0.00     0.002 C 
ENDBRANCH  12  17
ENDBRANCH   6  11
ENDBRANCH   3   5
ENDBRANCH   2   3
ENDBRANCH   1   2
BRANCH   1  25
ATOM     25  C   UNL A   1      37.395  21.515  24.351  1.00  0.00     0.275 C 
BRANCH  25  26
ATOM     26  O   UNL A   1      37.695  21.592  25.763  1.00  0.00    -0.458 OA
BRANCH  26  27
ATOM     27  C   UNL A   1      39.001  21.439  26.091  1.00  0.00     0.338 C 
ATOM     28  O   UNL A   1      39.718  20.489  25.837  1.00  0.00    -0.246 OA
BRANCH  27  29
ATOM     29  C   UNL A   1      39.525  22.635  26.785  1.00  0.00     0.060 A 
ATOM     30  C   UNL A   1      39.039  23.891  26.418  1.00  0.00     0.016 A 
ATOM     31  C   UNL A   1      40.641  22.546  27.616  1.00  0.00     0.016 A 
ATOM     32  C   UNL A   1      39.658  25.056  26.836  1.00  0.00     0.010 A 
ATOM     33  C   UNL A   1      41.264  23.723  28.058  1.00  0.00     0.010 A 
ATOM     34  C   UNL A   1      40.790  24.981  27.643  1.00  0.00    -0.014 A 
BRANCH  34  35
ATOM     35  C   UNL A   1      41.544  26.225  27.908  1.00  0.00     0.031 A 
ATOM     36  C   UNL A   1      40.904  27.294  28.744  1.00  0.00     0.074 A 
ATOM     37  C   UNL A   1      42.822  26.348  27.504  1.00  0.00     0.049 A 
ATOM     38  N   UNL A   1      41.303  28.517  28.977  1.00  0.00    -0.248 NA
ATOM     39  C   UNL A   1      39.647  26.930  29.420  1.00  0.00     0.031 C 
ATOM     40  C   UNL A   1      43.594  25.311  26.817  1.00  0.00     0.029 A 
ATOM     41  N   UNL A   1      43.696  27.397  27.619  1.00  0.00    -0.354 N 
ATOM     42  C   UNL A   1      40.325  29.082  29.785  1.00  0.00     0.074 A 
ATOM     43  C   UNL A   1      39.319  28.068  30.013  1.00  0.00     0.031 C 
ATOM     44  C   UNL A   1      44.827  25.778  26.568  1.00  0.00     0.029 A 
ATOM     45  C   UNL A   1      44.903  27.170  27.003  1.00  0.00     0.049 A 
ATOM     46  H   UNL A   1      43.481  28.230  28.097  1.00  0.00     0.167 HD
ATOM     47  C   UNL A   1      40.274  30.342  30.276  1.00  0.00     0.037 A 
ATOM     48  C   UNL A   1      45.925  28.014  26.769  1.00  0.00     0.037 A 
ATOM     49  C   UNL A   1      41.301  31.326  30.054  1.00  0.00     0.049 A 
ATOM     50  C   UNL A   1      45.799  29.440  27.234  1.00  0.00     0.074 A 
ATOM     51  C   UNL A   1      41.339  32.647  30.459  1.00  0.00     0.029 A 
ATOM     52  N   UNL A   1      42.484  31.081  29.369  1.00  0.00    -0.354 N 
ATOM     53  N   UNL A   1      44.833  30.009  27.913  1.00  0.00    -0.248 NA
ATOM     54  C   UNL A   1      46.899  30.349  26.882  1.00  0.00     0.031 C 
ATOM     55  C   UNL A   1      42.526  33.213  29.985  1.00  0.00     0.029 A 
ATOM     56  C   UNL A   1      43.252  32.232  29.328  1.00  0.00     0.049 A 
ATOM     57  H   UNL A   1      42.739  30.218  28.971  1.00  0.00     0.167 HD
ATOM     58  C   UNL A   1      45.212  31.332  28.088  1.00  0.00     0.074 A 
ATOM     59  C   UNL A   1      46.508  31.478  27.458  1.00  0.00     0.031 C 
ATOM     60  C   UNL A   1      44.548  32.339  28.707  1.00  0.00     0.037 A 
BRANCH  47  61
ATOM     61  C   UNL A   1      39.047  30.740  31.039  1.00  0.00     0.064 A 
ATOM     62  C   UNL A   1      38.970  30.639  32.436  1.00  0.00     0.173 A 
ATOM     63  C   UNL A   1      37.930  31.245  30.356  1.00  0.00     0.173 A 
ATOM     64  F   UNL A   1      40.002  30.143  33.134  1.00  0.00    -0.203 F 
ATOM     65  C   UNL A   1      37.813  31.009  33.117  1.00  0.00     0.198 A 
ATOM     66  C   UNL A   1      36.784  31.637  31.042  1.00  0.00     0.198 A 
ATOM     67  F   UNL A   1      37.950  31.359  29.019  1.00  0.00    -0.203 F 
ATOM     68  F   UNL A   1      37.744  30.862  34.448  1.00  0.00    -0.200 F 
ATOM     69  C   UNL A   1      36.723  31.513  32.422  1.00  0.00     0.200 A 
ATOM     70  F   UNL A   1      35.737  32.132  30.368  1.00  0.00    -0.200 F 
ATOM     71  F   UNL A   1      35.613  31.872  33.080  1.00  0.00    -0.200 F 
ENDBRANCH  47  61
BRANCH  48  72
ATOM     72  C   UNL A   1      47.112  27.558  25.997  1.00  0.00     0.064 A 
ATOM     73  C   UNL A   1      48.238  27.028  26.641  1.00  0.00     0.173 A 
ATOM     74  C   UNL A   1      47.155  27.667  24.598  1.00  0.00     0.173 A 
ATOM     75  F   UNL A   1      48.260  26.928  27.979  1.00  0.00    -0.203 F 
ATOM     76  C   UNL A   1      49.366  26.643  25.918  1.00  0.00     0.198 A 
ATOM     77  C   UNL A   1      48.270  27.250  23.874  1.00  0.00     0.198 A 
ATOM     78  F   UNL A   1      46.107  28.172  23.930  1.00  0.00    -0.203 F 
ATOM     79  F   UNL A   1      50.449  26.189  26.563  1.00  0.00    -0.200 F 
ATOM     80  C   UNL A   1      49.379  26.748  24.535  1.00  0.00     0.200 A 
ATOM     81  F   UNL A   1      48.270  27.341  22.537  1.00  0.00    -0.200 F 
ATOM     82  F   UNL A   1      50.463  26.376  23.842  1.00  0.00    -0.200 F 
ENDBRANCH  48  72
BRANCH  60  83
ATOM     83  C   UNL A   1      45.236  33.670  28.771  1.00  0.00     0.064 A 
ATOM     84  C   UNL A   1      45.033  34.651  27.791  1.00  0.00     0.173 A 
ATOM     85  C   UNL A   1      46.076  33.979  29.851  1.00  0.00     0.173 A 
ATOM     86  F   UNL A   1      44.251  34.395  26.730  1.00  0.00    -0.203 F 
ATOM     87  C   UNL A   1      45.665  35.888  27.878  1.00  0.00     0.198 A 
ATOM     88  C   UNL A   1      46.683  35.227  29.950  1.00  0.00     0.198 A 
ATOM     89  F   UNL A   1      46.296  33.074  30.817  1.00  0.00    -0.203 F 
ATOM     90  F   UNL A   1      45.494  36.796  26.907  1.00  0.00    -0.200 F 
ATOM     91  C   UNL A   1      46.483  36.177  28.960  1.00  0.00     0.200 A 
ATOM     92  F   UNL A   1      47.463  35.509  31.003  1.00  0.00    -0.200 F 
ATOM     93  F   UNL A   1      47.084  37.371  29.047  1.00  0.00    -0.200 F 
ENDBRANCH  60  83
ENDBRANCH  34  35
ENDBRANCH  27  29
ENDBRANCH  26  27
ENDBRANCH  25  26
ENDBRANCH   1  25
TORSDOF 13
ENDMDL
