MODEL 1
REMARK VINA RESULT:     -12.1      0.000      0.000
REMARK SMILES C[C@H](Cc1cccc2c1OC(C)(C)C2)C(=O)OCCOC(=O)c1ccc(-c2c3nc(c(-c4c(F)c(F)c(F)c(F)c4F)c4ccc([nH]4)c(-c4c(F)c(F)c(F)c(F)c4F)c4nc(c(-c5c(F)c(F)c(F)c(F)c5F)c5ccc2[nH]5)C=C4)C=C3)cc1
REMARK SMILES IDX 18 1 17 2 15 3 16 4 2 5 1 6 3 7 4 8 5 9 9 10 6 11 8 12 10 13
REMARK SMILES IDX 7 14 14 15 11 16 12 17 13 18 19 19 20 20 21 21 22 22 23 23
REMARK SMILES IDX 24 24 85 25 25 26 84 27 26 28 27 29 28 30 78 31 29 32 83 33
REMARK SMILES IDX 77 34 79 35 30 36 82 37 76 38 75 39 31 41 63 42 43 43 62 44
REMARK SMILES IDX 44 45 47 46 61 47 80 48 45 49 46 50 60 52 81 53 48 54 32 55
REMARK SMILES IDX 33 56 41 57 34 58 35 59 39 60 42 61 36 62 37 63 40 64 38 65
REMARK SMILES IDX 64 66 65 67 73 68 66 69 67 70 71 71 74 72 68 73 69 74 72 75
REMARK SMILES IDX 70 76 49 77 50 78 58 79 51 80 52 81 56 82 59 83 53 84 54 85
REMARK SMILES IDX 57 86 55 87
REMARK H PARENT 79 40 47 51
REMARK Flexibility Score: inf
ROOT
ATOM      1  C   UNL A   1      31.415  29.000  24.893  1.00  0.00     0.274 C 
ENDROOT
BRANCH   1   2
ATOM      2  O   UNL A   1      31.733  29.201  23.503  1.00  0.00    -0.462 OA
BRANCH   2   3
ATOM      3  C   UNL A   1      31.658  28.094  22.724  1.00  0.00     0.309 C 
ATOM      4  O   UNL A   1      30.665  27.779  22.074  1.00  0.00    -0.252 OA
BRANCH   3   5
ATOM      5  C   UNL A   1      32.939  27.276  22.687  1.00  0.00     0.100 C 
ATOM      6  C   UNL A   1      34.087  28.254  22.429  1.00  0.00     0.020 C 
BRANCH   5   7
ATOM      7  C   UNL A   1      32.881  26.046  21.766  1.00  0.00     0.054 C 
BRANCH   7   8
ATOM      8  C   UNL A   1      32.472  24.803  22.510  1.00  0.00    -0.005 A 
ATOM      9  C   UNL A   1      31.135  24.485  22.782  1.00  0.00     0.007 A 
ATOM     10  C   UNL A   1      33.441  23.989  23.075  1.00  0.00     0.126 A 
ATOM     11  C   UNL A   1      30.813  23.389  23.604  1.00  0.00     0.001 A 
ATOM     12  C   UNL A   1      33.136  22.928  23.907  1.00  0.00    -0.002 A 
ATOM     13  O   UNL A   1      34.785  24.207  22.921  1.00  0.00    -0.487 OA
ATOM     14  C   UNL A   1      31.820  22.604  24.178  1.00  0.00     0.008 A 
ATOM     15  C   UNL A   1      34.394  22.300  24.382  1.00  0.00     0.087 C 
ATOM     16  C   UNL A   1      35.420  23.359  23.912  1.00  0.00     0.108 C 
ATOM     17  C   UNL A   1      35.889  24.260  25.062  1.00  0.00     0.057 C 
ATOM     18  C   UNL A   1      36.627  22.724  23.226  1.00  0.00     0.057 C 
ENDBRANCH   7   8
ENDBRANCH   5   7
ENDBRANCH   3   5
ENDBRANCH   2   3
ENDBRANCH   1   2
BRANCH   1  19
ATOM     19  C   UNL A   1      31.738  30.237  25.735  1.00  0.00     0.275 C 
BRANCH  19  20
ATOM     20  O   UNL A   1      33.091  30.218  26.231  1.00  0.00    -0.458 OA
BRANCH  20  21
ATOM     21  C   UNL A   1      33.433  31.275  27.005  1.00  0.00     0.338 C 
ATOM     22  O   UNL A   1      32.767  32.266  27.250  1.00  0.00    -0.246 OA
BRANCH  21  23
ATOM     23  C   UNL A   1      34.731  31.028  27.649  1.00  0.00     0.060 A 
ATOM     24  C   UNL A   1      34.982  29.748  28.137  1.00  0.00     0.016 A 
ATOM     25  C   UNL A   1      35.638  32.057  27.890  1.00  0.00     0.016 A 
ATOM     26  C   UNL A   1      36.107  29.483  28.900  1.00  0.00     0.010 A 
ATOM     27  C   UNL A   1      36.808  31.779  28.609  1.00  0.00     0.010 A 
ATOM     28  C   UNL A   1      37.046  30.490  29.123  1.00  0.00    -0.014 A 
BRANCH  28  29
ATOM     29  C   UNL A   1      38.274  30.172  29.888  1.00  0.00     0.031 A 
ATOM     30  C   UNL A   1      39.318  29.272  29.301  1.00  0.00     0.074 A 
ATOM     31  C   UNL A   1      38.458  30.727  31.103  1.00  0.00     0.049 A 
ATOM     32  N   UNL A   1      40.376  28.754  29.869  1.00  0.00    -0.248 NA
ATOM     33  C   UNL A   1      39.154  28.904  27.885  1.00  0.00     0.031 C 
ATOM     34  C   UNL A   1      37.544  31.674  31.746  1.00  0.00     0.029 A 
ATOM     35  N   UNL A   1      39.472  30.574  32.013  1.00  0.00    -0.354 N 
ATOM     36  C   UNL A   1      40.977  27.965  28.899  1.00  0.00     0.074 A 
ATOM     37  C   UNL A   1      40.174  28.078  27.701  1.00  0.00     0.031 C 
ATOM     38  C   UNL A   1      38.043  32.024  32.941  1.00  0.00     0.029 A 
ATOM     39  C   UNL A   1      39.266  31.266  33.180  1.00  0.00     0.049 A 
ATOM     40  H   UNL A   1      40.271  30.023  31.845  1.00  0.00     0.167 HD
ATOM     41  C   UNL A   1      42.095  27.211  29.013  1.00  0.00     0.037 A 
ATOM     42  C   UNL A   1      39.953  31.248  34.337  1.00  0.00     0.037 A 
ATOM     43  C   UNL A   1      42.908  27.142  30.198  1.00  0.00     0.049 A 
ATOM     44  C   UNL A   1      41.155  30.354  34.453  1.00  0.00     0.074 A 
ATOM     45  C   UNL A   1      44.077  26.430  30.405  1.00  0.00     0.029 A 
ATOM     46  N   UNL A   1      42.638  27.817  31.379  1.00  0.00    -0.354 N 
ATOM     47  N   UNL A   1      41.695  29.576  33.547  1.00  0.00    -0.248 NA
ATOM     48  C   UNL A   1      41.826  30.314  35.759  1.00  0.00     0.031 C 
ATOM     49  C   UNL A   1      44.494  26.645  31.723  1.00  0.00     0.029 A 
ATOM     50  C   UNL A   1      43.604  27.518  32.327  1.00  0.00     0.049 A 
ATOM     51  H   UNL A   1      41.873  28.420  31.523  1.00  0.00     0.167 HD
ATOM     52  C   UNL A   1      42.766  28.955  34.170  1.00  0.00     0.074 A 
ATOM     53  C   UNL A   1      42.818  29.466  35.524  1.00  0.00     0.031 C 
ATOM     54  C   UNL A   1      43.625  28.034  33.670  1.00  0.00     0.037 A 
BRANCH  41  55
ATOM     55  C   UNL A   1      42.490  26.366  27.841  1.00  0.00     0.064 A 
ATOM     56  C   UNL A   1      41.923  25.105  27.611  1.00  0.00     0.173 A 
ATOM     57  C   UNL A   1      43.408  26.859  26.900  1.00  0.00     0.173 A 
ATOM     58  F   UNL A   1      41.051  24.587  28.488  1.00  0.00    -0.203 F 
ATOM     59  C   UNL A   1      42.268  24.363  26.483  1.00  0.00     0.198 A 
ATOM     60  C   UNL A   1      43.735  26.122  25.765  1.00  0.00     0.198 A 
ATOM     61  F   UNL A   1      43.977  28.060  27.076  1.00  0.00    -0.203 F 
ATOM     62  F   UNL A   1      41.732  23.149  26.292  1.00  0.00    -0.200 F 
ATOM     63  C   UNL A   1      43.167  24.875  25.558  1.00  0.00     0.200 A 
ATOM     64  F   UNL A   1      44.598  26.622  24.869  1.00  0.00    -0.200 F 
ATOM     65  F   UNL A   1      43.487  24.164  24.468  1.00  0.00    -0.200 F 
ENDBRANCH  41  55
BRANCH  42  66
ATOM     66  C   UNL A   1      39.477  32.045  35.496  1.00  0.00     0.064 A 
ATOM     67  C   UNL A   1      38.557  31.518  36.411  1.00  0.00     0.173 A 
ATOM     68  C   UNL A   1      39.930  33.358  35.708  1.00  0.00     0.173 A 
ATOM     69  F   UNL A   1      38.074  30.279  36.235  1.00  0.00    -0.203 F 
ATOM     70  C   UNL A   1      38.099  32.276  37.486  1.00  0.00     0.198 A 
ATOM     71  C   UNL A   1      39.493  34.103  36.799  1.00  0.00     0.198 A 
ATOM     72  F   UNL A   1      40.807  33.911  34.857  1.00  0.00    -0.203 F 
ATOM     73  F   UNL A   1      37.185  31.763  38.322  1.00  0.00    -0.200 F 
ATOM     74  C   UNL A   1      38.572  33.564  37.684  1.00  0.00     0.200 A 
ATOM     75  F   UNL A   1      39.962  35.343  36.991  1.00  0.00    -0.200 F 
ATOM     76  F   UNL A   1      38.134  34.291  38.721  1.00  0.00    -0.200 F 
ENDBRANCH  42  66
BRANCH  54  77
ATOM     77  C   UNL A   1      44.687  27.527  34.596  1.00  0.00     0.064 A 
ATOM     78  C   UNL A   1      44.489  26.373  35.367  1.00  0.00     0.173 A 
ATOM     79  C   UNL A   1      45.923  28.183  34.693  1.00  0.00     0.173 A 
ATOM     80  F   UNL A   1      43.315  25.724  35.320  1.00  0.00    -0.203 F 
ATOM     81  C   UNL A   1      45.485  25.903  36.218  1.00  0.00     0.198 A 
ATOM     82  C   UNL A   1      46.925  27.698  35.526  1.00  0.00     0.198 A 
ATOM     83  F   UNL A   1      46.159  29.290  33.972  1.00  0.00    -0.203 F 
ATOM     84  F   UNL A   1      45.260  24.821  36.976  1.00  0.00    -0.200 F 
ATOM     85  C   UNL A   1      46.703  26.562  36.292  1.00  0.00     0.200 A 
ATOM     86  F   UNL A   1      48.104  28.330  35.592  1.00  0.00    -0.200 F 
ATOM     87  F   UNL A   1      47.663  26.106  37.110  1.00  0.00    -0.200 F 
ENDBRANCH  54  77
ENDBRANCH  28  29
ENDBRANCH  21  23
ENDBRANCH  20  21
ENDBRANCH  19  20
ENDBRANCH   1  19
TORSDOF 13
ENDMDL
MODEL 2
REMARK VINA RESULT:     -12.0      0.918      1.961
REMARK SMILES C[C@H](Cc1cccc2c1OC(C)(C)C2)C(=O)OCCOC(=O)c1ccc(-c2c3nc(c(-c4c(F)c(F)c(F)c(F)c4F)c4ccc([nH]4)c(-c4c(F)c(F)c(F)c(F)c4F)c4nc(c(-c5c(F)c(F)c(F)c(F)c5F)c5ccc2[nH]5)C=C4)C=C3)cc1
REMARK SMILES IDX 18 1 17 2 15 3 16 4 2 5 1 6 3 7 4 8 5 9 9 10 6 11 8 12 10 13
REMARK SMILES IDX 7 14 14 15 11 16 12 17 13 18 19 19 20 20 21 21 22 22 23 23
REMARK SMILES IDX 24 24 85 25 25 26 84 27 26 28 27 29 28 30 78 31 29 32 83 33
REMARK SMILES IDX 77 34 79 35 30 36 82 37 76 38 75 39 31 41 63 42 43 43 62 44
REMARK SMILES IDX 44 45 47 46 61 47 80 48 45 49 46 50 60 52 81 53 48 54 32 55
REMARK SMILES IDX 33 56 41 57 34 58 35 59 39 60 42 61 36 62 37 63 40 64 38 65
REMARK SMILES IDX 64 66 65 67 73 68 66 69 67 70 71 71 74 72 68 73 69 74 72 75
REMARK SMILES IDX 70 76 49 77 50 78 58 79 51 80 52 81 56 82 59 83 53 84 54 85
REMARK SMILES IDX 57 86 55 87
REMARK H PARENT 79 40 47 51
REMARK Flexibility Score: inf
ROOT
ATOM      1  C   UNL A   1      31.052  29.730  24.817  1.00  0.00     0.274 C 
ENDROOT
BRANCH   1   2
ATOM      2  O   UNL A   1      31.720  29.003  23.769  1.00  0.00    -0.462 OA
BRANCH   2   3
ATOM      3  C   UNL A   1      31.693  27.654  23.889  1.00  0.00     0.309 C 
ATOM      4  O   UNL A   1      30.663  26.998  24.026  1.00  0.00    -0.252 OA
BRANCH   3   5
ATOM      5  C   UNL A   1      33.061  26.996  23.801  1.00  0.00     0.100 C 
ATOM      6  C   UNL A   1      32.925  25.808  22.847  1.00  0.00     0.020 C 
BRANCH   5   7
ATOM      7  C   UNL A   1      33.711  26.697  25.161  1.00  0.00     0.054 C 
BRANCH   7   8
ATOM      8  C   UNL A   1      33.379  25.314  25.653  1.00  0.00    -0.005 A 
ATOM      9  C   UNL A   1      32.241  25.034  26.422  1.00  0.00     0.007 A 
ATOM     10  C   UNL A   1      34.284  24.281  25.467  1.00  0.00     0.126 A 
ATOM     11  C   UNL A   1      32.051  23.755  26.979  1.00  0.00     0.001 A 
ATOM     12  C   UNL A   1      34.121  23.030  26.034  1.00  0.00    -0.002 A 
ATOM     13  O   UNL A   1      35.454  24.428  24.770  1.00  0.00    -0.487 OA
ATOM     14  C   UNL A   1      33.000  22.743  26.790  1.00  0.00     0.008 A 
ATOM     15  C   UNL A   1      35.284  22.179  25.685  1.00  0.00     0.087 C 
ATOM     16  C   UNL A   1      36.233  23.247  25.089  1.00  0.00     0.108 C 
ATOM     17  C   UNL A   1      37.327  23.667  26.080  1.00  0.00     0.057 C 
ATOM     18  C   UNL A   1      36.870  22.783  23.781  1.00  0.00     0.057 C 
ENDBRANCH   7   8
ENDBRANCH   5   7
ENDBRANCH   3   5
ENDBRANCH   2   3
ENDBRANCH   1   2
BRANCH   1  19
ATOM     19  C   UNL A   1      31.810  29.643  26.144  1.00  0.00     0.275 C 
BRANCH  19  20
ATOM     20  O   UNL A   1      33.134  30.206  26.051  1.00  0.00    -0.458 OA
BRANCH  20  21
ATOM     21  C   UNL A   1      33.393  31.208  26.923  1.00  0.00     0.338 C 
ATOM     22  O   UNL A   1      32.663  32.134  27.232  1.00  0.00    -0.246 OA
BRANCH  21  23
ATOM     23  C   UNL A   1      34.686  30.979  27.582  1.00  0.00     0.060 A 
ATOM     24  C   UNL A   1      34.955  29.700  28.062  1.00  0.00     0.016 A 
ATOM     25  C   UNL A   1      35.571  32.023  27.844  1.00  0.00     0.016 A 
ATOM     26  C   UNL A   1      36.075  29.449  28.838  1.00  0.00     0.010 A 
ATOM     27  C   UNL A   1      36.736  31.760  28.576  1.00  0.00     0.010 A 
ATOM     28  C   UNL A   1      36.992  30.472  29.082  1.00  0.00    -0.014 A 
BRANCH  28  29
ATOM     29  C   UNL A   1      38.216  30.170  29.860  1.00  0.00     0.031 A 
ATOM     30  C   UNL A   1      39.275  29.279  29.287  1.00  0.00     0.074 A 
ATOM     31  C   UNL A   1      38.382  30.732  31.074  1.00  0.00     0.049 A 
ATOM     32  N   UNL A   1      40.333  28.775  29.868  1.00  0.00    -0.248 NA
ATOM     33  C   UNL A   1      39.129  28.904  27.871  1.00  0.00     0.031 C 
ATOM     34  C   UNL A   1      37.452  31.671  31.705  1.00  0.00     0.029 A 
ATOM     35  N   UNL A   1      39.388  30.593  31.995  1.00  0.00    -0.354 N 
ATOM     36  C   UNL A   1      40.952  27.988  28.907  1.00  0.00     0.074 A 
ATOM     37  C   UNL A   1      40.160  28.088  27.700  1.00  0.00     0.031 C 
ATOM     38  C   UNL A   1      37.935  32.031  32.903  1.00  0.00     0.029 A 
ATOM     39  C   UNL A   1      39.164  31.288  33.158  1.00  0.00     0.049 A 
ATOM     40  H   UNL A   1      40.194  30.050  31.837  1.00  0.00     0.167 HD
ATOM     41  C   UNL A   1      42.077  27.247  29.035  1.00  0.00     0.037 A 
ATOM     42  C   UNL A   1      39.839  31.282  34.321  1.00  0.00     0.037 A 
ATOM     43  C   UNL A   1      42.879  27.191  30.228  1.00  0.00     0.049 A 
ATOM     44  C   UNL A   1      41.049  30.401  34.453  1.00  0.00     0.074 A 
ATOM     45  C   UNL A   1      44.053  26.493  30.449  1.00  0.00     0.029 A 
ATOM     46  N   UNL A   1      42.590  27.868  31.404  1.00  0.00    -0.354 N 
ATOM     47  N   UNL A   1      41.606  29.625  33.555  1.00  0.00    -0.248 NA
ATOM     48  C   UNL A   1      41.708  30.373  35.765  1.00  0.00     0.031 C 
ATOM     49  C   UNL A   1      44.455  26.717  31.770  1.00  0.00     0.029 A 
ATOM     50  C   UNL A   1      43.549  27.584  32.362  1.00  0.00     0.049 A 
ATOM     51  H   UNL A   1      41.817  28.464  31.537  1.00  0.00     0.167 HD
ATOM     52  C   UNL A   1      42.678  29.018  34.191  1.00  0.00     0.074 A 
ATOM     53  C   UNL A   1      42.711  29.536  35.544  1.00  0.00     0.031 C 
ATOM     54  C   UNL A   1      43.552  28.104  33.703  1.00  0.00     0.037 A 
BRANCH  41  55
ATOM     55  C   UNL A   1      42.492  26.402  27.870  1.00  0.00     0.064 A 
ATOM     56  C   UNL A   1      41.954  25.127  27.649  1.00  0.00     0.173 A 
ATOM     57  C   UNL A   1      43.401  26.907  26.927  1.00  0.00     0.173 A 
ATOM     58  F   UNL A   1      41.092  24.596  28.529  1.00  0.00    -0.203 F 
ATOM     59  C   UNL A   1      42.317  24.384  26.528  1.00  0.00     0.198 A 
ATOM     60  C   UNL A   1      43.746  26.169  25.798  1.00  0.00     0.198 A 
ATOM     61  F   UNL A   1      43.943  28.122  27.094  1.00  0.00    -0.203 F 
ATOM     62  F   UNL A   1      41.808  23.157  26.346  1.00  0.00    -0.200 F 
ATOM     63  C   UNL A   1      43.206  24.908  25.601  1.00  0.00     0.200 A 
ATOM     64  F   UNL A   1      44.600  26.681  24.900  1.00  0.00    -0.200 F 
ATOM     65  F   UNL A   1      43.544  24.196  24.516  1.00  0.00    -0.200 F 
ENDBRANCH  41  55
BRANCH  42  66
ATOM     66  C   UNL A   1      39.343  32.078  35.472  1.00  0.00     0.064 A 
ATOM     67  C   UNL A   1      39.716  33.417  35.643  1.00  0.00     0.173 A 
ATOM     68  C   UNL A   1      38.487  31.511  36.430  1.00  0.00     0.173 A 
ATOM     69  F   UNL A   1      40.553  33.995  34.769  1.00  0.00    -0.203 F 
ATOM     70  C   UNL A   1      39.261  34.155  36.734  1.00  0.00     0.198 A 
ATOM     71  C   UNL A   1      38.011  32.258  37.504  1.00  0.00     0.198 A 
ATOM     72  F   UNL A   1      38.105  30.230  36.315  1.00  0.00    -0.203 F 
ATOM     73  F   UNL A   1      39.668  35.422  36.897  1.00  0.00    -0.200 F 
ATOM     74  C   UNL A   1      38.405  33.578  37.659  1.00  0.00     0.200 A 
ATOM     75  F   UNL A   1      37.175  31.698  38.388  1.00  0.00    -0.200 F 
ATOM     76  F   UNL A   1      37.966  34.290  38.706  1.00  0.00    -0.200 F 
ENDBRANCH  42  66
BRANCH  54  77
ATOM     77  C   UNL A   1      44.610  27.613  34.642  1.00  0.00     0.064 A 
ATOM     78  C   UNL A   1      45.828  28.293  34.783  1.00  0.00     0.173 A 
ATOM     79  C   UNL A   1      44.395  26.471  35.427  1.00  0.00     0.173 A 
ATOM     80  F   UNL A   1      46.085  29.380  34.038  1.00  0.00    -0.203 F 
ATOM     81  C   UNL A   1      46.803  27.835  35.664  1.00  0.00     0.198 A 
ATOM     82  C   UNL A   1      45.362  26.029  36.324  1.00  0.00     0.198 A 
ATOM     83  F   UNL A   1      43.244  25.790  35.327  1.00  0.00    -0.203 F 
ATOM     84  F   UNL A   1      47.977  28.476  35.754  1.00  0.00    -0.200 F 
ATOM     85  C   UNL A   1      46.567  26.708  36.438  1.00  0.00     0.200 A 
ATOM     86  F   UNL A   1      45.131  24.946  37.076  1.00  0.00    -0.200 F 
ATOM     87  F   UNL A   1      47.505  26.271  37.289  1.00  0.00    -0.200 F 
ENDBRANCH  54  77
ENDBRANCH  28  29
ENDBRANCH  21  23
ENDBRANCH  20  21
ENDBRANCH  19  20
ENDBRANCH   1  19
TORSDOF 13
ENDMDL
MODEL 3
REMARK VINA RESULT:     -11.9      1.376      2.628
REMARK SMILES C[C@H](Cc1cccc2c1OC(C)(C)C2)C(=O)OCCOC(=O)c1ccc(-c2c3nc(c(-c4c(F)c(F)c(F)c(F)c4F)c4ccc([nH]4)c(-c4c(F)c(F)c(F)c(F)c4F)c4nc(c(-c5c(F)c(F)c(F)c(F)c5F)c5ccc2[nH]5)C=C4)C=C3)cc1
REMARK SMILES IDX 18 1 17 2 15 3 16 4 2 5 1 6 3 7 4 8 5 9 9 10 6 11 8 12 10 13
REMARK SMILES IDX 7 14 14 15 11 16 12 17 13 18 19 19 20 20 21 21 22 22 23 23
REMARK SMILES IDX 24 24 85 25 25 26 84 27 26 28 27 29 28 30 78 31 29 32 83 33
REMARK SMILES IDX 77 34 79 35 30 36 82 37 76 38 75 39 31 41 63 42 43 43 62 44
REMARK SMILES IDX 44 45 47 46 61 47 80 48 45 49 46 50 60 52 81 53 48 54 32 55
REMARK SMILES IDX 33 56 41 57 34 58 35 59 39 60 42 61 36 62 37 63 40 64 38 65
REMARK SMILES IDX 64 66 65 67 73 68 66 69 67 70 71 71 74 72 68 73 69 74 72 75
REMARK SMILES IDX 70 76 49 77 50 78 58 79 51 80 52 81 56 82 59 83 53 84 54 85
REMARK SMILES IDX 57 86 55 87
REMARK H PARENT 79 40 47 51
REMARK Flexibility Score: inf
ROOT
ATOM      1  C   UNL A   1      31.792  28.221  27.070  1.00  0.00     0.274 C 
ENDROOT
BRANCH   1   2
ATOM      2  O   UNL A   1      32.311  27.133  26.282  1.00  0.00    -0.462 OA
BRANCH   2   3
ATOM      3  C   UNL A   1      31.500  26.052  26.178  1.00  0.00     0.309 C 
ATOM      4  O   UNL A   1      30.314  26.051  26.498  1.00  0.00    -0.252 OA
BRANCH   3   5
ATOM      5  C   UNL A   1      32.176  24.825  25.586  1.00  0.00     0.100 C 
ATOM      6  C   UNL A   1      31.143  24.134  24.692  1.00  0.00     0.020 C 
BRANCH   5   7
ATOM      7  C   UNL A   1      32.882  23.930  26.616  1.00  0.00     0.054 C 
BRANCH   7   8
ATOM      8  C   UNL A   1      34.137  23.311  26.059  1.00  0.00    -0.005 A 
ATOM      9  C   UNL A   1      35.302  24.049  25.810  1.00  0.00     0.007 A 
ATOM     10  C   UNL A   1      34.127  21.989  25.644  1.00  0.00     0.126 A 
ATOM     11  C   UNL A   1      36.398  23.457  25.155  1.00  0.00     0.001 A 
ATOM     12  C   UNL A   1      35.187  21.406  24.974  1.00  0.00    -0.002 A 
ATOM     13  O   UNL A   1      33.042  21.166  25.791  1.00  0.00    -0.487 OA
ATOM     14  C   UNL A   1      36.342  22.125  24.727  1.00  0.00     0.008 A 
ATOM     15  C   UNL A   1      34.837  20.007  24.626  1.00  0.00     0.087 C 
ATOM     16  C   UNL A   1      33.324  20.017  24.953  1.00  0.00     0.108 C 
ATOM     17  C   UNL A   1      32.461  20.139  23.690  1.00  0.00     0.057 C 
ATOM     18  C   UNL A   1      32.902  18.786  25.752  1.00  0.00     0.057 C 
ENDBRANCH   7   8
ENDBRANCH   5   7
ENDBRANCH   3   5
ENDBRANCH   2   3
ENDBRANCH   1   2
BRANCH   1  19
ATOM     19  C   UNL A   1      31.792  29.539  26.290  1.00  0.00     0.275 C 
BRANCH  19  20
ATOM     20  O   UNL A   1      33.117  30.089  26.154  1.00  0.00    -0.458 OA
BRANCH  20  21
ATOM     21  C   UNL A   1      33.396  31.122  26.983  1.00  0.00     0.338 C 
ATOM     22  O   UNL A   1      32.687  32.077  27.250  1.00  0.00    -0.246 OA
BRANCH  21  23
ATOM     23  C   UNL A   1      34.683  30.894  27.655  1.00  0.00     0.060 A 
ATOM     24  C   UNL A   1      34.975  29.601  28.081  1.00  0.00     0.016 A 
ATOM     25  C   UNL A   1      35.538  31.945  27.979  1.00  0.00     0.016 A 
ATOM     26  C   UNL A   1      36.087  29.341  28.865  1.00  0.00     0.010 A 
ATOM     27  C   UNL A   1      36.696  31.677  28.719  1.00  0.00     0.010 A 
ATOM     28  C   UNL A   1      36.974  30.373  29.172  1.00  0.00    -0.014 A 
BRANCH  28  29
ATOM     29  C   UNL A   1      38.192  30.065  29.958  1.00  0.00     0.031 A 
ATOM     30  C   UNL A   1      39.257  29.180  29.385  1.00  0.00     0.074 A 
ATOM     31  C   UNL A   1      38.346  30.614  31.179  1.00  0.00     0.049 A 
ATOM     32  N   UNL A   1      40.310  28.671  29.970  1.00  0.00    -0.248 NA
ATOM     33  C   UNL A   1      39.123  28.818  27.965  1.00  0.00     0.031 C 
ATOM     34  C   UNL A   1      37.410  31.547  31.810  1.00  0.00     0.029 A 
ATOM     35  N   UNL A   1      39.345  30.468  32.106  1.00  0.00    -0.354 N 
ATOM     36  C   UNL A   1      40.938  27.894  29.008  1.00  0.00     0.074 A 
ATOM     37  C   UNL A   1      40.157  28.005  27.795  1.00  0.00     0.031 C 
ATOM     38  C   UNL A   1      37.882  31.896  33.016  1.00  0.00     0.029 A 
ATOM     39  C   UNL A   1      39.109  31.151  33.274  1.00  0.00     0.049 A 
ATOM     40  H   UNL A   1      40.153  29.927  31.951  1.00  0.00     0.167 HD
ATOM     41  C   UNL A   1      42.063  27.152  29.138  1.00  0.00     0.037 A 
ATOM     42  C   UNL A   1      39.775  31.134  34.443  1.00  0.00     0.037 A 
ATOM     43  C   UNL A   1      42.854  27.086  30.338  1.00  0.00     0.049 A 
ATOM     44  C   UNL A   1      40.984  30.253  34.577  1.00  0.00     0.074 A 
ATOM     45  C   UNL A   1      44.027  26.386  30.562  1.00  0.00     0.029 A 
ATOM     46  N   UNL A   1      42.554  27.751  31.517  1.00  0.00    -0.354 N 
ATOM     47  N   UNL A   1      41.550  29.487  33.677  1.00  0.00    -0.248 NA
ATOM     48  C   UNL A   1      41.631  30.213  35.895  1.00  0.00     0.031 C 
ATOM     49  C   UNL A   1      44.417  26.598  31.889  1.00  0.00     0.029 A 
ATOM     50  C   UNL A   1      43.505  27.458  32.481  1.00  0.00     0.049 A 
ATOM     51  H   UNL A   1      41.779  28.345  31.650  1.00  0.00     0.167 HD
ATOM     52  C   UNL A   1      42.617  28.874  34.316  1.00  0.00     0.074 A 
ATOM     53  C   UNL A   1      42.637  29.379  35.674  1.00  0.00     0.031 C 
ATOM     54  C   UNL A   1      43.496  27.966  33.828  1.00  0.00     0.037 A 
BRANCH  41  55
ATOM     55  C   UNL A   1      42.489  26.319  27.969  1.00  0.00     0.064 A 
ATOM     56  C   UNL A   1      41.967  25.038  27.741  1.00  0.00     0.173 A 
ATOM     57  C   UNL A   1      43.391  26.841  27.029  1.00  0.00     0.173 A 
ATOM     58  F   UNL A   1      41.112  24.492  28.618  1.00  0.00    -0.203 F 
ATOM     59  C   UNL A   1      42.340  24.306  26.616  1.00  0.00     0.198 A 
ATOM     60  C   UNL A   1      43.746  26.114  25.896  1.00  0.00     0.198 A 
ATOM     61  F   UNL A   1      43.917  28.062  27.202  1.00  0.00    -0.203 F 
ATOM     62  F   UNL A   1      41.847  23.074  26.428  1.00  0.00    -0.200 F 
ATOM     63  C   UNL A   1      43.222  24.847  25.692  1.00  0.00     0.200 A 
ATOM     64  F   UNL A   1      44.592  26.641  25.000  1.00  0.00    -0.200 F 
ATOM     65  F   UNL A   1      43.569  24.145  24.604  1.00  0.00    -0.200 F 
ENDBRANCH  41  55
BRANCH  42  66
ATOM     66  C   UNL A   1      39.267  31.919  35.597  1.00  0.00     0.064 A 
ATOM     67  C   UNL A   1      39.660  33.248  35.800  1.00  0.00     0.173 A 
ATOM     68  C   UNL A   1      38.381  31.351  36.526  1.00  0.00     0.173 A 
ATOM     69  F   UNL A   1      40.527  33.825  34.956  1.00  0.00    -0.203 F 
ATOM     70  C   UNL A   1      39.196  33.975  36.895  1.00  0.00     0.198 A 
ATOM     71  C   UNL A   1      37.894  32.087  37.603  1.00  0.00     0.198 A 
ATOM     72  F   UNL A   1      37.978  30.080  36.380  1.00  0.00    -0.203 F 
ATOM     73  F   UNL A   1      39.621  35.231  37.090  1.00  0.00    -0.200 F 
ATOM     74  C   UNL A   1      38.309  33.397  37.791  1.00  0.00     0.200 A 
ATOM     75  F   UNL A   1      37.029  31.528  38.458  1.00  0.00    -0.200 F 
ATOM     76  F   UNL A   1      37.859  34.098  38.840  1.00  0.00    -0.200 F 
ENDBRANCH  42  66
BRANCH  54  77
ATOM     77  C   UNL A   1      44.546  27.467  34.770  1.00  0.00     0.064 A 
ATOM     78  C   UNL A   1      45.764  28.144  34.926  1.00  0.00     0.173 A 
ATOM     79  C   UNL A   1      44.324  26.319  35.545  1.00  0.00     0.173 A 
ATOM     80  F   UNL A   1      46.027  29.236  34.191  1.00  0.00    -0.203 F 
ATOM     81  C   UNL A   1      46.731  27.679  35.811  1.00  0.00     0.198 A 
ATOM     82  C   UNL A   1      45.283  25.870  36.446  1.00  0.00     0.198 A 
ATOM     83  F   UNL A   1      43.173  25.640  35.431  1.00  0.00    -0.203 F 
ATOM     84  F   UNL A   1      47.904  28.318  35.916  1.00  0.00    -0.200 F 
ATOM     85  C   UNL A   1      46.487  26.547  36.574  1.00  0.00     0.200 A 
ATOM     86  F   UNL A   1      45.045  24.781  37.189  1.00  0.00    -0.200 F 
ATOM     87  F   UNL A   1      47.419  26.101  37.430  1.00  0.00    -0.200 F 
ENDBRANCH  54  77
ENDBRANCH  28  29
ENDBRANCH  21  23
ENDBRANCH  20  21
ENDBRANCH  19  20
ENDBRANCH   1  19
TORSDOF 13
ENDMDL
