MODEL 1
REMARK VINA RESULT:     -11.5      0.000      0.000
REMARK SMILES CCC[C@H]1CC[C@H](C(=O)OCCOC(=O)c2ccc(-c3c4nc(c(-c5c(F)c(F)c(F)c(F)c5F)c5ccc([nH]5)c(-c5c(F)c(F)c(F)c(F)c5F)c5nc(c(-c6c(F)c(F)c(F)c(F)c6F)c6ccc3[nH]6)C=C5)C=C4)cc2)[C@H](Sc2ccncc2)C1
REMARK SMILES IDX 11 1 10 2 8 3 9 4 7 5 4 6 5 7 87 8 6 9 79 10 3 11 2 12 1 13
REMARK SMILES IDX 80 14 81 15 82 16 86 17 83 18 85 19 84 20 12 21 13 22 14 23
REMARK SMILES IDX 15 24 16 25 17 26 78 27 18 28 77 29 19 30 20 31 21 32 71 33
REMARK SMILES IDX 22 34 76 35 70 36 72 37 23 38 75 39 69 40 68 41 24 43 56 44
REMARK SMILES IDX 36 45 55 46 37 47 40 48 54 49 73 50 38 51 39 52 53 54 74 55
REMARK SMILES IDX 41 56 25 57 26 58 34 59 27 60 28 61 32 62 35 63 29 64 30 65
REMARK SMILES IDX 33 66 31 67 57 68 58 69 66 70 59 71 60 72 64 73 67 74 61 75
REMARK SMILES IDX 62 76 65 77 63 78 42 79 43 80 51 81 44 82 45 83 49 84 52 85
REMARK SMILES IDX 46 86 47 87 50 88 48 89
REMARK H PARENT 72 42 40 53
REMARK Flexibility Score: inf
ROOT
ATOM      1  C   UNL A   1      31.721  28.246  26.080  1.00  0.00     0.274 C 
ENDROOT
BRANCH   1   2
ATOM      2  O   UNL A   1      31.320  27.150  26.929  1.00  0.00    -0.462 OA
BRANCH   2   3
ATOM      3  C   UNL A   1      31.700  25.916  26.521  1.00  0.00     0.310 C 
ATOM      4  O   UNL A   1      31.281  24.868  27.000  1.00  0.00    -0.252 OA
BRANCH   3   5
ATOM      5  C   UNL A   1      32.618  25.926  25.319  1.00  0.00     0.112 C 
ATOM      6  C   UNL A   1      34.337  23.520  24.703  1.00  0.00    -0.010 C 
ATOM      7  C   UNL A   1      34.600  24.390  25.928  1.00  0.00     0.004 C 
ATOM      8  C   UNL A   1      32.833  23.564  24.328  1.00  0.00     0.019 C 
ATOM      9  C   UNL A   1      34.077  25.821  25.797  1.00  0.00     0.017 C 
ATOM     10  C   UNL A   1      32.303  24.986  24.149  1.00  0.00     0.066 C 
BRANCH   6  11
ATOM     11  C   UNL A   1      35.314  23.708  23.508  1.00  0.00     0.003 C 
BRANCH  11  12
ATOM     12  C   UNL A   1      36.463  22.726  23.230  1.00  0.00    -0.003 C 
ATOM     13  C   UNL A   1      37.136  22.137  24.468  1.00  0.00     0.004 C 
ENDBRANCH  11  12
ENDBRANCH   6  11
BRANCH  10  14
ATOM     14  S   UNL A   1      30.606  25.049  23.385  1.00  0.00    -0.122 SA
BRANCH  14  15
ATOM     15  C   UNL A   1      30.248  26.773  23.124  1.00  0.00     0.011 A 
ATOM     16  C   UNL A   1      31.180  27.576  22.468  1.00  0.00     0.035 A 
ATOM     17  C   UNL A   1      29.022  27.329  23.472  1.00  0.00     0.035 A 
ATOM     18  C   UNL A   1      30.907  28.924  22.307  1.00  0.00     0.112 A 
ATOM     19  C   UNL A   1      28.817  28.678  23.223  1.00  0.00     0.112 A 
ATOM     20  N   UNL A   1      29.743  29.496  22.676  1.00  0.00    -0.265 NA
ENDBRANCH  14  15
ENDBRANCH  10  14
ENDBRANCH   3   5
ENDBRANCH   2   3
ENDBRANCH   1   2
BRANCH   1  21
ATOM     21  C   UNL A   1      31.907  29.565  26.848  1.00  0.00     0.275 C 
BRANCH  21  22
ATOM     22  O   UNL A   1      33.043  30.313  26.361  1.00  0.00    -0.458 OA
BRANCH  22  23
ATOM     23  C   UNL A   1      33.490  31.299  27.171  1.00  0.00     0.338 C 
ATOM     24  O   UNL A   1      32.849  32.259  27.582  1.00  0.00    -0.246 OA
BRANCH  23  25
ATOM     25  C   UNL A   1      34.848  31.001  27.667  1.00  0.00     0.060 A 
ATOM     26  C   UNL A   1      35.148  29.668  27.976  1.00  0.00     0.016 A 
ATOM     27  C   UNL A   1      35.783  32.005  27.919  1.00  0.00     0.016 A 
ATOM     28  C   UNL A   1      36.373  29.324  28.538  1.00  0.00     0.010 A 
ATOM     29  C   UNL A   1      37.002  31.666  28.523  1.00  0.00     0.010 A 
ATOM     30  C   UNL A   1      37.289  30.329  28.861  1.00  0.00    -0.014 A 
BRANCH  30  31
ATOM     31  C   UNL A   1      38.431  29.992  29.744  1.00  0.00     0.031 A 
ATOM     32  C   UNL A   1      39.483  29.055  29.218  1.00  0.00     0.074 A 
ATOM     33  C   UNL A   1      38.575  30.558  30.954  1.00  0.00     0.049 A 
ATOM     34  N   UNL A   1      40.542  28.567  29.814  1.00  0.00    -0.248 NA
ATOM     35  C   UNL A   1      39.318  28.610  27.826  1.00  0.00     0.031 C 
ATOM     36  C   UNL A   1      37.670  31.543  31.540  1.00  0.00     0.029 A 
ATOM     37  N   UNL A   1      39.547  30.380  31.909  1.00  0.00    -0.354 N 
ATOM     38  C   UNL A   1      41.157  27.749  28.876  1.00  0.00     0.074 A 
ATOM     39  C   UNL A   1      40.344  27.787  27.679  1.00  0.00     0.031 C 
ATOM     40  C   UNL A   1      38.119  31.872  32.764  1.00  0.00     0.029 A 
ATOM     41  C   UNL A   1      39.322  31.094  33.059  1.00  0.00     0.049 A 
ATOM     42  H   UNL A   1      40.329  29.796  31.779  1.00  0.00     0.167 HD
ATOM     43  C   UNL A   1      42.301  27.035  28.998  1.00  0.00     0.037 A 
ATOM     44  C   UNL A   1      39.999  31.095  34.224  1.00  0.00     0.037 A 
ATOM     45  C   UNL A   1      43.106  26.998  30.190  1.00  0.00     0.049 A 
ATOM     46  C   UNL A   1      41.232  30.237  34.363  1.00  0.00     0.074 A 
ATOM     47  C   UNL A   1      44.266  26.282  30.429  1.00  0.00     0.029 A 
ATOM     48  N   UNL A   1      42.833  27.715  31.345  1.00  0.00    -0.354 N 
ATOM     49  N   UNL A   1      41.794  29.442  33.484  1.00  0.00    -0.248 NA
ATOM     50  C   UNL A   1      41.927  30.281  35.658  1.00  0.00     0.031 C 
ATOM     51  C   UNL A   1      44.671  26.533  31.745  1.00  0.00     0.029 A 
ATOM     52  C   UNL A   1      43.797  27.451  32.305  1.00  0.00     0.049 A 
ATOM     53  H   UNL A   1      42.067  28.322  31.466  1.00  0.00     0.167 HD
ATOM     54  C   UNL A   1      42.924  28.923  34.103  1.00  0.00     0.074 A 
ATOM     55  C   UNL A   1      42.974  29.499  35.430  1.00  0.00     0.031 C 
ATOM     56  C   UNL A   1      43.841  28.049  33.616  1.00  0.00     0.037 A 
BRANCH  43  57
ATOM     57  C   UNL A   1      42.717  26.201  27.820  1.00  0.00     0.064 A 
ATOM     58  C   UNL A   1      43.623  26.678  26.860  1.00  0.00     0.173 A 
ATOM     59  C   UNL A   1      42.199  24.910  27.649  1.00  0.00     0.173 A 
ATOM     60  F   UNL A   1      44.133  27.914  26.967  1.00  0.00    -0.203 F 
ATOM     61  C   UNL A   1      43.968  25.904  25.755  1.00  0.00     0.198 A 
ATOM     62  C   UNL A   1      42.570  24.127  26.559  1.00  0.00     0.198 A 
ATOM     63  F   UNL A   1      41.328  24.406  28.537  1.00  0.00    -0.203 F 
ATOM     64  F   UNL A   1      44.789  26.402  24.820  1.00  0.00    -0.200 F 
ATOM     65  C   UNL A   1      43.446  24.627  25.608  1.00  0.00     0.200 A 
ATOM     66  F   UNL A   1      42.072  22.889  26.425  1.00  0.00    -0.200 F 
ATOM     67  F   UNL A   1      43.778  23.884  24.544  1.00  0.00    -0.200 F 
ENDBRANCH  43  57
BRANCH  44  68
ATOM     68  C   UNL A   1      39.517  31.922  35.362  1.00  0.00     0.064 A 
ATOM     69  C   UNL A   1      38.589  31.419  36.287  1.00  0.00     0.173 A 
ATOM     70  C   UNL A   1      39.956  33.243  35.535  1.00  0.00     0.173 A 
ATOM     71  F   UNL A   1      38.116  30.172  36.148  1.00  0.00    -0.203 F 
ATOM     72  C   UNL A   1      38.108  32.211  37.327  1.00  0.00     0.198 A 
ATOM     73  C   UNL A   1      39.497  34.024  36.593  1.00  0.00     0.198 A 
ATOM     74  F   UNL A   1      40.837  33.775  34.675  1.00  0.00    -0.203 F 
ATOM     75  F   UNL A   1      37.185  31.723  38.166  1.00  0.00    -0.200 F 
ATOM     76  C   UNL A   1      38.568  33.511  37.484  1.00  0.00     0.200 A 
ATOM     77  F   UNL A   1      39.952  35.275  36.746  1.00  0.00    -0.200 F 
ATOM     78  F   UNL A   1      38.106  34.270  38.486  1.00  0.00    -0.200 F 
ENDBRANCH  44  68
BRANCH  56  79
ATOM     79  C   UNL A   1      45.010  27.712  34.497  1.00  0.00     0.064 A 
ATOM     80  C   UNL A   1      46.190  28.470  34.488  1.00  0.00     0.173 A 
ATOM     81  C   UNL A   1      44.933  26.630  35.387  1.00  0.00     0.173 A 
ATOM     82  F   UNL A   1      46.320  29.509  33.649  1.00  0.00    -0.203 F 
ATOM     83  C   UNL A   1      47.261  28.136  35.314  1.00  0.00     0.198 A 
ATOM     84  C   UNL A   1      45.993  26.318  36.233  1.00  0.00     0.198 A 
ATOM     85  F   UNL A   1      43.823  25.878  35.443  1.00  0.00    -0.203 F 
ATOM     86  F   UNL A   1      48.399  28.841  35.250  1.00  0.00    -0.200 F 
ATOM     87  C   UNL A   1      47.160  27.065  36.189  1.00  0.00     0.200 A 
ATOM     88  F   UNL A   1      45.886  25.293  37.089  1.00  0.00    -0.200 F 
ATOM     89  F   UNL A   1      48.190  26.747  36.985  1.00  0.00    -0.200 F 
ENDBRANCH  56  79
ENDBRANCH  30  31
ENDBRANCH  23  25
ENDBRANCH  22  23
ENDBRANCH  21  22
ENDBRANCH   1  21
TORSDOF 15
ENDMDL
MODEL 2
REMARK VINA RESULT:     -11.5      0.919      2.078
REMARK SMILES CCC[C@H]1CC[C@H](C(=O)OCCOC(=O)c2ccc(-c3c4nc(c(-c5c(F)c(F)c(F)c(F)c5F)c5ccc([nH]5)c(-c5c(F)c(F)c(F)c(F)c5F)c5nc(c(-c6c(F)c(F)c(F)c(F)c6F)c6ccc3[nH]6)C=C5)C=C4)cc2)[C@H](Sc2ccncc2)C1
REMARK SMILES IDX 11 1 10 2 8 3 9 4 7 5 4 6 5 7 87 8 6 9 79 10 3 11 2 12 1 13
REMARK SMILES IDX 80 14 81 15 82 16 86 17 83 18 85 19 84 20 12 21 13 22 14 23
REMARK SMILES IDX 15 24 16 25 17 26 78 27 18 28 77 29 19 30 20 31 21 32 71 33
REMARK SMILES IDX 22 34 76 35 70 36 72 37 23 38 75 39 69 40 68 41 24 43 56 44
REMARK SMILES IDX 36 45 55 46 37 47 40 48 54 49 73 50 38 51 39 52 53 54 74 55
REMARK SMILES IDX 41 56 25 57 26 58 34 59 27 60 28 61 32 62 35 63 29 64 30 65
REMARK SMILES IDX 33 66 31 67 57 68 58 69 66 70 59 71 60 72 64 73 67 74 61 75
REMARK SMILES IDX 62 76 65 77 63 78 42 79 43 80 51 81 44 82 45 83 49 84 52 85
REMARK SMILES IDX 46 86 47 87 50 88 48 89
REMARK H PARENT 72 42 40 53
REMARK Flexibility Score: inf
ROOT
ATOM      1  C   UNL A   1      32.164  28.318  27.415  1.00  0.00     0.274 C 
ENDROOT
BRANCH   1   2
ATOM      2  O   UNL A   1      31.036  27.446  27.193  1.00  0.00    -0.462 OA
BRANCH   2   3
ATOM      3  C   UNL A   1      31.283  26.334  26.460  1.00  0.00     0.310 C 
ATOM      4  O   UNL A   1      31.090  25.188  26.852  1.00  0.00    -0.252 OA
BRANCH   3   5
ATOM      5  C   UNL A   1      31.715  26.623  25.041  1.00  0.00     0.112 C 
ATOM      6  C   UNL A   1      32.608  24.369  23.238  1.00  0.00    -0.010 C 
ATOM      7  C   UNL A   1      33.441  24.801  24.440  1.00  0.00     0.004 C 
ATOM      8  C   UNL A   1      31.106  24.662  23.495  1.00  0.00     0.019 C 
ATOM      9  C   UNL A   1      33.198  26.246  24.878  1.00  0.00     0.017 C 
ATOM     10  C   UNL A   1      30.839  26.113  23.890  1.00  0.00     0.066 C 
BRANCH   6  11
ATOM     11  C   UNL A   1      33.132  24.820  21.845  1.00  0.00     0.003 C 
BRANCH  11  12
ATOM     12  C   UNL A   1      32.325  25.759  20.934  1.00  0.00    -0.003 C 
ATOM     13  C   UNL A   1      32.514  25.542  19.435  1.00  0.00     0.004 C 
ENDBRANCH  11  12
ENDBRANCH   6  11
BRANCH  10  14
ATOM     14  S   UNL A   1      29.031  26.559  23.880  1.00  0.00    -0.122 SA
BRANCH  14  15
ATOM     15  C   UNL A   1      28.925  28.168  23.126  1.00  0.00     0.011 A 
ATOM     16  C   UNL A   1      30.036  28.689  22.461  1.00  0.00     0.035 A 
ATOM     17  C   UNL A   1      27.737  28.888  23.097  1.00  0.00     0.035 A 
ATOM     18  C   UNL A   1      29.953  29.958  21.914  1.00  0.00     0.112 A 
ATOM     19  C   UNL A   1      27.735  30.130  22.477  1.00  0.00     0.112 A 
ATOM     20  N   UNL A   1      28.824  30.695  21.912  1.00  0.00    -0.265 NA
ENDBRANCH  14  15
ENDBRANCH  10  14
ENDBRANCH   3   5
ENDBRANCH   2   3
ENDBRANCH   1   2
BRANCH   1  21
ATOM     21  C   UNL A   1      31.894  29.771  26.988  1.00  0.00     0.275 C 
BRANCH  21  22
ATOM     22  O   UNL A   1      33.088  30.412  26.487  1.00  0.00    -0.458 OA
BRANCH  22  23
ATOM     23  C   UNL A   1      33.592  31.404  27.256  1.00  0.00     0.338 C 
ATOM     24  O   UNL A   1      33.007  32.414  27.629  1.00  0.00    -0.246 OA
BRANCH  23  25
ATOM     25  C   UNL A   1      34.931  31.048  27.763  1.00  0.00     0.060 A 
ATOM     26  C   UNL A   1      35.144  29.722  28.162  1.00  0.00     0.016 A 
ATOM     27  C   UNL A   1      35.935  32.001  27.940  1.00  0.00     0.016 A 
ATOM     28  C   UNL A   1      36.349  29.335  28.739  1.00  0.00     0.010 A 
ATOM     29  C   UNL A   1      37.135  31.622  28.559  1.00  0.00     0.010 A 
ATOM     30  C   UNL A   1      37.335  30.295  28.986  1.00  0.00    -0.014 A 
BRANCH  30  31
ATOM     31  C   UNL A   1      38.460  29.942  29.883  1.00  0.00     0.031 A 
ATOM     32  C   UNL A   1      39.511  28.998  29.368  1.00  0.00     0.074 A 
ATOM     33  C   UNL A   1      38.593  30.501  31.099  1.00  0.00     0.049 A 
ATOM     34  N   UNL A   1      40.556  28.497  29.976  1.00  0.00    -0.248 NA
ATOM     35  C   UNL A   1      39.360  28.561  27.971  1.00  0.00     0.031 C 
ATOM     36  C   UNL A   1      37.690  31.493  31.677  1.00  0.00     0.029 A 
ATOM     37  N   UNL A   1      39.549  30.309  32.066  1.00  0.00    -0.354 N 
ATOM     38  C   UNL A   1      41.175  27.677  29.043  1.00  0.00     0.074 A 
ATOM     39  C   UNL A   1      40.380  27.728  27.835  1.00  0.00     0.031 C 
ATOM     40  C   UNL A   1      38.124  31.811  32.908  1.00  0.00     0.029 A 
ATOM     41  C   UNL A   1      39.316  31.020  33.216  1.00  0.00     0.049 A 
ATOM     42  H   UNL A   1      40.328  29.718  31.944  1.00  0.00     0.167 HD
ATOM     43  C   UNL A   1      42.311  26.950  29.177  1.00  0.00     0.037 A 
ATOM     44  C   UNL A   1      39.976  31.008  34.390  1.00  0.00     0.037 A 
ATOM     45  C   UNL A   1      43.099  26.900  30.380  1.00  0.00     0.049 A 
ATOM     46  C   UNL A   1      41.198  30.138  34.543  1.00  0.00     0.074 A 
ATOM     47  C   UNL A   1      44.248  26.171  30.632  1.00  0.00     0.029 A 
ATOM     48  N   UNL A   1      42.816  27.614  31.535  1.00  0.00    -0.354 N 
ATOM     49  N   UNL A   1      41.764  29.341  33.668  1.00  0.00    -0.248 NA
ATOM     50  C   UNL A   1      41.876  30.169  35.847  1.00  0.00     0.031 C 
ATOM     51  C   UNL A   1      44.637  26.412  31.955  1.00  0.00     0.029 A 
ATOM     52  C   UNL A   1      43.764  27.336  32.507  1.00  0.00     0.049 A 
ATOM     53  H   UNL A   1      42.054  28.228  31.649  1.00  0.00     0.167 HD
ATOM     54  C   UNL A   1      42.881  28.808  34.300  1.00  0.00     0.074 A 
ATOM     55  C   UNL A   1      42.917  29.377  35.631  1.00  0.00     0.031 C 
ATOM     56  C   UNL A   1      43.795  27.928  33.821  1.00  0.00     0.037 A 
BRANCH  43  57
ATOM     57  C   UNL A   1      42.735  26.118  28.002  1.00  0.00     0.064 A 
ATOM     58  C   UNL A   1      42.274  24.805  27.820  1.00  0.00     0.173 A 
ATOM     59  C   UNL A   1      43.620  26.640  27.048  1.00  0.00     0.173 A 
ATOM     60  F   UNL A   1      41.441  24.251  28.715  1.00  0.00    -0.203 F 
ATOM     61  C   UNL A   1      42.709  24.036  26.744  1.00  0.00     0.198 A 
ATOM     62  C   UNL A   1      44.028  25.879  25.955  1.00  0.00     0.198 A 
ATOM     63  F   UNL A   1      44.092  27.890  27.174  1.00  0.00    -0.203 F 
ATOM     64  F   UNL A   1      42.301  22.765  26.622  1.00  0.00    -0.200 F 
ATOM     65  C   UNL A   1      43.581  24.575  25.809  1.00  0.00     0.200 A 
ATOM     66  F   UNL A   1      44.863  26.406  25.048  1.00  0.00    -0.200 F 
ATOM     67  F   UNL A   1      43.999  23.834  24.775  1.00  0.00    -0.200 F 
ENDBRANCH  43  57
BRANCH  44  68
ATOM     68  C   UNL A   1      39.486  31.835  35.526  1.00  0.00     0.064 A 
ATOM     69  C   UNL A   1      40.035  33.097  35.798  1.00  0.00     0.173 A 
ATOM     70  C   UNL A   1      38.474  31.368  36.378  1.00  0.00     0.173 A 
ATOM     71  F   UNL A   1      41.025  33.575  35.031  1.00  0.00    -0.203 F 
ATOM     72  C   UNL A   1      39.602  33.850  36.888  1.00  0.00     0.198 A 
ATOM     73  C   UNL A   1      38.021  32.135  37.450  1.00  0.00     0.198 A 
ATOM     74  F   UNL A   1      37.921  30.165  36.166  1.00  0.00    -0.203 F 
ATOM     75  F   UNL A   1      40.178  35.030  37.155  1.00  0.00    -0.200 F 
ATOM     76  C   UNL A   1      38.591  33.372  37.708  1.00  0.00     0.200 A 
ATOM     77  F   UNL A   1      37.038  31.672  38.233  1.00  0.00    -0.200 F 
ATOM     78  F   UNL A   1      38.175  34.097  38.755  1.00  0.00    -0.200 F 
ENDBRANCH  44  68
BRANCH  56  79
ATOM     79  C   UNL A   1      44.949  27.575  34.717  1.00  0.00     0.064 A 
ATOM     80  C   UNL A   1      46.135  28.323  34.732  1.00  0.00     0.173 A 
ATOM     81  C   UNL A   1      44.849  26.486  35.598  1.00  0.00     0.173 A 
ATOM     82  F   UNL A   1      46.286  29.366  33.902  1.00  0.00    -0.203 F 
ATOM     83  C   UNL A   1      47.191  27.974  35.571  1.00  0.00     0.198 A 
ATOM     84  C   UNL A   1      45.894  26.160  36.458  1.00  0.00     0.198 A 
ATOM     85  F   UNL A   1      43.733  25.743  35.632  1.00  0.00    -0.203 F 
ATOM     86  F   UNL A   1      48.335  28.670  35.528  1.00  0.00    -0.200 F 
ATOM     87  C   UNL A   1      47.068  26.898  36.436  1.00  0.00     0.200 A 
ATOM     88  F   UNL A   1      45.767  25.129  37.304  1.00  0.00    -0.200 F 
ATOM     89  F   UNL A   1      48.084  26.566  37.245  1.00  0.00    -0.200 F 
ENDBRANCH  56  79
ENDBRANCH  30  31
ENDBRANCH  23  25
ENDBRANCH  22  23
ENDBRANCH  21  22
ENDBRANCH   1  21
TORSDOF 15
ENDMDL
MODEL 3
REMARK VINA RESULT:     -11.4      1.097      7.632
REMARK SMILES CCC[C@H]1CC[C@H](C(=O)OCCOC(=O)c2ccc(-c3c4nc(c(-c5c(F)c(F)c(F)c(F)c5F)c5ccc([nH]5)c(-c5c(F)c(F)c(F)c(F)c5F)c5nc(c(-c6c(F)c(F)c(F)c(F)c6F)c6ccc3[nH]6)C=C5)C=C4)cc2)[C@H](Sc2ccncc2)C1
REMARK SMILES IDX 11 1 10 2 8 3 9 4 7 5 4 6 5 7 87 8 6 9 79 10 3 11 2 12 1 13
REMARK SMILES IDX 80 14 81 15 82 16 86 17 83 18 85 19 84 20 12 21 13 22 14 23
REMARK SMILES IDX 15 24 16 25 17 26 78 27 18 28 77 29 19 30 20 31 21 32 71 33
REMARK SMILES IDX 22 34 76 35 70 36 72 37 23 38 75 39 69 40 68 41 24 43 56 44
REMARK SMILES IDX 36 45 55 46 37 47 40 48 54 49 73 50 38 51 39 52 53 54 74 55
REMARK SMILES IDX 41 56 25 57 26 58 34 59 27 60 28 61 32 62 35 63 29 64 30 65
REMARK SMILES IDX 33 66 31 67 57 68 58 69 66 70 59 71 60 72 64 73 67 74 61 75
REMARK SMILES IDX 62 76 65 77 63 78 42 79 43 80 51 81 44 82 45 83 49 84 52 85
REMARK SMILES IDX 46 86 47 87 50 88 48 89
REMARK H PARENT 72 42 40 53
REMARK Flexibility Score: inf
ROOT
ATOM      1  C   UNL A   1      31.628  30.464  26.228  1.00  0.00     0.274 C 
ENDROOT
BRANCH   1   2
ATOM      2  O   UNL A   1      31.915  29.408  27.168  1.00  0.00    -0.462 OA
BRANCH   2   3
ATOM      3  C   UNL A   1      31.638  28.150  26.749  1.00  0.00     0.310 C 
ATOM      4  O   UNL A   1      30.967  27.341  27.380  1.00  0.00    -0.252 OA
BRANCH   3   5
ATOM      5  C   UNL A   1      32.133  27.850  25.352  1.00  0.00     0.112 C 
ATOM      6  C   UNL A   1      33.412  25.183  24.736  1.00  0.00    -0.010 C 
ATOM      7  C   UNL A   1      34.100  26.205  25.635  1.00  0.00     0.004 C 
ATOM      8  C   UNL A   1      31.871  25.348  24.821  1.00  0.00     0.019 C 
ATOM      9  C   UNL A   1      33.657  27.647  25.389  1.00  0.00     0.017 C 
ATOM     10  C   UNL A   1      31.407  26.775  24.533  1.00  0.00     0.066 C 
BRANCH   6  11
ATOM     11  C   UNL A   1      33.976  25.051  23.293  1.00  0.00     0.003 C 
BRANCH  11  12
ATOM     12  C   UNL A   1      33.619  26.051  22.182  1.00  0.00    -0.003 C 
ATOM     13  C   UNL A   1      32.616  25.551  21.146  1.00  0.00     0.004 C 
ENDBRANCH  11  12
ENDBRANCH   6  11
BRANCH  10  14
ATOM     14  S   UNL A   1      29.564  26.918  24.307  1.00  0.00    -0.122 SA
BRANCH  14  15
ATOM     15  C   UNL A   1      29.312  28.256  23.160  1.00  0.00     0.011 A 
ATOM     16  C   UNL A   1      28.047  28.834  23.047  1.00  0.00     0.035 A 
ATOM     17  C   UNL A   1      30.361  28.810  22.436  1.00  0.00     0.035 A 
ATOM     18  C   UNL A   1      27.854  29.847  22.124  1.00  0.00     0.112 A 
ATOM     19  C   UNL A   1      30.082  29.861  21.573  1.00  0.00     0.112 A 
ATOM     20  N   UNL A   1      28.847  30.372  21.377  1.00  0.00    -0.265 NA
ENDBRANCH  14  15
ENDBRANCH  10  14
ENDBRANCH   3   5
ENDBRANCH   2   3
ENDBRANCH   1   2
BRANCH   1  21
ATOM     21  C   UNL A   1      31.734  31.867  26.847  1.00  0.00     0.275 C 
BRANCH  21  22
ATOM     22  O   UNL A   1      33.039  32.449  26.636  1.00  0.00    -0.458 OA
BRANCH  22  23
ATOM     23  C   UNL A   1      33.595  33.055  27.709  1.00  0.00     0.338 C 
ATOM     24  O   UNL A   1      33.077  33.907  28.421  1.00  0.00    -0.246 OA
BRANCH  23  25
ATOM     25  C   UNL A   1      34.891  32.439  28.051  1.00  0.00     0.060 A 
ATOM     26  C   UNL A   1      34.904  31.066  28.332  1.00  0.00     0.016 A 
ATOM     27  C   UNL A   1      36.058  33.191  28.191  1.00  0.00     0.016 A 
ATOM     28  C   UNL A   1      36.068  30.435  28.755  1.00  0.00     0.010 A 
ATOM     29  C   UNL A   1      37.223  32.565  28.657  1.00  0.00     0.010 A 
ATOM     30  C   UNL A   1      37.225  31.191  28.967  1.00  0.00    -0.014 A 
BRANCH  30  31
ATOM     31  C   UNL A   1      38.346  30.579  29.719  1.00  0.00     0.031 A 
ATOM     32  C   UNL A   1      38.527  30.963  31.162  1.00  0.00     0.074 A 
ATOM     33  C   UNL A   1      39.141  29.649  29.163  1.00  0.00     0.049 A 
ATOM     34  N   UNL A   1      39.458  30.609  32.011  1.00  0.00    -0.248 NA
ATOM     35  C   UNL A   1      37.513  31.869  31.724  1.00  0.00     0.031 C 
ATOM     36  C   UNL A   1      39.015  29.132  27.803  1.00  0.00     0.029 A 
ATOM     37  N   UNL A   1      40.218  28.974  29.684  1.00  0.00    -0.354 N 
ATOM     38  C   UNL A   1      39.151  31.261  33.197  1.00  0.00     0.074 A 
ATOM     39  C   UNL A   1      37.961  32.048  32.956  1.00  0.00     0.031 C 
ATOM     40  C   UNL A   1      39.989  28.231  27.589  1.00  0.00     0.029 A 
ATOM     41  C   UNL A   1      40.826  28.135  28.785  1.00  0.00     0.049 A 
ATOM     42  H   UNL A   1      40.523  29.081  30.614  1.00  0.00     0.167 HD
ATOM     43  C   UNL A   1      39.799  31.203  34.386  1.00  0.00     0.037 A 
ATOM     44  C   UNL A   1      41.946  27.397  28.909  1.00  0.00     0.037 A 
ATOM     45  C   UNL A   1      40.983  30.420  34.622  1.00  0.00     0.049 A 
ATOM     46  C   UNL A   1      42.693  27.402  30.219  1.00  0.00     0.074 A 
ATOM     47  C   UNL A   1      41.735  30.317  35.779  1.00  0.00     0.029 A 
ATOM     48  N   UNL A   1      41.586  29.602  33.678  1.00  0.00    -0.354 N 
ATOM     49  N   UNL A   1      42.416  28.042  31.330  1.00  0.00    -0.248 NA
ATOM     50  C   UNL A   1      43.907  26.576  30.293  1.00  0.00     0.031 C 
ATOM     51  C   UNL A   1      42.818  29.468  35.522  1.00  0.00     0.029 A 
ATOM     52  C   UNL A   1      42.706  28.996  34.224  1.00  0.00     0.049 A 
ATOM     53  H   UNL A   1      41.265  29.471  32.756  1.00  0.00     0.167 HD
ATOM     54  C   UNL A   1      43.396  27.669  32.243  1.00  0.00     0.074 A 
ATOM     55  C   UNL A   1      44.270  26.740  31.558  1.00  0.00     0.031 C 
ATOM     56  C   UNL A   1      43.555  28.059  33.532  1.00  0.00     0.037 A 
BRANCH  43  57
ATOM     57  C   UNL A   1      39.258  32.048  35.503  1.00  0.00     0.064 A 
ATOM     58  C   UNL A   1      39.582  33.408  35.624  1.00  0.00     0.173 A 
ATOM     59  C   UNL A   1      38.409  31.488  36.467  1.00  0.00     0.173 A 
ATOM     60  F   UNL A   1      40.406  33.989  34.739  1.00  0.00    -0.203 F 
ATOM     61  C   UNL A   1      39.101  34.167  36.689  1.00  0.00     0.198 A 
ATOM     62  C   UNL A   1      37.905  32.257  37.513  1.00  0.00     0.198 A 
ATOM     63  F   UNL A   1      38.068  30.192  36.399  1.00  0.00    -0.203 F 
ATOM     64  F   UNL A   1      39.471  35.449  36.817  1.00  0.00    -0.200 F 
ATOM     65  C   UNL A   1      38.259  33.592  37.629  1.00  0.00     0.200 A 
ATOM     66  F   UNL A   1      37.082  31.701  38.415  1.00  0.00    -0.200 F 
ATOM     67  F   UNL A   1      37.797  34.322  38.653  1.00  0.00    -0.200 F 
ENDBRANCH  43  57
BRANCH  44  68
ATOM     68  C   UNL A   1      42.445  26.603  27.753  1.00  0.00     0.064 A 
ATOM     69  C   UNL A   1      43.383  27.134  26.856  1.00  0.00     0.173 A 
ATOM     70  C   UNL A   1      41.974  25.305  27.509  1.00  0.00     0.173 A 
ATOM     71  F   UNL A   1      43.842  28.383  27.028  1.00  0.00    -0.203 F 
ATOM     72  C   UNL A   1      43.816  26.403  25.751  1.00  0.00     0.198 A 
ATOM     73  C   UNL A   1      42.430  24.564  26.422  1.00  0.00     0.198 A 
ATOM     74  F   UNL A   1      41.070  24.753  28.333  1.00  0.00    -0.203 F 
ATOM     75  F   UNL A   1      44.674  26.953  24.881  1.00  0.00    -0.200 F 
ATOM     76  C   UNL A   1      43.345  25.116  25.539  1.00  0.00     0.200 A 
ATOM     77  F   UNL A   1      41.979  23.317  26.226  1.00  0.00    -0.200 F 
ATOM     78  F   UNL A   1      43.763  24.414  24.477  1.00  0.00    -0.200 F 
ENDBRANCH  44  68
BRANCH  56  79
ATOM     79  C   UNL A   1      44.680  27.433  34.308  1.00  0.00     0.064 A 
ATOM     80  C   UNL A   1      44.521  26.226  35.004  1.00  0.00     0.173 A 
ATOM     81  C   UNL A   1      45.945  28.040  34.327  1.00  0.00     0.173 A 
ATOM     82  F   UNL A   1      43.329  25.611  35.028  1.00  0.00    -0.203 F 
ATOM     83  C   UNL A   1      45.579  25.667  35.718  1.00  0.00     0.198 A 
ATOM     84  C   UNL A   1      47.009  27.462  35.015  1.00  0.00     0.198 A 
ATOM     85  F   UNL A   1      46.154  29.190  33.669  1.00  0.00    -0.203 F 
ATOM     86  F   UNL A   1      45.390  24.542  36.421  1.00  0.00    -0.200 F 
ATOM     87  C   UNL A   1      46.822  26.282  35.718  1.00  0.00     0.200 A 
ATOM     88  F   UNL A   1      48.213  28.049  35.000  1.00  0.00    -0.200 F 
ATOM     89  F   UNL A   1      47.840  25.741  36.402  1.00  0.00    -0.200 F 
ENDBRANCH  56  79
ENDBRANCH  30  31
ENDBRANCH  23  25
ENDBRANCH  22  23
ENDBRANCH  21  22
ENDBRANCH   1  21
TORSDOF 15
ENDMDL
