MODEL 1
REMARK VINA RESULT:     -11.9      0.000      0.000
REMARK SMILES Cn1cc(CNC(=O)Cn2ccc(C(=O)OCCOC(=O)c3ccc(-c4c5nc(c(-c6c(F)c(F)c(F)c(F)c6F)c6ccc([nH]6)c(-c6c(F)c(F)c(F)c(F)c6F)c6nc(c(-c7c(F)c(F)c(F)c(F)c7F)c7ccc4[nH]7)C=C6)C=C5)cc3)n2)cn1
REMARK SMILES IDX 17 1 16 2 14 3 15 4 13 5 10 6 11 7 85 8 12 9 9 10 7 11 6 12
REMARK SMILES IDX 8 14 5 15 4 16 1 17 2 18 3 19 87 20 86 21 18 22 19 23 20 24
REMARK SMILES IDX 21 25 22 26 23 27 84 28 24 29 83 30 25 31 26 32 27 33 77 34
REMARK SMILES IDX 28 35 82 36 76 37 78 38 29 39 81 40 75 41 74 42 30 44 62 45
REMARK SMILES IDX 42 46 61 47 43 48 46 49 60 50 79 51 44 52 45 53 59 55 80 56
REMARK SMILES IDX 47 57 31 58 32 59 40 60 33 61 34 62 38 63 41 64 35 65 36 66
REMARK SMILES IDX 39 67 37 68 63 69 64 70 72 71 65 72 66 73 70 74 73 75 67 76
REMARK SMILES IDX 68 77 71 78 69 79 48 80 49 81 57 82 50 83 51 84 55 85 58 86
REMARK SMILES IDX 52 87 53 88 56 89 54 90
REMARK H PARENT 6 13 78 43 46 54
REMARK Flexibility Score: inf
ROOT
ATOM      1  C   UNL A   1      41.274  20.296  27.127  1.00  0.00     0.275 C 
ENDROOT
BRANCH   1   2
ATOM      2  O   UNL A   1      40.526  21.141  26.230  1.00  0.00    -0.457 OA
BRANCH   2   3
ATOM      3  C   UNL A   1      39.373  20.600  25.723  1.00  0.00     0.358 C 
ATOM      4  O   UNL A   1      39.243  19.431  25.415  1.00  0.00    -0.244 OA
BRANCH   3   5
ATOM      5  C   UNL A   1      38.281  21.601  25.690  1.00  0.00     0.170 A 
ATOM      6  N   UNL A   1      36.306  22.394  25.631  1.00  0.00    -0.262 N 
ATOM      7  C   UNL A   1      37.087  23.458  25.975  1.00  0.00     0.110 A 
ATOM      8  N   UNL A   1      37.007  21.271  25.397  1.00  0.00    -0.165 NA
ATOM      9  C   UNL A   1      38.372  22.981  26.017  1.00  0.00     0.057 A 
BRANCH   6  10
ATOM     10  C   UNL A   1      34.860  22.366  25.493  1.00  0.00     0.243 C 
BRANCH  10  11
ATOM     11  C   UNL A   1      34.210  21.351  26.402  1.00  0.00     0.241 C 
ATOM     12  N   UNL A   1      33.837  20.135  25.910  1.00  0.00    -0.350 N 
ATOM     13  H   UNL A   1      33.457  19.505  26.564  1.00  0.00     0.163 HD
ATOM     14  O   UNL A   1      34.023  21.588  27.597  1.00  0.00    -0.273 OA
BRANCH  12  15
ATOM     15  C   UNL A   1      33.928  19.652  24.548  1.00  0.00     0.155 C 
BRANCH  15  16
ATOM     16  C   UNL A   1      33.668  18.196  24.553  1.00  0.00     0.009 A 
ATOM     17  C   UNL A   1      32.427  15.006  25.686  1.00  0.00     0.173 C 
ATOM     18  N   UNL A   1      33.008  16.160  25.045  1.00  0.00    -0.275 N 
ATOM     19  C   UNL A   1      33.017  17.443  25.508  1.00  0.00     0.113 A 
ATOM     20  N   UNL A   1      33.615  16.018  23.855  1.00  0.00    -0.181 NA
ATOM     21  C   UNL A   1      34.010  17.256  23.553  1.00  0.00     0.140 A 
ENDBRANCH  15  16
ENDBRANCH  12  15
ENDBRANCH  10  11
ENDBRANCH   6  10
ENDBRANCH   3   5
ENDBRANCH   2   3
ENDBRANCH   1   2
BRANCH   1  22
ATOM     22  C   UNL A   1      42.360  19.546  26.369  1.00  0.00     0.275 C 
BRANCH  22  23
ATOM     23  O   UNL A   1      42.790  20.279  25.221  1.00  0.00    -0.458 OA
BRANCH  23  24
ATOM     24  C   UNL A   1      44.098  20.620  25.204  1.00  0.00     0.338 C 
ATOM     25  O   UNL A   1      45.053  19.864  25.146  1.00  0.00    -0.246 OA
BRANCH  24  26
ATOM     26  C   UNL A   1      44.223  22.057  25.483  1.00  0.00     0.060 A 
ATOM     27  C   UNL A   1      45.183  22.462  26.416  1.00  0.00     0.016 A 
ATOM     28  C   UNL A   1      43.237  22.938  25.016  1.00  0.00     0.016 A 
ATOM     29  C   UNL A   1      45.063  23.712  26.994  1.00  0.00     0.010 A 
ATOM     30  C   UNL A   1      43.112  24.177  25.600  1.00  0.00     0.010 A 
ATOM     31  C   UNL A   1      43.985  24.524  26.630  1.00  0.00    -0.014 A 
BRANCH  31  32
ATOM     32  C   UNL A   1      43.801  25.787  27.323  1.00  0.00     0.031 A 
ATOM     33  C   UNL A   1      44.799  26.824  26.982  1.00  0.00     0.074 A 
ATOM     34  C   UNL A   1      42.706  26.030  28.071  1.00  0.00     0.049 A 
ATOM     35  N   UNL A   1      45.579  27.468  27.783  1.00  0.00    -0.248 NA
ATOM     36  C   UNL A   1      45.012  27.129  25.557  1.00  0.00     0.031 C 
ATOM     37  C   UNL A   1      41.515  25.178  28.173  1.00  0.00     0.029 A 
ATOM     38  N   UNL A   1      42.362  27.137  28.793  1.00  0.00    -0.354 N 
ATOM     39  C   UNL A   1      46.240  28.401  26.987  1.00  0.00     0.074 A 
ATOM     40  C   UNL A   1      45.977  28.044  25.620  1.00  0.00     0.031 C 
ATOM     41  C   UNL A   1      40.506  25.891  28.717  1.00  0.00     0.029 A 
ATOM     42  C   UNL A   1      41.017  27.189  29.125  1.00  0.00     0.049 A 
ATOM     43  H   UNL A   1      43.009  27.833  29.054  1.00  0.00     0.167 HD
ATOM     44  C   UNL A   1      46.692  29.564  27.526  1.00  0.00     0.037 A 
ATOM     45  C   UNL A   1      40.344  28.243  29.641  1.00  0.00     0.037 A 
ATOM     46  C   UNL A   1      46.778  29.483  28.959  1.00  0.00     0.049 A 
ATOM     47  C   UNL A   1      41.315  29.159  30.284  1.00  0.00     0.074 A 
ATOM     48  C   UNL A   1      47.666  28.999  29.891  1.00  0.00     0.029 A 
ATOM     49  N   UNL A   1      45.593  29.710  29.602  1.00  0.00    -0.354 N 
ATOM     50  N   UNL A   1      42.011  28.851  31.343  1.00  0.00    -0.248 NA
ATOM     51  C   UNL A   1      41.756  30.356  29.574  1.00  0.00     0.031 C 
ATOM     52  C   UNL A   1      46.934  28.845  31.108  1.00  0.00     0.029 A 
ATOM     53  C   UNL A   1      45.619  29.240  30.886  1.00  0.00     0.049 A 
ATOM     54  H   UNL A   1      44.817  30.157  29.192  1.00  0.00     0.167 HD
ATOM     55  C   UNL A   1      43.192  29.547  31.186  1.00  0.00     0.074 A 
ATOM     56  C   UNL A   1      42.910  30.584  30.205  1.00  0.00     0.031 C 
ATOM     57  C   UNL A   1      44.377  29.011  31.587  1.00  0.00     0.037 A 
BRANCH  44  58
ATOM     58  C   UNL A   1      46.571  30.912  26.848  1.00  0.00     0.064 A 
ATOM     59  C   UNL A   1      47.694  31.765  26.836  1.00  0.00     0.173 A 
ATOM     60  C   UNL A   1      45.338  31.526  26.533  1.00  0.00     0.173 A 
ATOM     61  F   UNL A   1      48.913  31.293  27.135  1.00  0.00    -0.203 F 
ATOM     62  C   UNL A   1      47.575  33.139  26.608  1.00  0.00     0.198 A 
ATOM     63  C   UNL A   1      45.233  32.887  26.253  1.00  0.00     0.198 A 
ATOM     64  F   UNL A   1      44.175  30.868  26.599  1.00  0.00    -0.203 F 
ATOM     65  F   UNL A   1      48.649  33.929  26.733  1.00  0.00    -0.200 F 
ATOM     66  C   UNL A   1      46.343  33.700  26.324  1.00  0.00     0.200 A 
ATOM     67  F   UNL A   1      44.027  33.416  26.002  1.00  0.00    -0.200 F 
ATOM     68  F   UNL A   1      46.217  35.024  26.169  1.00  0.00    -0.200 F 
ENDBRANCH  44  58
BRANCH  45  69
ATOM     69  C   UNL A   1      38.931  28.616  29.410  1.00  0.00     0.064 A 
ATOM     70  C   UNL A   1      38.039  28.791  30.479  1.00  0.00     0.173 A 
ATOM     71  C   UNL A   1      38.494  29.063  28.147  1.00  0.00     0.173 A 
ATOM     72  F   UNL A   1      38.396  28.431  31.720  1.00  0.00    -0.203 F 
ATOM     73  C   UNL A   1      36.794  29.400  30.299  1.00  0.00     0.198 A 
ATOM     74  C   UNL A   1      37.246  29.660  27.967  1.00  0.00     0.198 A 
ATOM     75  F   UNL A   1      39.305  29.013  27.081  1.00  0.00    -0.203 F 
ATOM     76  F   UNL A   1      35.994  29.609  31.355  1.00  0.00    -0.200 F 
ATOM     77  C   UNL A   1      36.403  29.842  29.046  1.00  0.00     0.200 A 
ATOM     78  F   UNL A   1      36.895  30.110  26.755  1.00  0.00    -0.200 F 
ATOM     79  F   UNL A   1      35.235  30.478  28.885  1.00  0.00    -0.200 F 
ENDBRANCH  45  69
BRANCH  57  80
ATOM     80  C   UNL A   1      44.340  27.986  32.670  1.00  0.00     0.064 A 
ATOM     81  C   UNL A   1      44.252  26.603  32.442  1.00  0.00     0.173 A 
ATOM     82  C   UNL A   1      44.453  28.422  33.997  1.00  0.00     0.173 A 
ATOM     83  F   UNL A   1      44.219  26.112  31.197  1.00  0.00    -0.203 F 
ATOM     84  C   UNL A   1      44.233  25.702  33.505  1.00  0.00     0.198 A 
ATOM     85  C   UNL A   1      44.469  27.518  35.053  1.00  0.00     0.198 A 
ATOM     86  F   UNL A   1      44.581  29.731  34.265  1.00  0.00    -0.203 F 
ATOM     87  F   UNL A   1      44.124  24.387  33.269  1.00  0.00    -0.200 F 
ATOM     88  C   UNL A   1      44.346  26.160  34.809  1.00  0.00     0.200 A 
ATOM     89  F   UNL A   1      44.618  27.964  36.308  1.00  0.00    -0.200 F 
ATOM     90  F   UNL A   1      44.356  25.291  35.829  1.00  0.00    -0.200 F 
ENDBRANCH  57  80
ENDBRANCH  31  32
ENDBRANCH  24  26
ENDBRANCH  23  24
ENDBRANCH  22  23
ENDBRANCH   1  22
TORSDOF 15
ENDMDL
MODEL 2
REMARK VINA RESULT:     -11.5      5.813     11.545
REMARK SMILES Cn1cc(CNC(=O)Cn2ccc(C(=O)OCCOC(=O)c3ccc(-c4c5nc(c(-c6c(F)c(F)c(F)c(F)c6F)c6ccc([nH]6)c(-c6c(F)c(F)c(F)c(F)c6F)c6nc(c(-c7c(F)c(F)c(F)c(F)c7F)c7ccc4[nH]7)C=C6)C=C5)cc3)n2)cn1
REMARK SMILES IDX 17 1 16 2 14 3 15 4 13 5 10 6 11 7 85 8 12 9 9 10 7 11 6 12
REMARK SMILES IDX 8 14 5 15 4 16 1 17 2 18 3 19 87 20 86 21 18 22 19 23 20 24
REMARK SMILES IDX 21 25 22 26 23 27 84 28 24 29 83 30 25 31 26 32 27 33 77 34
REMARK SMILES IDX 28 35 82 36 76 37 78 38 29 39 81 40 75 41 74 42 30 44 62 45
REMARK SMILES IDX 42 46 61 47 43 48 46 49 60 50 79 51 44 52 45 53 59 55 80 56
REMARK SMILES IDX 47 57 31 58 32 59 40 60 33 61 34 62 38 63 41 64 35 65 36 66
REMARK SMILES IDX 39 67 37 68 63 69 64 70 72 71 65 72 66 73 70 74 73 75 67 76
REMARK SMILES IDX 68 77 71 78 69 79 48 80 49 81 57 82 50 83 51 84 55 85 58 86
REMARK SMILES IDX 52 87 53 88 56 89 54 90
REMARK H PARENT 6 13 78 43 46 54
REMARK Flexibility Score: inf
ROOT
ATOM      1  C   UNL A   1      33.103  34.165  28.022  1.00  0.00     0.275 C 
ENDROOT
BRANCH   1   2
ATOM      2  O   UNL A   1      32.750  34.615  29.344  1.00  0.00    -0.457 OA
BRANCH   2   3
ATOM      3  C   UNL A   1      32.899  35.958  29.578  1.00  0.00     0.358 C 
ATOM      4  O   UNL A   1      32.603  36.828  28.783  1.00  0.00    -0.244 OA
BRANCH   3   5
ATOM      5  C   UNL A   1      33.378  36.211  30.957  1.00  0.00     0.170 A 
ATOM      6  N   UNL A   1      34.456  35.938  32.773  1.00  0.00    -0.262 N 
ATOM      7  C   UNL A   1      33.978  37.214  32.852  1.00  0.00     0.110 A 
ATOM      8  N   UNL A   1      34.062  35.288  31.664  1.00  0.00    -0.165 NA
ATOM      9  C   UNL A   1      33.270  37.420  31.695  1.00  0.00     0.057 A 
BRANCH   6  10
ATOM     10  C   UNL A   1      35.302  35.250  33.733  1.00  0.00     0.243 C 
BRANCH  10  11
ATOM     11  C   UNL A   1      35.379  33.764  33.477  1.00  0.00     0.241 C 
ATOM     12  N   UNL A   1      36.386  33.255  32.711  1.00  0.00    -0.350 N 
ATOM     13  H   UNL A   1      36.402  32.275  32.618  1.00  0.00     0.163 HD
ATOM     14  O   UNL A   1      34.556  32.987  33.965  1.00  0.00    -0.273 OA
BRANCH  12  15
ATOM     15  C   UNL A   1      37.434  33.972  32.017  1.00  0.00     0.155 C 
BRANCH  15  16
ATOM     16  C   UNL A   1      38.721  33.669  32.679  1.00  0.00     0.009 A 
ATOM     17  C   UNL A   1      41.921  34.250  34.236  1.00  0.00     0.173 C 
ATOM     18  N   UNL A   1      40.685  33.786  33.657  1.00  0.00    -0.275 N 
ATOM     19  C   UNL A   1      39.717  34.543  33.065  1.00  0.00     0.113 A 
ATOM     20  N   UNL A   1      40.397  32.474  33.679  1.00  0.00    -0.181 NA
ATOM     21  C   UNL A   1      39.202  32.404  33.091  1.00  0.00     0.140 A 
ENDBRANCH  15  16
ENDBRANCH  12  15
ENDBRANCH  10  11
ENDBRANCH   6  10
ENDBRANCH   3   5
ENDBRANCH   2   3
ENDBRANCH   1   2
BRANCH   1  22
ATOM     22  C   UNL A   1      34.542  33.668  27.996  1.00  0.00     0.275 C 
BRANCH  22  23
ATOM     23  O   UNL A   1      34.604  32.256  28.203  1.00  0.00    -0.458 OA
BRANCH  23  24
ATOM     24  C   UNL A   1      35.174  31.862  29.364  1.00  0.00     0.338 C 
ATOM     25  O   UNL A   1      34.786  32.112  30.493  1.00  0.00    -0.246 OA
BRANCH  24  26
ATOM     26  C   UNL A   1      36.477  31.249  29.076  1.00  0.00     0.060 A 
ATOM     27  C   UNL A   1      36.530  29.858  28.940  1.00  0.00     0.016 A 
ATOM     28  C   UNL A   1      37.643  32.019  29.195  1.00  0.00     0.016 A 
ATOM     29  C   UNL A   1      37.751  29.223  29.071  1.00  0.00     0.010 A 
ATOM     30  C   UNL A   1      38.855  31.386  29.338  1.00  0.00     0.010 A 
ATOM     31  C   UNL A   1      38.887  29.992  29.341  1.00  0.00    -0.014 A 
BRANCH  31  32
ATOM     32  C   UNL A   1      40.145  29.311  29.592  1.00  0.00     0.031 A 
ATOM     33  C   UNL A   1      40.529  29.240  31.018  1.00  0.00     0.074 A 
ATOM     34  C   UNL A   1      40.799  28.652  28.614  1.00  0.00     0.049 A 
ATOM     35  N   UNL A   1      41.620  29.657  31.568  1.00  0.00    -0.248 NA
ATOM     36  C   UNL A   1      39.541  28.705  31.970  1.00  0.00     0.031 C 
ATOM     37  C   UNL A   1      40.302  28.390  27.258  1.00  0.00     0.029 A 
ATOM     38  N   UNL A   1      41.980  27.967  28.653  1.00  0.00    -0.354 N 
ATOM     39  C   UNL A   1      41.541  29.259  32.900  1.00  0.00     0.074 A 
ATOM     40  C   UNL A   1      40.188  28.827  33.127  1.00  0.00     0.031 C 
ATOM     41  C   UNL A   1      41.057  27.426  26.689  1.00  0.00     0.029 A 
ATOM     42  C   UNL A   1      42.162  27.110  27.579  1.00  0.00     0.049 A 
ATOM     43  H   UNL A   1      42.641  28.073  29.376  1.00  0.00     0.167 HD
ATOM     44  C   UNL A   1      42.673  29.031  33.616  1.00  0.00     0.037 A 
ATOM     45  C   UNL A   1      43.113  26.157  27.446  1.00  0.00     0.037 A 
ATOM     46  C   UNL A   1      43.820  29.637  32.995  1.00  0.00     0.049 A 
ATOM     47  C   UNL A   1      44.241  26.484  28.350  1.00  0.00     0.074 A 
ATOM     48  C   UNL A   1      44.402  30.882  32.948  1.00  0.00     0.029 A 
ATOM     49  N   UNL A   1      44.371  28.890  31.992  1.00  0.00    -0.354 N 
ATOM     50  N   UNL A   1      45.008  27.529  28.205  1.00  0.00    -0.248 NA
ATOM     51  C   UNL A   1      44.359  25.796  29.633  1.00  0.00     0.031 C 
ATOM     52  C   UNL A   1      45.255  30.888  31.803  1.00  0.00     0.029 A 
ATOM     53  C   UNL A   1      45.173  29.646  31.183  1.00  0.00     0.049 A 
ATOM     54  H   UNL A   1      44.210  27.926  31.868  1.00  0.00     0.167 HD
ATOM     55  C   UNL A   1      45.371  27.862  29.494  1.00  0.00     0.074 A 
ATOM     56  C   UNL A   1      45.112  26.677  30.296  1.00  0.00     0.031 C 
ATOM     57  C   UNL A   1      45.513  29.164  29.864  1.00  0.00     0.037 A 
BRANCH  44  58
ATOM     58  C   UNL A   1      42.851  27.868  34.567  1.00  0.00     0.064 A 
ATOM     59  C   UNL A   1      43.129  28.140  35.923  1.00  0.00     0.173 A 
ATOM     60  C   UNL A   1      43.104  26.542  34.150  1.00  0.00     0.173 A 
ATOM     61  F   UNL A   1      42.941  29.369  36.425  1.00  0.00    -0.203 F 
ATOM     62  C   UNL A   1      43.694  27.181  36.768  1.00  0.00     0.198 A 
ATOM     63  C   UNL A   1      43.618  25.574  35.011  1.00  0.00     0.198 A 
ATOM     64  F   UNL A   1      42.982  26.159  32.873  1.00  0.00    -0.203 F 
ATOM     65  F   UNL A   1      44.060  27.522  38.010  1.00  0.00    -0.200 F 
ATOM     66  C   UNL A   1      43.945  25.900  36.309  1.00  0.00     0.200 A 
ATOM     67  F   UNL A   1      43.876  24.345  34.541  1.00  0.00    -0.200 F 
ATOM     68  F   UNL A   1      44.546  24.999  37.097  1.00  0.00    -0.200 F 
ENDBRANCH  44  58
BRANCH  45  69
ATOM     69  C   UNL A   1      43.002  24.857  26.750  1.00  0.00     0.064 A 
ATOM     70  C   UNL A   1      43.593  24.650  25.494  1.00  0.00     0.173 A 
ATOM     71  C   UNL A   1      42.533  23.710  27.420  1.00  0.00     0.173 A 
ATOM     72  F   UNL A   1      44.102  25.685  24.810  1.00  0.00    -0.203 F 
ATOM     73  C   UNL A   1      43.729  23.368  24.953  1.00  0.00     0.198 A 
ATOM     74  C   UNL A   1      42.659  22.433  26.875  1.00  0.00     0.198 A 
ATOM     75  F   UNL A   1      42.027  23.796  28.659  1.00  0.00    -0.203 F 
ATOM     76  F   UNL A   1      44.357  23.202  23.780  1.00  0.00    -0.200 F 
ATOM     77  C   UNL A   1      43.271  22.261  25.648  1.00  0.00     0.200 A 
ATOM     78  F   UNL A   1      42.240  21.368  27.573  1.00  0.00    -0.200 F 
ATOM     79  F   UNL A   1      43.456  21.028  25.157  1.00  0.00    -0.200 F 
ENDBRANCH  45  69
BRANCH  57  80
ATOM     80  C   UNL A   1      45.835  30.155  28.796  1.00  0.00     0.064 A 
ATOM     81  C   UNL A   1      44.869  30.865  28.065  1.00  0.00     0.173 A 
ATOM     82  C   UNL A   1      47.183  30.437  28.542  1.00  0.00     0.173 A 
ATOM     83  F   UNL A   1      43.563  30.702  28.310  1.00  0.00    -0.203 F 
ATOM     84  C   UNL A   1      45.245  31.785  27.088  1.00  0.00     0.198 A 
ATOM     85  C   UNL A   1      47.554  31.380  27.591  1.00  0.00     0.198 A 
ATOM     86  F   UNL A   1      48.144  29.815  29.243  1.00  0.00    -0.203 F 
ATOM     87  F   UNL A   1      44.308  32.436  26.383  1.00  0.00    -0.200 F 
ATOM     88  C   UNL A   1      46.586  32.045  26.855  1.00  0.00     0.200 A 
ATOM     89  F   UNL A   1      48.851  31.656  27.398  1.00  0.00    -0.200 F 
ATOM     90  F   UNL A   1      46.947  32.950  25.935  1.00  0.00    -0.200 F 
ENDBRANCH  57  80
ENDBRANCH  31  32
ENDBRANCH  24  26
ENDBRANCH  23  24
ENDBRANCH  22  23
ENDBRANCH   1  22
TORSDOF 15
ENDMDL
MODEL 3
REMARK VINA RESULT:     -11.4      2.039      2.958
REMARK SMILES Cn1cc(CNC(=O)Cn2ccc(C(=O)OCCOC(=O)c3ccc(-c4c5nc(c(-c6c(F)c(F)c(F)c(F)c6F)c6ccc([nH]6)c(-c6c(F)c(F)c(F)c(F)c6F)c6nc(c(-c7c(F)c(F)c(F)c(F)c7F)c7ccc4[nH]7)C=C6)C=C5)cc3)n2)cn1
REMARK SMILES IDX 17 1 16 2 14 3 15 4 13 5 10 6 11 7 85 8 12 9 9 10 7 11 6 12
REMARK SMILES IDX 8 14 5 15 4 16 1 17 2 18 3 19 87 20 86 21 18 22 19 23 20 24
REMARK SMILES IDX 21 25 22 26 23 27 84 28 24 29 83 30 25 31 26 32 27 33 77 34
REMARK SMILES IDX 28 35 82 36 76 37 78 38 29 39 81 40 75 41 74 42 30 44 62 45
REMARK SMILES IDX 42 46 61 47 43 48 46 49 60 50 79 51 44 52 45 53 59 55 80 56
REMARK SMILES IDX 47 57 31 58 32 59 40 60 33 61 34 62 38 63 41 64 35 65 36 66
REMARK SMILES IDX 39 67 37 68 63 69 64 70 72 71 65 72 66 73 70 74 73 75 67 76
REMARK SMILES IDX 68 77 71 78 69 79 48 80 49 81 57 82 50 83 51 84 55 85 58 86
REMARK SMILES IDX 52 87 53 88 56 89 54 90
REMARK H PARENT 6 13 78 43 46 54
REMARK Flexibility Score: inf
ROOT
ATOM      1  C   UNL A   1      41.813  19.510  26.587  1.00  0.00     0.275 C 
ENDROOT
BRANCH   1   2
ATOM      2  O   UNL A   1      40.966  20.536  26.034  1.00  0.00    -0.457 OA
BRANCH   2   3
ATOM      3  C   UNL A   1      40.433  21.421  26.936  1.00  0.00     0.358 C 
ATOM      4  O   UNL A   1      40.899  21.639  28.037  1.00  0.00    -0.244 OA
BRANCH   3   5
ATOM      5  C   UNL A   1      39.275  22.141  26.358  1.00  0.00     0.170 A 
ATOM      6  N   UNL A   1      37.395  22.455  25.409  1.00  0.00    -0.262 N 
ATOM      7  C   UNL A   1      37.710  23.670  25.943  1.00  0.00     0.110 A 
ATOM      8  N   UNL A   1      38.349  21.526  25.595  1.00  0.00    -0.165 NA
ATOM      9  C   UNL A   1      38.924  23.503  26.560  1.00  0.00     0.057 A 
BRANCH   6  10
ATOM     10  C   UNL A   1      36.188  22.093  24.685  1.00  0.00     0.243 C 
BRANCH  10  11
ATOM     11  C   UNL A   1      35.888  23.039  23.548  1.00  0.00     0.241 C 
ATOM     12  N   UNL A   1      34.886  23.957  23.671  1.00  0.00    -0.350 N 
ATOM     13  H   UNL A   1      34.770  24.571  22.911  1.00  0.00     0.163 HD
ATOM     14  O   UNL A   1      36.545  23.017  22.506  1.00  0.00    -0.273 OA
BRANCH  12  15
ATOM     15  C   UNL A   1      33.972  24.143  24.778  1.00  0.00     0.155 C 
BRANCH  15  16
ATOM     16  C   UNL A   1      33.228  25.403  24.558  1.00  0.00     0.009 A 
ATOM     17  C   UNL A   1      30.448  27.586  23.846  1.00  0.00     0.173 C 
ATOM     18  N   UNL A   1      31.686  26.914  24.156  1.00  0.00    -0.275 N 
ATOM     19  C   UNL A   1      31.903  25.569  24.209  1.00  0.00     0.113 A 
ATOM     20  N   UNL A   1      32.779  27.643  24.437  1.00  0.00    -0.181 NA
ATOM     21  C   UNL A   1      33.714  26.725  24.688  1.00  0.00     0.140 A 
ENDBRANCH  15  16
ENDBRANCH  12  15
ENDBRANCH  10  11
ENDBRANCH   6  10
ENDBRANCH   3   5
ENDBRANCH   2   3
ENDBRANCH   1   2
BRANCH   1  22
ATOM     22  C   UNL A   1      43.076  19.354  25.751  1.00  0.00     0.275 C 
BRANCH  22  23
ATOM     23  O   UNL A   1      43.307  20.509  24.944  1.00  0.00    -0.458 OA
BRANCH  23  24
ATOM     24  C   UNL A   1      44.598  20.897  24.836  1.00  0.00     0.338 C 
ATOM     25  O   UNL A   1      45.567  20.178  24.661  1.00  0.00    -0.246 OA
BRANCH  24  26
ATOM     26  C   UNL A   1      44.701  22.322  25.175  1.00  0.00     0.060 A 
ATOM     27  C   UNL A   1      45.598  22.692  26.183  1.00  0.00     0.016 A 
ATOM     28  C   UNL A   1      43.746  23.221  24.678  1.00  0.00     0.016 A 
ATOM     29  C   UNL A   1      45.438  23.920  26.798  1.00  0.00     0.010 A 
ATOM     30  C   UNL A   1      43.581  24.437  25.297  1.00  0.00     0.010 A 
ATOM     31  C   UNL A   1      44.385  24.746  26.394  1.00  0.00    -0.014 A 
BRANCH  31  32
ATOM     32  C   UNL A   1      44.153  25.982  27.119  1.00  0.00     0.031 A 
ATOM     33  C   UNL A   1      45.103  27.068  26.796  1.00  0.00     0.074 A 
ATOM     34  C   UNL A   1      43.056  26.160  27.882  1.00  0.00     0.049 A 
ATOM     35  N   UNL A   1      45.863  27.726  27.606  1.00  0.00    -0.248 NA
ATOM     36  C   UNL A   1      45.290  27.417  25.377  1.00  0.00     0.031 C 
ATOM     37  C   UNL A   1      41.903  25.256  27.972  1.00  0.00     0.029 A 
ATOM     38  N   UNL A   1      42.672  27.233  28.634  1.00  0.00    -0.354 N 
ATOM     39  C   UNL A   1      46.476  28.705  26.829  1.00  0.00     0.074 A 
ATOM     40  C   UNL A   1      46.216  28.371  25.455  1.00  0.00     0.031 C 
ATOM     41  C   UNL A   1      40.870  25.912  28.541  1.00  0.00     0.029 A 
ATOM     42  C   UNL A   1      41.329  27.220  28.978  1.00  0.00     0.049 A 
ATOM     43  H   UNL A   1      43.291  27.949  28.907  1.00  0.00     0.167 HD
ATOM     44  C   UNL A   1      46.883  29.873  27.392  1.00  0.00     0.037 A 
ATOM     45  C   UNL A   1      40.616  28.231  29.525  1.00  0.00     0.037 A 
ATOM     46  C   UNL A   1      46.985  29.761  28.822  1.00  0.00     0.049 A 
ATOM     47  C   UNL A   1      41.553  29.171  30.183  1.00  0.00     0.074 A 
ATOM     48  C   UNL A   1      47.902  29.293  29.735  1.00  0.00     0.029 A 
ATOM     49  N   UNL A   1      45.798  29.921  29.480  1.00  0.00    -0.354 N 
ATOM     50  N   UNL A   1      42.272  28.868  31.228  1.00  0.00    -0.248 NA
ATOM     51  C   UNL A   1      41.937  30.403  29.499  1.00  0.00     0.031 C 
ATOM     52  C   UNL A   1      47.188  29.078  30.953  1.00  0.00     0.029 A 
ATOM     53  C   UNL A   1      45.855  29.421  30.752  1.00  0.00     0.049 A 
ATOM     54  H   UNL A   1      45.000  30.345  29.087  1.00  0.00     0.167 HD
ATOM     55  C   UNL A   1      43.420  29.617  31.078  1.00  0.00     0.074 A 
ATOM     56  C   UNL A   1      43.086  30.665  30.126  1.00  0.00     0.031 C 
ATOM     57  C   UNL A   1      44.631  29.123  31.457  1.00  0.00     0.037 A 
BRANCH  44  58
ATOM     58  C   UNL A   1      46.699  31.230  26.749  1.00  0.00     0.064 A 
ATOM     59  C   UNL A   1      47.785  32.131  26.749  1.00  0.00     0.173 A 
ATOM     60  C   UNL A   1      45.438  31.799  26.459  1.00  0.00     0.173 A 
ATOM     61  F   UNL A   1      49.026  31.704  27.026  1.00  0.00    -0.203 F 
ATOM     62  C   UNL A   1      47.606  33.503  26.556  1.00  0.00     0.198 A 
ATOM     63  C   UNL A   1      45.273  33.161  26.214  1.00  0.00     0.198 A 
ATOM     64  F   UNL A   1      44.304  31.091  26.519  1.00  0.00    -0.203 F 
ATOM     65  F   UNL A   1      48.647  34.335  26.692  1.00  0.00    -0.200 F 
ATOM     66  C   UNL A   1      46.349  34.018  26.296  1.00  0.00     0.200 A 
ATOM     67  F   UNL A   1      44.043  33.644  25.987  1.00  0.00    -0.200 F 
ATOM     68  F   UNL A   1      46.165  35.340  26.175  1.00  0.00    -0.200 F 
ENDBRANCH  44  58
BRANCH  45  69
ATOM     69  C   UNL A   1      39.187  28.550  29.315  1.00  0.00     0.064 A 
ATOM     70  C   UNL A   1      38.294  28.638  30.393  1.00  0.00     0.173 A 
ATOM     71  C   UNL A   1      38.723  29.029  28.074  1.00  0.00     0.173 A 
ATOM     72  F   UNL A   1      38.673  28.242  31.616  1.00  0.00    -0.203 F 
ATOM     73  C   UNL A   1      37.021  29.196  30.243  1.00  0.00     0.198 A 
ATOM     74  C   UNL A   1      37.449  29.576  27.923  1.00  0.00     0.198 A 
ATOM     75  F   UNL A   1      39.531  29.062  27.004  1.00  0.00    -0.203 F 
ATOM     76  F   UNL A   1      36.217  29.323  31.310  1.00  0.00    -0.200 F 
ATOM     77  C   UNL A   1      36.604  29.673  29.011  1.00  0.00     0.200 A 
ATOM     78  F   UNL A   1      37.072  30.062  26.732  1.00  0.00    -0.200 F 
ATOM     79  F   UNL A   1      35.407  30.262  28.882  1.00  0.00    -0.200 F 
ENDBRANCH  45  69
BRANCH  57  80
ATOM     80  C   UNL A   1      44.647  28.071  32.515  1.00  0.00     0.064 A 
ATOM     81  C   UNL A   1      44.587  26.693  32.255  1.00  0.00     0.173 A 
ATOM     82  C   UNL A   1      44.784  28.478  33.848  1.00  0.00     0.173 A 
ATOM     83  F   UNL A   1      44.533  26.231  30.999  1.00  0.00    -0.203 F 
ATOM     84  C   UNL A   1      44.618  25.766  33.295  1.00  0.00     0.198 A 
ATOM     85  C   UNL A   1      44.849  27.549  34.881  1.00  0.00     0.198 A 
ATOM     86  F   UNL A   1      44.887  29.782  34.146  1.00  0.00    -0.203 F 
ATOM     87  F   UNL A   1      44.535  24.454  33.028  1.00  0.00    -0.200 F 
ATOM     88  C   UNL A   1      44.754  26.194  34.606  1.00  0.00     0.200 A 
ATOM     89  F   UNL A   1      45.020  27.967  36.142  1.00  0.00    -0.200 F 
ATOM     90  F   UNL A   1      44.811  25.301  35.603  1.00  0.00    -0.200 F 
ENDBRANCH  57  80
ENDBRANCH  31  32
ENDBRANCH  24  26
ENDBRANCH  23  24
ENDBRANCH  22  23
ENDBRANCH   1  22
TORSDOF 15
ENDMDL
