MODEL 1
REMARK VINA RESULT:     -12.7      0.000      0.000
REMARK SMILES O=C(Cc1ccc(OC[C@H]2Cc3ccccc3S2)cc1)OCCOC(=O)c1ccc(-c2c3nc(c(-c4c(F)c(F)c(F)c(F)c4F)c4ccc([nH]4)c(-c4c(F)c(F)c(F)c(F)c4F)c4nc(c(-c5c(F)c(F)c(F)c(F)c5F)c5ccc2[nH]5)C=C4)C=C3)cc1
REMARK SMILES IDX 22 1 21 2 2 3 1 4 3 5 4 6 5 7 20 8 6 9 19 10 7 11 8 12 9 13
REMARK SMILES IDX 10 14 11 15 18 16 12 17 17 18 13 19 16 20 14 21 15 22 23 23
REMARK SMILES IDX 24 24 25 25 26 26 27 27 28 28 89 29 29 30 88 31 30 32 31 33
REMARK SMILES IDX 32 34 82 35 33 36 87 37 81 38 83 39 34 40 86 41 80 42 79 43
REMARK SMILES IDX 35 45 67 46 47 47 66 48 48 49 51 50 65 51 84 52 49 53 50 54
REMARK SMILES IDX 64 56 85 57 52 58 36 59 37 60 45 61 38 62 39 63 43 64 46 65
REMARK SMILES IDX 40 66 41 67 44 68 42 69 68 70 69 71 77 72 70 73 71 74 75 75
REMARK SMILES IDX 78 76 72 77 73 78 76 79 74 80 53 81 54 82 62 83 55 84 56 85
REMARK SMILES IDX 60 86 63 87 57 88 58 89 61 90 59 91
REMARK H PARENT 83 44 51 55
REMARK Flexibility Score: inf
ROOT
ATOM      1  C   UNL A   1      31.389  29.578  24.801  1.00  0.00     0.274 C 
ENDROOT
BRANCH   1   2
ATOM      2  O   UNL A   1      30.370  30.004  23.871  1.00  0.00    -0.462 OA
BRANCH   2   3
ATOM      3  C   UNL A   1      29.878  29.265  22.851  1.00  0.00     0.310 C 
ATOM      4  O   UNL A   1      29.994  29.663  21.691  1.00  0.00    -0.252 OA
BRANCH   3   5
ATOM      5  C   UNL A   1      29.211  27.941  23.147  1.00  0.00     0.158 C 
BRANCH   5   6
ATOM      6  C   UNL A   1      30.149  26.778  23.301  1.00  0.00    -0.037 A 
ATOM      7  C   UNL A   1      29.973  25.845  24.336  1.00  0.00     0.008 A 
ATOM      8  C   UNL A   1      31.144  26.562  22.345  1.00  0.00     0.008 A 
ATOM      9  C   UNL A   1      30.829  24.748  24.450  1.00  0.00     0.047 A 
ATOM     10  C   UNL A   1      31.964  25.447  22.436  1.00  0.00     0.047 A 
ATOM     11  C   UNL A   1      31.847  24.578  23.517  1.00  0.00     0.119 A 
BRANCH  11  12
ATOM     12  O   UNL A   1      32.678  23.497  23.592  1.00  0.00    -0.492 OA
BRANCH  12  13
ATOM     13  C   UNL A   1      33.117  23.228  24.942  1.00  0.00     0.244 C 
BRANCH  13  14
ATOM     14  C   UNL A   1      33.003  21.740  25.327  1.00  0.00     0.094 C 
ATOM     15  C   UNL A   1      32.177  20.933  24.298  1.00  0.00     0.055 C 
ATOM     16  S   UNL A   1      34.632  20.919  25.503  1.00  0.00    -0.119 SA
ATOM     17  C   UNL A   1      32.874  19.638  24.015  1.00  0.00    -0.033 A 
ATOM     18  C   UNL A   1      34.105  19.474  24.640  1.00  0.00     0.011 A 
ATOM     19  C   UNL A   1      32.370  18.642  23.183  1.00  0.00     0.005 A 
ATOM     20  C   UNL A   1      34.814  18.289  24.521  1.00  0.00     0.015 A 
ATOM     21  C   UNL A   1      33.094  17.459  23.026  1.00  0.00     0.000 A 
ATOM     22  C   UNL A   1      34.299  17.273  23.712  1.00  0.00     0.001 A 
ENDBRANCH  13  14
ENDBRANCH  12  13
ENDBRANCH  11  12
ENDBRANCH   5   6
ENDBRANCH   3   5
ENDBRANCH   2   3
ENDBRANCH   1   2
BRANCH   1  23
ATOM     23  C   UNL A   1      31.535  30.580  25.950  1.00  0.00     0.275 C 
BRANCH  23  24
ATOM     24  O   UNL A   1      32.906  30.625  26.380  1.00  0.00    -0.458 OA
BRANCH  24  25
ATOM     25  C   UNL A   1      33.272  31.698  27.128  1.00  0.00     0.338 C 
ATOM     26  O   UNL A   1      32.593  32.674  27.389  1.00  0.00    -0.246 OA
BRANCH  25  27
ATOM     27  C   UNL A   1      34.561  31.380  27.785  1.00  0.00     0.060 A 
ATOM     28  C   UNL A   1      34.811  30.049  28.149  1.00  0.00     0.016 A 
ATOM     29  C   UNL A   1      35.553  32.353  27.952  1.00  0.00     0.016 A 
ATOM     30  C   UNL A   1      36.052  29.689  28.685  1.00  0.00     0.010 A 
ATOM     31  C   UNL A   1      36.785  31.996  28.499  1.00  0.00     0.010 A 
ATOM     32  C   UNL A   1      37.033  30.668  28.887  1.00  0.00    -0.014 A 
BRANCH  32  33
ATOM     33  C   UNL A   1      38.233  30.385  29.709  1.00  0.00     0.031 A 
ATOM     34  C   UNL A   1      39.224  29.394  29.172  1.00  0.00     0.074 A 
ATOM     35  C   UNL A   1      38.404  30.921  30.929  1.00  0.00     0.049 A 
ATOM     36  N   UNL A   1      40.268  28.860  29.749  1.00  0.00    -0.248 NA
ATOM     37  C   UNL A   1      38.988  28.928  27.796  1.00  0.00     0.031 C 
ATOM     38  C   UNL A   1      37.526  31.905  31.555  1.00  0.00     0.029 A 
ATOM     39  N   UNL A   1      39.371  30.677  31.873  1.00  0.00    -0.354 N 
ATOM     40  C   UNL A   1      40.805  27.988  28.814  1.00  0.00     0.074 A 
ATOM     41  C   UNL A   1      39.961  28.045  27.640  1.00  0.00     0.031 C 
ATOM     42  C   UNL A   1      37.977  32.160  32.797  1.00  0.00     0.029 A 
ATOM     43  C   UNL A   1      39.156  31.333  33.061  1.00  0.00     0.049 A 
ATOM     44  H   UNL A   1      40.144  30.090  31.715  1.00  0.00     0.167 HD
ATOM     45  C   UNL A   1      41.904  27.206  28.920  1.00  0.00     0.037 A 
ATOM     46  C   UNL A   1      39.819  31.247  34.231  1.00  0.00     0.037 A 
ATOM     47  C   UNL A   1      42.734  27.133  30.089  1.00  0.00     0.049 A 
ATOM     48  C   UNL A   1      41.009  30.328  34.350  1.00  0.00     0.074 A 
ATOM     49  C   UNL A   1      43.882  26.388  30.288  1.00  0.00     0.029 A 
ATOM     50  N   UNL A   1      42.491  27.824  31.267  1.00  0.00    -0.354 N 
ATOM     51  N   UNL A   1      41.539  29.537  33.449  1.00  0.00    -0.248 NA
ATOM     52  C   UNL A   1      41.693  30.289  35.653  1.00  0.00     0.031 C 
ATOM     53  C   UNL A   1      44.308  26.591  31.605  1.00  0.00     0.029 A 
ATOM     54  C   UNL A   1      43.454  27.501  32.209  1.00  0.00     0.049 A 
ATOM     55  H   UNL A   1      41.745  28.450  31.413  1.00  0.00     0.167 HD
ATOM     56  C   UNL A   1      42.629  28.931  34.061  1.00  0.00     0.074 A 
ATOM     57  C   UNL A   1      42.688  29.445  35.413  1.00  0.00     0.031 C 
ATOM     58  C   UNL A   1      43.507  28.034  33.546  1.00  0.00     0.037 A 
BRANCH  45  59
ATOM     59  C   UNL A   1      42.232  26.339  27.744  1.00  0.00     0.064 A 
ATOM     60  C   UNL A   1      41.617  25.091  27.554  1.00  0.00     0.173 A 
ATOM     61  C   UNL A   1      43.197  26.746  26.812  1.00  0.00     0.173 A 
ATOM     62  F   UNL A   1      40.705  24.648  28.434  1.00  0.00    -0.203 F 
ATOM     63  C   UNL A   1      41.984  24.268  26.494  1.00  0.00     0.198 A 
ATOM     64  C   UNL A   1      43.541  25.932  25.737  1.00  0.00     0.198 A 
ATOM     65  F   UNL A   1      43.817  27.928  26.952  1.00  0.00    -0.203 F 
ATOM     66  F   UNL A   1      41.431  23.053  26.369  1.00  0.00    -0.200 F 
ATOM     67  C   UNL A   1      42.943  24.689  25.586  1.00  0.00     0.200 A 
ATOM     68  F   UNL A   1      44.465  26.342  24.858  1.00  0.00    -0.200 F 
ATOM     69  F   UNL A   1      43.303  23.891  24.571  1.00  0.00    -0.200 F 
ENDBRANCH  45  59
BRANCH  46  70
ATOM     70  C   UNL A   1      39.361  32.047  35.397  1.00  0.00     0.064 A 
ATOM     71  C   UNL A   1      38.533  31.485  36.377  1.00  0.00     0.173 A 
ATOM     72  C   UNL A   1      39.738  33.389  35.550  1.00  0.00     0.173 A 
ATOM     73  F   UNL A   1      38.120  30.215  36.257  1.00  0.00    -0.203 F 
ATOM     74  C   UNL A   1      38.089  32.239  37.463  1.00  0.00     0.198 A 
ATOM     75  C   UNL A   1      39.313  34.135  36.647  1.00  0.00     0.198 A 
ATOM     76  F   UNL A   1      40.524  33.974  34.634  1.00  0.00    -0.203 F 
ATOM     77  F   UNL A   1      37.267  31.689  38.366  1.00  0.00    -0.200 F 
ATOM     78  C   UNL A   1      38.485  33.561  37.600  1.00  0.00     0.200 A 
ATOM     79  F   UNL A   1      39.701  35.411  36.778  1.00  0.00    -0.200 F 
ATOM     80  F   UNL A   1      38.061  34.284  38.645  1.00  0.00    -0.200 F 
ENDBRANCH  46  70
BRANCH  58  81
ATOM     81  C   UNL A   1      44.635  27.574  34.422  1.00  0.00     0.064 A 
ATOM     82  C   UNL A   1      44.545  26.403  35.187  1.00  0.00     0.173 A 
ATOM     83  C   UNL A   1      45.853  28.271  34.426  1.00  0.00     0.173 A 
ATOM     84  F   UNL A   1      43.398  25.708  35.226  1.00  0.00    -0.203 F 
ATOM     85  C   UNL A   1      45.633  25.949  35.930  1.00  0.00     0.198 A 
ATOM     86  C   UNL A   1      46.946  27.802  35.150  1.00  0.00     0.198 A 
ATOM     87  F   UNL A   1      45.993  29.393  33.704  1.00  0.00    -0.203 F 
ATOM     88  F   UNL A   1      45.519  24.839  36.673  1.00  0.00    -0.200 F 
ATOM     89  C   UNL A   1      46.834  26.642  35.902  1.00  0.00     0.200 A 
ATOM     90  F   UNL A   1      48.110  28.465  35.110  1.00  0.00    -0.200 F 
ATOM     91  F   UNL A   1      47.885  26.193  36.603  1.00  0.00    -0.200 F 
ENDBRANCH  58  81
ENDBRANCH  32  33
ENDBRANCH  25  27
ENDBRANCH  24  25
ENDBRANCH  23  24
ENDBRANCH   1  23
TORSDOF 15
ENDMDL
MODEL 2
REMARK VINA RESULT:     -12.6      3.417      9.002
REMARK SMILES O=C(Cc1ccc(OC[C@H]2Cc3ccccc3S2)cc1)OCCOC(=O)c1ccc(-c2c3nc(c(-c4c(F)c(F)c(F)c(F)c4F)c4ccc([nH]4)c(-c4c(F)c(F)c(F)c(F)c4F)c4nc(c(-c5c(F)c(F)c(F)c(F)c5F)c5ccc2[nH]5)C=C4)C=C3)cc1
REMARK SMILES IDX 22 1 21 2 2 3 1 4 3 5 4 6 5 7 20 8 6 9 19 10 7 11 8 12 9 13
REMARK SMILES IDX 10 14 11 15 18 16 12 17 17 18 13 19 16 20 14 21 15 22 23 23
REMARK SMILES IDX 24 24 25 25 26 26 27 27 28 28 89 29 29 30 88 31 30 32 31 33
REMARK SMILES IDX 32 34 82 35 33 36 87 37 81 38 83 39 34 40 86 41 80 42 79 43
REMARK SMILES IDX 35 45 67 46 47 47 66 48 48 49 51 50 65 51 84 52 49 53 50 54
REMARK SMILES IDX 64 56 85 57 52 58 36 59 37 60 45 61 38 62 39 63 43 64 46 65
REMARK SMILES IDX 40 66 41 67 44 68 42 69 68 70 69 71 77 72 70 73 71 74 75 75
REMARK SMILES IDX 78 76 72 77 73 78 76 79 74 80 53 81 54 82 62 83 55 84 56 85
REMARK SMILES IDX 60 86 63 87 57 88 58 89 61 90 59 91
REMARK H PARENT 83 44 51 55
REMARK Flexibility Score: inf
ROOT
ATOM      1  C   UNL A   1      32.967  35.233  28.945  1.00  0.00     0.274 C 
ENDROOT
BRANCH   1   2
ATOM      2  O   UNL A   1      34.253  34.575  28.979  1.00  0.00    -0.462 OA
BRANCH   2   3
ATOM      3  C   UNL A   1      34.453  33.249  29.148  1.00  0.00     0.310 C 
ATOM      4  O   UNL A   1      34.028  32.687  30.158  1.00  0.00    -0.252 OA
BRANCH   3   5
ATOM      5  C   UNL A   1      35.178  32.464  28.078  1.00  0.00     0.158 C 
BRANCH   5   6
ATOM      6  C   UNL A   1      34.463  31.233  27.599  1.00  0.00    -0.037 A 
ATOM      7  C   UNL A   1      35.095  29.980  27.620  1.00  0.00     0.008 A 
ATOM      8  C   UNL A   1      33.118  31.317  27.227  1.00  0.00     0.008 A 
ATOM      9  C   UNL A   1      34.410  28.836  27.206  1.00  0.00     0.047 A 
ATOM     10  C   UNL A   1      32.428  30.171  26.859  1.00  0.00     0.047 A 
ATOM     11  C   UNL A   1      33.087  28.948  26.791  1.00  0.00     0.119 A 
BRANCH  11  12
ATOM     12  O   UNL A   1      32.388  27.838  26.408  1.00  0.00    -0.492 OA
BRANCH  12  13
ATOM     13  C   UNL A   1      32.995  27.160  25.286  1.00  0.00     0.244 C 
BRANCH  13  14
ATOM     14  C   UNL A   1      32.147  27.243  24.002  1.00  0.00     0.094 C 
ATOM     15  C   UNL A   1      30.647  26.975  24.275  1.00  0.00     0.055 C 
ATOM     16  S   UNL A   1      32.279  28.865  23.160  1.00  0.00    -0.119 SA
ATOM     17  C   UNL A   1      29.825  27.980  23.531  1.00  0.00    -0.033 A 
ATOM     18  C   UNL A   1      30.546  28.954  22.849  1.00  0.00     0.011 A 
ATOM     19  C   UNL A   1      28.433  27.987  23.501  1.00  0.00     0.005 A 
ATOM     20  C   UNL A   1      29.905  29.896  22.059  1.00  0.00     0.015 A 
ATOM     21  C   UNL A   1      27.776  28.954  22.738  1.00  0.00     0.000 A 
ATOM     22  C   UNL A   1      28.509  29.889  22.000  1.00  0.00     0.001 A 
ENDBRANCH  13  14
ENDBRANCH  12  13
ENDBRANCH  11  12
ENDBRANCH   5   6
ENDBRANCH   3   5
ENDBRANCH   2   3
ENDBRANCH   1   2
BRANCH   1  23
ATOM     23  C   UNL A   1      32.903  36.361  29.978  1.00  0.00     0.275 C 
BRANCH  23  24
ATOM     24  O   UNL A   1      32.180  35.913  31.138  1.00  0.00    -0.458 OA
BRANCH  24  25
ATOM     25  C   UNL A   1      32.731  36.204  32.345  1.00  0.00     0.338 C 
ATOM     26  O   UNL A   1      32.279  36.948  33.195  1.00  0.00    -0.246 OA
BRANCH  25  27
ATOM     27  C   UNL A   1      33.865  35.276  32.567  1.00  0.00     0.060 A 
ATOM     28  C   UNL A   1      33.596  34.018  33.123  1.00  0.00     0.016 A 
ATOM     29  C   UNL A   1      35.160  35.596  32.144  1.00  0.00     0.016 A 
ATOM     30  C   UNL A   1      34.621  33.078  33.262  1.00  0.00     0.010 A 
ATOM     31  C   UNL A   1      36.185  34.663  32.295  1.00  0.00     0.010 A 
ATOM     32  C   UNL A   1      35.926  33.408  32.873  1.00  0.00    -0.014 A 
BRANCH  32  33
ATOM     33  C   UNL A   1      37.075  32.561  33.267  1.00  0.00     0.031 A 
ATOM     34  C   UNL A   1      37.763  32.882  34.562  1.00  0.00     0.074 A 
ATOM     35  C   UNL A   1      37.553  31.591  32.469  1.00  0.00     0.049 A 
ATOM     36  N   UNL A   1      38.871  32.401  35.062  1.00  0.00    -0.248 NA
ATOM     37  C   UNL A   1      37.115  33.905  35.399  1.00  0.00     0.031 C 
ATOM     38  C   UNL A   1      36.968  31.172  31.199  1.00  0.00     0.029 A 
ATOM     39  N   UNL A   1      38.670  30.804  32.606  1.00  0.00    -0.354 N 
ATOM     40  C   UNL A   1      39.059  33.070  36.262  1.00  0.00     0.074 A 
ATOM     41  C   UNL A   1      37.966  34.007  36.406  1.00  0.00     0.031 C 
ATOM     42  C   UNL A   1      37.751  30.222  30.654  1.00  0.00     0.029 A 
ATOM     43  C   UNL A   1      38.906  29.993  31.524  1.00  0.00     0.049 A 
ATOM     44  H   UNL A   1      39.247  30.820  33.404  1.00  0.00     0.167 HD
ATOM     45  C   UNL A   1      40.053  32.921  37.166  1.00  0.00     0.037 A 
ATOM     46  C   UNL A   1      39.951  29.185  31.257  1.00  0.00     0.037 A 
ATOM     47  C   UNL A   1      41.150  32.005  37.018  1.00  0.00     0.049 A 
ATOM     48  C   UNL A   1      41.081  29.072  32.251  1.00  0.00     0.074 A 
ATOM     49  C   UNL A   1      42.197  31.763  37.888  1.00  0.00     0.029 A 
ATOM     50  N   UNL A   1      41.346  31.189  35.913  1.00  0.00    -0.354 N 
ATOM     51  N   UNL A   1      41.233  29.674  33.405  1.00  0.00    -0.248 NA
ATOM     52  C   UNL A   1      42.186  28.165  31.902  1.00  0.00     0.031 C 
ATOM     53  C   UNL A   1      43.054  30.835  37.288  1.00  0.00     0.029 A 
ATOM     54  C   UNL A   1      42.514  30.462  36.067  1.00  0.00     0.049 A 
ATOM     55  H   UNL A   1      40.745  31.136  35.135  1.00  0.00     0.167 HD
ATOM     56  C   UNL A   1      42.429  29.202  33.931  1.00  0.00     0.074 A 
ATOM     57  C   UNL A   1      42.965  28.260  32.971  1.00  0.00     0.031 C 
ATOM     58  C   UNL A   1      43.026  29.516  35.108  1.00  0.00     0.037 A 
BRANCH  45  59
ATOM     59  C   UNL A   1      40.010  33.808  38.372  1.00  0.00     0.064 A 
ATOM     60  C   UNL A   1      39.248  33.476  39.503  1.00  0.00     0.173 A 
ATOM     61  C   UNL A   1      40.713  35.021  38.384  1.00  0.00     0.173 A 
ATOM     62  F   UNL A   1      38.538  32.337  39.528  1.00  0.00    -0.203 F 
ATOM     63  C   UNL A   1      39.164  34.344  40.587  1.00  0.00     0.198 A 
ATOM     64  C   UNL A   1      40.648  35.873  39.482  1.00  0.00     0.198 A 
ATOM     65  F   UNL A   1      41.452  35.385  37.325  1.00  0.00    -0.203 F 
ATOM     66  F   UNL A   1      38.379  34.037  41.630  1.00  0.00    -0.200 F 
ATOM     67  C   UNL A   1      39.865  35.540  40.577  1.00  0.00     0.200 A 
ATOM     68  F   UNL A   1      41.330  37.027  39.472  1.00  0.00    -0.200 F 
ATOM     69  F   UNL A   1      39.775  36.381  41.617  1.00  0.00    -0.200 F 
ENDBRANCH  45  59
BRANCH  46  70
ATOM     70  C   UNL A   1      39.988  28.426  29.981  1.00  0.00     0.064 A 
ATOM     71  C   UNL A   1      40.598  28.961  28.838  1.00  0.00     0.173 A 
ATOM     72  C   UNL A   1      39.408  27.153  29.875  1.00  0.00     0.173 A 
ATOM     73  F   UNL A   1      41.138  30.189  28.883  1.00  0.00    -0.203 F 
ATOM     74  C   UNL A   1      40.619  28.257  27.636  1.00  0.00     0.198 A 
ATOM     75  C   UNL A   1      39.450  26.440  28.679  1.00  0.00     0.198 A 
ATOM     76  F   UNL A   1      38.805  26.600  30.938  1.00  0.00    -0.203 F 
ATOM     77  F   UNL A   1      41.175  28.808  26.549  1.00  0.00    -0.200 F 
ATOM     78  C   UNL A   1      40.050  26.995  27.559  1.00  0.00     0.200 A 
ATOM     79  F   UNL A   1      38.903  25.219  28.610  1.00  0.00    -0.200 F 
ATOM     80  F   UNL A   1      40.073  26.317  26.404  1.00  0.00    -0.200 F 
ENDBRANCH  46  70
BRANCH  58  81
ATOM     81  C   UNL A   1      44.304  28.812  35.456  1.00  0.00     0.064 A 
ATOM     82  C   UNL A   1      44.309  27.585  36.135  1.00  0.00     0.173 A 
ATOM     83  C   UNL A   1      45.535  29.331  35.026  1.00  0.00     0.173 A 
ATOM     84  F   UNL A   1      43.160  27.054  36.578  1.00  0.00    -0.203 F 
ATOM     85  C   UNL A   1      45.502  26.907  36.378  1.00  0.00     0.198 A 
ATOM     86  C   UNL A   1      46.722  28.639  35.247  1.00  0.00     0.198 A 
ATOM     87  F   UNL A   1      45.583  30.497  34.365  1.00  0.00    -0.203 F 
ATOM     88  F   UNL A   1      45.487  25.748  37.049  1.00  0.00    -0.200 F 
ATOM     89  C   UNL A   1      46.705  27.429  35.924  1.00  0.00     0.200 A 
ATOM     90  F   UNL A   1      47.881  29.137  34.795  1.00  0.00    -0.200 F 
ATOM     91  F   UNL A   1      47.849  26.765  36.141  1.00  0.00    -0.200 F 
ENDBRANCH  58  81
ENDBRANCH  32  33
ENDBRANCH  25  27
ENDBRANCH  24  25
ENDBRANCH  23  24
ENDBRANCH   1  23
TORSDOF 15
ENDMDL
MODEL 3
REMARK VINA RESULT:     -12.5      3.127      8.589
REMARK SMILES O=C(Cc1ccc(OC[C@H]2Cc3ccccc3S2)cc1)OCCOC(=O)c1ccc(-c2c3nc(c(-c4c(F)c(F)c(F)c(F)c4F)c4ccc([nH]4)c(-c4c(F)c(F)c(F)c(F)c4F)c4nc(c(-c5c(F)c(F)c(F)c(F)c5F)c5ccc2[nH]5)C=C4)C=C3)cc1
REMARK SMILES IDX 22 1 21 2 2 3 1 4 3 5 4 6 5 7 20 8 6 9 19 10 7 11 8 12 9 13
REMARK SMILES IDX 10 14 11 15 18 16 12 17 17 18 13 19 16 20 14 21 15 22 23 23
REMARK SMILES IDX 24 24 25 25 26 26 27 27 28 28 89 29 29 30 88 31 30 32 31 33
REMARK SMILES IDX 32 34 82 35 33 36 87 37 81 38 83 39 34 40 86 41 80 42 79 43
REMARK SMILES IDX 35 45 67 46 47 47 66 48 48 49 51 50 65 51 84 52 49 53 50 54
REMARK SMILES IDX 64 56 85 57 52 58 36 59 37 60 45 61 38 62 39 63 43 64 46 65
REMARK SMILES IDX 40 66 41 67 44 68 42 69 68 70 69 71 77 72 70 73 71 74 75 75
REMARK SMILES IDX 78 76 72 77 73 78 76 79 74 80 53 81 54 82 62 83 55 84 56 85
REMARK SMILES IDX 60 86 63 87 57 88 58 89 61 90 59 91
REMARK H PARENT 83 44 51 55
REMARK Flexibility Score: inf
ROOT
ATOM      1  C   UNL A   1      41.195  20.918  26.907  1.00  0.00     0.274 C 
ENDROOT
BRANCH   1   2
ATOM      2  O   UNL A   1      40.094  20.443  26.103  1.00  0.00    -0.462 OA
BRANCH   2   3
ATOM      3  C   UNL A   1      38.974  21.143  25.812  1.00  0.00     0.310 C 
ATOM      4  O   UNL A   1      38.848  22.299  26.219  1.00  0.00    -0.252 OA
BRANCH   3   5
ATOM      5  C   UNL A   1      37.896  20.504  24.966  1.00  0.00     0.158 C 
BRANCH   5   6
ATOM      6  C   UNL A   1      36.673  21.348  24.753  1.00  0.00    -0.037 A 
ATOM      7  C   UNL A   1      36.655  22.354  23.774  1.00  0.00     0.008 A 
ATOM      8  C   UNL A   1      35.503  21.061  25.463  1.00  0.00     0.008 A 
ATOM      9  C   UNL A   1      35.501  23.110  23.559  1.00  0.00     0.047 A 
ATOM     10  C   UNL A   1      34.346  21.784  25.215  1.00  0.00     0.047 A 
ATOM     11  C   UNL A   1      34.362  22.843  24.312  1.00  0.00     0.119 A 
BRANCH  11  12
ATOM     12  O   UNL A   1      33.213  23.551  24.099  1.00  0.00    -0.492 OA
BRANCH  12  13
ATOM     13  C   UNL A   1      32.283  23.443  25.199  1.00  0.00     0.244 C 
BRANCH  13  14
ATOM     14  C   UNL A   1      31.266  24.600  25.243  1.00  0.00     0.094 C 
ATOM     15  C   UNL A   1      31.751  25.771  26.129  1.00  0.00     0.055 C 
ATOM     16  S   UNL A   1      30.880  25.278  23.585  1.00  0.00    -0.119 SA
ATOM     17  C   UNL A   1      31.484  27.065  25.425  1.00  0.00    -0.033 A 
ATOM     18  C   UNL A   1      30.958  26.948  24.143  1.00  0.00     0.011 A 
ATOM     19  C   UNL A   1      31.737  28.321  25.969  1.00  0.00     0.005 A 
ATOM     20  C   UNL A   1      30.594  28.071  23.416  1.00  0.00     0.015 A 
ATOM     21  C   UNL A   1      31.409  29.458  25.230  1.00  0.00     0.000 A 
ATOM     22  C   UNL A   1      30.817  29.334  23.969  1.00  0.00     0.001 A 
ENDBRANCH  13  14
ENDBRANCH  12  13
ENDBRANCH  11  12
ENDBRANCH   5   6
ENDBRANCH   3   5
ENDBRANCH   2   3
ENDBRANCH   1   2
BRANCH   1  23
ATOM     23  C   UNL A   1      42.369  21.354  26.025  1.00  0.00     0.275 C 
BRANCH  23  24
ATOM     24  O   UNL A   1      42.041  22.586  25.361  1.00  0.00    -0.458 OA
BRANCH  24  25
ATOM     25  C   UNL A   1      42.990  23.558  25.385  1.00  0.00     0.338 C 
ATOM     26  O   UNL A   1      43.947  23.665  24.641  1.00  0.00    -0.246 OA
BRANCH  25  27
ATOM     27  C   UNL A   1      42.538  24.616  26.319  1.00  0.00     0.060 A 
ATOM     28  C   UNL A   1      43.287  25.799  26.397  1.00  0.00     0.016 A 
ATOM     29  C   UNL A   1      41.342  24.493  27.034  1.00  0.00     0.016 A 
ATOM     30  C   UNL A   1      42.844  26.859  27.194  1.00  0.00     0.010 A 
ATOM     31  C   UNL A   1      40.908  25.545  27.840  1.00  0.00     0.010 A 
ATOM     32  C   UNL A   1      41.666  26.724  27.941  1.00  0.00    -0.014 A 
BRANCH  32  33
ATOM     33  C   UNL A   1      41.324  27.695  29.005  1.00  0.00     0.031 A 
ATOM     34  C   UNL A   1      42.098  27.620  30.289  1.00  0.00     0.074 A 
ATOM     35  C   UNL A   1      40.306  28.563  28.877  1.00  0.00     0.049 A 
ATOM     36  N   UNL A   1      41.901  28.244  31.420  1.00  0.00    -0.248 NA
ATOM     37  C   UNL A   1      43.242  26.694  30.298  1.00  0.00     0.031 C 
ATOM     38  C   UNL A   1      39.491  28.746  27.680  1.00  0.00     0.029 A 
ATOM     39  N   UNL A   1      39.767  29.435  29.793  1.00  0.00    -0.354 N 
ATOM     40  C   UNL A   1      42.887  27.778  32.278  1.00  0.00     0.074 A 
ATOM     41  C   UNL A   1      43.665  26.802  31.546  1.00  0.00     0.031 C 
ATOM     42  C   UNL A   1      38.531  29.653  27.944  1.00  0.00     0.029 A 
ATOM     43  C   UNL A   1      38.649  30.087  29.336  1.00  0.00     0.049 A 
ATOM     44  H   UNL A   1      40.147  29.578  30.689  1.00  0.00     0.167 HD
ATOM     45  C   UNL A   1      43.124  28.128  33.562  1.00  0.00     0.037 A 
ATOM     46  C   UNL A   1      37.803  30.914  29.983  1.00  0.00     0.037 A 
ATOM     47  C   UNL A   1      42.342  29.081  34.298  1.00  0.00     0.049 A 
ATOM     48  C   UNL A   1      38.050  31.251  31.433  1.00  0.00     0.074 A 
ATOM     49  C   UNL A   1      42.515  29.522  35.597  1.00  0.00     0.029 A 
ATOM     50  N   UNL A   1      41.225  29.732  33.797  1.00  0.00    -0.354 N 
ATOM     51  N   UNL A   1      39.008  30.840  32.228  1.00  0.00    -0.248 NA
ATOM     52  C   UNL A   1      37.094  32.166  32.077  1.00  0.00     0.031 C 
ATOM     53  C   UNL A   1      41.472  30.404  35.900  1.00  0.00     0.029 A 
ATOM     54  C   UNL A   1      40.679  30.551  34.772  1.00  0.00     0.049 A 
ATOM     55  H   UNL A   1      40.871  29.628  32.884  1.00  0.00     0.167 HD
ATOM     56  C   UNL A   1      38.790  31.465  33.449  1.00  0.00     0.074 A 
ATOM     57  C   UNL A   1      37.607  32.285  33.293  1.00  0.00     0.031 C 
ATOM     58  C   UNL A   1      39.510  31.373  34.595  1.00  0.00     0.037 A 
BRANCH  45  59
ATOM     59  C   UNL A   1      44.255  27.432  34.255  1.00  0.00     0.064 A 
ATOM     60  C   UNL A   1      45.558  27.956  34.245  1.00  0.00     0.173 A 
ATOM     61  C   UNL A   1      44.041  26.210  34.908  1.00  0.00     0.173 A 
ATOM     62  F   UNL A   1      45.817  29.109  33.611  1.00  0.00    -0.203 F 
ATOM     63  C   UNL A   1      46.610  27.261  34.834  1.00  0.00     0.198 A 
ATOM     64  C   UNL A   1      45.091  25.534  35.521  1.00  0.00     0.198 A 
ATOM     65  F   UNL A   1      42.815  25.667  34.941  1.00  0.00    -0.203 F 
ATOM     66  F   UNL A   1      47.857  27.748  34.758  1.00  0.00    -0.200 F 
ATOM     67  C   UNL A   1      46.376  26.053  35.473  1.00  0.00     0.200 A 
ATOM     68  F   UNL A   1      44.862  24.368  36.141  1.00  0.00    -0.200 F 
ATOM     69  F   UNL A   1      47.393  25.381  36.031  1.00  0.00    -0.200 F 
ENDBRANCH  45  59
BRANCH  46  70
ATOM     70  C   UNL A   1      36.627  31.472  29.267  1.00  0.00     0.064 A 
ATOM     71  C   UNL A   1      35.531  30.664  28.937  1.00  0.00     0.173 A 
ATOM     72  C   UNL A   1      36.579  32.822  28.892  1.00  0.00     0.173 A 
ATOM     73  F   UNL A   1      35.546  29.359  29.247  1.00  0.00    -0.203 F 
ATOM     74  C   UNL A   1      34.435  31.183  28.250  1.00  0.00     0.198 A 
ATOM     75  C   UNL A   1      35.473  33.346  28.226  1.00  0.00     0.198 A 
ATOM     76  F   UNL A   1      37.607  33.635  29.178  1.00  0.00    -0.203 F 
ATOM     77  F   UNL A   1      33.417  30.380  27.914  1.00  0.00    -0.200 F 
ATOM     78  C   UNL A   1      34.404  32.524  27.901  1.00  0.00     0.200 A 
ATOM     79  F   UNL A   1      35.446  34.644  27.894  1.00  0.00    -0.200 F 
ATOM     80  F   UNL A   1      33.349  33.024  27.244  1.00  0.00    -0.200 F 
ENDBRANCH  46  70
BRANCH  58  81
ATOM     81  C   UNL A   1      39.075  32.205  35.766  1.00  0.00     0.064 A 
ATOM     82  C   UNL A   1      38.265  31.681  36.783  1.00  0.00     0.173 A 
ATOM     83  C   UNL A   1      39.549  33.518  35.912  1.00  0.00     0.173 A 
ATOM     84  F   UNL A   1      37.777  30.435  36.683  1.00  0.00    -0.203 F 
ATOM     85  C   UNL A   1      37.939  32.444  37.902  1.00  0.00     0.198 A 
ATOM     86  C   UNL A   1      39.243  34.269  37.043  1.00  0.00     0.198 A 
ATOM     87  F   UNL A   1      40.334  34.062  34.971  1.00  0.00    -0.203 F 
ATOM     88  F   UNL A   1      37.144  31.933  38.852  1.00  0.00    -0.200 F 
ATOM     89  C   UNL A   1      38.437  33.732  38.036  1.00  0.00     0.200 A 
ATOM     90  F   UNL A   1      39.736  35.508  37.178  1.00  0.00    -0.200 F 
ATOM     91  F   UNL A   1      38.138  34.458  39.123  1.00  0.00    -0.200 F 
ENDBRANCH  58  81
ENDBRANCH  32  33
ENDBRANCH  25  27
ENDBRANCH  24  25
ENDBRANCH  23  24
ENDBRANCH   1  23
TORSDOF 15
ENDMDL
