MODEL 1
REMARK VINA RESULT:     -11.4      0.000      0.000
REMARK SMILES O=C(OCCOC(=O)c1cc(-c2ccn(C(F)F)c(=O)c2)ccc1O)c1ccc(-c2c3nc(c(-c4c(F)c(F)c(F)c(F)c4F)c4ccc([nH]4)c(-c4c(F)c(F)c(F)c(F)c4F)c4nc(c(-c5c(F)c(F)c(F)c(F)c5F)c5ccc2[nH]5)C=C4)C=C3)cc1
REMARK SMILES IDX 4 1 3 2 2 3 1 4 26 5 27 6 88 7 28 8 87 9 29 10 30 11 31 12
REMARK SMILES IDX 81 13 32 14 86 15 80 16 82 17 33 18 85 19 79 20 78 21 34 23
REMARK SMILES IDX 66 24 46 25 65 26 47 27 50 28 64 29 83 30 48 31 49 32 63 34
REMARK SMILES IDX 84 35 51 36 35 37 36 38 44 39 37 40 38 41 42 42 45 43 39 44
REMARK SMILES IDX 40 45 43 46 41 47 67 48 68 49 76 50 69 51 70 52 74 53 77 54
REMARK SMILES IDX 71 55 72 56 75 57 73 58 52 59 53 60 61 61 54 62 55 63 59 64
REMARK SMILES IDX 62 65 56 66 57 67 60 68 58 69 5 70 6 71 7 72 8 73 9 74 10 75
REMARK SMILES IDX 24 76 11 77 23 78 22 79 25 80 12 82 13 83 21 84 14 85 19 86
REMARK SMILES IDX 15 87 20 88 16 89 17 90 18 91
REMARK H PARENT 82 22 50 33 25 81
REMARK Flexibility Score: inf
ROOT
ATOM      1  C   UNL A   1      40.500  21.090  26.878  1.00  0.00     0.275 C 
ENDROOT
BRANCH   1   2
ATOM      2  O   UNL A   1      39.820  21.976  25.980  1.00  0.00    -0.458 OA
BRANCH   2   3
ATOM      3  C   UNL A   1      39.006  23.016  26.272  1.00  0.00     0.338 C 
ATOM      4  O   UNL A   1      37.834  22.978  25.906  1.00  0.00    -0.246 OA
BRANCH   3   5
ATOM      5  C   UNL A   1      39.515  24.303  26.840  1.00  0.00     0.060 A 
ATOM      6  C   UNL A   1      39.192  24.525  28.183  1.00  0.00     0.016 A 
ATOM      7  C   UNL A   1      40.277  25.275  26.191  1.00  0.00     0.016 A 
ATOM      8  C   UNL A   1      39.493  25.731  28.820  1.00  0.00     0.010 A 
ATOM      9  C   UNL A   1      40.625  26.474  26.841  1.00  0.00     0.010 A 
ATOM     10  C   UNL A   1      40.216  26.724  28.154  1.00  0.00    -0.014 A 
BRANCH  10  11
ATOM     11  C   UNL A   1      40.675  27.928  28.894  1.00  0.00     0.031 A 
ATOM     12  C   UNL A   1      42.080  28.081  29.400  1.00  0.00     0.074 A 
ATOM     13  C   UNL A   1      39.789  28.923  29.087  1.00  0.00     0.049 A 
ATOM     14  N   UNL A   1      42.668  29.146  29.888  1.00  0.00    -0.248 NA
ATOM     15  C   UNL A   1      42.954  26.907  29.324  1.00  0.00     0.031 C 
ATOM     16  C   UNL A   1      38.398  28.906  28.634  1.00  0.00     0.029 A 
ATOM     17  N   UNL A   1      39.925  30.135  29.710  1.00  0.00    -0.354 N 
ATOM     18  C   UNL A   1      44.003  28.801  30.057  1.00  0.00     0.074 A 
ATOM     19  C   UNL A   1      44.126  27.406  29.697  1.00  0.00     0.031 C 
ATOM     20  C   UNL A   1      37.812  30.059  28.979  1.00  0.00     0.029 A 
ATOM     21  C   UNL A   1      38.764  30.864  29.733  1.00  0.00     0.049 A 
ATOM     22  H   UNL A   1      40.771  30.451  30.101  1.00  0.00     0.167 HD
ATOM     23  C   UNL A   1      45.031  29.581  30.467  1.00  0.00     0.037 A 
ATOM     24  C   UNL A   1      38.484  32.037  30.329  1.00  0.00     0.037 A 
ATOM     25  C   UNL A   1      44.862  30.893  31.039  1.00  0.00     0.049 A 
ATOM     26  C   UNL A   1      39.574  32.752  31.065  1.00  0.00     0.074 A 
ATOM     27  C   UNL A   1      45.814  31.724  31.602  1.00  0.00     0.029 A 
ATOM     28  N   UNL A   1      43.637  31.527  31.194  1.00  0.00    -0.354 N 
ATOM     29  N   UNL A   1      40.849  32.456  31.139  1.00  0.00    -0.248 NA
ATOM     30  C   UNL A   1      39.187  33.952  31.813  1.00  0.00     0.031 C 
ATOM     31  C   UNL A   1      45.151  32.813  32.183  1.00  0.00     0.029 A 
ATOM     32  C   UNL A   1      43.795  32.697  31.918  1.00  0.00     0.049 A 
ATOM     33  H   UNL A   1      42.781  31.194  30.839  1.00  0.00     0.167 HD
ATOM     34  C   UNL A   1      41.423  33.439  31.930  1.00  0.00     0.074 A 
ATOM     35  C   UNL A   1      40.355  34.348  32.301  1.00  0.00     0.031 C 
ATOM     36  C   UNL A   1      42.718  33.574  32.310  1.00  0.00     0.037 A 
BRANCH  23  37
ATOM     37  C   UNL A   1      46.417  29.015  30.356  1.00  0.00     0.064 A 
ATOM     38  C   UNL A   1      47.200  29.256  29.215  1.00  0.00     0.173 A 
ATOM     39  C   UNL A   1      46.988  28.272  31.397  1.00  0.00     0.173 A 
ATOM     40  F   UNL A   1      46.697  29.953  28.185  1.00  0.00    -0.203 F 
ATOM     41  C   UNL A   1      48.502  28.767  29.121  1.00  0.00     0.198 A 
ATOM     42  C   UNL A   1      48.295  27.797  31.306  1.00  0.00     0.198 A 
ATOM     43  F   UNL A   1      46.282  28.013  32.507  1.00  0.00    -0.203 F 
ATOM     44  F   UNL A   1      49.225  28.995  28.016  1.00  0.00    -0.200 F 
ATOM     45  C   UNL A   1      49.050  28.042  30.168  1.00  0.00     0.200 A 
ATOM     46  F   UNL A   1      48.824  27.099  32.321  1.00  0.00    -0.200 F 
ATOM     47  F   UNL A   1      50.304  27.576  30.080  1.00  0.00    -0.200 F 
ENDBRANCH  23  37
BRANCH  24  48
ATOM     48  C   UNL A   1      37.098  32.560  30.249  1.00  0.00     0.064 A 
ATOM     49  C   UNL A   1      36.173  32.308  31.268  1.00  0.00     0.173 A 
ATOM     50  C   UNL A   1      36.709  33.413  29.203  1.00  0.00     0.173 A 
ATOM     51  F   UNL A   1      36.494  31.482  32.274  1.00  0.00    -0.203 F 
ATOM     52  C   UNL A   1      34.916  32.910  31.257  1.00  0.00     0.198 A 
ATOM     53  C   UNL A   1      35.463  34.036  29.209  1.00  0.00     0.198 A 
ATOM     54  F   UNL A   1      37.562  33.685  28.204  1.00  0.00    -0.203 F 
ATOM     55  F   UNL A   1      34.044  32.651  32.241  1.00  0.00    -0.200 F 
ATOM     56  C   UNL A   1      34.569  33.786  30.238  1.00  0.00     0.200 A 
ATOM     57  F   UNL A   1      35.143  34.896  28.233  1.00  0.00    -0.200 F 
ATOM     58  F   UNL A   1      33.374  34.391  30.248  1.00  0.00    -0.200 F 
ENDBRANCH  24  48
BRANCH  36  59
ATOM     59  C   UNL A   1      43.050  34.745  33.187  1.00  0.00     0.064 A 
ATOM     60  C   UNL A   1      43.052  34.633  34.585  1.00  0.00     0.173 A 
ATOM     61  C   UNL A   1      43.398  35.982  32.625  1.00  0.00     0.173 A 
ATOM     62  F   UNL A   1      42.711  33.475  35.170  1.00  0.00    -0.203 F 
ATOM     63  C   UNL A   1      43.366  35.725  35.389  1.00  0.00     0.198 A 
ATOM     64  C   UNL A   1      43.742  37.062  33.431  1.00  0.00     0.198 A 
ATOM     65  F   UNL A   1      43.418  36.139  31.293  1.00  0.00    -0.203 F 
ATOM     66  F   UNL A   1      43.313  35.609  36.723  1.00  0.00    -0.200 F 
ATOM     67  C   UNL A   1      43.717  36.936  34.812  1.00  0.00     0.200 A 
ATOM     68  F   UNL A   1      44.096  38.228  32.872  1.00  0.00    -0.200 F 
ATOM     69  F   UNL A   1      44.025  37.985  35.588  1.00  0.00    -0.200 F 
ENDBRANCH  36  59
ENDBRANCH  10  11
ENDBRANCH   3   5
ENDBRANCH   2   3
ENDBRANCH   1   2
BRANCH   1  70
ATOM     70  C   UNL A   1      40.778  19.695  26.312  1.00  0.00     0.275 C 
BRANCH  70  71
ATOM     71  O   UNL A   1      41.809  19.655  25.310  1.00  0.00    -0.458 OA
BRANCH  71  72
ATOM     72  C   UNL A   1      42.984  19.075  25.702  1.00  0.00     0.342 C 
ATOM     73  O   UNL A   1      43.120  17.969  26.177  1.00  0.00    -0.246 OA
BRANCH  72  74
ATOM     74  C   UNL A   1      44.109  19.990  25.393  1.00  0.00     0.102 A 
ATOM     75  C   UNL A   1      43.917  21.371  25.604  1.00  0.00     0.028 A 
ATOM     76  C   UNL A   1      45.341  19.525  24.924  1.00  0.00     0.130 A 
ATOM     77  C   UNL A   1      44.974  22.276  25.412  1.00  0.00    -0.017 A 
ATOM     78  C   UNL A   1      46.373  20.424  24.673  1.00  0.00     0.048 A 
ATOM     79  C   UNL A   1      46.201  21.782  24.941  1.00  0.00     0.012 A 
BRANCH  76  80
ATOM     80  O   UNL A   1      45.622  18.205  24.696  1.00  0.00    -0.507 OA
ATOM     81  H   UNL A   1      46.496  17.887  24.805  1.00  0.00     0.293 HD
ENDBRANCH  76  80
BRANCH  77  82
ATOM     82  C   UNL A   1      44.876  23.720  25.731  1.00  0.00    -0.011 A 
ATOM     83  C   UNL A   1      43.938  24.606  25.062  1.00  0.00     0.027 A 
ATOM     84  C   UNL A   1      45.755  24.268  26.588  1.00  0.00     0.080 A 
ATOM     85  C   UNL A   1      43.974  25.929  25.269  1.00  0.00     0.095 A 
ATOM     86  C   UNL A   1      45.822  25.736  26.821  1.00  0.00     0.255 A 
ATOM     87  N   UNL A   1      44.895  26.494  26.131  1.00  0.00    -0.258 N 
ATOM     88  O   UNL A   1      46.691  26.169  27.572  1.00  0.00    -0.269 OA
BRANCH  87  89
ATOM     89  C   UNL A   1      44.954  27.920  26.318  1.00  0.00     0.451 C 
ATOM     90  F   UNL A   1      45.663  28.516  25.329  1.00  0.00    -0.185 F 
ATOM     91  F   UNL A   1      43.710  28.458  26.326  1.00  0.00    -0.185 F 
ENDBRANCH  87  89
ENDBRANCH  77  82
ENDBRANCH  72  74
ENDBRANCH  71  72
ENDBRANCH  70  71
ENDBRANCH   1  70
TORSDOF 14
ENDMDL
MODEL 2
REMARK VINA RESULT:     -11.3      4.269     11.823
REMARK SMILES O=C(OCCOC(=O)c1cc(-c2ccn(C(F)F)c(=O)c2)ccc1O)c1ccc(-c2c3nc(c(-c4c(F)c(F)c(F)c(F)c4F)c4ccc([nH]4)c(-c4c(F)c(F)c(F)c(F)c4F)c4nc(c(-c5c(F)c(F)c(F)c(F)c5F)c5ccc2[nH]5)C=C4)C=C3)cc1
REMARK SMILES IDX 4 1 3 2 2 3 1 4 26 5 27 6 88 7 28 8 87 9 29 10 30 11 31 12
REMARK SMILES IDX 81 13 32 14 86 15 80 16 82 17 33 18 85 19 79 20 78 21 34 23
REMARK SMILES IDX 66 24 46 25 65 26 47 27 50 28 64 29 83 30 48 31 49 32 63 34
REMARK SMILES IDX 84 35 51 36 35 37 36 38 44 39 37 40 38 41 42 42 45 43 39 44
REMARK SMILES IDX 40 45 43 46 41 47 67 48 68 49 76 50 69 51 70 52 74 53 77 54
REMARK SMILES IDX 71 55 72 56 75 57 73 58 52 59 53 60 61 61 54 62 55 63 59 64
REMARK SMILES IDX 62 65 56 66 57 67 60 68 58 69 5 70 6 71 7 72 8 73 9 74 10 75
REMARK SMILES IDX 24 76 11 77 23 78 22 79 25 80 12 82 13 83 21 84 14 85 19 86
REMARK SMILES IDX 15 87 20 88 16 89 17 90 18 91
REMARK H PARENT 82 22 50 33 25 81
REMARK Flexibility Score: inf
ROOT
ATOM      1  C   UNL A   1      34.625  32.817  28.077  1.00  0.00     0.275 C 
ENDROOT
BRANCH   1   2
ATOM      2  O   UNL A   1      33.996  31.539  27.919  1.00  0.00    -0.458 OA
BRANCH   2   3
ATOM      3  C   UNL A   1      34.563  30.348  27.621  1.00  0.00     0.338 C 
ATOM      4  O   UNL A   1      33.900  29.506  27.019  1.00  0.00    -0.246 OA
BRANCH   3   5
ATOM      5  C   UNL A   1      35.890  29.926  28.167  1.00  0.00     0.060 A 
ATOM      6  C   UNL A   1      36.968  30.085  27.289  1.00  0.00     0.016 A 
ATOM      7  C   UNL A   1      36.163  29.421  29.439  1.00  0.00     0.016 A 
ATOM      8  C   UNL A   1      38.248  29.628  27.610  1.00  0.00     0.010 A 
ATOM      9  C   UNL A   1      37.460  29.002  29.787  1.00  0.00     0.010 A 
ATOM     10  C   UNL A   1      38.511  29.079  28.868  1.00  0.00    -0.014 A 
BRANCH  10  11
ATOM     11  C   UNL A   1      39.908  28.753  29.256  1.00  0.00     0.031 A 
ATOM     12  C   UNL A   1      40.737  29.653  30.126  1.00  0.00     0.074 A 
ATOM     13  C   UNL A   1      40.425  27.588  28.824  1.00  0.00     0.049 A 
ATOM     14  N   UNL A   1      41.891  29.410  30.699  1.00  0.00    -0.248 NA
ATOM     15  C   UNL A   1      40.199  30.983  30.425  1.00  0.00     0.031 C 
ATOM     16  C   UNL A   1      39.721  26.618  27.985  1.00  0.00     0.029 A 
ATOM     17  N   UNL A   1      41.657  27.025  29.028  1.00  0.00    -0.354 N 
ATOM     18  C   UNL A   1      42.148  30.503  31.515  1.00  0.00     0.074 A 
ATOM     19  C   UNL A   1      41.074  31.448  31.307  1.00  0.00     0.031 C 
ATOM     20  C   UNL A   1      40.524  25.571  27.759  1.00  0.00     0.029 A 
ATOM     21  C   UNL A   1      41.818  25.827  28.380  1.00  0.00     0.049 A 
ATOM     22  H   UNL A   1      42.355  27.437  29.585  1.00  0.00     0.167 HD
ATOM     23  C   UNL A   1      43.184  30.695  32.367  1.00  0.00     0.037 A 
ATOM     24  C   UNL A   1      42.901  25.039  28.264  1.00  0.00     0.037 A 
ATOM     25  C   UNL A   1      44.359  29.862  32.399  1.00  0.00     0.049 A 
ATOM     26  C   UNL A   1      44.162  25.434  28.967  1.00  0.00     0.074 A 
ATOM     27  C   UNL A   1      45.522  30.028  33.130  1.00  0.00     0.029 A 
ATOM     28  N   UNL A   1      44.548  28.744  31.597  1.00  0.00    -0.354 N 
ATOM     29  N   UNL A   1      44.361  26.421  29.807  1.00  0.00    -0.248 NA
ATOM     30  C   UNL A   1      45.351  24.619  28.698  1.00  0.00     0.031 C 
ATOM     31  C   UNL A   1      46.448  29.070  32.697  1.00  0.00     0.029 A 
ATOM     32  C   UNL A   1      45.837  28.262  31.750  1.00  0.00     0.049 A 
ATOM     33  H   UNL A   1      43.865  28.352  31.007  1.00  0.00     0.167 HD
ATOM     34  C   UNL A   1      45.694  26.342  30.178  1.00  0.00     0.074 A 
ATOM     35  C   UNL A   1      46.251  25.199  29.481  1.00  0.00     0.031 C 
ATOM     36  C   UNL A   1      46.389  27.144  31.023  1.00  0.00     0.037 A 
BRANCH  23  37
ATOM     37  C   UNL A   1      43.109  31.873  33.294  1.00  0.00     0.064 A 
ATOM     38  C   UNL A   1      42.546  31.743  34.575  1.00  0.00     0.173 A 
ATOM     39  C   UNL A   1      43.635  33.120  32.934  1.00  0.00     0.173 A 
ATOM     40  F   UNL A   1      42.020  30.573  34.967  1.00  0.00    -0.203 F 
ATOM     41  C   UNL A   1      42.509  32.823  35.456  1.00  0.00     0.198 A 
ATOM     42  C   UNL A   1      43.609  34.194  33.822  1.00  0.00     0.198 A 
ATOM     43  F   UNL A   1      44.181  33.298  31.722  1.00  0.00    -0.203 F 
ATOM     44  F   UNL A   1      41.952  32.681  36.667  1.00  0.00    -0.200 F 
ATOM     45  C   UNL A   1      43.044  34.046  35.081  1.00  0.00     0.200 A 
ATOM     46  F   UNL A   1      44.129  35.375  33.459  1.00  0.00    -0.200 F 
ATOM     47  F   UNL A   1      43.013  35.083  35.930  1.00  0.00    -0.200 F 
ENDBRANCH  23  37
BRANCH  24  48
ATOM     48  C   UNL A   1      42.805  23.820  27.422  1.00  0.00     0.064 A 
ATOM     49  C   UNL A   1      43.174  23.845  26.074  1.00  0.00     0.173 A 
ATOM     50  C   UNL A   1      42.444  22.584  27.984  1.00  0.00     0.173 A 
ATOM     51  F   UNL A   1      43.504  25.006  25.491  1.00  0.00    -0.203 F 
ATOM     52  C   UNL A   1      43.211  22.673  25.321  1.00  0.00     0.198 A 
ATOM     53  C   UNL A   1      42.509  21.410  27.238  1.00  0.00     0.198 A 
ATOM     54  F   UNL A   1      42.083  22.511  29.274  1.00  0.00    -0.203 F 
ATOM     55  F   UNL A   1      43.564  22.720  24.029  1.00  0.00    -0.200 F 
ATOM     56  C   UNL A   1      42.895  21.455  25.908  1.00  0.00     0.200 A 
ATOM     57  F   UNL A   1      42.222  20.236  27.816  1.00  0.00    -0.200 F 
ATOM     58  F   UNL A   1      42.965  20.324  25.192  1.00  0.00    -0.200 F 
ENDBRANCH  24  48
BRANCH  36  59
ATOM     59  C   UNL A   1      47.838  26.819  31.230  1.00  0.00     0.064 A 
ATOM     60  C   UNL A   1      48.843  27.455  30.487  1.00  0.00     0.173 A 
ATOM     61  C   UNL A   1      48.230  25.884  32.200  1.00  0.00     0.173 A 
ATOM     62  F   UNL A   1      48.519  28.345  29.537  1.00  0.00    -0.203 F 
ATOM     63  C   UNL A   1      50.186  27.149  30.689  1.00  0.00     0.198 A 
ATOM     64  C   UNL A   1      49.575  25.604  32.423  1.00  0.00     0.198 A 
ATOM     65  F   UNL A   1      47.308  25.253  32.943  1.00  0.00    -0.203 F 
ATOM     66  F   UNL A   1      51.126  27.733  29.933  1.00  0.00    -0.200 F 
ATOM     67  C   UNL A   1      50.551  26.229  31.661  1.00  0.00     0.200 A 
ATOM     68  F   UNL A   1      49.926  24.726  33.372  1.00  0.00    -0.200 F 
ATOM     69  F   UNL A   1      51.844  25.940  31.860  1.00  0.00    -0.200 F 
ENDBRANCH  36  59
ENDBRANCH  10  11
ENDBRANCH   3   5
ENDBRANCH   2   3
ENDBRANCH   1   2
BRANCH   1  70
ATOM     70  C   UNL A   1      33.658  34.002  28.141  1.00  0.00     0.275 C 
BRANCH  70  71
ATOM     71  O   UNL A   1      34.180  35.159  28.817  1.00  0.00    -0.458 OA
BRANCH  71  72
ATOM     72  C   UNL A   1      33.263  35.888  29.522  1.00  0.00     0.342 C 
ATOM     73  O   UNL A   1      32.230  36.355  29.096  1.00  0.00    -0.246 OA
BRANCH  72  74
ATOM     74  C   UNL A   1      33.690  35.972  30.939  1.00  0.00     0.102 A 
ATOM     75  C   UNL A   1      34.336  34.853  31.504  1.00  0.00     0.028 A 
ATOM     76  C   UNL A   1      33.489  37.120  31.712  1.00  0.00     0.130 A 
ATOM     77  C   UNL A   1      34.839  34.906  32.815  1.00  0.00    -0.017 A 
ATOM     78  C   UNL A   1      33.932  37.156  33.031  1.00  0.00     0.048 A 
ATOM     79  C   UNL A   1      34.625  36.071  33.568  1.00  0.00     0.012 A 
BRANCH  76  80
ATOM     80  O   UNL A   1      32.879  38.254  31.249  1.00  0.00    -0.507 OA
ATOM     81  H   UNL A   1      33.353  39.062  31.218  1.00  0.00     0.293 HD
ENDBRANCH  76  80
BRANCH  77  82
ATOM     82  C   UNL A   1      35.632  33.812  33.425  1.00  0.00    -0.011 A 
ATOM     83  C   UNL A   1      36.435  34.002  34.620  1.00  0.00     0.027 A 
ATOM     84  C   UNL A   1      35.710  32.625  32.799  1.00  0.00     0.080 A 
ATOM     85  C   UNL A   1      37.252  33.036  35.062  1.00  0.00     0.095 A 
ATOM     86  C   UNL A   1      36.622  31.544  33.263  1.00  0.00     0.255 A 
ATOM     87  N   UNL A   1      37.350  31.826  34.402  1.00  0.00    -0.258 N 
ATOM     88  O   UNL A   1      36.683  30.511  32.605  1.00  0.00    -0.269 OA
BRANCH  87  89
ATOM     89  C   UNL A   1      38.260  30.807  34.859  1.00  0.00     0.451 C 
ATOM     90  F   UNL A   1      39.301  30.659  34.005  1.00  0.00    -0.185 F 
ATOM     91  F   UNL A   1      38.760  31.119  36.080  1.00  0.00    -0.185 F 
ENDBRANCH  87  89
ENDBRANCH  77  82
ENDBRANCH  72  74
ENDBRANCH  71  72
ENDBRANCH  70  71
ENDBRANCH   1  70
TORSDOF 14
ENDMDL
MODEL 3
REMARK VINA RESULT:     -11.2      4.199     10.706
REMARK SMILES O=C(OCCOC(=O)c1cc(-c2ccn(C(F)F)c(=O)c2)ccc1O)c1ccc(-c2c3nc(c(-c4c(F)c(F)c(F)c(F)c4F)c4ccc([nH]4)c(-c4c(F)c(F)c(F)c(F)c4F)c4nc(c(-c5c(F)c(F)c(F)c(F)c5F)c5ccc2[nH]5)C=C4)C=C3)cc1
REMARK SMILES IDX 4 1 3 2 2 3 1 4 26 5 27 6 88 7 28 8 87 9 29 10 30 11 31 12
REMARK SMILES IDX 81 13 32 14 86 15 80 16 82 17 33 18 85 19 79 20 78 21 34 23
REMARK SMILES IDX 66 24 46 25 65 26 47 27 50 28 64 29 83 30 48 31 49 32 63 34
REMARK SMILES IDX 84 35 51 36 35 37 36 38 44 39 37 40 38 41 42 42 45 43 39 44
REMARK SMILES IDX 40 45 43 46 41 47 67 48 68 49 76 50 69 51 70 52 74 53 77 54
REMARK SMILES IDX 71 55 72 56 75 57 73 58 52 59 53 60 61 61 54 62 55 63 59 64
REMARK SMILES IDX 62 65 56 66 57 67 60 68 58 69 5 70 6 71 7 72 8 73 9 74 10 75
REMARK SMILES IDX 24 76 11 77 23 78 22 79 25 80 12 82 13 83 21 84 14 85 19 86
REMARK SMILES IDX 15 87 20 88 16 89 17 90 18 91
REMARK H PARENT 82 22 50 33 25 81
REMARK Flexibility Score: inf
ROOT
ATOM      1  C   UNL A   1      34.339  32.944  28.014  1.00  0.00     0.275 C 
ENDROOT
BRANCH   1   2
ATOM      2  O   UNL A   1      33.819  31.613  28.111  1.00  0.00    -0.458 OA
BRANCH   2   3
ATOM      3  C   UNL A   1      34.426  30.443  27.809  1.00  0.00     0.338 C 
ATOM      4  O   UNL A   1      33.792  29.579  27.208  1.00  0.00    -0.246 OA
BRANCH   3   5
ATOM      5  C   UNL A   1      35.769  30.067  28.351  1.00  0.00     0.060 A 
ATOM      6  C   UNL A   1      36.825  30.178  27.440  1.00  0.00     0.016 A 
ATOM      7  C   UNL A   1      36.076  29.647  29.645  1.00  0.00     0.016 A 
ATOM      8  C   UNL A   1      38.117  29.752  27.759  1.00  0.00     0.010 A 
ATOM      9  C   UNL A   1      37.384  29.260  29.989  1.00  0.00     0.010 A 
ATOM     10  C   UNL A   1      38.413  29.287  29.044  1.00  0.00    -0.014 A 
BRANCH  10  11
ATOM     11  C   UNL A   1      39.821  28.997  29.419  1.00  0.00     0.031 A 
ATOM     12  C   UNL A   1      40.487  27.686  29.116  1.00  0.00     0.074 A 
ATOM     13  C   UNL A   1      40.522  29.969  30.031  1.00  0.00     0.049 A 
ATOM     14  N   UNL A   1      41.753  27.364  29.210  1.00  0.00    -0.248 NA
ATOM     15  C   UNL A   1      39.639  26.602  28.611  1.00  0.00     0.031 C 
ATOM     16  C   UNL A   1      39.998  31.293  30.372  1.00  0.00     0.029 A 
ATOM     17  N   UNL A   1      41.817  29.997  30.475  1.00  0.00    -0.354 N 
ATOM     18  C   UNL A   1      41.865  26.092  28.663  1.00  0.00     0.074 A 
ATOM     19  C   UNL A   1      40.530  25.665  28.312  1.00  0.00     0.031 C 
ATOM     20  C   UNL A   1      40.967  32.010  30.955  1.00  0.00     0.029 A 
ATOM     21  C   UNL A   1      42.154  31.175  31.090  1.00  0.00     0.049 A 
ATOM     22  H   UNL A   1      42.443  29.246  30.363  1.00  0.00     0.167 HD
ATOM     23  C   UNL A   1      42.983  25.354  28.466  1.00  0.00     0.037 A 
ATOM     24  C   UNL A   1      43.282  31.533  31.728  1.00  0.00     0.037 A 
ATOM     25  C   UNL A   1      44.270  25.685  29.023  1.00  0.00     0.049 A 
ATOM     26  C   UNL A   1      44.423  30.565  31.778  1.00  0.00     0.074 A 
ATOM     27  C   UNL A   1      45.444  24.952  28.995  1.00  0.00     0.029 A 
ATOM     28  N   UNL A   1      44.525  26.817  29.786  1.00  0.00    -0.354 N 
ATOM     29  N   UNL A   1      44.544  29.404  31.179  1.00  0.00    -0.248 NA
ATOM     30  C   UNL A   1      45.575  30.945  32.601  1.00  0.00     0.031 C 
ATOM     31  C   UNL A   1      46.376  25.593  29.821  1.00  0.00     0.029 A 
ATOM     32  C   UNL A   1      45.808  26.762  30.305  1.00  0.00     0.049 A 
ATOM     33  H   UNL A   1      43.887  27.552  29.934  1.00  0.00     0.167 HD
ATOM     34  C   UNL A   1      45.791  28.917  31.541  1.00  0.00     0.074 A 
ATOM     35  C   UNL A   1      46.392  29.919  32.402  1.00  0.00     0.031 C 
ATOM     36  C   UNL A   1      46.381  27.749  31.188  1.00  0.00     0.037 A 
BRANCH  23  37
ATOM     37  C   UNL A   1      42.849  24.097  27.656  1.00  0.00     0.064 A 
ATOM     38  C   UNL A   1      43.090  24.107  26.272  1.00  0.00     0.173 A 
ATOM     39  C   UNL A   1      42.527  22.873  28.256  1.00  0.00     0.173 A 
ATOM     40  F   UNL A   1      43.393  25.254  25.647  1.00  0.00    -0.203 F 
ATOM     41  C   UNL A   1      43.007  22.936  25.520  1.00  0.00     0.198 A 
ATOM     42  C   UNL A   1      42.458  21.701  27.504  1.00  0.00     0.198 A 
ATOM     43  F   UNL A   1      42.286  22.809  29.573  1.00  0.00    -0.203 F 
ATOM     44  F   UNL A   1      43.224  22.972  24.198  1.00  0.00    -0.200 F 
ATOM     45  C   UNL A   1      42.695  21.734  26.137  1.00  0.00     0.200 A 
ATOM     46  F   UNL A   1      42.159  20.540  28.102  1.00  0.00    -0.200 F 
ATOM     47  F   UNL A   1      42.619  20.607  25.415  1.00  0.00    -0.200 F 
ENDBRANCH  23  37
BRANCH  24  48
ATOM     48  C   UNL A   1      43.338  32.867  32.376  1.00  0.00     0.064 A 
ATOM     49  C   UNL A   1      43.669  34.011  31.642  1.00  0.00     0.173 A 
ATOM     50  C   UNL A   1      42.957  33.033  33.717  1.00  0.00     0.173 A 
ATOM     51  F   UNL A   1      44.061  33.897  30.365  1.00  0.00    -0.203 F 
ATOM     52  C   UNL A   1      43.592  35.277  32.218  1.00  0.00     0.198 A 
ATOM     53  C   UNL A   1      42.852  34.301  34.283  1.00  0.00     0.198 A 
ATOM     54  F   UNL A   1      42.630  31.965  34.461  1.00  0.00    -0.203 F 
ATOM     55  F   UNL A   1      43.916  36.359  31.498  1.00  0.00    -0.200 F 
ATOM     56  C   UNL A   1      43.167  35.422  33.533  1.00  0.00     0.200 A 
ATOM     57  F   UNL A   1      42.423  34.435  35.545  1.00  0.00    -0.200 F 
ATOM     58  F   UNL A   1      43.059  36.643  34.074  1.00  0.00    -0.200 F 
ENDBRANCH  24  48
BRANCH  36  59
ATOM     59  C   UNL A   1      47.747  27.482  31.746  1.00  0.00     0.064 A 
ATOM     60  C   UNL A   1      47.921  26.782  32.950  1.00  0.00     0.173 A 
ATOM     61  C   UNL A   1      48.895  27.903  31.058  1.00  0.00     0.173 A 
ATOM     62  F   UNL A   1      46.854  26.372  33.652  1.00  0.00    -0.203 F 
ATOM     63  C   UNL A   1      49.194  26.536  33.457  1.00  0.00     0.198 A 
ATOM     64  C   UNL A   1      50.166  27.628  31.552  1.00  0.00     0.198 A 
ATOM     65  F   UNL A   1      48.783  28.570  29.900  1.00  0.00    -0.203 F 
ATOM     66  F   UNL A   1      49.335  25.910  34.633  1.00  0.00    -0.200 F 
ATOM     67  C   UNL A   1      50.315  26.953  32.754  1.00  0.00     0.200 A 
ATOM     68  F   UNL A   1      51.249  28.018  30.865  1.00  0.00    -0.200 F 
ATOM     69  F   UNL A   1      51.540  26.710  33.241  1.00  0.00    -0.200 F 
ENDBRANCH  36  59
ENDBRANCH  10  11
ENDBRANCH   3   5
ENDBRANCH   2   3
ENDBRANCH   1   2
BRANCH   1  70
ATOM     70  C   UNL A   1      33.285  34.051  28.106  1.00  0.00     0.275 C 
BRANCH  70  71
ATOM     71  O   UNL A   1      32.803  34.302  29.438  1.00  0.00    -0.458 OA
BRANCH  71  72
ATOM     72  C   UNL A   1      33.018  35.568  29.908  1.00  0.00     0.342 C 
ATOM     73  O   UNL A   1      32.688  36.603  29.372  1.00  0.00    -0.246 OA
BRANCH  72  74
ATOM     74  C   UNL A   1      33.668  35.492  31.238  1.00  0.00     0.102 A 
ATOM     75  C   UNL A   1      34.614  34.469  31.456  1.00  0.00     0.028 A 
ATOM     76  C   UNL A   1      33.386  36.406  32.259  1.00  0.00     0.130 A 
ATOM     77  C   UNL A   1      35.324  34.402  32.666  1.00  0.00    -0.017 A 
ATOM     78  C   UNL A   1      34.044  36.306  33.482  1.00  0.00     0.048 A 
ATOM     79  C   UNL A   1      35.023  35.332  33.674  1.00  0.00     0.012 A 
BRANCH  76  80
ATOM     80  O   UNL A   1      32.491  37.433  32.138  1.00  0.00    -0.507 OA
ATOM     81  H   UNL A   1      31.571  37.259  32.160  1.00  0.00     0.293 HD
ENDBRANCH  76  80
BRANCH  77  82
ATOM     82  C   UNL A   1      36.415  33.429  32.914  1.00  0.00    -0.011 A 
ATOM     83  C   UNL A   1      36.253  32.001  32.699  1.00  0.00     0.027 A 
ATOM     84  C   UNL A   1      37.567  33.854  33.462  1.00  0.00     0.080 A 
ATOM     85  C   UNL A   1      37.207  31.136  33.068  1.00  0.00     0.095 A 
ATOM     86  C   UNL A   1      38.633  32.909  33.894  1.00  0.00     0.255 A 
ATOM     87  N   UNL A   1      38.379  31.572  33.656  1.00  0.00    -0.258 N 
ATOM     88  O   UNL A   1      39.631  33.367  34.442  1.00  0.00    -0.269 OA
BRANCH  87  89
ATOM     89  C   UNL A   1      39.383  30.635  34.088  1.00  0.00     0.451 C 
ATOM     90  F   UNL A   1      39.121  30.174  35.334  1.00  0.00    -0.185 F 
ATOM     91  F   UNL A   1      39.441  29.570  33.250  1.00  0.00    -0.185 F 
ENDBRANCH  87  89
ENDBRANCH  77  82
ENDBRANCH  72  74
ENDBRANCH  71  72
ENDBRANCH  70  71
ENDBRANCH   1  70
TORSDOF 14
ENDMDL
