MODEL 1
REMARK VINA RESULT:     -12.8      0.000      0.000
REMARK SMILES COC(=O)c1ccc(Cl)c(-c2ccc(C(=O)OCCOC(=O)c3ccc(-c4c5nc(c(-c6c(F)c(F)c(F)c(F)c6F)c6ccc([nH]6)c(-c6c(F)c(F)c(F)c(F)c6F)c6nc(c(-c7c(F)c(F)c(F)c(F)c7F)c7ccc4[nH]7)C=C6)C=C5)cc3)nc2)c1
REMARK SMILES IDX 18 1 17 2 15 3 16 4 14 5 11 6 12 7 87 8 13 9 86 10 10 11
REMARK SMILES IDX 5 12 6 13 88 14 7 15 8 16 9 17 3 18 4 19 2 20 1 21 19 22
REMARK SMILES IDX 20 23 21 24 22 25 23 26 24 27 85 28 25 29 84 30 26 31 27 32
REMARK SMILES IDX 28 33 78 34 29 35 83 36 77 37 79 38 30 39 82 40 76 41 75 42
REMARK SMILES IDX 31 44 63 45 43 46 62 47 44 48 47 49 61 50 80 51 45 52 46 53
REMARK SMILES IDX 60 55 81 56 48 57 32 58 33 59 41 60 34 61 35 62 39 63 42 64
REMARK SMILES IDX 36 65 37 66 40 67 38 68 64 69 65 70 73 71 66 72 67 73 71 74
REMARK SMILES IDX 74 75 68 76 69 77 72 78 70 79 49 80 50 81 58 82 51 83 52 84
REMARK SMILES IDX 56 85 59 86 53 87 54 88 57 89 55 90
REMARK H PARENT 79 43 47 54
REMARK Flexibility Score: inf
ROOT
ATOM      1  C   UNL A   1      42.737  21.284  26.052  1.00  0.00     0.275 C 
ENDROOT
BRANCH   1   2
ATOM      2  O   UNL A   1      41.375  21.522  25.636  1.00  0.00    -0.457 OA
BRANCH   2   3
ATOM      3  C   UNL A   1      40.509  21.837  26.638  1.00  0.00     0.357 C 
ATOM      4  O   UNL A   1      40.834  22.146  27.776  1.00  0.00    -0.244 OA
BRANCH   3   5
ATOM      5  C   UNL A   1      39.089  21.865  26.151  1.00  0.00     0.148 A 
ATOM      6  C   UNL A   1      36.472  21.671  25.261  1.00  0.00     0.002 A 
ATOM      7  C   UNL A   1      36.928  22.857  25.851  1.00  0.00     0.013 A 
ATOM      8  C   UNL A   1      37.395  20.636  25.152  1.00  0.00     0.120 A 
ATOM      9  C   UNL A   1      38.248  22.958  26.312  1.00  0.00     0.037 A 
ATOM     10  N   UNL A   1      38.680  20.712  25.556  1.00  0.00    -0.249 NA
BRANCH   6  11
ATOM     11  C   UNL A   1      35.123  21.512  24.705  1.00  0.00     0.003 A 
ATOM     12  C   UNL A   1      33.192  20.074  24.252  1.00  0.00     0.060 A 
ATOM     13  C   UNL A   1      32.623  21.078  23.463  1.00  0.00     0.017 A 
ATOM     14  C   UNL A   1      34.428  20.297  24.882  1.00  0.00     0.026 A 
ATOM     15  C   UNL A   1      33.288  22.292  23.295  1.00  0.00     0.022 A 
ATOM     16  C   UNL A   1      34.528  22.506  23.904  1.00  0.00     0.048 A 
ATOM     17  Cl  UNL A   1      35.313  24.018  23.596  1.00  0.00    -0.084 Cl
BRANCH  12  18
ATOM     18  C   UNL A   1      32.524  18.756  24.432  1.00  0.00     0.337 C 
ATOM     19  O   UNL A   1      32.127  18.343  25.507  1.00  0.00    -0.246 OA
BRANCH  18  20
ATOM     20  O   UNL A   1      32.490  18.095  23.248  1.00  0.00    -0.465 OA
ATOM     21  C   UNL A   1      33.426  17.020  23.140  1.00  0.00     0.282 C 
ENDBRANCH  18  20
ENDBRANCH  12  18
ENDBRANCH   6  11
ENDBRANCH   3   5
ENDBRANCH   2   3
ENDBRANCH   1   2
BRANCH   1  22
ATOM     22  C   UNL A   1      43.742  22.118  25.247  1.00  0.00     0.275 C 
BRANCH  22  23
ATOM     23  O   UNL A   1      43.157  23.322  24.712  1.00  0.00    -0.458 OA
BRANCH  23  24
ATOM     24  C   UNL A   1      43.849  24.450  24.986  1.00  0.00     0.338 C 
ATOM     25  O   UNL A   1      44.941  24.767  24.540  1.00  0.00    -0.246 OA
BRANCH  24  26
ATOM     26  C   UNL A   1      43.070  25.365  25.838  1.00  0.00     0.060 A 
ATOM     27  C   UNL A   1      43.727  26.505  26.293  1.00  0.00     0.016 A 
ATOM     28  C   UNL A   1      41.813  25.036  26.344  1.00  0.00     0.016 A 
ATOM     29  C   UNL A   1      43.181  27.286  27.302  1.00  0.00     0.010 A 
ATOM     30  C   UNL A   1      41.243  25.845  27.341  1.00  0.00     0.010 A 
ATOM     31  C   UNL A   1      41.944  26.952  27.859  1.00  0.00    -0.014 A 
BRANCH  31  32
ATOM     32  C   UNL A   1      41.473  27.709  29.053  1.00  0.00     0.031 A 
ATOM     33  C   UNL A   1      42.234  27.612  30.351  1.00  0.00     0.074 A 
ATOM     34  C   UNL A   1      40.430  28.557  28.954  1.00  0.00     0.049 A 
ATOM     35  N   UNL A   1      41.976  28.169  31.509  1.00  0.00    -0.248 NA
ATOM     36  C   UNL A   1      43.445  26.776  30.348  1.00  0.00     0.031 C 
ATOM     37  C   UNL A   1      39.642  28.788  27.743  1.00  0.00     0.029 A 
ATOM     38  N   UNL A   1      39.863  29.395  29.884  1.00  0.00    -0.354 N 
ATOM     39  C   UNL A   1      42.967  27.719  32.376  1.00  0.00     0.074 A 
ATOM     40  C   UNL A   1      43.823  26.835  31.617  1.00  0.00     0.031 C 
ATOM     41  C   UNL A   1      38.707  29.718  27.998  1.00  0.00     0.029 A 
ATOM     42  C   UNL A   1      38.793  30.109  29.402  1.00  0.00     0.049 A 
ATOM     43  H   UNL A   1      40.193  29.475  30.808  1.00  0.00     0.167 HD
ATOM     44  C   UNL A   1      43.147  28.024  33.683  1.00  0.00     0.037 A 
ATOM     45  C   UNL A   1      37.959  30.962  30.027  1.00  0.00     0.037 A 
ATOM     46  C   UNL A   1      42.329  28.947  34.426  1.00  0.00     0.049 A 
ATOM     47  C   UNL A   1      38.176  31.265  31.486  1.00  0.00     0.074 A 
ATOM     48  C   UNL A   1      42.450  29.338  35.749  1.00  0.00     0.029 A 
ATOM     49  N   UNL A   1      41.242  29.634  33.906  1.00  0.00    -0.354 N 
ATOM     50  N   UNL A   1      39.110  30.828  32.296  1.00  0.00    -0.248 NA
ATOM     51  C   UNL A   1      37.220  32.184  32.120  1.00  0.00     0.031 C 
ATOM     52  C   UNL A   1      41.411  30.226  36.043  1.00  0.00     0.029 A 
ATOM     53  C   UNL A   1      40.676  30.435  34.887  1.00  0.00     0.049 A 
ATOM     54  H   UNL A   1      40.921  29.566  32.978  1.00  0.00     0.167 HD
ATOM     55  C   UNL A   1      38.872  31.440  33.519  1.00  0.00     0.074 A 
ATOM     56  C   UNL A   1      37.721  32.297  33.341  1.00  0.00     0.031 C 
ATOM     57  C   UNL A   1      39.542  31.298  34.690  1.00  0.00     0.037 A 
BRANCH  44  58
ATOM     58  C   UNL A   1      44.261  27.335  34.418  1.00  0.00     0.064 A 
ATOM     59  C   UNL A   1      45.535  27.905  34.545  1.00  0.00     0.173 A 
ATOM     60  C   UNL A   1      44.024  26.110  35.062  1.00  0.00     0.173 A 
ATOM     61  F   UNL A   1      45.816  29.069  33.940  1.00  0.00    -0.203 F 
ATOM     62  C   UNL A   1      46.535  27.269  35.277  1.00  0.00     0.198 A 
ATOM     63  C   UNL A   1      45.016  25.490  35.817  1.00  0.00     0.198 A 
ATOM     64  F   UNL A   1      42.820  25.523  34.978  1.00  0.00    -0.203 F 
ATOM     65  F   UNL A   1      47.756  27.817  35.359  1.00  0.00    -0.200 F 
ATOM     66  C   UNL A   1      46.272  26.069  35.921  1.00  0.00     0.200 A 
ATOM     67  F   UNL A   1      44.754  24.338  36.450  1.00  0.00    -0.200 F 
ATOM     68  F   UNL A   1      47.230  25.467  36.640  1.00  0.00    -0.200 F 
ENDBRANCH  44  58
BRANCH  45  69
ATOM     69  C   UNL A   1      36.817  31.572  29.293  1.00  0.00     0.064 A 
ATOM     70  C   UNL A   1      36.800  32.937  28.973  1.00  0.00     0.173 A 
ATOM     71  C   UNL A   1      35.691  30.810  28.946  1.00  0.00     0.173 A 
ATOM     72  F   UNL A   1      37.840  33.716  29.307  1.00  0.00    -0.203 F 
ATOM     73  C   UNL A   1      35.689  33.522  28.369  1.00  0.00     0.198 A 
ATOM     74  C   UNL A   1      34.596  31.388  28.308  1.00  0.00     0.198 A 
ATOM     75  F   UNL A   1      35.652  29.500  29.231  1.00  0.00    -0.203 F 
ATOM     76  F   UNL A   1      35.670  34.843  28.142  1.00  0.00    -0.200 F 
ATOM     77  C   UNL A   1      34.589  32.747  28.033  1.00  0.00     0.200 A 
ATOM     78  F   UNL A   1      33.541  30.632  27.976  1.00  0.00    -0.200 F 
ATOM     79  F   UNL A   1      33.517  33.311  27.461  1.00  0.00    -0.200 F 
ENDBRANCH  45  69
BRANCH  57  80
ATOM     80  C   UNL A   1      39.078  32.132  35.850  1.00  0.00     0.064 A 
ATOM     81  C   UNL A   1      39.474  33.470  36.006  1.00  0.00     0.173 A 
ATOM     82  C   UNL A   1      38.218  31.586  36.815  1.00  0.00     0.173 A 
ATOM     83  F   UNL A   1      40.306  34.035  35.119  1.00  0.00    -0.203 F 
ATOM     84  C   UNL A   1      39.060  34.214  37.107  1.00  0.00     0.198 A 
ATOM     85  C   UNL A   1      37.777  32.345  37.895  1.00  0.00     0.198 A 
ATOM     86  F   UNL A   1      37.800  30.315  36.709  1.00  0.00    -0.203 F 
ATOM     87  F   UNL A   1      39.504  35.468  37.270  1.00  0.00    -0.200 F 
ATOM     88  C   UNL A   1      38.209  33.653  38.047  1.00  0.00     0.200 A 
ATOM     89  F   UNL A   1      36.943  31.806  38.795  1.00  0.00    -0.200 F 
ATOM     90  F   UNL A   1      37.814  34.371  39.108  1.00  0.00    -0.200 F 
ENDBRANCH  57  80
ENDBRANCH  31  32
ENDBRANCH  24  26
ENDBRANCH  23  24
ENDBRANCH  22  23
ENDBRANCH   1  22
TORSDOF 14
ENDMDL
MODEL 2
REMARK VINA RESULT:     -12.8      3.629      8.348
REMARK SMILES COC(=O)c1ccc(Cl)c(-c2ccc(C(=O)OCCOC(=O)c3ccc(-c4c5nc(c(-c6c(F)c(F)c(F)c(F)c6F)c6ccc([nH]6)c(-c6c(F)c(F)c(F)c(F)c6F)c6nc(c(-c7c(F)c(F)c(F)c(F)c7F)c7ccc4[nH]7)C=C6)C=C5)cc3)nc2)c1
REMARK SMILES IDX 18 1 17 2 15 3 16 4 14 5 11 6 12 7 87 8 13 9 86 10 10 11
REMARK SMILES IDX 5 12 6 13 88 14 7 15 8 16 9 17 3 18 4 19 2 20 1 21 19 22
REMARK SMILES IDX 20 23 21 24 22 25 23 26 24 27 85 28 25 29 84 30 26 31 27 32
REMARK SMILES IDX 28 33 78 34 29 35 83 36 77 37 79 38 30 39 82 40 76 41 75 42
REMARK SMILES IDX 31 44 63 45 43 46 62 47 44 48 47 49 61 50 80 51 45 52 46 53
REMARK SMILES IDX 60 55 81 56 48 57 32 58 33 59 41 60 34 61 35 62 39 63 42 64
REMARK SMILES IDX 36 65 37 66 40 67 38 68 64 69 65 70 73 71 66 72 67 73 71 74
REMARK SMILES IDX 74 75 68 76 69 77 72 78 70 79 49 80 50 81 58 82 51 83 52 84
REMARK SMILES IDX 56 85 59 86 53 87 54 88 57 89 55 90
REMARK H PARENT 79 43 47 54
REMARK Flexibility Score: inf
ROOT
ATOM      1  C   UNL A   1      31.430  29.781  25.268  1.00  0.00     0.275 C 
ENDROOT
BRANCH   1   2
ATOM      2  O   UNL A   1      32.574  28.907  25.360  1.00  0.00    -0.457 OA
BRANCH   2   3
ATOM      3  C   UNL A   1      32.926  28.286  24.202  1.00  0.00     0.357 C 
ATOM      4  O   UNL A   1      32.953  28.817  23.101  1.00  0.00    -0.244 OA
BRANCH   3   5
ATOM      5  C   UNL A   1      33.385  26.877  24.448  1.00  0.00     0.148 A 
ATOM      6  C   UNL A   1      34.322  24.280  24.676  1.00  0.00     0.002 A 
ATOM      7  C   UNL A   1      34.070  25.040  25.826  1.00  0.00     0.013 A 
ATOM      8  C   UNL A   1      34.072  24.898  23.455  1.00  0.00     0.120 A 
ATOM      9  C   UNL A   1      33.605  26.358  25.717  1.00  0.00     0.037 A 
ATOM     10  N   UNL A   1      33.594  26.152  23.317  1.00  0.00    -0.249 NA
BRANCH   6  11
ATOM     11  C   UNL A   1      34.756  22.878  24.712  1.00  0.00     0.003 A 
ATOM     12  C   UNL A   1      34.178  20.497  24.728  1.00  0.00     0.060 A 
ATOM     13  C   UNL A   1      35.509  20.171  25.002  1.00  0.00     0.017 A 
ATOM     14  C   UNL A   1      33.808  21.843  24.569  1.00  0.00     0.026 A 
ATOM     15  C   UNL A   1      36.463  21.180  25.126  1.00  0.00     0.022 A 
ATOM     16  C   UNL A   1      36.090  22.521  24.989  1.00  0.00     0.048 A 
ATOM     17  Cl  UNL A   1      37.324  23.715  25.217  1.00  0.00    -0.084 Cl
BRANCH  12  18
ATOM     18  C   UNL A   1      33.128  19.449  24.615  1.00  0.00     0.337 C 
ATOM     19  O   UNL A   1      32.076  19.479  25.227  1.00  0.00    -0.246 OA
BRANCH  18  20
ATOM     20  O   UNL A   1      33.556  18.461  23.790  1.00  0.00    -0.465 OA
ATOM     21  C   UNL A   1      32.581  18.010  22.846  1.00  0.00     0.282 C 
ENDBRANCH  18  20
ENDBRANCH  12  18
ENDBRANCH   6  11
ENDBRANCH   3   5
ENDBRANCH   2   3
ENDBRANCH   1   2
BRANCH   1  22
ATOM     22  C   UNL A   1      31.598  31.046  26.119  1.00  0.00     0.275 C 
BRANCH  22  23
ATOM     23  O   UNL A   1      32.493  30.848  27.233  1.00  0.00    -0.458 OA
BRANCH  23  24
ATOM     24  C   UNL A   1      33.267  31.917  27.525  1.00  0.00     0.338 C 
ATOM     25  O   UNL A   1      32.909  33.082  27.604  1.00  0.00    -0.246 OA
BRANCH  24  26
ATOM     26  C   UNL A   1      34.640  31.509  27.868  1.00  0.00     0.060 A 
ATOM     27  C   UNL A   1      34.837  30.159  28.148  1.00  0.00     0.016 A 
ATOM     28  C   UNL A   1      35.662  32.426  28.105  1.00  0.00     0.016 A 
ATOM     29  C   UNL A   1      36.016  29.718  28.732  1.00  0.00     0.010 A 
ATOM     30  C   UNL A   1      36.870  31.977  28.665  1.00  0.00     0.010 A 
ATOM     31  C   UNL A   1      37.039  30.625  29.024  1.00  0.00    -0.014 A 
BRANCH  31  32
ATOM     32  C   UNL A   1      38.213  30.146  29.806  1.00  0.00     0.031 A 
ATOM     33  C   UNL A   1      38.374  30.560  31.247  1.00  0.00     0.074 A 
ATOM     34  C   UNL A   1      39.079  29.266  29.265  1.00  0.00     0.049 A 
ATOM     35  N   UNL A   1      39.335  30.274  32.092  1.00  0.00    -0.248 NA
ATOM     36  C   UNL A   1      37.315  31.410  31.815  1.00  0.00     0.031 C 
ATOM     37  C   UNL A   1      39.007  28.740  27.901  1.00  0.00     0.029 A 
ATOM     38  N   UNL A   1      40.181  28.645  29.802  1.00  0.00    -0.354 N 
ATOM     39  C   UNL A   1      39.016  30.939  33.270  1.00  0.00     0.074 A 
ATOM     40  C   UNL A   1      37.782  31.653  33.032  1.00  0.00     0.031 C 
ATOM     41  C   UNL A   1      40.007  27.865  27.714  1.00  0.00     0.029 A 
ATOM     42  C   UNL A   1      40.824  27.808  28.924  1.00  0.00     0.049 A 
ATOM     43  H   UNL A   1      40.481  28.788  30.729  1.00  0.00     0.167 HD
ATOM     44  C   UNL A   1      39.690  30.947  34.445  1.00  0.00     0.037 A 
ATOM     45  C   UNL A   1      41.957  27.093  29.066  1.00  0.00     0.037 A 
ATOM     46  C   UNL A   1      40.889  30.192  34.703  1.00  0.00     0.049 A 
ATOM     47  C   UNL A   1      42.692  27.138  30.380  1.00  0.00     0.074 A 
ATOM     48  C   UNL A   1      41.629  30.117  35.871  1.00  0.00     0.029 A 
ATOM     49  N   UNL A   1      41.519  29.371  33.779  1.00  0.00    -0.354 N 
ATOM     50  N   UNL A   1      42.385  27.777  31.483  1.00  0.00    -0.248 NA
ATOM     51  C   UNL A   1      43.935  26.359  30.469  1.00  0.00     0.031 C 
ATOM     52  C   UNL A   1      42.731  29.288  35.642  1.00  0.00     0.029 A 
ATOM     53  C   UNL A   1      42.647  28.798  34.349  1.00  0.00     0.049 A 
ATOM     54  H   UNL A   1      41.211  29.216  32.857  1.00  0.00     0.167 HD
ATOM     55  C   UNL A   1      43.376  27.453  32.401  1.00  0.00     0.074 A 
ATOM     56  C   UNL A   1      44.281  26.542  31.734  1.00  0.00     0.031 C 
ATOM     57  C   UNL A   1      43.528  27.878  33.679  1.00  0.00     0.037 A 
BRANCH  44  58
ATOM     58  C   UNL A   1      39.166  31.819  35.550  1.00  0.00     0.064 A 
ATOM     59  C   UNL A   1      38.286  31.336  36.528  1.00  0.00     0.173 A 
ATOM     60  C   UNL A   1      39.609  33.147  35.665  1.00  0.00     0.173 A 
ATOM     61  F   UNL A   1      37.825  30.078  36.458  1.00  0.00    -0.203 F 
ATOM     62  C   UNL A   1      37.857  32.152  37.572  1.00  0.00     0.198 A 
ATOM     63  C   UNL A   1      39.202  33.951  36.726  1.00  0.00     0.198 A 
ATOM     64  F   UNL A   1      40.457  33.658  34.759  1.00  0.00    -0.203 F 
ATOM     65  F   UNL A   1      36.990  31.679  38.479  1.00  0.00    -0.200 F 
ATOM     66  C   UNL A   1      38.323  33.454  37.676  1.00  0.00     0.200 A 
ATOM     67  F   UNL A   1      39.666  35.204  36.832  1.00  0.00    -0.200 F 
ATOM     68  F   UNL A   1      37.924  34.232  38.692  1.00  0.00    -0.200 F 
ENDBRANCH  44  58
BRANCH  45  69
ATOM     69  C   UNL A   1      42.494  26.298  27.930  1.00  0.00     0.064 A 
ATOM     70  C   UNL A   1      43.375  26.860  26.995  1.00  0.00     0.173 A 
ATOM     71  C   UNL A   1      42.091  24.969  27.723  1.00  0.00     0.173 A 
ATOM     72  F   UNL A   1      43.770  28.135  27.131  1.00  0.00    -0.203 F 
ATOM     73  C   UNL A   1      43.802  26.140  25.882  1.00  0.00     0.198 A 
ATOM     74  C   UNL A   1      42.548  24.237  26.630  1.00  0.00     0.198 A 
ATOM     75  F   UNL A   1      41.247  24.381  28.584  1.00  0.00    -0.203 F 
ATOM     76  F   UNL A   1      44.585  26.727  24.966  1.00  0.00    -0.200 F 
ATOM     77  C   UNL A   1      43.392  24.828  25.701  1.00  0.00     0.200 A 
ATOM     78  F   UNL A   1      42.157  22.966  26.467  1.00  0.00    -0.200 F 
ATOM     79  F   UNL A   1      43.795  24.138  24.626  1.00  0.00    -0.200 F 
ENDBRANCH  45  69
BRANCH  57  80
ATOM     80  C   UNL A   1      44.685  27.317  34.455  1.00  0.00     0.064 A 
ATOM     81  C   UNL A   1      45.936  27.951  34.483  1.00  0.00     0.173 A 
ATOM     82  C   UNL A   1      44.535  26.129  35.187  1.00  0.00     0.173 A 
ATOM     83  F   UNL A   1      46.136  29.082  33.789  1.00  0.00    -0.203 F 
ATOM     84  C   UNL A   1      47.005  27.395  35.181  1.00  0.00     0.198 A 
ATOM     85  C   UNL A   1      45.596  25.595  35.913  1.00  0.00     0.198 A 
ATOM     86  F   UNL A   1      43.357  25.486  35.203  1.00  0.00    -0.203 F 
ATOM     87  F   UNL A   1      48.208  27.984  35.138  1.00  0.00    -0.200 F 
ATOM     88  C   UNL A   1      46.833  26.221  35.898  1.00  0.00     0.200 A 
ATOM     89  F   UNL A   1      45.424  24.468  36.618  1.00  0.00    -0.200 F 
ATOM     90  F   UNL A   1      47.864  25.686  36.567  1.00  0.00    -0.200 F 
ENDBRANCH  57  80
ENDBRANCH  31  32
ENDBRANCH  24  26
ENDBRANCH  23  24
ENDBRANCH  22  23
ENDBRANCH   1  22
TORSDOF 14
ENDMDL
MODEL 3
REMARK VINA RESULT:     -12.8      1.510      2.000
REMARK SMILES COC(=O)c1ccc(Cl)c(-c2ccc(C(=O)OCCOC(=O)c3ccc(-c4c5nc(c(-c6c(F)c(F)c(F)c(F)c6F)c6ccc([nH]6)c(-c6c(F)c(F)c(F)c(F)c6F)c6nc(c(-c7c(F)c(F)c(F)c(F)c7F)c7ccc4[nH]7)C=C6)C=C5)cc3)nc2)c1
REMARK SMILES IDX 18 1 17 2 15 3 16 4 14 5 11 6 12 7 87 8 13 9 86 10 10 11
REMARK SMILES IDX 5 12 6 13 88 14 7 15 8 16 9 17 3 18 4 19 2 20 1 21 19 22
REMARK SMILES IDX 20 23 21 24 22 25 23 26 24 27 85 28 25 29 84 30 26 31 27 32
REMARK SMILES IDX 28 33 78 34 29 35 83 36 77 37 79 38 30 39 82 40 76 41 75 42
REMARK SMILES IDX 31 44 63 45 43 46 62 47 44 48 47 49 61 50 80 51 45 52 46 53
REMARK SMILES IDX 60 55 81 56 48 57 32 58 33 59 41 60 34 61 35 62 39 63 42 64
REMARK SMILES IDX 36 65 37 66 40 67 38 68 64 69 65 70 73 71 66 72 67 73 71 74
REMARK SMILES IDX 74 75 68 76 69 77 72 78 70 79 49 80 50 81 58 82 51 83 52 84
REMARK SMILES IDX 56 85 59 86 53 87 54 88 57 89 55 90
REMARK H PARENT 79 43 47 54
REMARK Flexibility Score: inf
ROOT
ATOM      1  C   UNL A   1      42.739  20.971  26.207  1.00  0.00     0.275 C 
ENDROOT
BRANCH   1   2
ATOM      2  O   UNL A   1      41.397  21.051  25.682  1.00  0.00    -0.457 OA
BRANCH   2   3
ATOM      3  C   UNL A   1      40.423  21.270  26.606  1.00  0.00     0.357 C 
ATOM      4  O   UNL A   1      40.612  21.393  27.809  1.00  0.00    -0.244 OA
BRANCH   3   5
ATOM      5  C   UNL A   1      39.080  21.451  25.961  1.00  0.00     0.148 A 
ATOM      6  C   UNL A   1      36.643  22.025  24.775  1.00  0.00     0.002 A 
ATOM      7  C   UNL A   1      37.215  20.755  24.627  1.00  0.00     0.013 A 
ATOM      8  C   UNL A   1      37.357  22.944  25.537  1.00  0.00     0.120 A 
ATOM      9  C   UNL A   1      38.452  20.462  25.216  1.00  0.00     0.037 A 
ATOM     10  N   UNL A   1      38.533  22.683  26.144  1.00  0.00    -0.249 NA
BRANCH   6  11
ATOM     11  C   UNL A   1      35.326  22.387  24.235  1.00  0.00     0.003 A 
ATOM     12  C   UNL A   1      33.834  24.087  23.294  1.00  0.00     0.060 A 
ATOM     13  C   UNL A   1      32.756  23.203  23.394  1.00  0.00     0.017 A 
ATOM     14  C   UNL A   1      35.115  23.674  23.698  1.00  0.00     0.026 A 
ATOM     15  C   UNL A   1      32.952  21.920  23.904  1.00  0.00     0.022 A 
ATOM     16  C   UNL A   1      34.222  21.517  24.326  1.00  0.00     0.048 A 
ATOM     17  Cl  UNL A   1      34.367  19.929  25.001  1.00  0.00    -0.084 Cl
BRANCH  12  18
ATOM     18  C   UNL A   1      33.658  25.472  22.781  1.00  0.00     0.337 C 
ATOM     19  O   UNL A   1      33.524  26.446  23.499  1.00  0.00    -0.246 OA
BRANCH  18  20
ATOM     20  O   UNL A   1      33.615  25.455  21.425  1.00  0.00    -0.465 OA
ATOM     21  C   UNL A   1      32.400  25.954  20.861  1.00  0.00     0.282 C 
ENDBRANCH  18  20
ENDBRANCH  12  18
ENDBRANCH   6  11
ENDBRANCH   3   5
ENDBRANCH   2   3
ENDBRANCH   1   2
BRANCH   1  22
ATOM     22  C   UNL A   1      43.724  21.839  25.412  1.00  0.00     0.275 C 
BRANCH  22  23
ATOM     23  O   UNL A   1      43.083  22.968  24.784  1.00  0.00    -0.458 OA
BRANCH  23  24
ATOM     24  C   UNL A   1      43.718  24.146  24.971  1.00  0.00     0.338 C 
ATOM     25  O   UNL A   1      44.760  24.510  24.447  1.00  0.00    -0.246 OA
BRANCH  24  26
ATOM     26  C   UNL A   1      42.934  25.047  25.832  1.00  0.00     0.060 A 
ATOM     27  C   UNL A   1      43.509  26.279  26.135  1.00  0.00     0.016 A 
ATOM     28  C   UNL A   1      41.772  24.641  26.487  1.00  0.00     0.016 A 
ATOM     29  C   UNL A   1      42.984  27.083  27.137  1.00  0.00     0.010 A 
ATOM     30  C   UNL A   1      41.219  25.469  27.478  1.00  0.00     0.010 A 
ATOM     31  C   UNL A   1      41.848  26.677  27.842  1.00  0.00    -0.014 A 
BRANCH  31  32
ATOM     32  C   UNL A   1      41.418  27.479  29.022  1.00  0.00     0.031 A 
ATOM     33  C   UNL A   1      42.207  27.409  30.304  1.00  0.00     0.074 A 
ATOM     34  C   UNL A   1      40.387  28.341  28.920  1.00  0.00     0.049 A 
ATOM     35  N   UNL A   1      41.986  28.006  31.450  1.00  0.00    -0.248 NA
ATOM     36  C   UNL A   1      43.404  26.552  30.300  1.00  0.00     0.031 C 
ATOM     37  C   UNL A   1      39.575  28.549  27.720  1.00  0.00     0.029 A 
ATOM     38  N   UNL A   1      39.857  29.218  29.835  1.00  0.00    -0.354 N 
ATOM     39  C   UNL A   1      42.988  27.567  32.308  1.00  0.00     0.074 A 
ATOM     40  C   UNL A   1      43.811  26.644  31.558  1.00  0.00     0.031 C 
ATOM     41  C   UNL A   1      38.663  29.503  27.967  1.00  0.00     0.029 A 
ATOM     42  C   UNL A   1      38.788  29.935  29.356  1.00  0.00     0.049 A 
ATOM     43  H   UNL A   1      40.209  29.321  30.749  1.00  0.00     0.167 HD
ATOM     44  C   UNL A   1      43.205  27.908  33.600  1.00  0.00     0.037 A 
ATOM     45  C   UNL A   1      37.983  30.823  29.972  1.00  0.00     0.037 A 
ATOM     46  C   UNL A   1      42.419  28.869  34.332  1.00  0.00     0.049 A 
ATOM     47  C   UNL A   1      38.239  31.167  31.416  1.00  0.00     0.074 A 
ATOM     48  C   UNL A   1      42.578  29.298  35.639  1.00  0.00     0.029 A 
ATOM     49  N   UNL A   1      41.333  29.559  33.815  1.00  0.00    -0.354 N 
ATOM     50  N   UNL A   1      39.184  30.739  32.217  1.00  0.00    -0.248 NA
ATOM     51  C   UNL A   1      37.314  32.122  32.042  1.00  0.00     0.031 C 
ATOM     52  C   UNL A   1      41.561  30.213  35.928  1.00  0.00     0.029 A 
ATOM     53  C   UNL A   1      40.804  30.399  34.783  1.00  0.00     0.049 A 
ATOM     54  H   UNL A   1      40.989  29.467  32.897  1.00  0.00     0.167 HD
ATOM     55  C   UNL A   1      38.985  31.392  33.426  1.00  0.00     0.074 A 
ATOM     56  C   UNL A   1      37.845  32.264  33.247  1.00  0.00     0.031 C 
ATOM     57  C   UNL A   1      39.680  31.276  34.585  1.00  0.00     0.037 A 
BRANCH  44  58
ATOM     58  C   UNL A   1      44.323  27.223  34.331  1.00  0.00     0.064 A 
ATOM     59  C   UNL A   1      45.604  27.784  34.428  1.00  0.00     0.173 A 
ATOM     60  C   UNL A   1      44.086  26.012  35.001  1.00  0.00     0.173 A 
ATOM     61  F   UNL A   1      45.886  28.935  33.798  1.00  0.00    -0.203 F 
ATOM     62  C   UNL A   1      46.610  27.153  35.157  1.00  0.00     0.198 A 
ATOM     63  C   UNL A   1      45.084  25.398  35.752  1.00  0.00     0.198 A 
ATOM     64  F   UNL A   1      42.876  25.434  34.945  1.00  0.00    -0.203 F 
ATOM     65  F   UNL A   1      47.836  27.691  35.211  1.00  0.00    -0.200 F 
ATOM     66  C   UNL A   1      46.346  25.967  35.826  1.00  0.00     0.200 A 
ATOM     67  F   UNL A   1      44.822  24.260  36.411  1.00  0.00    -0.200 F 
ATOM     68  F   UNL A   1      47.309  25.370  36.542  1.00  0.00    -0.200 F 
ENDBRANCH  44  58
BRANCH  45  69
ATOM     69  C   UNL A   1      36.835  31.429  29.245  1.00  0.00     0.064 A 
ATOM     70  C   UNL A   1      36.826  32.788  28.899  1.00  0.00     0.173 A 
ATOM     71  C   UNL A   1      35.695  30.672  28.932  1.00  0.00     0.173 A 
ATOM     72  F   UNL A   1      37.878  33.563  29.200  1.00  0.00    -0.203 F 
ATOM     73  C   UNL A   1      35.710  33.372  28.302  1.00  0.00     0.198 A 
ATOM     74  C   UNL A   1      34.596  31.248  28.302  1.00  0.00     0.198 A 
ATOM     75  F   UNL A   1      35.648  29.368  29.244  1.00  0.00    -0.203 F 
ATOM     76  F   UNL A   1      35.701  34.688  28.048  1.00  0.00    -0.200 F 
ATOM     77  C   UNL A   1      34.597  32.601  28.000  1.00  0.00     0.200 A 
ATOM     78  F   UNL A   1      33.528  30.496  28.003  1.00  0.00    -0.200 F 
ATOM     79  F   UNL A   1      33.522  33.165  27.435  1.00  0.00    -0.200 F 
ENDBRANCH  45  69
BRANCH  57  80
ATOM     80  C   UNL A   1      39.257  32.154  35.728  1.00  0.00     0.064 A 
ATOM     81  C   UNL A   1      39.758  33.455  35.887  1.00  0.00     0.173 A 
ATOM     82  C   UNL A   1      38.331  31.687  36.673  1.00  0.00     0.173 A 
ATOM     83  F   UNL A   1      40.656  33.944  35.019  1.00  0.00    -0.203 F 
ATOM     84  C   UNL A   1      39.379  34.240  36.973  1.00  0.00     0.198 A 
ATOM     85  C   UNL A   1      37.927  32.488  37.738  1.00  0.00     0.198 A 
ATOM     86  F   UNL A   1      37.813  30.454  36.564  1.00  0.00    -0.203 F 
ATOM     87  F   UNL A   1      39.921  35.454  37.140  1.00  0.00    -0.200 F 
ATOM     88  C   UNL A   1      38.461  33.757  37.894  1.00  0.00     0.200 A 
ATOM     89  F   UNL A   1      37.029  32.026  38.619  1.00  0.00    -0.200 F 
ATOM     90  F   UNL A   1      38.100  34.513  38.941  1.00  0.00    -0.200 F 
ENDBRANCH  57  80
ENDBRANCH  31  32
ENDBRANCH  24  26
ENDBRANCH  23  24
ENDBRANCH  22  23
ENDBRANCH   1  22
TORSDOF 14
ENDMDL
