MODEL 1
REMARK VINA RESULT:     -13.8      0.000      0.000
REMARK SMILES NS(=O)(=O)c1ccc(-c2cc(Cl)cc3c2O[C@H](C(F)(F)F)C(C(=O)OCCOC(=O)c2ccc(-c4c5nc(c(-c6c(F)c(F)c(F)c(F)c6F)c6ccc([nH]6)c(-c6c(F)c(F)c(F)c(F)c6F)c6nc(c(-c7c(F)c(F)c(F)c(F)c7F)c7ccc4[nH]7)C=C6)C=C5)cc2)=C3)cc1
REMARK SMILES IDX 26 1 25 2 23 3 24 4 22 5 9 6 10 7 15 8 11 9 14 10 16 11
REMARK SMILES IDX 12 12 13 13 94 14 17 15 8 16 5 17 6 18 96 19 7 20 95 21 2 22
REMARK SMILES IDX 3 23 4 24 1 25 18 28 19 29 20 30 21 31 27 32 28 33 29 34
REMARK SMILES IDX 30 35 31 36 32 37 93 38 33 39 92 40 34 41 35 42 36 43 86 44
REMARK SMILES IDX 37 45 91 46 85 47 87 48 38 49 90 50 84 51 83 52 39 54 71 55
REMARK SMILES IDX 51 56 70 57 52 58 55 59 69 60 88 61 53 62 54 63 68 65 89 66
REMARK SMILES IDX 56 67 40 68 41 69 49 70 42 71 43 72 47 73 50 74 44 75 45 76
REMARK SMILES IDX 48 77 46 78 72 79 73 80 81 81 74 82 75 83 79 84 82 85 76 86
REMARK SMILES IDX 77 87 80 88 78 89 57 90 58 91 66 92 59 93 60 94 64 95 67 96
REMARK SMILES IDX 61 97 62 98 65 99 63 100
REMARK H PARENT 1 26 1 27 87 53 55 64
REMARK Flexibility Score: inf
ROOT
ATOM      1  C   UNL A   1      31.132  29.213  24.407  1.00  0.00     0.275 C 
ENDROOT
BRANCH   1   2
ATOM      2  O   UNL A   1      30.767  28.053  25.194  1.00  0.00    -0.459 OA
BRANCH   2   3
ATOM      3  C   UNL A   1      30.591  26.953  24.413  1.00  0.00     0.338 C 
ATOM      4  O   UNL A   1      29.529  26.646  23.883  1.00  0.00    -0.246 OA
BRANCH   3   5
ATOM      5  C   UNL A   1      31.840  26.201  24.141  1.00  0.00     0.087 C 
ATOM      6  C   UNL A   1      31.949  22.157  24.649  1.00  0.00     0.026 A 
ATOM      7  C   UNL A   1      30.978  21.924  25.655  1.00  0.00     0.033 A 
ATOM      8  C   UNL A   1      32.273  23.502  24.449  1.00  0.00     0.135 A 
ATOM      9  C   UNL A   1      30.502  22.930  26.506  1.00  0.00     0.042 A 
ATOM     10  C   UNL A   1      31.974  24.446  25.459  1.00  0.00     0.019 A 
ATOM     11  O   UNL A   1      32.745  24.018  23.253  1.00  0.00    -0.475 OA
ATOM     12  Cl  UNL A   1      29.222  22.697  27.622  1.00  0.00    -0.084 Cl
ATOM     13  C   UNL A   1      31.079  24.176  26.476  1.00  0.00     0.032 A 
ATOM     14  C   UNL A   1      32.442  25.832  25.284  1.00  0.00     0.027 C 
ATOM     15  C   UNL A   1      32.068  25.323  22.921  1.00  0.00     0.316 C 
BRANCH   6  16
ATOM     16  C   UNL A   1      32.646  20.940  24.139  1.00  0.00    -0.015 A 
ATOM     17  C   UNL A   1      33.595  18.260  23.972  1.00  0.00     0.082 A 
ATOM     18  C   UNL A   1      32.551  18.690  23.149  1.00  0.00     0.022 A 
ATOM     19  C   UNL A   1      34.234  19.175  24.805  1.00  0.00     0.022 A 
ATOM     20  C   UNL A   1      32.107  20.035  23.212  1.00  0.00     0.010 A 
ATOM     21  C   UNL A   1      33.764  20.493  24.881  1.00  0.00     0.010 A 
BRANCH  17  22
ATOM     22  S   UNL A   1      34.119  16.562  24.011  1.00  0.00     0.238 S 
ATOM     23  O   UNL A   1      35.118  16.404  25.037  1.00  0.00    -0.207 OA
ATOM     24  O   UNL A   1      34.333  16.124  22.646  1.00  0.00    -0.207 OA
BRANCH  22  25
ATOM     25  N   UNL A   1      32.781  15.726  24.573  1.00  0.00    -0.225 NA
ATOM     26  H   UNL A   1      31.959  15.999  24.033  1.00  0.00     0.137 HD
ATOM     27  H   UNL A   1      32.631  15.947  25.557  1.00  0.00     0.137 HD
ENDBRANCH  22  25
ENDBRANCH  17  22
ENDBRANCH   6  16
BRANCH  15  28
ATOM     28  C   UNL A   1      32.922  26.143  21.951  1.00  0.00     0.430 C 
ATOM     29  F   UNL A   1      32.794  25.705  20.675  1.00  0.00    -0.167 F 
ATOM     30  F   UNL A   1      32.597  27.453  21.970  1.00  0.00    -0.167 F 
ATOM     31  F   UNL A   1      34.239  26.055  22.271  1.00  0.00    -0.167 F 
ENDBRANCH  15  28
ENDBRANCH   3   5
ENDBRANCH   2   3
ENDBRANCH   1   2
BRANCH   1  32
ATOM     32  C   UNL A   1      32.555  29.702  24.684  1.00  0.00     0.275 C 
BRANCH  32  33
ATOM     33  O   UNL A   1      32.892  29.527  26.074  1.00  0.00    -0.458 OA
BRANCH  33  34
ATOM     34  C   UNL A   1      33.043  30.686  26.754  1.00  0.00     0.338 C 
ATOM     35  O   UNL A   1      32.192  31.550  26.908  1.00  0.00    -0.246 OA
BRANCH  34  36
ATOM     36  C   UNL A   1      34.350  30.732  27.451  1.00  0.00     0.060 A 
ATOM     37  C   UNL A   1      34.829  29.513  27.921  1.00  0.00     0.016 A 
ATOM     38  C   UNL A   1      35.105  31.893  27.664  1.00  0.00     0.016 A 
ATOM     39  C   UNL A   1      36.063  29.456  28.562  1.00  0.00     0.010 A 
ATOM     40  C   UNL A   1      36.350  31.824  28.329  1.00  0.00     0.010 A 
ATOM     41  C   UNL A   1      36.858  30.595  28.769  1.00  0.00    -0.014 A 
BRANCH  41  42
ATOM     42  C   UNL A   1      38.189  30.378  29.430  1.00  0.00     0.031 A 
ATOM     43  C   UNL A   1      38.407  30.839  30.841  1.00  0.00     0.074 A 
ATOM     44  C   UNL A   1      39.113  29.554  28.891  1.00  0.00     0.049 A 
ATOM     45  N   UNL A   1      39.431  30.622  31.628  1.00  0.00    -0.248 NA
ATOM     46  C   UNL A   1      37.342  31.652  31.448  1.00  0.00     0.031 C 
ATOM     47  C   UNL A   1      39.046  29.014  27.549  1.00  0.00     0.029 A 
ATOM     48  N   UNL A   1      40.231  28.945  29.422  1.00  0.00    -0.354 N 
ATOM     49  C   UNL A   1      39.129  31.255  32.820  1.00  0.00     0.074 A 
ATOM     50  C   UNL A   1      37.817  31.847  32.669  1.00  0.00     0.031 C 
ATOM     51  C   UNL A   1      39.944  28.028  27.409  1.00  0.00     0.029 A 
ATOM     52  C   UNL A   1      40.779  27.980  28.602  1.00  0.00     0.049 A 
ATOM     53  H   UNL A   1      40.603  29.179  30.303  1.00  0.00     0.167 HD
ATOM     54  C   UNL A   1      39.894  31.365  33.930  1.00  0.00     0.037 A 
ATOM     55  C   UNL A   1      41.857  27.181  28.761  1.00  0.00     0.037 A 
ATOM     56  C   UNL A   1      41.230  30.856  34.057  1.00  0.00     0.049 A 
ATOM     57  C   UNL A   1      42.730  27.399  29.971  1.00  0.00     0.074 A 
ATOM     58  C   UNL A   1      42.131  31.036  35.093  1.00  0.00     0.029 A 
ATOM     59  N   UNL A   1      41.867  30.076  33.106  1.00  0.00    -0.354 N 
ATOM     60  N   UNL A   1      42.520  28.163  31.015  1.00  0.00    -0.248 NA
ATOM     61  C   UNL A   1      44.034  26.715  29.981  1.00  0.00     0.031 C 
ATOM     62  C   UNL A   1      43.304  30.342  34.779  1.00  0.00     0.029 A 
ATOM     63  C   UNL A   1      43.113  29.689  33.573  1.00  0.00     0.049 A 
ATOM     64  H   UNL A   1      41.491  29.832  32.230  1.00  0.00     0.167 HD
ATOM     65  C   UNL A   1      43.685  28.100  31.767  1.00  0.00     0.074 A 
ATOM     66  C   UNL A   1      44.568  27.165  31.107  1.00  0.00     0.031 C 
ATOM     67  C   UNL A   1      44.001  28.785  32.891  1.00  0.00     0.037 A 
BRANCH  54  68
ATOM     68  C   UNL A   1      39.304  32.129  35.069  1.00  0.00     0.064 A 
ATOM     69  C   UNL A   1      39.477  33.516  35.181  1.00  0.00     0.173 A 
ATOM     70  C   UNL A   1      38.581  31.466  36.069  1.00  0.00     0.173 A 
ATOM     71  F   UNL A   1      40.186  34.183  34.257  1.00  0.00    -0.203 F 
ATOM     72  C   UNL A   1      38.965  34.209  36.274  1.00  0.00     0.198 A 
ATOM     73  C   UNL A   1      38.050  32.165  37.147  1.00  0.00     0.198 A 
ATOM     74  F   UNL A   1      38.399  30.138  36.002  1.00  0.00    -0.203 F 
ATOM     75  F   UNL A   1      39.186  35.525  36.392  1.00  0.00    -0.200 F 
ATOM     76  C   UNL A   1      38.250  33.534  37.253  1.00  0.00     0.200 A 
ATOM     77  F   UNL A   1      37.359  31.512  38.090  1.00  0.00    -0.200 F 
ATOM     78  F   UNL A   1      37.764  34.201  38.309  1.00  0.00    -0.200 F 
ENDBRANCH  54  68
BRANCH  55  79
ATOM     79  C   UNL A   1      42.271  26.210  27.701  1.00  0.00     0.064 A 
ATOM     80  C   UNL A   1      43.234  26.544  26.736  1.00  0.00     0.173 A 
ATOM     81  C   UNL A   1      41.668  24.947  27.587  1.00  0.00     0.173 A 
ATOM     82  F   UNL A   1      43.815  27.754  26.759  1.00  0.00    -0.203 F 
ATOM     83  C   UNL A   1      43.566  25.664  25.703  1.00  0.00     0.198 A 
ATOM     84  C   UNL A   1      42.035  24.049  26.587  1.00  0.00     0.198 A 
ATOM     85  F   UNL A   1      40.713  24.576  28.453  1.00  0.00    -0.203 F 
ATOM     86  F   UNL A   1      44.439  26.039  24.758  1.00  0.00    -0.200 F 
ATOM     87  C   UNL A   1      42.975  24.412  25.637  1.00  0.00     0.200 A 
ATOM     88  F   UNL A   1      41.466  22.835  26.539  1.00  0.00    -0.200 F 
ATOM     89  F   UNL A   1      43.298  23.563  24.651  1.00  0.00    -0.200 F 
ENDBRANCH  55  79
BRANCH  67  90
ATOM     90  C   UNL A   1      45.353  28.539  33.488  1.00  0.00     0.064 A 
ATOM     91  C   UNL A   1      46.471  29.297  33.109  1.00  0.00     0.173 A 
ATOM     92  C   UNL A   1      45.521  27.564  34.479  1.00  0.00     0.173 A 
ATOM     93  F   UNL A   1      46.362  30.228  32.150  1.00  0.00    -0.203 F 
ATOM     94  C   UNL A   1      47.714  29.078  33.699  1.00  0.00     0.198 A 
ATOM     95  C   UNL A   1      46.760  27.361  35.081  1.00  0.00     0.198 A 
ATOM     96  F   UNL A   1      44.478  26.818  34.874  1.00  0.00    -0.203 F 
ATOM     97  F   UNL A   1      48.778  29.793  33.305  1.00  0.00    -0.200 F 
ATOM     98  C   UNL A   1      47.854  28.116  34.689  1.00  0.00     0.200 A 
ATOM     99  F   UNL A   1      46.892  26.439  36.044  1.00  0.00    -0.200 F 
ATOM    100  F   UNL A   1      49.049  27.915  35.264  1.00  0.00    -0.200 F 
ENDBRANCH  67  90
ENDBRANCH  41  42
ENDBRANCH  34  36
ENDBRANCH  33  34
ENDBRANCH  32  33
ENDBRANCH   1  32
TORSDOF 15
ENDMDL
MODEL 2
REMARK VINA RESULT:     -13.1      4.403      9.562
REMARK SMILES NS(=O)(=O)c1ccc(-c2cc(Cl)cc3c2O[C@H](C(F)(F)F)C(C(=O)OCCOC(=O)c2ccc(-c4c5nc(c(-c6c(F)c(F)c(F)c(F)c6F)c6ccc([nH]6)c(-c6c(F)c(F)c(F)c(F)c6F)c6nc(c(-c7c(F)c(F)c(F)c(F)c7F)c7ccc4[nH]7)C=C6)C=C5)cc2)=C3)cc1
REMARK SMILES IDX 26 1 25 2 23 3 24 4 22 5 9 6 10 7 15 8 11 9 14 10 16 11
REMARK SMILES IDX 12 12 13 13 94 14 17 15 8 16 5 17 6 18 96 19 7 20 95 21 2 22
REMARK SMILES IDX 3 23 4 24 1 25 18 28 19 29 20 30 21 31 27 32 28 33 29 34
REMARK SMILES IDX 30 35 31 36 32 37 93 38 33 39 92 40 34 41 35 42 36 43 86 44
REMARK SMILES IDX 37 45 91 46 85 47 87 48 38 49 90 50 84 51 83 52 39 54 71 55
REMARK SMILES IDX 51 56 70 57 52 58 55 59 69 60 88 61 53 62 54 63 68 65 89 66
REMARK SMILES IDX 56 67 40 68 41 69 49 70 42 71 43 72 47 73 50 74 44 75 45 76
REMARK SMILES IDX 48 77 46 78 72 79 73 80 81 81 74 82 75 83 79 84 82 85 76 86
REMARK SMILES IDX 77 87 80 88 78 89 57 90 58 91 66 92 59 93 60 94 64 95 67 96
REMARK SMILES IDX 61 97 62 98 65 99 63 100
REMARK H PARENT 1 26 1 27 87 53 55 64
REMARK Flexibility Score: inf
ROOT
ATOM      1  C   UNL A   1      34.802  20.682  24.618  1.00  0.00     0.275 C 
ENDROOT
BRANCH   1   2
ATOM      2  O   UNL A   1      33.380  20.920  24.752  1.00  0.00    -0.459 OA
BRANCH   2   3
ATOM      3  C   UNL A   1      32.978  21.989  24.012  1.00  0.00     0.338 C 
ATOM      4  O   UNL A   1      32.743  21.945  22.810  1.00  0.00    -0.246 OA
BRANCH   3   5
ATOM      5  C   UNL A   1      32.716  23.211  24.810  1.00  0.00     0.087 C 
ATOM      6  C   UNL A   1      30.973  26.460  23.071  1.00  0.00     0.026 A 
ATOM      7  C   UNL A   1      31.367  26.359  21.712  1.00  0.00     0.033 A 
ATOM      8  C   UNL A   1      31.631  25.583  23.937  1.00  0.00     0.135 A 
ATOM      9  C   UNL A   1      32.446  25.574  21.286  1.00  0.00     0.042 A 
ATOM     10  C   UNL A   1      32.854  24.997  23.535  1.00  0.00     0.019 A 
ATOM     11  O   UNL A   1      31.097  25.121  25.129  1.00  0.00    -0.475 OA
ATOM     12  Cl  UNL A   1      32.838  25.322  19.637  1.00  0.00    -0.084 Cl
ATOM     13  C   UNL A   1      33.258  24.971  22.214  1.00  0.00     0.032 A 
ATOM     14  C   UNL A   1      33.595  24.181  24.513  1.00  0.00     0.027 C 
ATOM     15  C   UNL A   1      31.342  23.643  25.297  1.00  0.00     0.316 C 
BRANCH   6  16
ATOM     16  C   UNL A   1      30.114  27.634  23.401  1.00  0.00    -0.015 A 
ATOM     17  C   UNL A   1      28.782  30.140  23.161  1.00  0.00     0.082 A 
ATOM     18  C   UNL A   1      28.067  28.947  23.027  1.00  0.00     0.022 A 
ATOM     19  C   UNL A   1      30.129  30.098  23.509  1.00  0.00     0.022 A 
ATOM     20  C   UNL A   1      28.729  27.704  23.183  1.00  0.00     0.010 A 
ATOM     21  C   UNL A   1      30.778  28.861  23.629  1.00  0.00     0.010 A 
BRANCH  17  22
ATOM     22  S   UNL A   1      28.026  31.723  22.871  1.00  0.00     0.238 S 
ATOM     23  O   UNL A   1      26.922  31.887  23.781  1.00  0.00    -0.207 OA
ATOM     24  O   UNL A   1      27.885  31.901  21.441  1.00  0.00    -0.207 OA
BRANCH  22  25
ATOM     25  N   UNL A   1      29.176  32.831  23.376  1.00  0.00    -0.225 NA
ATOM     26  H   UNL A   1      30.103  32.407  23.325  1.00  0.00     0.137 HD
ATOM     27  H   UNL A   1      28.982  33.109  24.338  1.00  0.00     0.137 HD
ENDBRANCH  22  25
ENDBRANCH  17  22
ENDBRANCH   6  16
BRANCH  15  28
ATOM     28  C   UNL A   1      31.259  23.246  26.773  1.00  0.00     0.430 C 
ATOM     29  F   UNL A   1      31.661  21.968  26.972  1.00  0.00    -0.167 F 
ATOM     30  F   UNL A   1      32.017  24.043  27.556  1.00  0.00    -0.167 F 
ATOM     31  F   UNL A   1      29.984  23.337  27.228  1.00  0.00    -0.167 F 
ENDBRANCH  15  28
ENDBRANCH   3   5
ENDBRANCH   2   3
ENDBRANCH   1   2
BRANCH   1  32
ATOM     32  C   UNL A   1      35.607  21.162  25.827  1.00  0.00     0.275 C 
BRANCH  32  33
ATOM     33  O   UNL A   1      36.693  22.012  25.412  1.00  0.00    -0.458 OA
BRANCH  33  34
ATOM     34  C   UNL A   1      37.920  21.485  25.630  1.00  0.00     0.338 C 
ATOM     35  O   UNL A   1      38.306  20.381  25.276  1.00  0.00    -0.246 OA
BRANCH  34  36
ATOM     36  C   UNL A   1      38.833  22.484  26.234  1.00  0.00     0.060 A 
ATOM     37  C   UNL A   1      38.525  23.817  25.979  1.00  0.00     0.016 A 
ATOM     38  C   UNL A   1      39.956  22.177  27.014  1.00  0.00     0.016 A 
ATOM     39  C   UNL A   1      39.310  24.826  26.530  1.00  0.00     0.010 A 
ATOM     40  C   UNL A   1      40.753  23.210  27.556  1.00  0.00     0.010 A 
ATOM     41  C   UNL A   1      40.427  24.555  27.338  1.00  0.00    -0.014 A 
BRANCH  41  42
ATOM     42  C   UNL A   1      41.153  25.740  27.906  1.00  0.00     0.031 A 
ATOM     43  C   UNL A   1      42.562  26.030  27.477  1.00  0.00     0.074 A 
ATOM     44  C   UNL A   1      40.497  26.702  28.590  1.00  0.00     0.049 A 
ATOM     45  N   UNL A   1      43.304  27.075  27.744  1.00  0.00    -0.248 NA
ATOM     46  C   UNL A   1      43.226  25.015  26.645  1.00  0.00     0.031 C 
ATOM     47  C   UNL A   1      39.134  26.584  29.066  1.00  0.00     0.029 A 
ATOM     48  N   UNL A   1      40.837  27.996  28.922  1.00  0.00    -0.354 N 
ATOM     49  C   UNL A   1      44.510  26.852  27.106  1.00  0.00     0.074 A 
ATOM     50  C   UNL A   1      44.400  25.584  26.416  1.00  0.00     0.031 C 
ATOM     51  C   UNL A   1      38.681  27.785  29.455  1.00  0.00     0.029 A 
ATOM     52  C   UNL A   1      39.785  28.736  29.423  1.00  0.00     0.049 A 
ATOM     53  H   UNL A   1      41.747  28.358  28.813  1.00  0.00     0.167 HD
ATOM     54  C   UNL A   1      45.625  27.618  27.124  1.00  0.00     0.037 A 
ATOM     55  C   UNL A   1      39.719  30.014  29.855  1.00  0.00     0.037 A 
ATOM     56  C   UNL A   1      45.772  28.831  27.876  1.00  0.00     0.049 A 
ATOM     57  C   UNL A   1      41.001  30.802  29.940  1.00  0.00     0.074 A 
ATOM     58  C   UNL A   1      46.906  29.603  28.062  1.00  0.00     0.029 A 
ATOM     59  N   UNL A   1      44.751  29.446  28.583  1.00  0.00    -0.354 N 
ATOM     60  N   UNL A   1      42.195  30.489  29.500  1.00  0.00    -0.248 NA
ATOM     61  C   UNL A   1      40.948  32.082  30.667  1.00  0.00     0.031 C 
ATOM     62  C   UNL A   1      46.564  30.699  28.862  1.00  0.00     0.029 A 
ATOM     63  C   UNL A   1      45.207  30.635  29.129  1.00  0.00     0.049 A 
ATOM     64  H   UNL A   1      43.838  29.090  28.683  1.00  0.00     0.167 HD
ATOM     65  C   UNL A   1      43.039  31.495  29.950  1.00  0.00     0.074 A 
ATOM     66  C   UNL A   1      42.214  32.470  30.628  1.00  0.00     0.031 C 
ATOM     67  C   UNL A   1      44.384  31.583  29.834  1.00  0.00     0.037 A 
BRANCH  54  68
ATOM     68  C   UNL A   1      46.792  27.108  26.345  1.00  0.00     0.064 A 
ATOM     69  C   UNL A   1      47.756  26.280  26.937  1.00  0.00     0.173 A 
ATOM     70  C   UNL A   1      46.962  27.472  25.003  1.00  0.00     0.173 A 
ATOM     71  F   UNL A   1      47.641  25.931  28.228  1.00  0.00    -0.203 F 
ATOM     72  C   UNL A   1      48.865  25.853  26.215  1.00  0.00     0.198 A 
ATOM     73  C   UNL A   1      48.059  27.025  24.277  1.00  0.00     0.198 A 
ATOM     74  F   UNL A   1      46.066  28.270  24.401  1.00  0.00    -0.203 F 
ATOM     75  F   UNL A   1      49.803  25.106  26.811  1.00  0.00    -0.200 F 
ATOM     76  C   UNL A   1      49.014  26.223  24.885  1.00  0.00     0.200 A 
ATOM     77  F   UNL A   1      48.200  27.381  22.993  1.00  0.00    -0.200 F 
ATOM     78  F   UNL A   1      50.088  25.818  24.192  1.00  0.00    -0.200 F 
ENDBRANCH  54  68
BRANCH  55  79
ATOM     79  C   UNL A   1      38.445  30.594  30.382  1.00  0.00     0.064 A 
ATOM     80  C   UNL A   1      38.164  30.619  31.758  1.00  0.00     0.173 A 
ATOM     81  C   UNL A   1      37.447  31.078  29.520  1.00  0.00     0.173 A 
ATOM     82  F   UNL A   1      39.055  30.128  32.633  1.00  0.00    -0.203 F 
ATOM     83  C   UNL A   1      36.943  31.093  32.243  1.00  0.00     0.198 A 
ATOM     84  C   UNL A   1      36.249  31.597  30.007  1.00  0.00     0.198 A 
ATOM     85  F   UNL A   1      37.633  31.049  28.192  1.00  0.00    -0.203 F 
ATOM     86  F   UNL A   1      36.677  31.042  33.555  1.00  0.00    -0.200 F 
ATOM     87  C   UNL A   1      35.991  31.594  31.367  1.00  0.00     0.200 A 
ATOM     88  F   UNL A   1      35.341  32.091  29.153  1.00  0.00    -0.200 F 
ATOM     89  F   UNL A   1      34.822  32.056  31.832  1.00  0.00    -0.200 F 
ENDBRANCH  55  79
BRANCH  67  90
ATOM     90  C   UNL A   1      45.050  32.780  30.442  1.00  0.00     0.064 A 
ATOM     91  C   UNL A   1      45.182  33.983  29.735  1.00  0.00     0.173 A 
ATOM     92  C   UNL A   1      45.521  32.732  31.761  1.00  0.00     0.173 A 
ATOM     93  F   UNL A   1      44.763  34.070  28.464  1.00  0.00    -0.203 F 
ATOM     94  C   UNL A   1      45.773  35.097  30.328  1.00  0.00     0.198 A 
ATOM     95  C   UNL A   1      46.092  33.853  32.357  1.00  0.00     0.198 A 
ATOM     96  F   UNL A   1      45.413  31.602  32.475  1.00  0.00    -0.203 F 
ATOM     97  F   UNL A   1      45.916  36.231  29.628  1.00  0.00    -0.200 F 
ATOM     98  C   UNL A   1      46.220  35.032  31.640  1.00  0.00     0.200 A 
ATOM     99  F   UNL A   1      46.514  33.792  33.627  1.00  0.00    -0.200 F 
ATOM    100  F   UNL A   1      46.778  36.109  32.213  1.00  0.00    -0.200 F 
ENDBRANCH  67  90
ENDBRANCH  41  42
ENDBRANCH  34  36
ENDBRANCH  33  34
ENDBRANCH  32  33
ENDBRANCH   1  32
TORSDOF 15
ENDMDL
MODEL 3
REMARK VINA RESULT:     -12.9      3.794      9.181
REMARK SMILES NS(=O)(=O)c1ccc(-c2cc(Cl)cc3c2O[C@H](C(F)(F)F)C(C(=O)OCCOC(=O)c2ccc(-c4c5nc(c(-c6c(F)c(F)c(F)c(F)c6F)c6ccc([nH]6)c(-c6c(F)c(F)c(F)c(F)c6F)c6nc(c(-c7c(F)c(F)c(F)c(F)c7F)c7ccc4[nH]7)C=C6)C=C5)cc2)=C3)cc1
REMARK SMILES IDX 26 1 25 2 23 3 24 4 22 5 9 6 10 7 15 8 11 9 14 10 16 11
REMARK SMILES IDX 12 12 13 13 94 14 17 15 8 16 5 17 6 18 96 19 7 20 95 21 2 22
REMARK SMILES IDX 3 23 4 24 1 25 18 28 19 29 20 30 21 31 27 32 28 33 29 34
REMARK SMILES IDX 30 35 31 36 32 37 93 38 33 39 92 40 34 41 35 42 36 43 86 44
REMARK SMILES IDX 37 45 91 46 85 47 87 48 38 49 90 50 84 51 83 52 39 54 71 55
REMARK SMILES IDX 51 56 70 57 52 58 55 59 69 60 88 61 53 62 54 63 68 65 89 66
REMARK SMILES IDX 56 67 40 68 41 69 49 70 42 71 43 72 47 73 50 74 44 75 45 76
REMARK SMILES IDX 48 77 46 78 72 79 73 80 81 81 74 82 75 83 79 84 82 85 76 86
REMARK SMILES IDX 77 87 80 88 78 89 57 90 58 91 66 92 59 93 60 94 64 95 67 96
REMARK SMILES IDX 61 97 62 98 65 99 63 100
REMARK H PARENT 1 26 1 27 87 53 55 64
REMARK Flexibility Score: inf
ROOT
ATOM      1  C   UNL A   1      45.297  22.624  25.962  1.00  0.00     0.275 C 
ENDROOT
BRANCH   1   2
ATOM      2  O   UNL A   1      43.859  22.748  26.083  1.00  0.00    -0.459 OA
BRANCH   2   3
ATOM      3  C   UNL A   1      43.430  22.413  27.330  1.00  0.00     0.338 C 
ATOM      4  O   UNL A   1      43.868  22.902  28.364  1.00  0.00    -0.246 OA
BRANCH   3   5
ATOM      5  C   UNL A   1      42.275  21.482  27.339  1.00  0.00     0.087 C 
ATOM      6  C   UNL A   1      38.642  22.710  25.956  1.00  0.00     0.026 A 
ATOM      7  C   UNL A   1      38.652  24.108  26.195  1.00  0.00     0.033 A 
ATOM      8  C   UNL A   1      39.692  22.007  26.552  1.00  0.00     0.135 A 
ATOM      9  C   UNL A   1      39.534  24.723  27.093  1.00  0.00     0.042 A 
ATOM     10  C   UNL A   1      40.401  22.596  27.625  1.00  0.00     0.019 A 
ATOM     11  O   UNL A   1      40.197  20.809  26.073  1.00  0.00    -0.475 OA
ATOM     12  Cl  UNL A   1      39.662  26.422  27.279  1.00  0.00    -0.084 Cl
ATOM     13  C   UNL A   1      40.343  23.951  27.889  1.00  0.00     0.032 A 
ATOM     14  C   UNL A   1      41.415  21.786  28.324  1.00  0.00     0.027 C 
ATOM     15  C   UNL A   1      41.704  20.806  26.102  1.00  0.00     0.316 C 
BRANCH   6  16
ATOM     16  C   UNL A   1      37.398  22.179  25.325  1.00  0.00    -0.015 A 
ATOM     17  C   UNL A   1      34.911  20.827  25.012  1.00  0.00     0.082 A 
ATOM     18  C   UNL A   1      34.951  22.222  25.078  1.00  0.00     0.022 A 
ATOM     19  C   UNL A   1      36.102  20.106  25.003  1.00  0.00     0.022 A 
ATOM     20  C   UNL A   1      36.195  22.891  25.198  1.00  0.00     0.010 A 
ATOM     21  C   UNL A   1      37.323  20.778  25.154  1.00  0.00     0.010 A 
BRANCH  17  22
ATOM     22  S   UNL A   1      33.374  19.934  24.969  1.00  0.00     0.238 S 
ATOM     23  O   UNL A   1      33.562  18.718  24.220  1.00  0.00    -0.207 OA
ATOM     24  O   UNL A   1      32.314  20.874  24.668  1.00  0.00    -0.207 OA
BRANCH  22  25
ATOM     25  N   UNL A   1      33.136  19.440  26.551  1.00  0.00    -0.225 NA
ATOM     26  H   UNL A   1      33.532  20.132  27.187  1.00  0.00     0.137 HD
ATOM     27  H   UNL A   1      33.594  18.541  26.699  1.00  0.00     0.137 HD
ENDBRANCH  22  25
ENDBRANCH  17  22
ENDBRANCH   6  16
BRANCH  15  28
ATOM     28  C   UNL A   1      42.241  19.372  26.104  1.00  0.00     0.430 C 
ATOM     29  F   UNL A   1      41.276  18.474  25.795  1.00  0.00    -0.167 F 
ATOM     30  F   UNL A   1      43.252  19.209  25.224  1.00  0.00    -0.167 F 
ATOM     31  F   UNL A   1      42.720  19.036  27.328  1.00  0.00    -0.167 F 
ENDBRANCH  15  28
ENDBRANCH   3   5
ENDBRANCH   2   3
ENDBRANCH   1   2
BRANCH   1  32
ATOM     32  C   UNL A   1      45.939  23.795  25.217  1.00  0.00     0.275 C 
BRANCH  32  33
ATOM     33  O   UNL A   1      45.000  24.877  25.062  1.00  0.00    -0.458 OA
BRANCH  33  34
ATOM     34  C   UNL A   1      45.568  26.105  25.073  1.00  0.00     0.338 C 
ATOM     35  O   UNL A   1      46.388  26.530  24.272  1.00  0.00    -0.246 OA
BRANCH  34  36
ATOM     36  C   UNL A   1      44.955  26.969  26.109  1.00  0.00     0.060 A 
ATOM     37  C   UNL A   1      44.159  26.319  27.047  1.00  0.00     0.016 A 
ATOM     38  C   UNL A   1      45.118  28.359  26.193  1.00  0.00     0.016 A 
ATOM     39  C   UNL A   1      43.566  27.047  28.074  1.00  0.00     0.010 A 
ATOM     40  C   UNL A   1      44.499  29.088  27.234  1.00  0.00     0.010 A 
ATOM     41  C   UNL A   1      43.729  28.436  28.205  1.00  0.00    -0.014 A 
BRANCH  41  42
ATOM     42  C   UNL A   1      43.074  29.084  29.390  1.00  0.00     0.031 A 
ATOM     43  C   UNL A   1      41.641  29.524  29.304  1.00  0.00     0.074 A 
ATOM     44  C   UNL A   1      43.646  29.051  30.613  1.00  0.00     0.049 A 
ATOM     45  N   UNL A   1      40.861  29.973  30.255  1.00  0.00    -0.248 NA
ATOM     46  C   UNL A   1      41.003  29.457  27.981  1.00  0.00     0.031 C 
ATOM     47  C   UNL A   1      45.011  28.642  30.868  1.00  0.00     0.029 A 
ATOM     48  N   UNL A   1      43.138  29.266  31.877  1.00  0.00    -0.354 N 
ATOM     49  C   UNL A   1      39.643  30.227  29.651  1.00  0.00     0.074 A 
ATOM     50  C   UNL A   1      39.772  29.862  28.257  1.00  0.00     0.031 C 
ATOM     51  C   UNL A   1      45.193  28.451  32.182  1.00  0.00     0.029 A 
ATOM     52  C   UNL A   1      43.999  28.896  32.890  1.00  0.00     0.049 A 
ATOM     53  H   UNL A   1      42.246  29.648  32.040  1.00  0.00     0.167 HD
ATOM     54  C   UNL A   1      38.525  30.753  30.203  1.00  0.00     0.037 A 
ATOM     55  C   UNL A   1      43.872  28.953  34.234  1.00  0.00     0.037 A 
ATOM     56  C   UNL A   1      38.416  31.199  31.563  1.00  0.00     0.049 A 
ATOM     57  C   UNL A   1      42.650  29.627  34.804  1.00  0.00     0.074 A 
ATOM     58  C   UNL A   1      37.369  31.867  32.174  1.00  0.00     0.029 A 
ATOM     59  N   UNL A   1      39.399  31.034  32.525  1.00  0.00    -0.354 N 
ATOM     60  N   UNL A   1      41.573  30.046  34.186  1.00  0.00    -0.248 NA
ATOM     61  C   UNL A   1      42.665  29.922  36.247  1.00  0.00     0.031 C 
ATOM     62  C   UNL A   1      37.709  32.084  33.513  1.00  0.00     0.029 A 
ATOM     63  C   UNL A   1      38.945  31.505  33.747  1.00  0.00     0.049 A 
ATOM     64  H   UNL A   1      40.287  30.641  32.365  1.00  0.00     0.167 HD
ATOM     65  C   UNL A   1      40.819  30.705  35.147  1.00  0.00     0.074 A 
ATOM     66  C   UNL A   1      41.517  30.565  36.405  1.00  0.00     0.031 C 
ATOM     67  C   UNL A   1      39.664  31.392  34.988  1.00  0.00     0.037 A 
BRANCH  54  68
ATOM     68  C   UNL A   1      37.355  30.928  29.292  1.00  0.00     0.064 A 
ATOM     69  C   UNL A   1      37.018  32.187  28.775  1.00  0.00     0.173 A 
ATOM     70  C   UNL A   1      36.550  29.832  28.954  1.00  0.00     0.173 A 
ATOM     71  F   UNL A   1      37.750  33.265  29.097  1.00  0.00    -0.203 F 
ATOM     72  C   UNL A   1      35.896  32.346  27.968  1.00  0.00     0.198 A 
ATOM     73  C   UNL A   1      35.443  29.990  28.128  1.00  0.00     0.198 A 
ATOM     74  F   UNL A   1      36.834  28.612  29.434  1.00  0.00    -0.203 F 
ATOM     75  F   UNL A   1      35.558  33.564  27.527  1.00  0.00    -0.200 F 
ATOM     76  C   UNL A   1      35.112  31.247  27.643  1.00  0.00     0.200 A 
ATOM     77  F   UNL A   1      34.689  28.929  27.814  1.00  0.00    -0.200 F 
ATOM     78  F   UNL A   1      34.027  31.402  26.872  1.00  0.00    -0.200 F 
ENDBRANCH  54  68
BRANCH  55  79
ATOM     79  C   UNL A   1      44.973  28.504  35.142  1.00  0.00     0.064 A 
ATOM     80  C   UNL A   1      46.043  29.352  35.473  1.00  0.00     0.173 A 
ATOM     81  C   UNL A   1      45.019  27.195  35.648  1.00  0.00     0.173 A 
ATOM     82  F   UNL A   1      46.085  30.600  34.983  1.00  0.00    -0.203 F 
ATOM     83  C   UNL A   1      47.107  28.907  36.260  1.00  0.00     0.198 A 
ATOM     84  C   UNL A   1      46.056  26.766  36.474  1.00  0.00     0.198 A 
ATOM     85  F   UNL A   1      44.049  26.320  35.340  1.00  0.00    -0.203 F 
ATOM     86  F   UNL A   1      48.146  29.718  36.503  1.00  0.00    -0.200 F 
ATOM     87  C   UNL A   1      47.107  27.617  36.770  1.00  0.00     0.200 A 
ATOM     88  F   UNL A   1      46.039  25.521  36.973  1.00  0.00    -0.200 F 
ATOM     89  F   UNL A   1      48.124  27.192  37.532  1.00  0.00    -0.200 F 
ENDBRANCH  55  79
BRANCH  67  90
ATOM     90  C   UNL A   1      39.073  32.034  36.207  1.00  0.00     0.064 A 
ATOM     91  C   UNL A   1      38.181  31.343  37.040  1.00  0.00     0.173 A 
ATOM     92  C   UNL A   1      39.438  33.338  36.565  1.00  0.00     0.173 A 
ATOM     93  F   UNL A   1      37.788  30.100  36.726  1.00  0.00    -0.203 F 
ATOM     94  C   UNL A   1      37.668  31.944  38.188  1.00  0.00     0.198 A 
ATOM     95  C   UNL A   1      38.939  33.928  37.724  1.00  0.00     0.198 A 
ATOM     96  F   UNL A   1      40.290  34.035  35.798  1.00  0.00    -0.203 F 
ATOM     97  F   UNL A   1      36.795  31.279  38.958  1.00  0.00    -0.200 F 
ATOM     98  C   UNL A   1      38.054  33.231  38.532  1.00  0.00     0.200 A 
ATOM     99  F   UNL A   1      39.320  35.167  38.060  1.00  0.00    -0.200 F 
ATOM    100  F   UNL A   1      37.568  33.803  39.643  1.00  0.00    -0.200 F 
ENDBRANCH  67  90
ENDBRANCH  41  42
ENDBRANCH  34  36
ENDBRANCH  33  34
ENDBRANCH  32  33
ENDBRANCH   1  32
TORSDOF 15
ENDMDL
