MODEL 1
REMARK VINA RESULT:     -14.6      0.000      0.000
REMARK SMILES Cc1ccccc1/[NH+]=C1\S[C@@H](CC(=O)Nc2ccc(C(=O)OCCOC(=O)c3ccc(-c4c5nc(c(-c6c(F)c(F)c(F)c(F)c6F)c6ccc([nH]6)c(-c6c(F)c(F)c(F)c(F)c6F)c6nc(c(-c7c(F)c(F)c(F)c(F)c7F)c7ccc4[nH]7)C=C6)C=C5)cc3)cc2)C(=O)N1C
REMARK SMILES IDX 23 1 22 2 20 3 21 4 19 5 16 6 17 7 92 8 18 9 91 10 15 11
REMARK SMILES IDX 13 12 14 13 12 15 11 16 8 17 9 18 10 20 95 21 93 22 96 23
REMARK SMILES IDX 94 24 7 25 1 26 2 27 3 28 4 29 6 30 5 31 24 32 25 33 26 34
REMARK SMILES IDX 27 35 28 36 29 37 90 38 30 39 89 40 31 41 32 42 33 43 83 44
REMARK SMILES IDX 34 45 88 46 82 47 84 48 35 49 87 50 81 51 80 52 36 54 68 55
REMARK SMILES IDX 48 56 67 57 49 58 52 59 66 60 85 61 50 62 51 63 65 65 86 66
REMARK SMILES IDX 53 67 37 68 38 69 46 70 39 71 40 72 44 73 47 74 41 75 42 76
REMARK SMILES IDX 45 77 43 78 69 79 70 80 78 81 71 82 72 83 76 84 79 85 73 86
REMARK SMILES IDX 74 87 77 88 75 89 54 90 55 91 63 92 56 93 57 94 61 95 64 96
REMARK SMILES IDX 58 97 59 98 62 99 60 100
REMARK H PARENT 15 14 8 19 84 53 52 64
REMARK Flexibility Score: inf
ROOT
ATOM      1  C   UNL A   1      33.493  29.163  26.659  1.00  0.00     0.275 C 
ENDROOT
BRANCH   1   2
ATOM      2  O   UNL A   1      32.120  29.289  26.269  1.00  0.00    -0.458 OA
BRANCH   2   3
ATOM      3  C   UNL A   1      31.421  28.132  26.353  1.00  0.00     0.338 C 
ATOM      4  O   UNL A   1      31.287  27.421  27.337  1.00  0.00    -0.246 OA
BRANCH   3   5
ATOM      5  C   UNL A   1      30.890  27.734  25.041  1.00  0.00     0.060 A 
ATOM      6  C   UNL A   1      30.884  26.469  22.595  1.00  0.00     0.041 A 
ATOM      7  C   UNL A   1      31.365  27.775  22.690  1.00  0.00     0.027 A 
ATOM      8  C   UNL A   1      30.188  25.887  23.648  1.00  0.00     0.027 A 
ATOM      9  C   UNL A   1      31.391  28.407  23.930  1.00  0.00     0.018 A 
ATOM     10  C   UNL A   1      30.216  26.516  24.890  1.00  0.00     0.018 A 
BRANCH   6  11
ATOM     11  N   UNL A   1      31.411  25.648  21.591  1.00  0.00    -0.326 N 
ATOM     12  C   UNL A   1      32.772  25.527  21.372  1.00  0.00     0.226 C 
ATOM     13  O   UNL A   1      33.179  25.141  20.274  1.00  0.00    -0.275 OA
ATOM     14  H   UNL A   1      30.792  25.140  21.020  1.00  0.00     0.169 HD
BRANCH  12  15
ATOM     15  C   UNL A   1      33.751  25.815  22.506  1.00  0.00     0.128 C 
BRANCH  15  16
ATOM     16  C   UNL A   1      33.943  24.678  23.492  1.00  0.00     0.183 C 
ATOM     17  N   UNL A   1      33.006  21.613  25.200  1.00  0.00    -0.234 N 
ATOM     18  C   UNL A   1      32.825  22.733  24.603  1.00  0.00     0.319 C 
ATOM     19  H   UNL A   1      32.742  21.618  26.148  1.00  0.00     0.313 HD
ATOM     20  S   UNL A   1      32.956  23.221  22.953  1.00  0.00    -0.022 SA
ATOM     21  N   UNL A   1      32.639  23.856  25.346  1.00  0.00    -0.193 N 
ATOM     22  C   UNL A   1      33.472  24.872  24.933  1.00  0.00     0.324 C 
ATOM     23  C   UNL A   1      32.021  23.828  26.659  1.00  0.00     0.301 C 
ATOM     24  O   UNL A   1      33.948  25.716  25.687  1.00  0.00    -0.245 OA
BRANCH  17  25
ATOM     25  C   UNL A   1      33.510  20.385  24.756  1.00  0.00     0.128 A 
ATOM     26  C   UNL A   1      36.049  20.697  25.182  1.00  0.00     0.049 C 
ATOM     27  C   UNL A   1      34.835  19.903  24.799  1.00  0.00    -0.004 A 
ATOM     28  C   UNL A   1      35.089  18.545  24.510  1.00  0.00     0.008 A 
ATOM     29  C   UNL A   1      34.056  17.642  24.287  1.00  0.00     0.001 A 
ATOM     30  C   UNL A   1      32.488  19.445  24.510  1.00  0.00     0.052 A 
ATOM     31  C   UNL A   1      32.748  18.090  24.300  1.00  0.00     0.004 A 
ENDBRANCH  17  25
ENDBRANCH  15  16
ENDBRANCH  12  15
ENDBRANCH   6  11
ENDBRANCH   3   5
ENDBRANCH   2   3
ENDBRANCH   1   2
BRANCH   1  32
ATOM     32  C   UNL A   1      33.941  30.301  27.588  1.00  0.00     0.275 C 
BRANCH  32  33
ATOM     33  O   UNL A   1      35.163  30.129  28.363  1.00  0.00    -0.458 OA
BRANCH  33  34
ATOM     34  C   UNL A   1      36.350  30.775  28.206  1.00  0.00     0.338 C 
ATOM     35  O   UNL A   1      36.436  31.955  27.977  1.00  0.00    -0.246 OA
BRANCH  34  36
ATOM     36  C   UNL A   1      37.556  29.947  28.377  1.00  0.00     0.060 A 
ATOM     37  C   UNL A   1      37.561  28.992  29.401  1.00  0.00     0.016 A 
ATOM     38  C   UNL A   1      38.591  30.031  27.453  1.00  0.00     0.016 A 
ATOM     39  C   UNL A   1      38.535  28.004  29.413  1.00  0.00     0.010 A 
ATOM     40  C   UNL A   1      39.488  28.998  27.388  1.00  0.00     0.010 A 
ATOM     41  C   UNL A   1      39.467  28.003  28.377  1.00  0.00    -0.014 A 
BRANCH  41  42
ATOM     42  C   UNL A   1      40.701  27.252  28.460  1.00  0.00     0.031 A 
ATOM     43  C   UNL A   1      40.755  25.813  28.169  1.00  0.00     0.074 A 
ATOM     44  C   UNL A   1      41.731  28.081  28.744  1.00  0.00     0.049 A 
ATOM     45  N   UNL A   1      41.534  24.998  28.790  1.00  0.00    -0.248 NA
ATOM     46  C   UNL A   1      39.902  25.141  27.185  1.00  0.00     0.031 C 
ATOM     47  C   UNL A   1      43.166  27.906  28.705  1.00  0.00     0.029 A 
ATOM     48  N   UNL A   1      41.566  29.367  29.304  1.00  0.00    -0.354 N 
ATOM     49  C   UNL A   1      41.566  23.839  28.040  1.00  0.00     0.074 A 
ATOM     50  C   UNL A   1      40.415  23.900  27.174  1.00  0.00     0.031 C 
ATOM     51  C   UNL A   1      43.726  28.850  29.490  1.00  0.00     0.029 A 
ATOM     52  C   UNL A   1      42.644  29.572  30.156  1.00  0.00     0.049 A 
ATOM     53  H   UNL A   1      40.830  29.994  29.125  1.00  0.00     0.167 HD
ATOM     54  C   UNL A   1      42.708  23.092  28.040  1.00  0.00     0.037 A 
ATOM     55  C   UNL A   1      42.399  29.608  31.499  1.00  0.00     0.037 A 
ATOM     56  C   UNL A   1      43.725  23.773  28.827  1.00  0.00     0.049 A 
ATOM     57  C   UNL A   1      43.079  28.446  32.169  1.00  0.00     0.074 A 
ATOM     58  C   UNL A   1      44.688  24.689  28.435  1.00  0.00     0.029 A 
ATOM     59  N   UNL A   1      43.566  23.923  30.199  1.00  0.00    -0.354 N 
ATOM     60  N   UNL A   1      43.174  27.251  31.650  1.00  0.00    -0.248 NA
ATOM     61  C   UNL A   1      43.794  28.589  33.428  1.00  0.00     0.031 C 
ATOM     62  C   UNL A   1      45.102  25.407  29.578  1.00  0.00     0.029 A 
ATOM     63  C   UNL A   1      44.376  24.943  30.661  1.00  0.00     0.049 A 
ATOM     64  H   UNL A   1      42.964  23.382  30.759  1.00  0.00     0.167 HD
ATOM     65  C   UNL A   1      44.032  26.507  32.423  1.00  0.00     0.074 A 
ATOM     66  C   UNL A   1      44.371  27.382  33.532  1.00  0.00     0.031 C 
ATOM     67  C   UNL A   1      44.460  25.257  32.073  1.00  0.00     0.037 A 
BRANCH  54  68
ATOM     68  C   UNL A   1      43.031  22.001  27.048  1.00  0.00     0.064 A 
ATOM     69  C   UNL A   1      42.361  20.755  27.096  1.00  0.00     0.173 A 
ATOM     70  C   UNL A   1      43.976  22.133  26.015  1.00  0.00     0.173 A 
ATOM     71  F   UNL A   1      41.402  20.503  27.995  1.00  0.00    -0.203 F 
ATOM     72  C   UNL A   1      42.650  19.707  26.223  1.00  0.00     0.198 A 
ATOM     73  C   UNL A   1      44.275  21.070  25.146  1.00  0.00     0.198 A 
ATOM     74  F   UNL A   1      44.604  23.297  25.808  1.00  0.00    -0.203 F 
ATOM     75  F   UNL A   1      41.985  18.548  26.335  1.00  0.00    -0.200 F 
ATOM     76  C   UNL A   1      43.618  19.858  25.257  1.00  0.00     0.200 A 
ATOM     77  F   UNL A   1      45.199  21.225  24.188  1.00  0.00    -0.200 F 
ATOM     78  F   UNL A   1      43.904  18.845  24.426  1.00  0.00    -0.200 F 
ENDBRANCH  54  68
BRANCH  55  79
ATOM     79  C   UNL A   1      41.068  30.184  31.893  1.00  0.00     0.064 A 
ATOM     80  C   UNL A   1      40.009  29.302  32.220  1.00  0.00     0.173 A 
ATOM     81  C   UNL A   1      40.861  31.538  32.184  1.00  0.00     0.173 A 
ATOM     82  F   UNL A   1      40.125  27.989  31.958  1.00  0.00    -0.203 F 
ATOM     83  C   UNL A   1      38.864  29.730  32.892  1.00  0.00     0.198 A 
ATOM     84  C   UNL A   1      39.698  31.971  32.838  1.00  0.00     0.198 A 
ATOM     85  F   UNL A   1      41.804  32.447  31.908  1.00  0.00    -0.203 F 
ATOM     86  F   UNL A   1      37.944  28.836  33.283  1.00  0.00    -0.200 F 
ATOM     87  C   UNL A   1      38.712  31.066  33.208  1.00  0.00     0.200 A 
ATOM     88  F   UNL A   1      39.567  33.260  33.187  1.00  0.00    -0.200 F 
ATOM     89  F   UNL A   1      37.648  31.477  33.914  1.00  0.00    -0.200 F 
ENDBRANCH  55  79
BRANCH  67  90
ATOM     90  C   UNL A   1      45.157  24.256  32.966  1.00  0.00     0.064 A 
ATOM     91  C   UNL A   1      46.454  24.432  33.470  1.00  0.00     0.173 A 
ATOM     92  C   UNL A   1      44.457  23.131  33.479  1.00  0.00     0.173 A 
ATOM     93  F   UNL A   1      47.173  25.526  33.191  1.00  0.00    -0.203 F 
ATOM     94  C   UNL A   1      47.036  23.513  34.343  1.00  0.00     0.198 A 
ATOM     95  C   UNL A   1      45.012  22.265  34.415  1.00  0.00     0.198 A 
ATOM     96  F   UNL A   1      43.197  22.846  33.121  1.00  0.00    -0.203 F 
ATOM     97  F   UNL A   1      48.304  23.695  34.738  1.00  0.00    -0.200 F 
ATOM     98  C   UNL A   1      46.313  22.440  34.828  1.00  0.00     0.200 A 
ATOM     99  F   UNL A   1      44.268  21.274  34.926  1.00  0.00    -0.200 F 
ATOM    100  F   UNL A   1      46.860  21.594  35.708  1.00  0.00    -0.200 F 
ENDBRANCH  67  90
ENDBRANCH  41  42
ENDBRANCH  34  36
ENDBRANCH  33  34
ENDBRANCH  32  33
ENDBRANCH   1  32
TORSDOF 15
ENDMDL
MODEL 2
REMARK VINA RESULT:     -14.5      0.634      1.726
REMARK SMILES Cc1ccccc1/[NH+]=C1\S[C@@H](CC(=O)Nc2ccc(C(=O)OCCOC(=O)c3ccc(-c4c5nc(c(-c6c(F)c(F)c(F)c(F)c6F)c6ccc([nH]6)c(-c6c(F)c(F)c(F)c(F)c6F)c6nc(c(-c7c(F)c(F)c(F)c(F)c7F)c7ccc4[nH]7)C=C6)C=C5)cc3)cc2)C(=O)N1C
REMARK SMILES IDX 23 1 22 2 20 3 21 4 19 5 16 6 17 7 92 8 18 9 91 10 15 11
REMARK SMILES IDX 13 12 14 13 12 15 11 16 8 17 9 18 10 20 95 21 93 22 96 23
REMARK SMILES IDX 94 24 7 25 1 26 2 27 3 28 4 29 6 30 5 31 24 32 25 33 26 34
REMARK SMILES IDX 27 35 28 36 29 37 90 38 30 39 89 40 31 41 32 42 33 43 83 44
REMARK SMILES IDX 34 45 88 46 82 47 84 48 35 49 87 50 81 51 80 52 36 54 68 55
REMARK SMILES IDX 48 56 67 57 49 58 52 59 66 60 85 61 50 62 51 63 65 65 86 66
REMARK SMILES IDX 53 67 37 68 38 69 46 70 39 71 40 72 44 73 47 74 41 75 42 76
REMARK SMILES IDX 45 77 43 78 69 79 70 80 78 81 71 82 72 83 76 84 79 85 73 86
REMARK SMILES IDX 74 87 77 88 75 89 54 90 55 91 63 92 56 93 57 94 61 95 64 96
REMARK SMILES IDX 58 97 59 98 62 99 60 100
REMARK H PARENT 15 14 8 19 84 53 52 64
REMARK Flexibility Score: inf
ROOT
ATOM      1  C   UNL A   1      32.956  29.794  27.251  1.00  0.00     0.275 C 
ENDROOT
BRANCH   1   2
ATOM      2  O   UNL A   1      32.048  29.397  26.217  1.00  0.00    -0.458 OA
BRANCH   2   3
ATOM      3  C   UNL A   1      31.473  28.189  26.429  1.00  0.00     0.338 C 
ATOM      4  O   UNL A   1      31.468  27.547  27.468  1.00  0.00    -0.246 OA
BRANCH   3   5
ATOM      5  C   UNL A   1      30.907  27.643  25.188  1.00  0.00     0.060 A 
ATOM      6  C   UNL A   1      30.892  26.226  22.826  1.00  0.00     0.041 A 
ATOM      7  C   UNL A   1      31.207  27.585  22.808  1.00  0.00     0.027 A 
ATOM      8  C   UNL A   1      30.352  25.634  23.961  1.00  0.00     0.027 A 
ATOM      9  C   UNL A   1      31.239  28.296  24.004  1.00  0.00     0.018 A 
ATOM     10  C   UNL A   1      30.386  26.343  25.159  1.00  0.00     0.018 A 
BRANCH   6  11
ATOM     11  N   UNL A   1      31.449  25.412  21.832  1.00  0.00    -0.326 N 
ATOM     12  C   UNL A   1      32.814  25.230  21.703  1.00  0.00     0.226 C 
ATOM     13  O   UNL A   1      33.279  24.858  20.623  1.00  0.00    -0.275 OA
ATOM     14  H   UNL A   1      30.847  24.954  21.203  1.00  0.00     0.169 HD
BRANCH  12  15
ATOM     15  C   UNL A   1      33.724  25.433  22.910  1.00  0.00     0.128 C 
BRANCH  15  16
ATOM     16  C   UNL A   1      33.892  24.216  23.800  1.00  0.00     0.183 C 
ATOM     17  N   UNL A   1      32.938  20.993  25.177  1.00  0.00    -0.234 N 
ATOM     18  C   UNL A   1      32.762  22.159  24.674  1.00  0.00     0.319 C 
ATOM     19  H   UNL A   1      32.627  20.908  26.107  1.00  0.00     0.313 HD
ATOM     20  S   UNL A   1      32.965  22.796  23.083  1.00  0.00    -0.022 SA
ATOM     21  N   UNL A   1      32.515  23.208  25.504  1.00  0.00    -0.193 N 
ATOM     22  C   UNL A   1      33.345  24.271  25.226  1.00  0.00     0.324 C 
ATOM     23  C   UNL A   1      31.833  23.051  26.775  1.00  0.00     0.301 C 
ATOM     24  O   UNL A   1      33.765  25.051  26.075  1.00  0.00    -0.245 OA
BRANCH  17  25
ATOM     25  C   UNL A   1      33.490  19.819  24.651  1.00  0.00     0.128 A 
ATOM     26  C   UNL A   1      36.023  20.250  25.006  1.00  0.00     0.049 C 
ATOM     27  C   UNL A   1      34.840  19.410  24.624  1.00  0.00    -0.004 A 
ATOM     28  C   UNL A   1      35.155  18.084  24.255  1.00  0.00     0.008 A 
ATOM     29  C   UNL A   1      34.164  17.139  24.021  1.00  0.00     0.001 A 
ATOM     30  C   UNL A   1      32.511  18.838  24.392  1.00  0.00     0.052 A 
ATOM     31  C   UNL A   1      32.835  17.512  24.102  1.00  0.00     0.004 A 
ENDBRANCH  17  25
ENDBRANCH  15  16
ENDBRANCH  12  15
ENDBRANCH   6  11
ENDBRANCH   3   5
ENDBRANCH   2   3
ENDBRANCH   1   2
BRANCH   1  32
ATOM     32  C   UNL A   1      34.398  29.349  26.961  1.00  0.00     0.275 C 
BRANCH  32  33
ATOM     33  O   UNL A   1      35.492  30.222  27.366  1.00  0.00    -0.458 OA
BRANCH  33  34
ATOM     34  C   UNL A   1      36.193  30.197  28.531  1.00  0.00     0.338 C 
ATOM     35  O   UNL A   1      35.834  30.764  29.532  1.00  0.00    -0.246 OA
BRANCH  34  36
ATOM     36  C   UNL A   1      37.423  29.386  28.521  1.00  0.00     0.060 A 
ATOM     37  C   UNL A   1      38.317  29.559  27.457  1.00  0.00     0.016 A 
ATOM     38  C   UNL A   1      37.734  28.585  29.613  1.00  0.00     0.016 A 
ATOM     39  C   UNL A   1      39.604  29.048  27.552  1.00  0.00     0.010 A 
ATOM     40  C   UNL A   1      39.033  28.176  29.769  1.00  0.00     0.010 A 
ATOM     41  C   UNL A   1      39.953  28.393  28.732  1.00  0.00    -0.014 A 
BRANCH  41  42
ATOM     42  C   UNL A   1      41.121  27.544  28.818  1.00  0.00     0.031 A 
ATOM     43  C   UNL A   1      41.073  26.119  28.465  1.00  0.00     0.074 A 
ATOM     44  C   UNL A   1      42.202  28.276  29.169  1.00  0.00     0.049 A 
ATOM     45  N   UNL A   1      41.764  25.219  29.072  1.00  0.00    -0.248 NA
ATOM     46  C   UNL A   1      40.202  25.559  27.428  1.00  0.00     0.031 C 
ATOM     47  C   UNL A   1      43.620  27.989  29.165  1.00  0.00     0.029 A 
ATOM     48  N   UNL A   1      42.120  29.546  29.781  1.00  0.00    -0.354 N 
ATOM     49  C   UNL A   1      41.730  24.094  28.273  1.00  0.00     0.074 A 
ATOM     50  C   UNL A   1      40.617  24.282  27.376  1.00  0.00     0.031 C 
ATOM     51  C   UNL A   1      44.225  28.853  30.008  1.00  0.00     0.029 A 
ATOM     52  C   UNL A   1      43.182  29.629  30.673  1.00  0.00     0.049 A 
ATOM     53  H   UNL A   1      41.441  30.237  29.608  1.00  0.00     0.167 HD
ATOM     54  C   UNL A   1      42.810  23.259  28.273  1.00  0.00     0.037 A 
ATOM     55  C   UNL A   1      42.896  29.628  32.008  1.00  0.00     0.037 A 
ATOM     56  C   UNL A   1      43.851  23.824  29.120  1.00  0.00     0.049 A 
ATOM     57  C   UNL A   1      43.461  28.388  32.646  1.00  0.00     0.074 A 
ATOM     58  C   UNL A   1      44.895  24.676  28.797  1.00  0.00     0.029 A 
ATOM     59  N   UNL A   1      43.659  23.928  30.491  1.00  0.00    -0.354 N 
ATOM     60  N   UNL A   1      43.479  27.212  32.077  1.00  0.00    -0.248 NA
ATOM     61  C   UNL A   1      44.142  28.422  33.931  1.00  0.00     0.031 C 
ATOM     62  C   UNL A   1      45.326  25.310  29.983  1.00  0.00     0.029 A 
ATOM     63  C   UNL A   1      44.530  24.860  31.022  1.00  0.00     0.049 A 
ATOM     64  H   UNL A   1      42.999  23.413  31.009  1.00  0.00     0.167 HD
ATOM     65  C   UNL A   1      44.251  26.371  32.841  1.00  0.00     0.074 A 
ATOM     66  C   UNL A   1      44.620  27.169  33.998  1.00  0.00     0.031 C 
ATOM     67  C   UNL A   1      44.592  25.107  32.448  1.00  0.00     0.037 A 
BRANCH  54  68
ATOM     68  C   UNL A   1      43.080  22.188  27.244  1.00  0.00     0.064 A 
ATOM     69  C   UNL A   1      42.294  21.013  27.197  1.00  0.00     0.173 A 
ATOM     70  C   UNL A   1      44.085  22.276  26.264  1.00  0.00     0.173 A 
ATOM     71  F   UNL A   1      41.271  20.814  28.035  1.00  0.00    -0.203 F 
ATOM     72  C   UNL A   1      42.528  19.982  26.287  1.00  0.00     0.198 A 
ATOM     73  C   UNL A   1      44.327  21.230  25.357  1.00  0.00     0.198 A 
ATOM     74  F   UNL A   1      44.831  23.382  26.146  1.00  0.00    -0.203 F 
ATOM     75  F   UNL A   1      41.751  18.890  26.308  1.00  0.00    -0.200 F 
ATOM     76  C   UNL A   1      43.554  20.084  25.375  1.00  0.00     0.200 A 
ATOM     77  F   UNL A   1      45.310  21.339  24.453  1.00  0.00    -0.200 F 
ATOM     78  F   UNL A   1      43.786  19.087  24.509  1.00  0.00    -0.200 F 
ENDBRANCH  54  68
BRANCH  55  79
ATOM     79  C   UNL A   1      41.602  30.290  32.388  1.00  0.00     0.064 A 
ATOM     80  C   UNL A   1      41.485  31.696  32.251  1.00  0.00     0.173 A 
ATOM     81  C   UNL A   1      40.418  29.591  32.653  1.00  0.00     0.173 A 
ATOM     82  F   UNL A   1      42.577  32.439  32.011  1.00  0.00    -0.203 F 
ATOM     83  C   UNL A   1      40.249  32.345  32.272  1.00  0.00     0.198 A 
ATOM     84  C   UNL A   1      39.180  30.249  32.698  1.00  0.00     0.198 A 
ATOM     85  F   UNL A   1      40.431  28.260  32.802  1.00  0.00    -0.203 F 
ATOM     86  F   UNL A   1      40.182  33.660  32.020  1.00  0.00    -0.200 F 
ATOM     87  C   UNL A   1      39.095  31.619  32.487  1.00  0.00     0.200 A 
ATOM     88  F   UNL A   1      38.052  29.541  32.862  1.00  0.00    -0.200 F 
ATOM     89  F   UNL A   1      37.898  32.221  32.440  1.00  0.00    -0.200 F 
ENDBRANCH  55  79
BRANCH  67  90
ATOM     90  C   UNL A   1      45.178  24.017  33.317  1.00  0.00     0.064 A 
ATOM     91  C   UNL A   1      44.489  22.849  33.672  1.00  0.00     0.173 A 
ATOM     92  C   UNL A   1      46.546  24.052  33.700  1.00  0.00     0.173 A 
ATOM     93  F   UNL A   1      43.241  22.613  33.249  1.00  0.00    -0.203 F 
ATOM     94  C   UNL A   1      45.090  21.839  34.424  1.00  0.00     0.198 A 
ATOM     95  C   UNL A   1      47.162  23.004  34.376  1.00  0.00     0.198 A 
ATOM     96  F   UNL A   1      47.347  25.086  33.405  1.00  0.00    -0.203 F 
ATOM     97  F   UNL A   1      44.363  20.775  34.794  1.00  0.00    -0.200 F 
ATOM     98  C   UNL A   1      46.427  21.908  34.763  1.00  0.00     0.200 A 
ATOM     99  F   UNL A   1      48.478  23.061  34.630  1.00  0.00    -0.200 F 
ATOM    100  F   UNL A   1      47.010  20.910  35.436  1.00  0.00    -0.200 F 
ENDBRANCH  67  90
ENDBRANCH  41  42
ENDBRANCH  34  36
ENDBRANCH  33  34
ENDBRANCH  32  33
ENDBRANCH   1  32
TORSDOF 15
ENDMDL
MODEL 3
REMARK VINA RESULT:     -14.4      1.160      2.329
REMARK SMILES Cc1ccccc1/[NH+]=C1\S[C@@H](CC(=O)Nc2ccc(C(=O)OCCOC(=O)c3ccc(-c4c5nc(c(-c6c(F)c(F)c(F)c(F)c6F)c6ccc([nH]6)c(-c6c(F)c(F)c(F)c(F)c6F)c6nc(c(-c7c(F)c(F)c(F)c(F)c7F)c7ccc4[nH]7)C=C6)C=C5)cc3)cc2)C(=O)N1C
REMARK SMILES IDX 23 1 22 2 20 3 21 4 19 5 16 6 17 7 92 8 18 9 91 10 15 11
REMARK SMILES IDX 13 12 14 13 12 15 11 16 8 17 9 18 10 20 95 21 93 22 96 23
REMARK SMILES IDX 94 24 7 25 1 26 2 27 3 28 4 29 6 30 5 31 24 32 25 33 26 34
REMARK SMILES IDX 27 35 28 36 29 37 90 38 30 39 89 40 31 41 32 42 33 43 83 44
REMARK SMILES IDX 34 45 88 46 82 47 84 48 35 49 87 50 81 51 80 52 36 54 68 55
REMARK SMILES IDX 48 56 67 57 49 58 52 59 66 60 85 61 50 62 51 63 65 65 86 66
REMARK SMILES IDX 53 67 37 68 38 69 46 70 39 71 40 72 44 73 47 74 41 75 42 76
REMARK SMILES IDX 45 77 43 78 69 79 70 80 78 81 71 82 72 83 76 84 79 85 73 86
REMARK SMILES IDX 74 87 77 88 75 89 54 90 55 91 63 92 56 93 57 94 61 95 64 96
REMARK SMILES IDX 58 97 59 98 62 99 60 100
REMARK H PARENT 15 14 8 19 84 53 52 64
REMARK Flexibility Score: inf
ROOT
ATOM      1  C   UNL A   1      32.758  30.324  27.264  1.00  0.00     0.275 C 
ENDROOT
BRANCH   1   2
ATOM      2  O   UNL A   1      32.750  28.912  27.507  1.00  0.00    -0.458 OA
BRANCH   2   3
ATOM      3  C   UNL A   1      32.009  28.209  26.617  1.00  0.00     0.338 C 
ATOM      4  O   UNL A   1      31.198  27.330  26.863  1.00  0.00    -0.246 OA
BRANCH   3   5
ATOM      5  C   UNL A   1      32.370  28.554  25.234  1.00  0.00     0.060 A 
ATOM      6  C   UNL A   1      32.888  28.096  22.568  1.00  0.00     0.041 A 
ATOM      7  C   UNL A   1      33.939  28.068  23.485  1.00  0.00     0.027 A 
ATOM      8  C   UNL A   1      31.640  28.588  22.929  1.00  0.00     0.027 A 
ATOM      9  C   UNL A   1      33.674  28.274  24.837  1.00  0.00     0.018 A 
ATOM     10  C   UNL A   1      31.373  28.793  24.280  1.00  0.00     0.018 A 
BRANCH   6  11
ATOM     11  N   UNL A   1      33.003  27.309  21.416  1.00  0.00    -0.326 N 
ATOM     12  C   UNL A   1      32.676  25.965  21.401  1.00  0.00     0.226 C 
ATOM     13  O   UNL A   1      33.152  25.233  20.530  1.00  0.00    -0.275 OA
ATOM     14  H   UNL A   1      33.329  27.728  20.587  1.00  0.00     0.169 HD
BRANCH  12  15
ATOM     15  C   UNL A   1      31.688  25.414  22.424  1.00  0.00     0.128 C 
BRANCH  15  16
ATOM     16  C   UNL A   1      32.317  24.838  23.679  1.00  0.00     0.183 C 
ATOM     17  N   UNL A   1      33.869  22.237  25.683  1.00  0.00    -0.234 N 
ATOM     18  C   UNL A   1      33.103  22.733  24.783  1.00  0.00     0.319 C 
ATOM     19  H   UNL A   1      33.389  21.814  26.429  1.00  0.00     0.313 HD
ATOM     20  S   UNL A   1      33.403  23.422  23.230  1.00  0.00    -0.022 SA
ATOM     21  N   UNL A   1      31.791  22.944  25.074  1.00  0.00    -0.193 N 
ATOM     22  C   UNL A   1      31.403  24.221  24.738  1.00  0.00     0.324 C 
ATOM     23  C   UNL A   1      31.063  22.123  26.025  1.00  0.00     0.301 C 
ATOM     24  O   UNL A   1      30.563  24.867  25.356  1.00  0.00    -0.245 OA
BRANCH  17  25
ATOM     25  C   UNL A   1      35.263  22.187  25.801  1.00  0.00     0.128 A 
ATOM     26  C   UNL A   1      35.762  19.814  24.879  1.00  0.00     0.049 C 
ATOM     27  C   UNL A   1      36.151  21.171  25.388  1.00  0.00    -0.004 A 
ATOM     28  C   UNL A   1      37.540  21.421  25.391  1.00  0.00     0.008 A 
ATOM     29  C   UNL A   1      38.054  22.677  25.688  1.00  0.00     0.001 A 
ATOM     30  C   UNL A   1      35.819  23.444  26.111  1.00  0.00     0.052 A 
ATOM     31  C   UNL A   1      37.189  23.699  26.038  1.00  0.00     0.004 A 
ENDBRANCH  17  25
ENDBRANCH  15  16
ENDBRANCH  12  15
ENDBRANCH   6  11
ENDBRANCH   3   5
ENDBRANCH   2   3
ENDBRANCH   1   2
BRANCH   1  32
ATOM     32  C   UNL A   1      34.172  30.920  27.346  1.00  0.00     0.275 C 
BRANCH  32  33
ATOM     33  O   UNL A   1      35.265  30.064  27.786  1.00  0.00    -0.458 OA
BRANCH  33  34
ATOM     34  C   UNL A   1      36.121  30.268  28.824  1.00  0.00     0.338 C 
ATOM     35  O   UNL A   1      35.880  31.009  29.744  1.00  0.00    -0.246 OA
BRANCH  34  36
ATOM     36  C   UNL A   1      37.368  29.485  28.789  1.00  0.00     0.060 A 
ATOM     37  C   UNL A   1      38.247  29.693  27.719  1.00  0.00     0.016 A 
ATOM     38  C   UNL A   1      37.707  28.674  29.866  1.00  0.00     0.016 A 
ATOM     39  C   UNL A   1      39.546  29.210  27.795  1.00  0.00     0.010 A 
ATOM     40  C   UNL A   1      39.016  28.291  30.003  1.00  0.00     0.010 A 
ATOM     41  C   UNL A   1      39.921  28.545  28.961  1.00  0.00    -0.014 A 
BRANCH  41  42
ATOM     42  C   UNL A   1      41.108  27.721  29.022  1.00  0.00     0.031 A 
ATOM     43  C   UNL A   1      41.093  26.306  28.625  1.00  0.00     0.074 A 
ATOM     44  C   UNL A   1      42.172  28.466  29.397  1.00  0.00     0.049 A 
ATOM     45  N   UNL A   1      41.804  25.403  29.205  1.00  0.00    -0.248 NA
ATOM     46  C   UNL A   1      40.236  25.758  27.570  1.00  0.00     0.031 C 
ATOM     47  C   UNL A   1      43.596  28.212  29.386  1.00  0.00     0.029 A 
ATOM     48  N   UNL A   1      42.060  29.714  30.047  1.00  0.00    -0.354 N 
ATOM     49  C   UNL A   1      41.797  24.303  28.372  1.00  0.00     0.074 A 
ATOM     50  C   UNL A   1      40.680  24.493  27.480  1.00  0.00     0.031 C 
ATOM     51  C   UNL A   1      44.181  29.062  30.256  1.00  0.00     0.029 A 
ATOM     52  C   UNL A   1      43.119  29.794  30.943  1.00  0.00     0.049 A 
ATOM     53  H   UNL A   1      41.366  30.394  29.895  1.00  0.00     0.167 HD
ATOM     54  C   UNL A   1      42.895  23.494  28.347  1.00  0.00     0.037 A 
ATOM     55  C   UNL A   1      42.833  29.745  32.277  1.00  0.00     0.037 A 
ATOM     56  C   UNL A   1      43.922  24.056  29.213  1.00  0.00     0.049 A 
ATOM     57  C   UNL A   1      43.425  28.499  32.877  1.00  0.00     0.074 A 
ATOM     58  C   UNL A   1      44.947  24.942  28.919  1.00  0.00     0.029 A 
ATOM     59  N   UNL A   1      43.727  24.113  30.587  1.00  0.00    -0.354 N 
ATOM     60  N   UNL A   1      43.471  27.342  32.272  1.00  0.00    -0.248 NA
ATOM     61  C   UNL A   1      44.105  28.509  34.164  1.00  0.00     0.031 C 
ATOM     62  C   UNL A   1      45.362  25.548  30.124  1.00  0.00     0.029 A 
ATOM     63  C   UNL A   1      44.576  25.048  31.147  1.00  0.00     0.049 A 
ATOM     64  H   UNL A   1      43.078  23.568  31.088  1.00  0.00     0.167 HD
ATOM     65  C   UNL A   1      44.261  26.496  33.012  1.00  0.00     0.074 A 
ATOM     66  C   UNL A   1      44.611  27.266  34.193  1.00  0.00     0.031 C 
ATOM     67  C   UNL A   1      44.631  25.252  32.580  1.00  0.00     0.037 A 
BRANCH  54  68
ATOM     68  C   UNL A   1      43.190  22.462  27.286  1.00  0.00     0.064 A 
ATOM     69  C   UNL A   1      42.432  21.270  27.203  1.00  0.00     0.173 A 
ATOM     70  C   UNL A   1      44.193  22.603  26.311  1.00  0.00     0.173 A 
ATOM     71  F   UNL A   1      41.414  21.021  28.034  1.00  0.00    -0.203 F 
ATOM     72  C   UNL A   1      42.691  20.273  26.262  1.00  0.00     0.198 A 
ATOM     73  C   UNL A   1      44.460  21.592  25.373  1.00  0.00     0.198 A 
ATOM     74  F   UNL A   1      44.912  23.730  26.227  1.00  0.00    -0.203 F 
ATOM     75  F   UNL A   1      41.940  19.163  26.249  1.00  0.00    -0.200 F 
ATOM     76  C   UNL A   1      43.715  20.427  25.355  1.00  0.00     0.200 A 
ATOM     77  F   UNL A   1      45.440  21.752  24.473  1.00  0.00    -0.200 F 
ATOM     78  F   UNL A   1      43.970  19.463  24.459  1.00  0.00    -0.200 F 
ENDBRANCH  54  68
BRANCH  55  79
ATOM     79  C   UNL A   1      41.523  30.366  32.675  1.00  0.00     0.064 A 
ATOM     80  C   UNL A   1      41.376  31.772  32.587  1.00  0.00     0.173 A 
ATOM     81  C   UNL A   1      40.354  29.632  32.912  1.00  0.00     0.173 A 
ATOM     82  F   UNL A   1      42.453  32.547  32.377  1.00  0.00    -0.203 F 
ATOM     83  C   UNL A   1      40.126  32.394  32.626  1.00  0.00     0.198 A 
ATOM     84  C   UNL A   1      39.102  30.261  32.975  1.00  0.00     0.198 A 
ATOM     85  F   UNL A   1      40.396  28.297  33.015  1.00  0.00    -0.203 F 
ATOM     86  F   UNL A   1      40.031  33.715  32.420  1.00  0.00    -0.200 F 
ATOM     87  C   UNL A   1      38.988  31.635  32.813  1.00  0.00     0.200 A 
ATOM     88  F   UNL A   1      37.989  29.523  33.111  1.00  0.00    -0.200 F 
ATOM     89  F   UNL A   1      37.778  32.213  32.782  1.00  0.00    -0.200 F 
ENDBRANCH  55  79
BRANCH  67  90
ATOM     90  C   UNL A   1      45.242  24.151  33.416  1.00  0.00     0.064 A 
ATOM     91  C   UNL A   1      44.585  22.950  33.721  1.00  0.00     0.173 A 
ATOM     92  C   UNL A   1      46.604  24.213  33.816  1.00  0.00     0.173 A 
ATOM     93  F   UNL A   1      43.349  22.692  33.276  1.00  0.00    -0.203 F 
ATOM     94  C   UNL A   1      45.209  21.931  34.443  1.00  0.00     0.198 A 
ATOM     95  C   UNL A   1      47.245  23.161  34.460  1.00  0.00     0.198 A 
ATOM     96  F   UNL A   1      47.376  25.281  33.567  1.00  0.00    -0.203 F 
ATOM     97  F   UNL A   1      44.511  20.834  34.766  1.00  0.00    -0.200 F 
ATOM     98  C   UNL A   1      46.540  22.029  34.799  1.00  0.00     0.200 A 
ATOM     99  F   UNL A   1      48.555  23.248  34.731  1.00  0.00    -0.200 F 
ATOM    100  F   UNL A   1      47.146  21.025  35.443  1.00  0.00    -0.200 F 
ENDBRANCH  67  90
ENDBRANCH  41  42
ENDBRANCH  34  36
ENDBRANCH  33  34
ENDBRANCH  32  33
ENDBRANCH   1  32
TORSDOF 15
ENDMDL
