MODEL 1
REMARK VINA RESULT:     -12.6      0.000      0.000
REMARK SMILES O=C(OCCOC(=O)c1ccc2c(c1)C(=O)O[C@H]2c1ccc(F)cc1)c1ccc(-c2c3nc(c(-c4c(F)c(F)c(F)c(F)c4F)c4ccc([nH]4)c(-c4c(F)c(F)c(F)c(F)c4F)c4nc(c(-c5c(F)c(F)c(F)c(F)c5F)c5ccc2[nH]5)C=C4)C=C3)cc1
REMARK SMILES IDX 4 1 3 2 2 3 1 4 26 5 27 6 88 7 28 8 87 9 29 10 30 11 31 12
REMARK SMILES IDX 81 13 32 14 86 15 80 16 82 17 33 18 85 19 79 20 78 21 34 23
REMARK SMILES IDX 66 24 46 25 65 26 47 27 50 28 64 29 83 30 48 31 49 32 63 34
REMARK SMILES IDX 84 35 51 36 35 37 36 38 44 39 37 40 38 41 42 42 45 43 39 44
REMARK SMILES IDX 40 45 43 46 41 47 67 48 68 49 76 50 69 51 70 52 74 53 77 54
REMARK SMILES IDX 71 55 72 56 75 57 73 58 52 59 53 60 61 61 54 62 55 63 59 64
REMARK SMILES IDX 62 65 56 66 57 67 60 68 58 69 5 70 6 71 7 72 8 73 9 74 10 75
REMARK SMILES IDX 14 76 11 77 13 78 12 79 15 80 18 81 16 82 17 83 19 84 20 85
REMARK SMILES IDX 25 86 21 87 24 88 22 89 23 90
REMARK H PARENT 82 22 50 33
REMARK Flexibility Score: inf
ROOT
ATOM      1  C   UNL A   1      31.507  32.010  26.807  1.00  0.00     0.275 C 
ENDROOT
BRANCH   1   2
ATOM      2  O   UNL A   1      32.611  32.935  26.829  1.00  0.00    -0.458 OA
BRANCH   2   3
ATOM      3  C   UNL A   1      33.256  33.516  27.866  1.00  0.00     0.338 C 
ATOM      4  O   UNL A   1      32.846  34.597  28.289  1.00  0.00    -0.246 OA
BRANCH   3   5
ATOM      5  C   UNL A   1      34.534  33.000  28.451  1.00  0.00     0.060 A 
ATOM      6  C   UNL A   1      35.815  33.459  28.151  1.00  0.00     0.016 A 
ATOM      7  C   UNL A   1      34.416  31.949  29.385  1.00  0.00     0.016 A 
ATOM      8  C   UNL A   1      36.933  32.952  28.814  1.00  0.00     0.010 A 
ATOM      9  C   UNL A   1      35.530  31.443  30.062  1.00  0.00     0.010 A 
ATOM     10  C   UNL A   1      36.799  31.953  29.781  1.00  0.00    -0.014 A 
BRANCH  10  11
ATOM     11  C   UNL A   1      38.020  31.407  30.411  1.00  0.00     0.031 A 
ATOM     12  C   UNL A   1      38.389  31.853  31.789  1.00  0.00     0.074 A 
ATOM     13  C   UNL A   1      38.713  30.433  29.796  1.00  0.00     0.049 A 
ATOM     14  N   UNL A   1      39.336  31.402  32.568  1.00  0.00    -0.248 NA
ATOM     15  C   UNL A   1      37.560  32.910  32.390  1.00  0.00     0.031 C 
ATOM     16  C   UNL A   1      38.369  29.852  28.501  1.00  0.00     0.029 A 
ATOM     17  N   UNL A   1      39.836  29.745  30.178  1.00  0.00    -0.354 N 
ATOM     18  C   UNL A   1      39.174  32.069  33.772  1.00  0.00     0.074 A 
ATOM     19  C   UNL A   1      38.092  33.014  33.599  1.00  0.00     0.031 C 
ATOM     20  C   UNL A   1      39.282  28.924  28.175  1.00  0.00     0.029 A 
ATOM     21  C   UNL A   1      40.275  28.844  29.237  1.00  0.00     0.049 A 
ATOM     22  H   UNL A   1      40.285  29.883  31.043  1.00  0.00     0.167 HD
ATOM     23  C   UNL A   1      39.843  31.872  34.929  1.00  0.00     0.037 A 
ATOM     24  C   UNL A   1      41.353  28.041  29.233  1.00  0.00     0.037 A 
ATOM     25  C   UNL A   1      40.933  30.947  35.080  1.00  0.00     0.049 A 
ATOM     26  C   UNL A   1      42.193  27.971  30.476  1.00  0.00     0.074 A 
ATOM     27  C   UNL A   1      41.699  30.694  36.203  1.00  0.00     0.029 A 
ATOM     28  N   UNL A   1      41.421  30.131  34.068  1.00  0.00    -0.354 N 
ATOM     29  N   UNL A   1      42.016  28.589  31.620  1.00  0.00    -0.248 NA
ATOM     30  C   UNL A   1      43.351  27.070  30.449  1.00  0.00     0.031 C 
ATOM     31  C   UNL A   1      42.681  29.762  35.858  1.00  0.00     0.029 A 
ATOM     32  C   UNL A   1      42.499  29.397  34.533  1.00  0.00     0.049 A 
ATOM     33  H   UNL A   1      41.054  30.081  33.155  1.00  0.00     0.167 HD
ATOM     34  C   UNL A   1      43.015  28.123  32.460  1.00  0.00     0.074 A 
ATOM     35  C   UNL A   1      43.792  27.168  31.696  1.00  0.00     0.031 C 
ATOM     36  C   UNL A   1      43.258  28.453  33.752  1.00  0.00     0.037 A 
BRANCH  23  37
ATOM     37  C   UNL A   1      39.408  32.667  36.120  1.00  0.00     0.064 A 
ATOM     38  C   UNL A   1      39.973  33.920  36.388  1.00  0.00     0.173 A 
ATOM     39  C   UNL A   1      38.461  32.162  37.023  1.00  0.00     0.173 A 
ATOM     40  F   UNL A   1      40.878  34.448  35.549  1.00  0.00    -0.203 F 
ATOM     41  C   UNL A   1      39.617  34.636  37.528  1.00  0.00     0.198 A 
ATOM     42  C   UNL A   1      38.091  32.889  38.152  1.00  0.00     0.198 A 
ATOM     43  F   UNL A   1      37.875  30.976  36.796  1.00  0.00    -0.203 F 
ATOM     44  F   UNL A   1      40.185  35.823  37.777  1.00  0.00    -0.200 F 
ATOM     45  C   UNL A   1      38.676  34.120  38.408  1.00  0.00     0.200 A 
ATOM     46  F   UNL A   1      37.164  32.401  38.987  1.00  0.00    -0.200 F 
ATOM     47  F   UNL A   1      38.329  34.813  39.501  1.00  0.00    -0.200 F 
ENDBRANCH  23  37
BRANCH  24  48
ATOM     48  C   UNL A   1      41.682  27.236  28.028  1.00  0.00     0.064 A 
ATOM     49  C   UNL A   1      41.144  25.950  27.856  1.00  0.00     0.173 A 
ATOM     50  C   UNL A   1      42.519  27.733  27.022  1.00  0.00     0.173 A 
ATOM     51  F   UNL A   1      40.315  25.443  28.780  1.00  0.00    -0.203 F 
ATOM     52  C   UNL A   1      41.441  25.190  26.726  1.00  0.00     0.198 A 
ATOM     53  C   UNL A   1      42.797  26.980  25.881  1.00  0.00     0.198 A 
ATOM     54  F   UNL A   1      43.033  28.967  27.127  1.00  0.00    -0.203 F 
ATOM     55  F   UNL A   1      40.912  23.967  26.582  1.00  0.00    -0.200 F 
ATOM     56  C   UNL A   1      42.262  25.708  25.737  1.00  0.00     0.200 A 
ATOM     57  F   UNL A   1      43.562  27.499  24.911  1.00  0.00    -0.200 F 
ATOM     58  F   UNL A   1      42.522  24.993  24.633  1.00  0.00    -0.200 F 
ENDBRANCH  24  48
BRANCH  36  59
ATOM     59  C   UNL A   1      44.404  27.762  34.429  1.00  0.00     0.064 A 
ATOM     60  C   UNL A   1      44.206  26.540  35.090  1.00  0.00     0.173 A 
ATOM     61  C   UNL A   1      45.679  28.341  34.477  1.00  0.00     0.173 A 
ATOM     62  F   UNL A   1      43.000  25.952  35.079  1.00  0.00    -0.203 F 
ATOM     63  C   UNL A   1      45.243  25.931  35.789  1.00  0.00     0.198 A 
ATOM     64  C   UNL A   1      46.722  27.712  35.150  1.00  0.00     0.198 A 
ATOM     65  F   UNL A   1      45.919  29.500  33.848  1.00  0.00    -0.203 F 
ATOM     66  F   UNL A   1      45.022  24.782  36.445  1.00  0.00    -0.200 F 
ATOM     67  C   UNL A   1      46.501  26.514  35.814  1.00  0.00     0.200 A 
ATOM     68  F   UNL A   1      47.944  28.261  35.150  1.00  0.00    -0.200 F 
ATOM     69  F   UNL A   1      47.503  25.918  36.475  1.00  0.00    -0.200 F 
ENDBRANCH  36  59
ENDBRANCH  10  11
ENDBRANCH   3   5
ENDBRANCH   2   3
ENDBRANCH   1   2
BRANCH   1  70
ATOM     70  C   UNL A   1      31.898  30.529  26.837  1.00  0.00     0.275 C 
BRANCH  70  71
ATOM     71  O   UNL A   1      32.727  30.131  25.736  1.00  0.00    -0.458 OA
BRANCH  71  72
ATOM     72  C   UNL A   1      33.782  29.354  26.085  1.00  0.00     0.338 C 
ATOM     73  O   UNL A   1      34.699  29.643  26.831  1.00  0.00    -0.246 OA
BRANCH  72  74
ATOM     74  C   UNL A   1      33.601  28.005  25.519  1.00  0.00     0.060 A 
ATOM     75  C   UNL A   1      33.456  26.928  26.419  1.00  0.00     0.016 A 
ATOM     76  C   UNL A   1      33.605  27.795  24.139  1.00  0.00     0.031 A 
ATOM     77  C   UNL A   1      33.268  25.628  25.946  1.00  0.00     0.010 A 
ATOM     78  C   UNL A   1      33.452  26.488  23.707  1.00  0.00     0.068 A 
ATOM     79  C   UNL A   1      33.277  25.427  24.575  1.00  0.00     0.012 A 
ATOM     80  C   UNL A   1      33.523  25.970  22.348  1.00  0.00     0.339 C 
ATOM     81  C   UNL A   1      33.231  24.164  23.790  1.00  0.00     0.238 C 
ATOM     82  O   UNL A   1      33.755  26.622  21.345  1.00  0.00    -0.246 OA
ATOM     83  O   UNL A   1      33.323  24.624  22.421  1.00  0.00    -0.449 OA
BRANCH  81  84
ATOM     84  C   UNL A   1      34.397  23.240  24.078  1.00  0.00    -0.003 A 
ATOM     85  C   UNL A   1      34.179  21.953  24.609  1.00  0.00     0.011 A 
ATOM     86  C   UNL A   1      35.713  23.641  23.797  1.00  0.00     0.011 A 
ATOM     87  C   UNL A   1      35.242  21.081  24.829  1.00  0.00     0.039 A 
ATOM     88  C   UNL A   1      36.778  22.766  24.028  1.00  0.00     0.039 A 
ATOM     89  C   UNL A   1      36.532  21.494  24.534  1.00  0.00     0.123 A 
ATOM     90  F   UNL A   1      37.555  20.655  24.740  1.00  0.00    -0.207 F 
ENDBRANCH  81  84
ENDBRANCH  72  74
ENDBRANCH  71  72
ENDBRANCH  70  71
ENDBRANCH   1  70
TORSDOF 12
ENDMDL
MODEL 2
REMARK VINA RESULT:     -12.6      0.216      1.616
REMARK SMILES O=C(OCCOC(=O)c1ccc2c(c1)C(=O)O[C@H]2c1ccc(F)cc1)c1ccc(-c2c3nc(c(-c4c(F)c(F)c(F)c(F)c4F)c4ccc([nH]4)c(-c4c(F)c(F)c(F)c(F)c4F)c4nc(c(-c5c(F)c(F)c(F)c(F)c5F)c5ccc2[nH]5)C=C4)C=C3)cc1
REMARK SMILES IDX 4 1 3 2 2 3 1 4 26 5 27 6 88 7 28 8 87 9 29 10 30 11 31 12
REMARK SMILES IDX 81 13 32 14 86 15 80 16 82 17 33 18 85 19 79 20 78 21 34 23
REMARK SMILES IDX 66 24 46 25 65 26 47 27 50 28 64 29 83 30 48 31 49 32 63 34
REMARK SMILES IDX 84 35 51 36 35 37 36 38 44 39 37 40 38 41 42 42 45 43 39 44
REMARK SMILES IDX 40 45 43 46 41 47 67 48 68 49 76 50 69 51 70 52 74 53 77 54
REMARK SMILES IDX 71 55 72 56 75 57 73 58 52 59 53 60 61 61 54 62 55 63 59 64
REMARK SMILES IDX 62 65 56 66 57 67 60 68 58 69 5 70 6 71 7 72 8 73 9 74 10 75
REMARK SMILES IDX 14 76 11 77 13 78 12 79 15 80 18 81 16 82 17 83 19 84 20 85
REMARK SMILES IDX 25 86 21 87 24 88 22 89 23 90
REMARK H PARENT 82 22 50 33
REMARK Flexibility Score: inf
ROOT
ATOM      1  C   UNL A   1      31.491  32.110  26.803  1.00  0.00     0.275 C 
ENDROOT
BRANCH   1   2
ATOM      2  O   UNL A   1      32.634  32.984  26.860  1.00  0.00    -0.458 OA
BRANCH   2   3
ATOM      3  C   UNL A   1      33.280  33.527  27.916  1.00  0.00     0.338 C 
ATOM      4  O   UNL A   1      32.881  34.601  28.367  1.00  0.00    -0.246 OA
BRANCH   3   5
ATOM      5  C   UNL A   1      34.547  32.978  28.495  1.00  0.00     0.060 A 
ATOM      6  C   UNL A   1      35.840  33.346  28.128  1.00  0.00     0.016 A 
ATOM      7  C   UNL A   1      34.405  31.994  29.496  1.00  0.00     0.016 A 
ATOM      8  C   UNL A   1      36.951  32.820  28.789  1.00  0.00     0.010 A 
ATOM      9  C   UNL A   1      35.512  31.470  30.171  1.00  0.00     0.010 A 
ATOM     10  C   UNL A   1      36.796  31.892  29.820  1.00  0.00    -0.014 A 
BRANCH  10  11
ATOM     11  C   UNL A   1      38.006  31.319  30.446  1.00  0.00     0.031 A 
ATOM     12  C   UNL A   1      38.372  31.734  31.836  1.00  0.00     0.074 A 
ATOM     13  C   UNL A   1      38.692  30.348  29.817  1.00  0.00     0.049 A 
ATOM     14  N   UNL A   1      39.308  31.256  32.612  1.00  0.00    -0.248 NA
ATOM     15  C   UNL A   1      37.552  32.788  32.452  1.00  0.00     0.031 C 
ATOM     16  C   UNL A   1      38.348  29.797  28.509  1.00  0.00     0.029 A 
ATOM     17  N   UNL A   1      39.804  29.639  30.192  1.00  0.00    -0.354 N 
ATOM     18  C   UNL A   1      39.147  31.902  33.827  1.00  0.00     0.074 A 
ATOM     19  C   UNL A   1      38.078  32.863  33.666  1.00  0.00     0.031 C 
ATOM     20  C   UNL A   1      39.253  28.865  28.171  1.00  0.00     0.029 A 
ATOM     21  C   UNL A   1      40.237  28.752  29.237  1.00  0.00     0.049 A 
ATOM     22  H   UNL A   1      40.248  29.755  31.063  1.00  0.00     0.167 HD
ATOM     23  C   UNL A   1      39.806  31.674  34.984  1.00  0.00     0.037 A 
ATOM     24  C   UNL A   1      41.306  27.936  29.224  1.00  0.00     0.037 A 
ATOM     25  C   UNL A   1      40.884  30.733  35.123  1.00  0.00     0.049 A 
ATOM     26  C   UNL A   1      42.137  27.832  30.470  1.00  0.00     0.074 A 
ATOM     27  C   UNL A   1      41.639  30.449  36.247  1.00  0.00     0.029 A 
ATOM     28  N   UNL A   1      41.368  29.931  34.099  1.00  0.00    -0.354 N 
ATOM     29  N   UNL A   1      41.961  28.429  31.625  1.00  0.00    -0.248 NA
ATOM     30  C   UNL A   1      43.285  26.917  30.433  1.00  0.00     0.031 C 
ATOM     31  C   UNL A   1      42.613  29.512  35.889  1.00  0.00     0.029 A 
ATOM     32  C   UNL A   1      42.434  29.175  34.556  1.00  0.00     0.049 A 
ATOM     33  H   UNL A   1      41.007  29.904  33.183  1.00  0.00     0.167 HD
ATOM     34  C   UNL A   1      42.949  27.936  32.462  1.00  0.00     0.074 A 
ATOM     35  C   UNL A   1      43.718  26.986  31.684  1.00  0.00     0.031 C 
ATOM     36  C   UNL A   1      43.188  28.237  33.762  1.00  0.00     0.037 A 
BRANCH  23  37
ATOM     37  C   UNL A   1      39.373  32.451  36.187  1.00  0.00     0.064 A 
ATOM     38  C   UNL A   1      39.972  33.678  36.500  1.00  0.00     0.173 A 
ATOM     39  C   UNL A   1      38.393  31.953  37.059  1.00  0.00     0.173 A 
ATOM     40  F   UNL A   1      40.909  34.198  35.692  1.00  0.00    -0.203 F 
ATOM     41  C   UNL A   1      39.617  34.374  37.651  1.00  0.00     0.198 A 
ATOM     42  C   UNL A   1      38.024  32.661  38.200  1.00  0.00     0.198 A 
ATOM     43  F   UNL A   1      37.775  30.793  36.789  1.00  0.00    -0.203 F 
ATOM     44  F   UNL A   1      40.217  35.536  37.943  1.00  0.00    -0.200 F 
ATOM     45  C   UNL A   1      38.643  33.866  38.500  1.00  0.00     0.200 A 
ATOM     46  F   UNL A   1      37.066  32.182  39.004  1.00  0.00    -0.200 F 
ATOM     47  F   UNL A   1      38.296  34.541  39.604  1.00  0.00    -0.200 F 
ENDBRANCH  23  37
BRANCH  24  48
ATOM     48  C   UNL A   1      41.633  27.150  28.005  1.00  0.00     0.064 A 
ATOM     49  C   UNL A   1      42.508  27.664  27.034  1.00  0.00     0.173 A 
ATOM     50  C   UNL A   1      41.095  25.875  27.792  1.00  0.00     0.173 A 
ATOM     51  F   UNL A   1      43.068  28.869  27.209  1.00  0.00    -0.203 F 
ATOM     52  C   UNL A   1      42.825  26.931  25.891  1.00  0.00     0.198 A 
ATOM     53  C   UNL A   1      41.431  25.134  26.659  1.00  0.00     0.198 A 
ATOM     54  F   UNL A   1      40.277  25.331  28.705  1.00  0.00    -0.203 F 
ATOM     55  F   UNL A   1      43.666  27.440  24.980  1.00  0.00    -0.200 F 
ATOM     56  C   UNL A   1      42.291  25.665  25.708  1.00  0.00     0.200 A 
ATOM     57  F   UNL A   1      40.941  23.897  26.502  1.00  0.00    -0.200 F 
ATOM     58  F   UNL A   1      42.621  24.945  24.627  1.00  0.00    -0.200 F 
ENDBRANCH  24  48
BRANCH  36  59
ATOM     59  C   UNL A   1      44.320  27.520  34.432  1.00  0.00     0.064 A 
ATOM     60  C   UNL A   1      45.612  28.069  34.427  1.00  0.00     0.173 A 
ATOM     61  C   UNL A   1      44.139  26.262  35.023  1.00  0.00     0.173 A 
ATOM     62  F   UNL A   1      45.835  29.267  33.865  1.00  0.00    -0.203 F 
ATOM     63  C   UNL A   1      46.684  27.374  34.976  1.00  0.00     0.198 A 
ATOM     64  C   UNL A   1      45.209  25.585  35.601  1.00  0.00     0.198 A 
ATOM     65  F   UNL A   1      42.920  25.704  35.065  1.00  0.00    -0.203 F 
ATOM     66  F   UNL A   1      47.916  27.901  34.927  1.00  0.00    -0.200 F 
ATOM     67  C   UNL A   1      46.482  26.137  35.568  1.00  0.00     0.200 A 
ATOM     68  F   UNL A   1      45.008  24.401  36.196  1.00  0.00    -0.200 F 
ATOM     69  F   UNL A   1      47.514  25.476  36.109  1.00  0.00    -0.200 F 
ENDBRANCH  36  59
ENDBRANCH  10  11
ENDBRANCH   3   5
ENDBRANCH   2   3
ENDBRANCH   1   2
BRANCH   1  70
ATOM     70  C   UNL A   1      31.815  30.613  26.793  1.00  0.00     0.275 C 
BRANCH  70  71
ATOM     71  O   UNL A   1      32.689  30.222  25.725  1.00  0.00    -0.458 OA
BRANCH  71  72
ATOM     72  C   UNL A   1      33.709  29.413  26.107  1.00  0.00     0.338 C 
ATOM     73  O   UNL A   1      34.615  29.678  26.875  1.00  0.00    -0.246 OA
BRANCH  72  74
ATOM     74  C   UNL A   1      33.499  28.067  25.547  1.00  0.00     0.060 A 
ATOM     75  C   UNL A   1      33.319  26.998  26.450  1.00  0.00     0.016 A 
ATOM     76  C   UNL A   1      33.509  27.849  24.168  1.00  0.00     0.031 A 
ATOM     77  C   UNL A   1      33.101  25.700  25.982  1.00  0.00     0.010 A 
ATOM     78  C   UNL A   1      33.327  26.545  23.741  1.00  0.00     0.068 A 
ATOM     79  C   UNL A   1      33.117  25.492  24.612  1.00  0.00     0.012 A 
ATOM     80  C   UNL A   1      33.397  26.018  22.385  1.00  0.00     0.339 C 
ATOM     81  C   UNL A   1      33.047  24.227  23.833  1.00  0.00     0.238 C 
ATOM     82  O   UNL A   1      33.654  26.659  21.381  1.00  0.00    -0.246 OA
ATOM     83  O   UNL A   1      33.162  24.678  22.463  1.00  0.00    -0.449 OA
BRANCH  81  84
ATOM     84  C   UNL A   1      34.186  23.276  24.135  1.00  0.00    -0.003 A 
ATOM     85  C   UNL A   1      33.944  22.048  24.785  1.00  0.00     0.011 A 
ATOM     86  C   UNL A   1      35.500  23.588  23.752  1.00  0.00     0.011 A 
ATOM     87  C   UNL A   1      34.979  21.148  25.021  1.00  0.00     0.039 A 
ATOM     88  C   UNL A   1      36.537  22.686  23.999  1.00  0.00     0.039 A 
ATOM     89  C   UNL A   1      36.267  21.473  24.624  1.00  0.00     0.123 A 
ATOM     90  F   UNL A   1      37.263  20.606  24.845  1.00  0.00    -0.207 F 
ENDBRANCH  81  84
ENDBRANCH  72  74
ENDBRANCH  71  72
ENDBRANCH  70  71
ENDBRANCH   1  70
TORSDOF 12
ENDMDL
MODEL 3
REMARK VINA RESULT:     -12.4      0.993      2.290
REMARK SMILES O=C(OCCOC(=O)c1ccc2c(c1)C(=O)O[C@H]2c1ccc(F)cc1)c1ccc(-c2c3nc(c(-c4c(F)c(F)c(F)c(F)c4F)c4ccc([nH]4)c(-c4c(F)c(F)c(F)c(F)c4F)c4nc(c(-c5c(F)c(F)c(F)c(F)c5F)c5ccc2[nH]5)C=C4)C=C3)cc1
REMARK SMILES IDX 4 1 3 2 2 3 1 4 26 5 27 6 88 7 28 8 87 9 29 10 30 11 31 12
REMARK SMILES IDX 81 13 32 14 86 15 80 16 82 17 33 18 85 19 79 20 78 21 34 23
REMARK SMILES IDX 66 24 46 25 65 26 47 27 50 28 64 29 83 30 48 31 49 32 63 34
REMARK SMILES IDX 84 35 51 36 35 37 36 38 44 39 37 40 38 41 42 42 45 43 39 44
REMARK SMILES IDX 40 45 43 46 41 47 67 48 68 49 76 50 69 51 70 52 74 53 77 54
REMARK SMILES IDX 71 55 72 56 75 57 73 58 52 59 53 60 61 61 54 62 55 63 59 64
REMARK SMILES IDX 62 65 56 66 57 67 60 68 58 69 5 70 6 71 7 72 8 73 9 74 10 75
REMARK SMILES IDX 14 76 11 77 13 78 12 79 15 80 18 81 16 82 17 83 19 84 20 85
REMARK SMILES IDX 25 86 21 87 24 88 22 89 23 90
REMARK H PARENT 82 22 50 33
REMARK Flexibility Score: inf
ROOT
ATOM      1  C   UNL A   1      32.483  33.058  26.795  1.00  0.00     0.275 C 
ENDROOT
BRANCH   1   2
ATOM      2  O   UNL A   1      32.165  34.097  27.741  1.00  0.00    -0.458 OA
BRANCH   2   3
ATOM      3  C   UNL A   1      32.913  34.667  28.712  1.00  0.00     0.338 C 
ATOM      4  O   UNL A   1      32.664  35.824  29.050  1.00  0.00    -0.246 OA
BRANCH   3   5
ATOM      5  C   UNL A   1      34.126  34.030  29.316  1.00  0.00     0.060 A 
ATOM      6  C   UNL A   1      34.132  33.122  30.373  1.00  0.00     0.016 A 
ATOM      7  C   UNL A   1      35.369  34.394  28.757  1.00  0.00     0.016 A 
ATOM      8  C   UNL A   1      35.320  32.533  30.807  1.00  0.00     0.010 A 
ATOM      9  C   UNL A   1      36.563  33.801  29.179  1.00  0.00     0.010 A 
ATOM     10  C   UNL A   1      36.539  32.856  30.207  1.00  0.00    -0.014 A 
BRANCH  10  11
ATOM     11  C   UNL A   1      37.776  32.251  30.743  1.00  0.00     0.031 A 
ATOM     12  C   UNL A   1      38.293  32.708  32.070  1.00  0.00     0.074 A 
ATOM     13  C   UNL A   1      38.352  31.220  30.101  1.00  0.00     0.049 A 
ATOM     14  N   UNL A   1      39.276  32.218  32.777  1.00  0.00    -0.248 NA
ATOM     15  C   UNL A   1      37.586  33.829  32.709  1.00  0.00     0.031 C 
ATOM     16  C   UNL A   1      37.859  30.629  28.859  1.00  0.00     0.029 A 
ATOM     17  N   UNL A   1      39.461  30.473  30.404  1.00  0.00    -0.354 N 
ATOM     18  C   UNL A   1      39.263  32.925  33.969  1.00  0.00     0.074 A 
ATOM     19  C   UNL A   1      38.229  33.931  33.862  1.00  0.00     0.031 C 
ATOM     20  C   UNL A   1      38.682  29.638  28.484  1.00  0.00     0.029 A 
ATOM     21  C   UNL A   1      39.759  29.523  29.457  1.00  0.00     0.049 A 
ATOM     22  H   UNL A   1      39.992  30.604  31.222  1.00  0.00     0.167 HD
ATOM     23  C   UNL A   1      40.019  32.715  35.069  1.00  0.00     0.037 A 
ATOM     24  C   UNL A   1      40.783  28.654  29.383  1.00  0.00     0.037 A 
ATOM     25  C   UNL A   1      41.062  31.728  35.152  1.00  0.00     0.049 A 
ATOM     26  C   UNL A   1      41.724  28.563  30.550  1.00  0.00     0.074 A 
ATOM     27  C   UNL A   1      41.907  31.456  36.212  1.00  0.00     0.029 A 
ATOM     28  N   UNL A   1      41.407  30.858  34.127  1.00  0.00    -0.354 N 
ATOM     29  N   UNL A   1      41.688  29.219  31.685  1.00  0.00    -0.248 NA
ATOM     30  C   UNL A   1      42.819  27.590  30.449  1.00  0.00     0.031 C 
ATOM     31  C   UNL A   1      42.797  30.456  35.810  1.00  0.00     0.029 A 
ATOM     32  C   UNL A   1      42.476  30.069  34.518  1.00  0.00     0.049 A 
ATOM     33  H   UNL A   1      40.958  30.808  33.252  1.00  0.00     0.167 HD
ATOM     34  C   UNL A   1      42.728  28.714  32.449  1.00  0.00     0.074 A 
ATOM     35  C   UNL A   1      43.374  27.693  31.649  1.00  0.00     0.031 C 
ATOM     36  C   UNL A   1      43.105  29.060  33.703  1.00  0.00     0.037 A 
BRANCH  23  37
ATOM     37  C   UNL A   1      39.741  33.566  36.268  1.00  0.00     0.064 A 
ATOM     38  C   UNL A   1      38.859  33.131  37.265  1.00  0.00     0.173 A 
ATOM     39  C   UNL A   1      40.317  34.839  36.404  1.00  0.00     0.173 A 
ATOM     40  F   UNL A   1      38.290  31.919  37.181  1.00  0.00    -0.203 F 
ATOM     41  C   UNL A   1      38.550  33.945  38.350  1.00  0.00     0.198 A 
ATOM     42  C   UNL A   1      40.022  35.643  37.502  1.00  0.00     0.198 A 
ATOM     43  F   UNL A   1      41.186  35.289  35.486  1.00  0.00    -0.203 F 
ATOM     44  F   UNL A   1      37.686  33.518  39.282  1.00  0.00    -0.200 F 
ATOM     45  C   UNL A   1      39.131  35.199  38.469  1.00  0.00     0.200 A 
ATOM     46  F   UNL A   1      40.604  36.843  37.627  1.00  0.00    -0.200 F 
ATOM     47  F   UNL A   1      38.839  35.979  39.518  1.00  0.00    -0.200 F 
ENDBRANCH  23  37
BRANCH  24  48
ATOM     48  C   UNL A   1      40.953  27.799  28.179  1.00  0.00     0.064 A 
ATOM     49  C   UNL A   1      41.717  28.242  27.088  1.00  0.00     0.173 A 
ATOM     50  C   UNL A   1      40.375  26.527  28.098  1.00  0.00     0.173 A 
ATOM     51  F   UNL A   1      42.313  29.442  27.132  1.00  0.00    -0.203 F 
ATOM     52  C   UNL A   1      41.888  27.445  25.957  1.00  0.00     0.198 A 
ATOM     53  C   UNL A   1      40.566  25.721  26.976  1.00  0.00     0.198 A 
ATOM     54  F   UNL A   1      39.660  26.048  29.127  1.00  0.00    -0.203 F 
ATOM     55  F   UNL A   1      42.626  27.887  24.930  1.00  0.00    -0.200 F 
ATOM     56  C   UNL A   1      41.317  26.183  25.905  1.00  0.00     0.200 A 
ATOM     57  F   UNL A   1      40.042  24.488  26.943  1.00  0.00    -0.200 F 
ATOM     58  F   UNL A   1      41.508  25.401  24.834  1.00  0.00    -0.200 F 
ENDBRANCH  24  48
BRANCH  36  59
ATOM     59  C   UNL A   1      44.262  28.316  34.299  1.00  0.00     0.064 A 
ATOM     60  C   UNL A   1      45.572  28.793  34.136  1.00  0.00     0.173 A 
ATOM     61  C   UNL A   1      44.079  27.103  34.975  1.00  0.00     0.173 A 
ATOM     62  F   UNL A   1      45.796  29.946  33.489  1.00  0.00    -0.203 F 
ATOM     63  C   UNL A   1      46.658  28.069  34.615  1.00  0.00     0.198 A 
ATOM     64  C   UNL A   1      45.167  26.398  35.481  1.00  0.00     0.198 A 
ATOM     65  F   UNL A   1      42.844  26.616  35.167  1.00  0.00    -0.203 F 
ATOM     66  F   UNL A   1      47.904  28.525  34.416  1.00  0.00    -0.200 F 
ATOM     67  C   UNL A   1      46.456  26.876  35.292  1.00  0.00     0.200 A 
ATOM     68  F   UNL A   1      44.969  25.259  36.159  1.00  0.00    -0.200 F 
ATOM     69  F   UNL A   1      47.503  26.188  35.766  1.00  0.00    -0.200 F 
ENDBRANCH  36  59
ENDBRANCH  10  11
ENDBRANCH   3   5
ENDBRANCH   2   3
ENDBRANCH   1   2
BRANCH   1  70
ATOM     70  C   UNL A   1      31.730  31.740  26.998  1.00  0.00     0.275 C 
BRANCH  70  71
ATOM     71  O   UNL A   1      32.162  30.691  26.120  1.00  0.00    -0.458 OA
BRANCH  71  72
ATOM     72  C   UNL A   1      33.239  29.996  26.568  1.00  0.00     0.338 C 
ATOM     73  O   UNL A   1      33.991  30.302  27.475  1.00  0.00    -0.246 OA
BRANCH  72  74
ATOM     74  C   UNL A   1      33.307  28.701  25.868  1.00  0.00     0.060 A 
ATOM     75  C   UNL A   1      33.212  27.528  26.644  1.00  0.00     0.016 A 
ATOM     76  C   UNL A   1      33.494  28.637  24.486  1.00  0.00     0.031 A 
ATOM     77  C   UNL A   1      33.257  26.270  26.039  1.00  0.00     0.010 A 
ATOM     78  C   UNL A   1      33.570  27.373  23.925  1.00  0.00     0.068 A 
ATOM     79  C   UNL A   1      33.446  26.214  24.668  1.00  0.00     0.012 A 
ATOM     80  C   UNL A   1      33.863  27.011  22.546  1.00  0.00     0.339 C 
ATOM     81  C   UNL A   1      33.662  25.044  23.776  1.00  0.00     0.238 C 
ATOM     82  O   UNL A   1      34.114  27.788  21.640  1.00  0.00    -0.246 OA
ATOM     83  O   UNL A   1      33.841  25.651  22.475  1.00  0.00    -0.449 OA
BRANCH  81  84
ATOM     84  C   UNL A   1      34.903  24.249  24.123  1.00  0.00    -0.003 A 
ATOM     85  C   UNL A   1      35.522  24.396  25.382  1.00  0.00     0.011 A 
ATOM     86  C   UNL A   1      35.446  23.333  23.208  1.00  0.00     0.011 A 
ATOM     87  C   UNL A   1      36.634  23.632  25.725  1.00  0.00     0.039 A 
ATOM     88  C   UNL A   1      36.567  22.575  23.553  1.00  0.00     0.039 A 
ATOM     89  C   UNL A   1      37.146  22.726  24.809  1.00  0.00     0.123 A 
ATOM     90  F   UNL A   1      38.211  21.986  25.140  1.00  0.00    -0.207 F 
ENDBRANCH  81  84
ENDBRANCH  72  74
ENDBRANCH  71  72
ENDBRANCH  70  71
ENDBRANCH   1  70
TORSDOF 12
ENDMDL
