MODEL 1
REMARK VINA RESULT:     -12.2      0.000      0.000
REMARK SMILES COc1ccc(OC)c([C@H](C(=O)OCCOC(=O)c2ccc(-c3c4nc(c(-c5c(F)c(F)c(F)c(F)c5F)c5ccc([nH]5)c(-c5c(F)c(F)c(F)c(F)c5F)c5nc(c(-c6c(F)c(F)c(F)c(F)c6F)c6ccc3[nH]6)C=C5)C=C4)cc2)[NH+]2CC[NH+](Cc3nccn3C)CC2)c1
REMARK SMILES IDX 14 1 13 2 11 3 12 4 10 5 9 6 3 7 4 8 95 9 5 10 6 11 2 12
REMARK SMILES IDX 1 13 7 14 8 15 82 16 83 17 94 18 84 20 93 21 85 22 86 24
REMARK SMILES IDX 87 25 88 26 91 27 89 28 90 29 92 30 15 31 16 32 17 33 18 34
REMARK SMILES IDX 19 35 20 36 81 37 21 38 80 39 22 40 23 41 24 42 74 43 25 44
REMARK SMILES IDX 79 45 73 46 75 47 26 48 78 49 72 50 71 51 27 53 59 54 39 55
REMARK SMILES IDX 58 56 40 57 43 58 57 59 76 60 41 61 42 62 56 64 77 65 44 66
REMARK SMILES IDX 28 67 29 68 37 69 30 70 31 71 35 72 38 73 32 74 33 75 36 76
REMARK SMILES IDX 34 77 60 78 61 79 69 80 62 81 63 82 67 83 70 84 64 85 65 86
REMARK SMILES IDX 68 87 66 88 45 89 46 90 54 91 47 92 48 93 52 94 55 95 49 96
REMARK SMILES IDX 50 97 53 98 51 99
REMARK H PARENT 82 19 85 23 75 52 43 63
REMARK Flexibility Score: inf
ROOT
ATOM      1  C   UNL A   1      32.483  27.879  26.891  1.00  0.00     0.274 C 
ENDROOT
BRANCH   1   2
ATOM      2  O   UNL A   1      31.500  26.804  26.927  1.00  0.00    -0.457 OA
BRANCH   2   3
ATOM      3  C   UNL A   1      31.766  25.574  26.430  1.00  0.00     0.370 C 
ATOM      4  O   UNL A   1      31.244  24.565  26.903  1.00  0.00    -0.245 OA
BRANCH   3   5
ATOM      5  C   UNL A   1      32.757  25.545  25.164  1.00  0.00     0.330 C 
BRANCH   5   6
ATOM      6  C   UNL A   1      33.655  24.282  25.064  1.00  0.00     0.067 A 
ATOM      7  C   UNL A   1      35.995  23.519  25.368  1.00  0.00     0.119 A 
ATOM      8  C   UNL A   1      35.633  22.224  25.054  1.00  0.00     0.050 A 
ATOM      9  C   UNL A   1      34.992  24.469  25.460  1.00  0.00     0.060 A 
ATOM     10  C   UNL A   1      34.312  21.965  24.685  1.00  0.00     0.051 A 
ATOM     11  C   UNL A   1      33.332  22.987  24.610  1.00  0.00     0.128 A 
BRANCH   7  12
ATOM     12  O   UNL A   1      37.311  23.784  25.600  1.00  0.00    -0.497 OA
ATOM     13  C   UNL A   1      38.215  22.713  25.916  1.00  0.00     0.278 C 
ENDBRANCH   7  12
BRANCH  11  14
ATOM     14  O   UNL A   1      32.206  22.464  24.046  1.00  0.00    -0.496 OA
ATOM     15  C   UNL A   1      32.123  22.123  22.684  1.00  0.00     0.278 C 
ENDBRANCH  11  14
ENDBRANCH   5   6
BRANCH   5  16
ATOM     16  N   UNL A   1      32.158  25.861  23.856  1.00  0.00    -0.310 N 
ATOM     17  C   UNL A   1      30.712  25.790  23.683  1.00  0.00     0.325 C 
ATOM     18  C   UNL A   1      32.750  26.945  23.087  1.00  0.00     0.325 C 
ATOM     19  H   UNL A   1      32.478  24.996  23.420  1.00  0.00     0.349 HD
ATOM     20  C   UNL A   1      29.983  27.126  23.881  1.00  0.00     0.324 C 
ATOM     21  C   UNL A   1      32.069  28.318  23.213  1.00  0.00     0.324 C 
ATOM     22  N   UNL A   1      30.607  28.350  23.338  1.00  0.00    -0.319 N 
ATOM     23  H   UNL A   1      30.488  29.052  24.067  1.00  0.00     0.348 HD
BRANCH  22  24
ATOM     24  C   UNL A   1      29.885  28.874  22.171  1.00  0.00     0.339 C 
BRANCH  24  25
ATOM     25  C   UNL A   1      29.006  30.044  22.501  1.00  0.00     0.164 A 
ATOM     26  N   UNL A   1      29.368  31.309  22.358  1.00  0.00    -0.236 NA
ATOM     27  N   UNL A   1      27.781  29.979  23.113  1.00  0.00    -0.333 N 
ATOM     28  C   UNL A   1      28.471  32.046  23.068  1.00  0.00     0.131 A 
ATOM     29  C   UNL A   1      27.482  31.237  23.566  1.00  0.00     0.107 A 
ATOM     30  C   UNL A   1      26.917  28.836  23.256  1.00  0.00     0.151 C 
ENDBRANCH  24  25
ENDBRANCH  22  24
ENDBRANCH   5  16
ENDBRANCH   3   5
ENDBRANCH   2   3
ENDBRANCH   1   2
BRANCH   1  31
ATOM     31  C   UNL A   1      31.790  29.268  26.820  1.00  0.00     0.275 C 
BRANCH  31  32
ATOM     32  O   UNL A   1      32.736  30.237  26.295  1.00  0.00    -0.458 OA
BRANCH  32  33
ATOM     33  C   UNL A   1      33.184  31.250  27.087  1.00  0.00     0.338 C 
ATOM     34  O   UNL A   1      32.593  32.302  27.321  1.00  0.00    -0.246 OA
BRANCH  33  35
ATOM     35  C   UNL A   1      34.536  30.889  27.631  1.00  0.00     0.060 A 
ATOM     36  C   UNL A   1      35.332  31.889  28.178  1.00  0.00     0.016 A 
ATOM     37  C   UNL A   1      35.071  29.597  27.606  1.00  0.00     0.016 A 
ATOM     38  C   UNL A   1      36.575  31.606  28.768  1.00  0.00     0.010 A 
ATOM     39  C   UNL A   1      36.303  29.311  28.269  1.00  0.00     0.010 A 
ATOM     40  C   UNL A   1      37.057  30.311  28.925  1.00  0.00    -0.014 A 
BRANCH  40  41
ATOM     41  C   UNL A   1      38.323  30.012  29.714  1.00  0.00     0.031 A 
ATOM     42  C   UNL A   1      39.370  29.111  29.153  1.00  0.00     0.074 A 
ATOM     43  C   UNL A   1      38.699  30.604  30.876  1.00  0.00     0.049 A 
ATOM     44  N   UNL A   1      40.407  28.583  29.753  1.00  0.00    -0.248 NA
ATOM     45  C   UNL A   1      39.298  28.857  27.711  1.00  0.00     0.031 C 
ATOM     46  C   UNL A   1      38.178  31.857  31.351  1.00  0.00     0.029 A 
ATOM     47  N   UNL A   1      39.633  30.302  31.852  1.00  0.00    -0.354 N 
ATOM     48  C   UNL A   1      41.103  27.913  28.770  1.00  0.00     0.074 A 
ATOM     49  C   UNL A   1      40.365  28.093  27.533  1.00  0.00     0.031 C 
ATOM     50  C   UNL A   1      38.650  32.175  32.559  1.00  0.00     0.029 A 
ATOM     51  C   UNL A   1      39.545  31.116  32.969  1.00  0.00     0.049 A 
ATOM     52  H   UNL A   1      40.295  29.579  31.760  1.00  0.00     0.167 HD
ATOM     53  C   UNL A   1      42.257  27.219  28.898  1.00  0.00     0.037 A 
ATOM     54  C   UNL A   1      40.114  31.069  34.190  1.00  0.00     0.037 A 
ATOM     55  C   UNL A   1      43.031  27.094  30.110  1.00  0.00     0.049 A 
ATOM     56  C   UNL A   1      41.228  30.103  34.400  1.00  0.00     0.074 A 
ATOM     57  C   UNL A   1      44.167  26.330  30.321  1.00  0.00     0.029 A 
ATOM     58  N   UNL A   1      42.778  27.756  31.305  1.00  0.00    -0.354 N 
ATOM     59  N   UNL A   1      41.782  29.318  33.513  1.00  0.00    -0.248 NA
ATOM     60  C   UNL A   1      41.852  30.056  35.728  1.00  0.00     0.031 C 
ATOM     61  C   UNL A   1      44.555  26.467  31.657  1.00  0.00     0.029 A 
ATOM     62  C   UNL A   1      43.707  27.372  32.269  1.00  0.00     0.049 A 
ATOM     63  H   UNL A   1      42.048  28.402  31.450  1.00  0.00     0.167 HD
ATOM     64  C   UNL A   1      42.856  28.731  34.150  1.00  0.00     0.074 A 
ATOM     65  C   UNL A   1      42.879  29.248  35.503  1.00  0.00     0.031 C 
ATOM     66  C   UNL A   1      43.746  27.856  33.627  1.00  0.00     0.037 A 
BRANCH  53  67
ATOM     67  C   UNL A   1      42.682  26.429  27.703  1.00  0.00     0.064 A 
ATOM     68  C   UNL A   1      42.189  25.148  27.424  1.00  0.00     0.173 A 
ATOM     69  C   UNL A   1      43.627  26.983  26.826  1.00  0.00     0.173 A 
ATOM     70  F   UNL A   1      41.310  24.565  28.252  1.00  0.00    -0.203 F 
ATOM     71  C   UNL A   1      42.650  24.438  26.319  1.00  0.00     0.198 A 
ATOM     72  C   UNL A   1      44.056  26.286  25.705  1.00  0.00     0.198 A 
ATOM     73  F   UNL A   1      44.132  28.205  27.059  1.00  0.00    -0.203 F 
ATOM     74  F   UNL A   1      42.216  23.189  26.099  1.00  0.00    -0.200 F 
ATOM     75  C   UNL A   1      43.575  25.010  25.457  1.00  0.00     0.200 A 
ATOM     76  F   UNL A   1      44.941  26.847  24.869  1.00  0.00    -0.200 F 
ATOM     77  F   UNL A   1      44.013  24.326  24.392  1.00  0.00    -0.200 F 
ENDBRANCH  53  67
BRANCH  54  78
ATOM     78  C   UNL A   1      39.658  31.976  35.284  1.00  0.00     0.064 A 
ATOM     79  C   UNL A   1      38.669  31.597  36.201  1.00  0.00     0.173 A 
ATOM     80  C   UNL A   1      40.183  33.275  35.404  1.00  0.00     0.173 A 
ATOM     81  F   UNL A   1      38.116  30.378  36.123  1.00  0.00    -0.203 F 
ATOM     82  C   UNL A   1      38.205  32.483  37.175  1.00  0.00     0.198 A 
ATOM     83  C   UNL A   1      39.736  34.152  36.392  1.00  0.00     0.198 A 
ATOM     84  F   UNL A   1      41.126  33.700  34.548  1.00  0.00    -0.203 F 
ATOM     85  F   UNL A   1      37.219  32.110  38.003  1.00  0.00    -0.200 F 
ATOM     86  C   UNL A   1      38.740  33.759  37.270  1.00  0.00     0.200 A 
ATOM     87  F   UNL A   1      40.259  35.383  36.481  1.00  0.00    -0.200 F 
ATOM     88  F   UNL A   1      38.285  34.612  38.198  1.00  0.00    -0.200 F 
ENDBRANCH  54  78
BRANCH  66  89
ATOM     89  C   UNL A   1      44.850  27.394  34.529  1.00  0.00     0.064 A 
ATOM     90  C   UNL A   1      46.061  28.096  34.626  1.00  0.00     0.173 A 
ATOM     91  C   UNL A   1      44.694  26.242  35.314  1.00  0.00     0.173 A 
ATOM     92  F   UNL A   1      46.271  29.190  33.879  1.00  0.00    -0.203 F 
ATOM     93  C   UNL A   1      47.086  27.645  35.455  1.00  0.00     0.198 A 
ATOM     94  C   UNL A   1      45.707  25.814  36.168  1.00  0.00     0.198 A 
ATOM     95  F   UNL A   1      43.558  25.531  35.256  1.00  0.00    -0.203 F 
ATOM     96  F   UNL A   1      48.255  28.298  35.486  1.00  0.00    -0.200 F 
ATOM     97  C   UNL A   1      46.904  26.511  36.231  1.00  0.00     0.200 A 
ATOM     98  F   UNL A   1      45.526  24.724  36.926  1.00  0.00    -0.200 F 
ATOM     99  F   UNL A   1      47.888  26.083  37.033  1.00  0.00    -0.200 F 
ENDBRANCH  66  89
ENDBRANCH  40  41
ENDBRANCH  33  35
ENDBRANCH  32  33
ENDBRANCH  31  32
ENDBRANCH   1  31
TORSDOF 17
ENDMDL
MODEL 2
REMARK VINA RESULT:     -12.1      4.321      9.966
REMARK SMILES COc1ccc(OC)c([C@H](C(=O)OCCOC(=O)c2ccc(-c3c4nc(c(-c5c(F)c(F)c(F)c(F)c5F)c5ccc([nH]5)c(-c5c(F)c(F)c(F)c(F)c5F)c5nc(c(-c6c(F)c(F)c(F)c(F)c6F)c6ccc3[nH]6)C=C5)C=C4)cc2)[NH+]2CC[NH+](Cc3nccn3C)CC2)c1
REMARK SMILES IDX 14 1 13 2 11 3 12 4 10 5 9 6 3 7 4 8 95 9 5 10 6 11 2 12
REMARK SMILES IDX 1 13 7 14 8 15 82 16 83 17 94 18 84 20 93 21 85 22 86 24
REMARK SMILES IDX 87 25 88 26 91 27 89 28 90 29 92 30 15 31 16 32 17 33 18 34
REMARK SMILES IDX 19 35 20 36 81 37 21 38 80 39 22 40 23 41 24 42 74 43 25 44
REMARK SMILES IDX 79 45 73 46 75 47 26 48 78 49 72 50 71 51 27 53 59 54 39 55
REMARK SMILES IDX 58 56 40 57 43 58 57 59 76 60 41 61 42 62 56 64 77 65 44 66
REMARK SMILES IDX 28 67 29 68 37 69 30 70 31 71 35 72 38 73 32 74 33 75 36 76
REMARK SMILES IDX 34 77 60 78 61 79 69 80 62 81 63 82 67 83 70 84 64 85 65 86
REMARK SMILES IDX 68 87 66 88 45 89 46 90 54 91 47 92 48 93 52 94 55 95 49 96
REMARK SMILES IDX 50 97 53 98 51 99
REMARK H PARENT 82 19 85 23 75 52 43 63
REMARK Flexibility Score: inf
ROOT
ATOM      1  C   UNL A   1      36.840  22.340  23.742  1.00  0.00     0.274 C 
ENDROOT
BRANCH   1   2
ATOM      2  O   UNL A   1      36.180  23.471  24.381  1.00  0.00    -0.457 OA
BRANCH   2   3
ATOM      3  C   UNL A   1      34.980  23.932  23.957  1.00  0.00     0.370 C 
ATOM      4  O   UNL A   1      34.723  24.044  22.759  1.00  0.00    -0.245 OA
BRANCH   3   5
ATOM      5  C   UNL A   1      33.922  24.261  25.122  1.00  0.00     0.330 C 
BRANCH   5   6
ATOM      6  C   UNL A   1      33.307  25.686  25.064  1.00  0.00     0.067 A 
ATOM      7  C   UNL A   1      33.262  27.847  26.279  1.00  0.00     0.119 A 
ATOM      8  C   UNL A   1      32.442  28.394  25.313  1.00  0.00     0.050 A 
ATOM      9  C   UNL A   1      33.741  26.565  26.073  1.00  0.00     0.060 A 
ATOM     10  C   UNL A   1      32.002  27.585  24.265  1.00  0.00     0.051 A 
ATOM     11  C   UNL A   1      32.359  26.216  24.164  1.00  0.00     0.128 A 
BRANCH   7  12
ATOM     12  O   UNL A   1      33.580  28.607  27.364  1.00  0.00    -0.497 OA
ATOM     13  C   UNL A   1      33.669  30.036  27.240  1.00  0.00     0.278 C 
ENDBRANCH   7  12
BRANCH  11  14
ATOM     14  O   UNL A   1      31.631  25.654  23.157  1.00  0.00    -0.496 OA
ATOM     15  C   UNL A   1      31.406  26.298  21.927  1.00  0.00     0.278 C 
ENDBRANCH  11  14
ENDBRANCH   5   6
BRANCH   5  16
ATOM     16  N   UNL A   1      32.875  23.253  25.361  1.00  0.00    -0.310 N 
ATOM     17  C   UNL A   1      32.334  22.489  24.243  1.00  0.00     0.325 C 
ATOM     18  C   UNL A   1      32.970  22.458  26.575  1.00  0.00     0.325 C 
ATOM     19  H   UNL A   1      32.147  23.946  25.532  1.00  0.00     0.349 HD
ATOM     20  C   UNL A   1      33.015  21.133  24.013  1.00  0.00     0.324 C 
ATOM     21  C   UNL A   1      33.624  21.073  26.430  1.00  0.00     0.324 C 
ATOM     22  N   UNL A   1      33.374  20.322  25.195  1.00  0.00    -0.319 N 
ATOM     23  H   UNL A   1      34.306  19.961  24.993  1.00  0.00     0.348 HD
BRANCH  22  24
ATOM     24  C   UNL A   1      32.521  19.136  25.338  1.00  0.00     0.339 C 
BRANCH  24  25
ATOM     25  C   UNL A   1      33.120  17.903  24.727  1.00  0.00     0.164 A 
ATOM     26  N   UNL A   1      33.884  17.045  25.383  1.00  0.00    -0.236 NA
ATOM     27  N   UNL A   1      33.080  17.566  23.398  1.00  0.00    -0.333 N 
ATOM     28  C   UNL A   1      34.501  16.282  24.439  1.00  0.00     0.131 A 
ATOM     29  C   UNL A   1      34.031  16.603  23.191  1.00  0.00     0.107 A 
ATOM     30  C   UNL A   1      32.204  18.078  22.377  1.00  0.00     0.151 C 
ENDBRANCH  24  25
ENDBRANCH  22  24
ENDBRANCH   5  16
ENDBRANCH   3   5
ENDBRANCH   2   3
ENDBRANCH   1   2
BRANCH   1  31
ATOM     31  C   UNL A   1      36.919  21.123  24.705  1.00  0.00     0.275 C 
BRANCH  31  32
ATOM     32  O   UNL A   1      37.530  21.551  25.951  1.00  0.00    -0.458 OA
BRANCH  32  33
ATOM     33  C   UNL A   1      38.878  21.449  26.120  1.00  0.00     0.338 C 
ATOM     34  O   UNL A   1      39.561  20.451  25.904  1.00  0.00    -0.246 OA
BRANCH  33  35
ATOM     35  C   UNL A   1      39.411  22.757  26.629  1.00  0.00     0.060 A 
ATOM     36  C   UNL A   1      40.552  22.757  27.423  1.00  0.00     0.016 A 
ATOM     37  C   UNL A   1      38.817  23.998  26.374  1.00  0.00     0.016 A 
ATOM     38  C   UNL A   1      41.142  23.951  27.871  1.00  0.00     0.010 A 
ATOM     39  C   UNL A   1      39.463  25.205  26.777  1.00  0.00     0.010 A 
ATOM     40  C   UNL A   1      40.685  25.207  27.487  1.00  0.00    -0.014 A 
BRANCH  40  41
ATOM     41  C   UNL A   1      41.436  26.482  27.844  1.00  0.00     0.031 A 
ATOM     42  C   UNL A   1      40.772  27.554  28.639  1.00  0.00     0.074 A 
ATOM     43  C   UNL A   1      42.755  26.720  27.629  1.00  0.00     0.049 A 
ATOM     44  N   UNL A   1      41.175  28.778  28.864  1.00  0.00    -0.248 NA
ATOM     45  C   UNL A   1      39.554  27.165  29.356  1.00  0.00     0.031 C 
ATOM     46  C   UNL A   1      43.733  25.694  27.388  1.00  0.00     0.029 A 
ATOM     47  N   UNL A   1      43.540  27.860  27.632  1.00  0.00    -0.354 N 
ATOM     48  C   UNL A   1      40.249  29.321  29.731  1.00  0.00     0.074 A 
ATOM     49  C   UNL A   1      39.257  28.293  29.985  1.00  0.00     0.031 C 
ATOM     50  C   UNL A   1      44.941  26.199  27.125  1.00  0.00     0.029 A 
ATOM     51  C   UNL A   1      44.830  27.640  27.179  1.00  0.00     0.049 A 
ATOM     52  H   UNL A   1      43.213  28.740  27.928  1.00  0.00     0.167 HD
ATOM     53  C   UNL A   1      40.243  30.564  30.265  1.00  0.00     0.037 A 
ATOM     54  C   UNL A   1      45.846  28.465  26.856  1.00  0.00     0.037 A 
ATOM     55  C   UNL A   1      41.263  31.566  30.070  1.00  0.00     0.049 A 
ATOM     56  C   UNL A   1      45.715  29.903  27.221  1.00  0.00     0.074 A 
ATOM     57  C   UNL A   1      41.266  32.876  30.519  1.00  0.00     0.029 A 
ATOM     58  N   UNL A   1      42.466  31.380  29.400  1.00  0.00    -0.354 N 
ATOM     59  N   UNL A   1      44.745  30.473  27.887  1.00  0.00    -0.248 NA
ATOM     60  C   UNL A   1      46.824  30.801  26.874  1.00  0.00     0.031 C 
ATOM     61  C   UNL A   1      42.428  33.503  30.057  1.00  0.00     0.029 A 
ATOM     62  C   UNL A   1      43.189  32.569  29.379  1.00  0.00     0.049 A 
ATOM     63  H   UNL A   1      42.762  30.530  28.997  1.00  0.00     0.167 HD
ATOM     64  C   UNL A   1      45.148  31.775  28.098  1.00  0.00     0.074 A 
ATOM     65  C   UNL A   1      46.454  31.917  27.487  1.00  0.00     0.031 C 
ATOM     66  C   UNL A   1      44.482  32.747  28.764  1.00  0.00     0.037 A 
BRANCH  53  67
ATOM     67  C   UNL A   1      39.010  30.945  31.018  1.00  0.00     0.064 A 
ATOM     68  C   UNL A   1      37.886  31.507  30.402  1.00  0.00     0.173 A 
ATOM     69  C   UNL A   1      38.978  30.749  32.408  1.00  0.00     0.173 A 
ATOM     70  F   UNL A   1      37.885  31.744  29.082  1.00  0.00    -0.203 F 
ATOM     71  C   UNL A   1      36.778  31.884  31.156  1.00  0.00     0.198 A 
ATOM     72  C   UNL A   1      37.857  31.091  33.151  1.00  0.00     0.198 A 
ATOM     73  F   UNL A   1      40.036  30.220  33.041  1.00  0.00    -0.203 F 
ATOM     74  F   UNL A   1      35.734  32.477  30.561  1.00  0.00    -0.200 F 
ATOM     75  C   UNL A   1      36.762  31.668  32.528  1.00  0.00     0.200 A 
ATOM     76  F   UNL A   1      37.841  30.871  34.474  1.00  0.00    -0.200 F 
ATOM     77  F   UNL A   1      35.693  32.027  33.250  1.00  0.00    -0.200 F 
ENDBRANCH  53  67
BRANCH  54  78
ATOM     78  C   UNL A   1      47.070  27.946  26.179  1.00  0.00     0.064 A 
ATOM     79  C   UNL A   1      48.239  27.638  26.889  1.00  0.00     0.173 A 
ATOM     80  C   UNL A   1      47.105  27.789  24.782  1.00  0.00     0.173 A 
ATOM     81  F   UNL A   1      48.272  27.787  28.220  1.00  0.00    -0.203 F 
ATOM     82  C   UNL A   1      49.397  27.220  26.231  1.00  0.00     0.198 A 
ATOM     83  C   UNL A   1      48.256  27.349  24.128  1.00  0.00     0.198 A 
ATOM     84  F   UNL A   1      46.021  28.078  24.046  1.00  0.00    -0.203 F 
ATOM     85  F   UNL A   1      50.516  26.985  26.932  1.00  0.00    -0.200 F 
ATOM     86  C   UNL A   1      49.404  27.075  24.852  1.00  0.00     0.200 A 
ATOM     87  F   UNL A   1      48.256  27.208  22.794  1.00  0.00    -0.200 F 
ATOM     88  F   UNL A   1      50.521  26.685  24.221  1.00  0.00    -0.200 F 
ENDBRANCH  54  78
BRANCH  66  89
ATOM     89  C   UNL A   1      45.163  34.076  28.882  1.00  0.00     0.064 A 
ATOM     90  C   UNL A   1      46.014  34.373  29.957  1.00  0.00     0.173 A 
ATOM     91  C   UNL A   1      44.973  35.063  27.904  1.00  0.00     0.173 A 
ATOM     92  F   UNL A   1      46.212  33.473  30.932  1.00  0.00    -0.203 F 
ATOM     93  C   UNL A   1      46.626  35.619  30.063  1.00  0.00     0.198 A 
ATOM     94  C   UNL A   1      45.614  36.295  27.993  1.00  0.00     0.198 A 
ATOM     95  F   UNL A   1      44.166  34.833  26.857  1.00  0.00    -0.203 F 
ATOM     96  F   UNL A   1      47.387  35.900  31.129  1.00  0.00    -0.200 F 
ATOM     97  C   UNL A   1      46.434  36.575  29.077  1.00  0.00     0.200 A 
ATOM     98  F   UNL A   1      45.436  37.213  27.035  1.00  0.00    -0.200 F 
ATOM     99  F   UNL A   1      47.030  37.771  29.177  1.00  0.00    -0.200 F 
ENDBRANCH  66  89
ENDBRANCH  40  41
ENDBRANCH  33  35
ENDBRANCH  32  33
ENDBRANCH  31  32
ENDBRANCH   1  31
TORSDOF 17
ENDMDL
MODEL 3
REMARK VINA RESULT:     -11.9      4.092      8.997
REMARK SMILES COc1ccc(OC)c([C@H](C(=O)OCCOC(=O)c2ccc(-c3c4nc(c(-c5c(F)c(F)c(F)c(F)c5F)c5ccc([nH]5)c(-c5c(F)c(F)c(F)c(F)c5F)c5nc(c(-c6c(F)c(F)c(F)c(F)c6F)c6ccc3[nH]6)C=C5)C=C4)cc2)[NH+]2CC[NH+](Cc3nccn3C)CC2)c1
REMARK SMILES IDX 14 1 13 2 11 3 12 4 10 5 9 6 3 7 4 8 95 9 5 10 6 11 2 12
REMARK SMILES IDX 1 13 7 14 8 15 82 16 83 17 94 18 84 20 93 21 85 22 86 24
REMARK SMILES IDX 87 25 88 26 91 27 89 28 90 29 92 30 15 31 16 32 17 33 18 34
REMARK SMILES IDX 19 35 20 36 81 37 21 38 80 39 22 40 23 41 24 42 74 43 25 44
REMARK SMILES IDX 79 45 73 46 75 47 26 48 78 49 72 50 71 51 27 53 59 54 39 55
REMARK SMILES IDX 58 56 40 57 43 58 57 59 76 60 41 61 42 62 56 64 77 65 44 66
REMARK SMILES IDX 28 67 29 68 37 69 30 70 31 71 35 72 38 73 32 74 33 75 36 76
REMARK SMILES IDX 34 77 60 78 61 79 69 80 62 81 63 82 67 83 70 84 64 85 65 86
REMARK SMILES IDX 68 87 66 88 45 89 46 90 54 91 47 92 48 93 52 94 55 95 49 96
REMARK SMILES IDX 50 97 53 98 51 99
REMARK H PARENT 82 19 85 23 75 52 43 63
REMARK Flexibility Score: inf
ROOT
ATOM      1  C   UNL A   1      36.073  23.136  23.931  1.00  0.00     0.274 C 
ENDROOT
BRANCH   1   2
ATOM      2  O   UNL A   1      35.140  22.953  22.827  1.00  0.00    -0.457 OA
BRANCH   2   3
ATOM      3  C   UNL A   1      34.045  23.734  22.679  1.00  0.00     0.370 C 
ATOM      4  O   UNL A   1      34.048  24.705  21.922  1.00  0.00    -0.245 OA
BRANCH   3   5
ATOM      5  C   UNL A   1      32.752  23.270  23.514  1.00  0.00     0.330 C 
BRANCH   5   6
ATOM      6  C   UNL A   1      32.920  21.937  24.293  1.00  0.00     0.067 A 
ATOM      7  C   UNL A   1      32.598  19.489  24.072  1.00  0.00     0.119 A 
ATOM      8  C   UNL A   1      33.111  19.288  25.338  1.00  0.00     0.050 A 
ATOM      9  C   UNL A   1      32.614  20.775  23.561  1.00  0.00     0.060 A 
ATOM     10  C   UNL A   1      33.466  20.399  26.104  1.00  0.00     0.051 A 
ATOM     11  C   UNL A   1      33.308  21.727  25.632  1.00  0.00     0.128 A 
BRANCH   7  12
ATOM     12  O   UNL A   1      32.133  18.409  23.383  1.00  0.00    -0.497 OA
ATOM     13  C   UNL A   1      33.048  17.394  22.937  1.00  0.00     0.278 C 
ENDBRANCH   7  12
BRANCH  11  14
ATOM     14  O   UNL A   1      33.559  22.583  26.664  1.00  0.00    -0.496 OA
ATOM     15  C   UNL A   1      32.814  22.579  27.857  1.00  0.00     0.278 C 
ENDBRANCH  11  14
ENDBRANCH   5   6
BRANCH   5  16
ATOM     16  N   UNL A   1      32.117  24.292  24.362  1.00  0.00    -0.310 N 
ATOM     17  C   UNL A   1      32.718  25.616  24.477  1.00  0.00     0.325 C 
ATOM     18  C   UNL A   1      30.664  24.345  24.382  1.00  0.00     0.325 C 
ATOM     19  H   UNL A   1      32.397  23.844  25.235  1.00  0.00     0.349 HD
ATOM     20  C   UNL A   1      32.149  26.657  23.503  1.00  0.00     0.324 C 
ATOM     21  C   UNL A   1      30.010  25.377  23.448  1.00  0.00     0.324 C 
ATOM     22  N   UNL A   1      30.692  26.663  23.260  1.00  0.00    -0.319 N 
ATOM     23  H   UNL A   1      30.593  26.792  22.253  1.00  0.00     0.348 HD
BRANCH  22  24
ATOM     24  C   UNL A   1      30.029  27.824  23.868  1.00  0.00     0.339 C 
BRANCH  24  25
ATOM     25  C   UNL A   1      29.408  28.742  22.856  1.00  0.00     0.164 A 
ATOM     26  N   UNL A   1      30.096  29.453  21.978  1.00  0.00    -0.236 NA
ATOM     27  N   UNL A   1      28.080  29.075  22.784  1.00  0.00    -0.333 N 
ATOM     28  C   UNL A   1      29.239  30.393  21.491  1.00  0.00     0.131 A 
ATOM     29  C   UNL A   1      27.980  30.191  21.995  1.00  0.00     0.107 A 
ATOM     30  C   UNL A   1      26.959  28.399  23.384  1.00  0.00     0.151 C 
ENDBRANCH  24  25
ENDBRANCH  22  24
ENDBRANCH   5  16
ENDBRANCH   3   5
ENDBRANCH   2   3
ENDBRANCH   1   2
BRANCH   1  31
ATOM     31  C   UNL A   1      36.909  21.849  24.175  1.00  0.00     0.275 C 
BRANCH  31  32
ATOM     32  O   UNL A   1      37.305  21.806  25.572  1.00  0.00    -0.458 OA
BRANCH  32  33
ATOM     33  C   UNL A   1      38.605  21.566  25.904  1.00  0.00     0.338 C 
ATOM     34  O   UNL A   1      39.198  20.497  25.781  1.00  0.00    -0.246 OA
BRANCH  33  35
ATOM     35  C   UNL A   1      39.210  22.822  26.462  1.00  0.00     0.060 A 
ATOM     36  C   UNL A   1      40.410  22.739  27.160  1.00  0.00     0.016 A 
ATOM     37  C   UNL A   1      38.632  24.089  26.345  1.00  0.00     0.016 A 
ATOM     38  C   UNL A   1      41.064  23.884  27.644  1.00  0.00     0.010 A 
ATOM     39  C   UNL A   1      39.339  25.251  26.781  1.00  0.00     0.010 A 
ATOM     40  C   UNL A   1      40.612  25.174  27.390  1.00  0.00    -0.014 A 
BRANCH  40  41
ATOM     41  C   UNL A   1      41.422  26.403  27.777  1.00  0.00     0.031 A 
ATOM     42  C   UNL A   1      40.815  27.478  28.614  1.00  0.00     0.074 A 
ATOM     43  C   UNL A   1      42.747  26.591  27.553  1.00  0.00     0.049 A 
ATOM     44  N   UNL A   1      41.273  28.675  28.872  1.00  0.00    -0.248 NA
ATOM     45  C   UNL A   1      39.589  27.119  29.334  1.00  0.00     0.031 C 
ATOM     46  C   UNL A   1      43.677  25.532  27.267  1.00  0.00     0.029 A 
ATOM     47  N   UNL A   1      43.582  27.696  27.581  1.00  0.00    -0.354 N 
ATOM     48  C   UNL A   1      40.383  29.230  29.767  1.00  0.00     0.074 A 
ATOM     49  C   UNL A   1      39.349  28.238  30.003  1.00  0.00     0.031 C 
ATOM     50  C   UNL A   1      44.902  25.993  27.003  1.00  0.00     0.029 A 
ATOM     51  C   UNL A   1      44.856  27.434  27.104  1.00  0.00     0.049 A 
ATOM     52  H   UNL A   1      43.297  28.579  27.908  1.00  0.00     0.167 HD
ATOM     53  C   UNL A   1      40.437  30.453  30.341  1.00  0.00     0.037 A 
ATOM     54  C   UNL A   1      45.902  28.224  26.794  1.00  0.00     0.037 A 
ATOM     55  C   UNL A   1      41.497  31.416  30.164  1.00  0.00     0.049 A 
ATOM     56  C   UNL A   1      45.838  29.655  27.205  1.00  0.00     0.074 A 
ATOM     57  C   UNL A   1      41.563  32.710  30.654  1.00  0.00     0.029 A 
ATOM     58  N   UNL A   1      42.682  31.200  29.472  1.00  0.00    -0.354 N 
ATOM     59  N   UNL A   1      44.902  30.244  27.902  1.00  0.00    -0.248 NA
ATOM     60  C   UNL A   1      46.981  30.514  26.873  1.00  0.00     0.031 C 
ATOM     61  C   UNL A   1      42.745  33.301  30.196  1.00  0.00     0.029 A 
ATOM     62  C   UNL A   1      43.457  32.357  29.479  1.00  0.00     0.049 A 
ATOM     63  H   UNL A   1      42.937  30.352  29.040  1.00  0.00     0.167 HD
ATOM     64  C   UNL A   1      45.364  31.521  28.149  1.00  0.00     0.074 A 
ATOM     65  C   UNL A   1      46.668  31.625  27.525  1.00  0.00     0.031 C 
ATOM     66  C   UNL A   1      44.749  32.498  28.854  1.00  0.00     0.037 A 
BRANCH  53  67
ATOM     67  C   UNL A   1      39.231  30.864  31.122  1.00  0.00     0.064 A 
ATOM     68  C   UNL A   1      39.096  30.626  32.495  1.00  0.00     0.173 A 
ATOM     69  C   UNL A   1      38.176  31.502  30.451  1.00  0.00     0.173 A 
ATOM     70  F   UNL A   1      40.065  29.989  33.170  1.00  0.00    -0.203 F 
ATOM     71  C   UNL A   1      37.933  30.991  33.167  1.00  0.00     0.198 A 
ATOM     72  C   UNL A   1      37.033  31.898  31.132  1.00  0.00     0.198 A 
ATOM     73  F   UNL A   1      38.259  31.743  29.133  1.00  0.00    -0.203 F 
ATOM     74  F   UNL A   1      37.793  30.701  34.468  1.00  0.00    -0.200 F 
ATOM     75  C   UNL A   1      36.907  31.634  32.487  1.00  0.00     0.200 A 
ATOM     76  F   UNL A   1      36.049  32.528  30.474  1.00  0.00    -0.200 F 
ATOM     77  F   UNL A   1      35.791  31.988  33.137  1.00  0.00    -0.200 F 
ENDBRANCH  53  67
BRANCH  54  78
ATOM     78  C   UNL A   1      47.095  27.675  26.085  1.00  0.00     0.064 A 
ATOM     79  C   UNL A   1      48.210  27.181  26.776  1.00  0.00     0.173 A 
ATOM     80  C   UNL A   1      47.157  27.676  24.680  1.00  0.00     0.173 A 
ATOM     81  F   UNL A   1      48.216  27.175  28.117  1.00  0.00    -0.203 F 
ATOM     82  C   UNL A   1      49.345  26.736  26.097  1.00  0.00     0.198 A 
ATOM     83  C   UNL A   1      48.282  27.209  24.002  1.00  0.00     0.198 A 
ATOM     84  F   UNL A   1      46.125  28.146  23.962  1.00  0.00    -0.203 F 
ATOM     85  F   UNL A   1      50.416  26.320  26.787  1.00  0.00    -0.200 F 
ATOM     86  C   UNL A   1      49.380  26.749  24.711  1.00  0.00     0.200 A 
ATOM     87  F   UNL A   1      48.310  27.221  22.661  1.00  0.00    -0.200 F 
ATOM     88  F   UNL A   1      50.475  26.331  24.061  1.00  0.00    -0.200 F 
ENDBRANCH  54  78
BRANCH  66  89
ATOM     89  C   UNL A   1      45.489  33.792  29.004  1.00  0.00     0.064 A 
ATOM     90  C   UNL A   1      45.331  34.839  28.083  1.00  0.00     0.173 A 
ATOM     91  C   UNL A   1      46.359  33.995  30.085  1.00  0.00     0.173 A 
ATOM     92  F   UNL A   1      44.530  34.689  27.018  1.00  0.00    -0.203 F 
ATOM     93  C   UNL A   1      46.039  36.030  28.225  1.00  0.00     0.198 A 
ATOM     94  C   UNL A   1      47.037  35.200  30.244  1.00  0.00     0.198 A 
ATOM     95  F   UNL A   1      46.550  33.025  30.992  1.00  0.00    -0.203 F 
ATOM     96  F   UNL A   1      45.917  36.993  27.301  1.00  0.00    -0.200 F 
ATOM     97  C   UNL A   1      46.883  36.213  29.309  1.00  0.00     0.200 A 
ATOM     98  F   UNL A   1      47.844  35.379  31.298  1.00  0.00    -0.200 F 
ATOM     99  F   UNL A   1      47.557  37.362  29.448  1.00  0.00    -0.200 F 
ENDBRANCH  66  89
ENDBRANCH  40  41
ENDBRANCH  33  35
ENDBRANCH  32  33
ENDBRANCH  31  32
ENDBRANCH   1  31
TORSDOF 17
ENDMDL
