MODEL 1
REMARK VINA RESULT:     -12.2      0.000      0.000
REMARK SMILES Cc1cc(=O)n(CC(=O)OCCOC(=O)c2ccc(-c3c4nc(c(-c5c(F)c(F)c(F)c(F)c5F)c5ccc([nH]5)c(-c5c(F)c(F)c(F)c(F)c5F)c5nc(c(-c6c(F)c(F)c(F)c(F)c6F)c6ccc3[nH]6)C=C5)C=C4)cc2)c(N2CCC(C)CC2)n1
REMARK SMILES IDX 11 1 10 2 8 3 9 4 7 5 6 6 1 7 2 8 3 9 87 10 4 11 79 12 5 13
REMARK SMILES IDX 80 14 81 15 86 16 82 17 85 18 83 19 84 20 12 21 13 22 14 23
REMARK SMILES IDX 15 24 16 25 17 26 78 27 18 28 77 29 19 30 20 31 21 32 71 33
REMARK SMILES IDX 22 34 76 35 70 36 72 37 23 38 75 39 69 40 68 41 24 43 56 44
REMARK SMILES IDX 36 45 55 46 37 47 40 48 54 49 73 50 38 51 39 52 53 54 74 55
REMARK SMILES IDX 41 56 25 57 26 58 34 59 27 60 28 61 32 62 35 63 29 64 30 65
REMARK SMILES IDX 33 66 31 67 57 68 58 69 66 70 59 71 60 72 64 73 67 74 61 75
REMARK SMILES IDX 62 76 65 77 63 78 42 79 43 80 51 81 44 82 45 83 49 84 52 85
REMARK SMILES IDX 46 86 47 87 50 88 48 89
REMARK H PARENT 72 42 40 53
REMARK Flexibility Score: inf
ROOT
ATOM      1  C   UNL A   1      31.855  28.325  26.565  1.00  0.00     0.274 C 
ENDROOT
BRANCH   1   2
ATOM      2  O   UNL A   1      30.653  27.721  26.042  1.00  0.00    -0.461 OA
BRANCH   2   3
ATOM      3  C   UNL A   1      30.744  26.396  25.755  1.00  0.00     0.326 C 
ATOM      4  O   UNL A   1      31.275  25.562  26.485  1.00  0.00    -0.250 OA
BRANCH   3   5
ATOM      5  C   UNL A   1      30.209  26.010  24.384  1.00  0.00     0.251 C 
BRANCH   5   6
ATOM      6  N   UNL A   1      29.793  27.095  23.503  1.00  0.00    -0.267 N 
ATOM      7  C   UNL A   1      28.744  30.602  21.457  1.00  0.00     0.067 C 
ATOM      8  C   UNL A   1      29.057  29.321  22.174  1.00  0.00     0.047 A 
ATOM      9  C   UNL A   1      28.106  28.691  22.867  1.00  0.00     0.095 A 
ATOM     10  N   UNL A   1      30.324  28.821  22.001  1.00  0.00    -0.220 NA
ATOM     11  C   UNL A   1      28.458  27.430  23.515  1.00  0.00     0.255 A 
ATOM     12  C   UNL A   1      30.656  27.725  22.624  1.00  0.00     0.209 A 
ATOM     13  O   UNL A   1      27.569  26.724  23.982  1.00  0.00    -0.269 OA
BRANCH  12  14
ATOM     14  N   UNL A   1      31.883  27.144  22.371  1.00  0.00    -0.342 N 
ATOM     15  C   UNL A   1      31.996  25.953  21.535  1.00  0.00     0.120 C 
ATOM     16  C   UNL A   1      33.080  27.556  23.112  1.00  0.00     0.120 C 
ATOM     17  C   UNL A   1      32.654  24.797  22.285  1.00  0.00     0.025 C 
ATOM     18  C   UNL A   1      33.687  26.399  23.888  1.00  0.00     0.025 C 
ATOM     19  C   UNL A   1      33.971  25.234  22.939  1.00  0.00    -0.011 C 
ATOM     20  C   UNL A   1      34.646  24.087  23.680  1.00  0.00     0.008 C 
ENDBRANCH  12  14
ENDBRANCH   5   6
ENDBRANCH   3   5
ENDBRANCH   2   3
ENDBRANCH   1   2
BRANCH   1  21
ATOM     21  C   UNL A   1      31.908  29.822  26.261  1.00  0.00     0.275 C 
BRANCH  21  22
ATOM     22  O   UNL A   1      33.270  30.279  26.209  1.00  0.00    -0.458 OA
BRANCH  22  23
ATOM     23  C   UNL A   1      33.573  31.282  27.067  1.00  0.00     0.338 C 
ATOM     24  O   UNL A   1      32.914  32.276  27.311  1.00  0.00    -0.246 OA
BRANCH  23  25
ATOM     25  C   UNL A   1      34.854  30.962  27.713  1.00  0.00     0.060 A 
ATOM     26  C   UNL A   1      35.769  31.969  28.001  1.00  0.00     0.016 A 
ATOM     27  C   UNL A   1      35.110  29.647  28.100  1.00  0.00     0.016 A 
ATOM     28  C   UNL A   1      36.951  31.641  28.669  1.00  0.00     0.010 A 
ATOM     29  C   UNL A   1      36.254  29.327  28.820  1.00  0.00     0.010 A 
ATOM     30  C   UNL A   1      37.196  30.320  29.090  1.00  0.00    -0.014 A 
BRANCH  30  31
ATOM     31  C   UNL A   1      38.425  29.979  29.840  1.00  0.00     0.031 A 
ATOM     32  C   UNL A   1      38.647  30.501  31.229  1.00  0.00     0.074 A 
ATOM     33  C   UNL A   1      39.358  29.212  29.246  1.00  0.00     0.049 A 
ATOM     34  N   UNL A   1      39.597  30.203  32.078  1.00  0.00    -0.248 NA
ATOM     35  C   UNL A   1      37.692  31.506  31.726  1.00  0.00     0.031 C 
ATOM     36  C   UNL A   1      39.295  28.735  27.865  1.00  0.00     0.029 A 
ATOM     37  N   UNL A   1      40.528  28.687  29.732  1.00  0.00    -0.354 N 
ATOM     38  C   UNL A   1      39.343  30.961  33.211  1.00  0.00     0.074 A 
ATOM     39  C   UNL A   1      38.195  31.792  32.918  1.00  0.00     0.031 C 
ATOM     40  C   UNL A   1      40.350  27.939  27.630  1.00  0.00     0.029 A 
ATOM     41  C   UNL A   1      41.166  27.863  28.839  1.00  0.00     0.049 A 
ATOM     42  H   UNL A   1      40.876  28.883  30.632  1.00  0.00     0.167 HD
ATOM     43  C   UNL A   1      39.989  30.938  34.401  1.00  0.00     0.037 A 
ATOM     44  C   UNL A   1      42.268  27.107  28.993  1.00  0.00     0.037 A 
ATOM     45  C   UNL A   1      41.129  30.106  34.682  1.00  0.00     0.049 A 
ATOM     46  C   UNL A   1      42.963  27.086  30.325  1.00  0.00     0.074 A 
ATOM     47  C   UNL A   1      41.814  29.955  35.874  1.00  0.00     0.029 A 
ATOM     48  N   UNL A   1      41.756  29.290  33.751  1.00  0.00    -0.354 N 
ATOM     49  N   UNL A   1      42.649  27.718  31.430  1.00  0.00    -0.248 NA
ATOM     50  C   UNL A   1      44.156  26.237  30.436  1.00  0.00     0.031 C 
ATOM     51  C   UNL A   1      42.883  29.081  35.654  1.00  0.00     0.029 A 
ATOM     52  C   UNL A   1      42.837  28.651  34.337  1.00  0.00     0.049 A 
ATOM     53  H   UNL A   1      41.474  29.180  32.815  1.00  0.00     0.167 HD
ATOM     54  C   UNL A   1      43.595  27.338  32.370  1.00  0.00     0.074 A 
ATOM     55  C   UNL A   1      44.484  26.401  31.712  1.00  0.00     0.031 C 
ATOM     56  C   UNL A   1      43.717  27.730  33.662  1.00  0.00     0.037 A 
BRANCH  43  57
ATOM     57  C   UNL A   1      39.461  31.816  35.498  1.00  0.00     0.064 A 
ATOM     58  C   UNL A   1      38.530  31.332  36.430  1.00  0.00     0.173 A 
ATOM     59  C   UNL A   1      39.925  33.130  35.654  1.00  0.00     0.173 A 
ATOM     60  F   UNL A   1      38.049  30.085  36.320  1.00  0.00    -0.203 F 
ATOM     61  C   UNL A   1      38.067  32.139  37.466  1.00  0.00     0.198 A 
ATOM     62  C   UNL A   1      39.479  33.925  36.708  1.00  0.00     0.198 A 
ATOM     63  F   UNL A   1      40.820  33.639  34.795  1.00  0.00    -0.203 F 
ATOM     64  F   UNL A   1      37.149  31.668  38.322  1.00  0.00    -0.200 F 
ATOM     65  C   UNL A   1      38.547  33.432  37.608  1.00  0.00     0.200 A 
ATOM     66  F   UNL A   1      39.954  35.170  36.853  1.00  0.00    -0.200 F 
ATOM     67  F   UNL A   1      38.109  34.203  38.613  1.00  0.00    -0.200 F 
ENDBRANCH  43  57
BRANCH  44  68
ATOM     68  C   UNL A   1      42.721  26.249  27.869  1.00  0.00     0.064 A 
ATOM     69  C   UNL A   1      42.147  24.989  27.656  1.00  0.00     0.173 A 
ATOM     70  C   UNL A   1      43.691  26.690  26.957  1.00  0.00     0.173 A 
ATOM     71  F   UNL A   1      41.226  24.520  28.511  1.00  0.00    -0.203 F 
ATOM     72  C   UNL A   1      42.527  24.200  26.574  1.00  0.00     0.198 A 
ATOM     73  C   UNL A   1      44.055  25.909  25.863  1.00  0.00     0.198 A 
ATOM     74  F   UNL A   1      44.264  27.892  27.116  1.00  0.00    -0.203 F 
ATOM     75  F   UNL A   1      41.979  22.989  26.404  1.00  0.00    -0.200 F 
ATOM     76  C   UNL A   1      43.475  24.664  25.673  1.00  0.00     0.200 A 
ATOM     77  F   UNL A   1      44.960  26.366  24.988  1.00  0.00    -0.200 F 
ATOM     78  F   UNL A   1      43.829  23.911  24.624  1.00  0.00    -0.200 F 
ENDBRANCH  44  68
BRANCH  56  79
ATOM     79  C   UNL A   1      44.854  27.157  34.453  1.00  0.00     0.064 A 
ATOM     80  C   UNL A   1      46.075  27.835  34.569  1.00  0.00     0.173 A 
ATOM     81  C   UNL A   1      44.696  25.957  35.163  1.00  0.00     0.173 A 
ATOM     82  F   UNL A   1      46.278  28.980  33.900  1.00  0.00    -0.203 F 
ATOM     83  C   UNL A   1      47.103  27.327  35.359  1.00  0.00     0.198 A 
ATOM     84  C   UNL A   1      45.716  25.466  35.972  1.00  0.00     0.198 A 
ATOM     85  F   UNL A   1      43.543  25.275  35.091  1.00  0.00    -0.203 F 
ATOM     86  F   UNL A   1      48.273  27.976  35.432  1.00  0.00    -0.200 F 
ATOM     87  C   UNL A   1      46.919  26.149  36.067  1.00  0.00     0.200 A 
ATOM     88  F   UNL A   1      45.532  24.334  36.667  1.00  0.00    -0.200 F 
ATOM     89  F   UNL A   1      47.904  25.669  36.839  1.00  0.00    -0.200 F 
ENDBRANCH  56  79
ENDBRANCH  30  31
ENDBRANCH  23  25
ENDBRANCH  22  23
ENDBRANCH  21  22
ENDBRANCH   1  21
TORSDOF 13
ENDMDL
MODEL 2
REMARK VINA RESULT:     -12.0      4.744      9.862
REMARK SMILES Cc1cc(=O)n(CC(=O)OCCOC(=O)c2ccc(-c3c4nc(c(-c5c(F)c(F)c(F)c(F)c5F)c5ccc([nH]5)c(-c5c(F)c(F)c(F)c(F)c5F)c5nc(c(-c6c(F)c(F)c(F)c(F)c6F)c6ccc3[nH]6)C=C5)C=C4)cc2)c(N2CCC(C)CC2)n1
REMARK SMILES IDX 11 1 10 2 8 3 9 4 7 5 6 6 1 7 2 8 3 9 87 10 4 11 79 12 5 13
REMARK SMILES IDX 80 14 81 15 86 16 82 17 85 18 83 19 84 20 12 21 13 22 14 23
REMARK SMILES IDX 15 24 16 25 17 26 78 27 18 28 77 29 19 30 20 31 21 32 71 33
REMARK SMILES IDX 22 34 76 35 70 36 72 37 23 38 75 39 69 40 68 41 24 43 56 44
REMARK SMILES IDX 36 45 55 46 37 47 40 48 54 49 73 50 38 51 39 52 53 54 74 55
REMARK SMILES IDX 41 56 25 57 26 58 34 59 27 60 28 61 32 62 35 63 29 64 30 65
REMARK SMILES IDX 33 66 31 67 57 68 58 69 66 70 59 71 60 72 64 73 67 74 61 75
REMARK SMILES IDX 62 76 65 77 63 78 42 79 43 80 51 81 44 82 45 83 49 84 52 85
REMARK SMILES IDX 46 86 47 87 50 88 48 89
REMARK H PARENT 72 42 40 53
REMARK Flexibility Score: inf
ROOT
ATOM      1  C   UNL A   1      35.852  22.929  24.023  1.00  0.00     0.274 C 
ENDROOT
BRANCH   1   2
ATOM      2  O   UNL A   1      34.833  22.462  23.113  1.00  0.00    -0.461 OA
BRANCH   2   3
ATOM      3  C   UNL A   1      33.851  23.357  22.829  1.00  0.00     0.326 C 
ATOM      4  O   UNL A   1      34.049  24.502  22.426  1.00  0.00    -0.250 OA
BRANCH   3   5
ATOM      5  C   UNL A   1      32.444  22.868  23.137  1.00  0.00     0.251 C 
BRANCH   5   6
ATOM      6  N   UNL A   1      32.308  21.506  23.638  1.00  0.00    -0.267 N 
ATOM      7  C   UNL A   1      32.558  17.567  25.057  1.00  0.00     0.067 C 
ATOM      8  C   UNL A   1      32.425  18.955  24.500  1.00  0.00     0.047 A 
ATOM      9  C   UNL A   1      32.316  19.141  23.182  1.00  0.00     0.095 A 
ATOM     10  N   UNL A   1      32.342  19.973  25.417  1.00  0.00    -0.220 NA
ATOM     11  C   UNL A   1      32.153  20.510  22.700  1.00  0.00     0.255 A 
ATOM     12  C   UNL A   1      32.252  21.200  24.987  1.00  0.00     0.209 A 
ATOM     13  O   UNL A   1      31.846  20.703  21.527  1.00  0.00    -0.269 OA
BRANCH  12  14
ATOM     14  N   UNL A   1      32.049  22.225  25.889  1.00  0.00    -0.342 N 
ATOM     15  C   UNL A   1      30.717  22.776  26.118  1.00  0.00     0.120 C 
ATOM     16  C   UNL A   1      33.182  22.951  26.473  1.00  0.00     0.120 C 
ATOM     17  C   UNL A   1      30.669  24.276  25.833  1.00  0.00     0.025 C 
ATOM     18  C   UNL A   1      33.137  24.431  26.134  1.00  0.00     0.025 C 
ATOM     19  C   UNL A   1      31.793  25.019  26.567  1.00  0.00    -0.011 C 
ATOM     20  C   UNL A   1      31.750  26.518  26.302  1.00  0.00     0.008 C 
ENDBRANCH  12  14
ENDBRANCH   5   6
ENDBRANCH   3   5
ENDBRANCH   2   3
ENDBRANCH   1   2
BRANCH   1  21
ATOM     21  C   UNL A   1      36.848  21.822  24.364  1.00  0.00     0.275 C 
BRANCH  21  22
ATOM     22  O   UNL A   1      37.264  21.922  25.737  1.00  0.00    -0.458 OA
BRANCH  22  23
ATOM     23  C   UNL A   1      38.562  21.608  25.968  1.00  0.00     0.338 C 
ATOM     24  O   UNL A   1      39.118  20.545  25.760  1.00  0.00    -0.246 OA
BRANCH  23  25
ATOM     25  C   UNL A   1      39.235  22.802  26.497  1.00  0.00     0.060 A 
ATOM     26  C   UNL A   1      40.362  22.677  27.303  1.00  0.00     0.016 A 
ATOM     27  C   UNL A   1      38.776  24.064  26.122  1.00  0.00     0.016 A 
ATOM     28  C   UNL A   1      41.014  23.832  27.742  1.00  0.00     0.010 A 
ATOM     29  C   UNL A   1      39.458  25.212  26.503  1.00  0.00     0.010 A 
ATOM     30  C   UNL A   1      40.572  25.106  27.336  1.00  0.00    -0.014 A 
BRANCH  30  31
ATOM     31  C   UNL A   1      41.290  26.328  27.760  1.00  0.00     0.031 A 
ATOM     32  C   UNL A   1      42.708  26.571  27.336  1.00  0.00     0.074 A 
ATOM     33  C   UNL A   1      40.658  27.210  28.557  1.00  0.00     0.049 A 
ATOM     34  N   UNL A   1      43.445  27.639  27.504  1.00  0.00    -0.248 NA
ATOM     35  C   UNL A   1      43.401  25.466  26.653  1.00  0.00     0.031 C 
ATOM     36  C   UNL A   1      39.318  27.027  29.113  1.00  0.00     0.029 A 
ATOM     37  N   UNL A   1      41.051  28.439  29.020  1.00  0.00    -0.354 N 
ATOM     38  C   UNL A   1      44.673  27.344  26.931  1.00  0.00     0.074 A 
ATOM     39  C   UNL A   1      44.613  25.972  26.477  1.00  0.00     0.031 C 
ATOM     40  C   UNL A   1      38.975  28.129  29.797  1.00  0.00     0.029 A 
ATOM     41  C   UNL A   1      40.076  29.087  29.735  1.00  0.00     0.049 A 
ATOM     42  H   UNL A   1      41.945  28.818  28.856  1.00  0.00     0.167 HD
ATOM     43  C   UNL A   1      45.742  28.160  26.767  1.00  0.00     0.037 A 
ATOM     44  C   UNL A   1      40.063  30.329  30.255  1.00  0.00     0.037 A 
ATOM     45  C   UNL A   1      45.791  29.524  27.220  1.00  0.00     0.049 A 
ATOM     46  C   UNL A   1      41.254  31.221  30.051  1.00  0.00     0.074 A 
ATOM     47  C   UNL A   1      46.797  30.457  27.044  1.00  0.00     0.029 A 
ATOM     48  N   UNL A   1      44.789  30.147  27.951  1.00  0.00    -0.354 N 
ATOM     49  N   UNL A   1      42.369  30.976  29.406  1.00  0.00    -0.248 NA
ATOM     50  C   UNL A   1      41.182  32.567  30.634  1.00  0.00     0.031 C 
ATOM     51  C   UNL A   1      46.423  31.631  27.705  1.00  0.00     0.029 A 
ATOM     52  C   UNL A   1      45.164  31.445  28.255  1.00  0.00     0.049 A 
ATOM     53  H   UNL A   1      43.938  29.729  28.213  1.00  0.00     0.167 HD
ATOM     54  C   UNL A   1      43.126  32.135  29.494  1.00  0.00     0.074 A 
ATOM     55  C   UNL A   1      42.333  33.094  30.238  1.00  0.00     0.031 C 
ATOM     56  C   UNL A   1      44.366  32.382  29.005  1.00  0.00     0.037 A 
BRANCH  43  57
ATOM     57  C   UNL A   1      46.935  27.607  26.041  1.00  0.00     0.064 A 
ATOM     58  C   UNL A   1      47.033  27.684  24.643  1.00  0.00     0.173 A 
ATOM     59  C   UNL A   1      48.010  27.048  26.746  1.00  0.00     0.173 A 
ATOM     60  F   UNL A   1      46.028  28.203  23.922  1.00  0.00    -0.203 F 
ATOM     61  C   UNL A   1      48.155  27.200  23.976  1.00  0.00     0.198 A 
ATOM     62  C   UNL A   1      49.143  26.590  26.076  1.00  0.00     0.198 A 
ATOM     63  F   UNL A   1      47.970  26.957  28.083  1.00  0.00    -0.203 F 
ATOM     64  F   UNL A   1      48.210  27.249  22.637  1.00  0.00    -0.200 F 
ATOM     65  C   UNL A   1      49.212  26.661  24.693  1.00  0.00     0.200 A 
ATOM     66  F   UNL A   1      50.170  26.081  26.771  1.00  0.00    -0.200 F 
ATOM     67  F   UNL A   1      50.296  26.206  24.049  1.00  0.00    -0.200 F 
ENDBRANCH  43  57
BRANCH  44  68
ATOM     68  C   UNL A   1      38.842  30.813  30.944  1.00  0.00     0.064 A 
ATOM     69  C   UNL A   1      37.762  31.322  30.210  1.00  0.00     0.173 A 
ATOM     70  C   UNL A   1      38.704  30.727  32.337  1.00  0.00     0.173 A 
ATOM     71  F   UNL A   1      37.854  31.437  28.877  1.00  0.00    -0.203 F 
ATOM     72  C   UNL A   1      36.591  31.730  30.843  1.00  0.00     0.198 A 
ATOM     73  C   UNL A   1      37.524  31.114  32.967  1.00  0.00     0.198 A 
ATOM     74  F   UNL A   1      39.708  30.241  33.081  1.00  0.00    -0.203 F 
ATOM     75  F   UNL A   1      35.580  32.233  30.120  1.00  0.00    -0.200 F 
ATOM     76  C   UNL A   1      36.469  31.617  32.220  1.00  0.00     0.200 A 
ATOM     77  F   UNL A   1      37.405  30.992  34.296  1.00  0.00    -0.200 F 
ATOM     78  F   UNL A   1      35.336  31.995  32.827  1.00  0.00    -0.200 F 
ENDBRANCH  44  68
BRANCH  56  79
ATOM     79  C   UNL A   1      44.951  33.739  29.260  1.00  0.00     0.064 A 
ATOM     80  C   UNL A   1      44.720  34.808  28.384  1.00  0.00     0.173 A 
ATOM     81  C   UNL A   1      45.687  33.989  30.428  1.00  0.00     0.173 A 
ATOM     82  F   UNL A   1      44.032  34.614  27.249  1.00  0.00    -0.203 F 
ATOM     83  C   UNL A   1      45.213  36.080  28.663  1.00  0.00     0.198 A 
ATOM     84  C   UNL A   1      46.156  35.268  30.716  1.00  0.00     0.198 A 
ATOM     85  F   UNL A   1      45.928  33.001  31.302  1.00  0.00    -0.203 F 
ATOM     86  F   UNL A   1      45.005  37.081  27.797  1.00  0.00    -0.200 F 
ATOM     87  C   UNL A   1      45.922  36.310  29.832  1.00  0.00     0.200 A 
ATOM     88  F   UNL A   1      46.828  35.492  31.853  1.00  0.00    -0.200 F 
ATOM     89  F   UNL A   1      46.382  37.539  30.107  1.00  0.00    -0.200 F 
ENDBRANCH  56  79
ENDBRANCH  30  31
ENDBRANCH  23  25
ENDBRANCH  22  23
ENDBRANCH  21  22
ENDBRANCH   1  21
TORSDOF 13
ENDMDL
MODEL 3
REMARK VINA RESULT:     -12.0      0.351      2.003
REMARK SMILES Cc1cc(=O)n(CC(=O)OCCOC(=O)c2ccc(-c3c4nc(c(-c5c(F)c(F)c(F)c(F)c5F)c5ccc([nH]5)c(-c5c(F)c(F)c(F)c(F)c5F)c5nc(c(-c6c(F)c(F)c(F)c(F)c6F)c6ccc3[nH]6)C=C5)C=C4)cc2)c(N2CCC(C)CC2)n1
REMARK SMILES IDX 11 1 10 2 8 3 9 4 7 5 6 6 1 7 2 8 3 9 87 10 4 11 79 12 5 13
REMARK SMILES IDX 80 14 81 15 86 16 82 17 85 18 83 19 84 20 12 21 13 22 14 23
REMARK SMILES IDX 15 24 16 25 17 26 78 27 18 28 77 29 19 30 20 31 21 32 71 33
REMARK SMILES IDX 22 34 76 35 70 36 72 37 23 38 75 39 69 40 68 41 24 43 56 44
REMARK SMILES IDX 36 45 55 46 37 47 40 48 54 49 73 50 38 51 39 52 53 54 74 55
REMARK SMILES IDX 41 56 25 57 26 58 34 59 27 60 28 61 32 62 35 63 29 64 30 65
REMARK SMILES IDX 33 66 31 67 57 68 58 69 66 70 59 71 60 72 64 73 67 74 61 75
REMARK SMILES IDX 62 76 65 77 63 78 42 79 43 80 51 81 44 82 45 83 49 84 52 85
REMARK SMILES IDX 46 86 47 87 50 88 48 89
REMARK H PARENT 72 42 40 53
REMARK Flexibility Score: inf
ROOT
ATOM      1  C   UNL A   1      31.820  28.243  26.891  1.00  0.00     0.274 C 
ENDROOT
BRANCH   1   2
ATOM      2  O   UNL A   1      30.668  27.565  26.345  1.00  0.00    -0.461 OA
BRANCH   2   3
ATOM      3  C   UNL A   1      30.854  26.256  26.037  1.00  0.00     0.326 C 
ATOM      4  O   UNL A   1      31.404  25.439  26.774  1.00  0.00    -0.250 OA
BRANCH   3   5
ATOM      5  C   UNL A   1      30.403  25.868  24.636  1.00  0.00     0.251 C 
BRANCH   5   6
ATOM      6  N   UNL A   1      30.020  26.950  23.737  1.00  0.00    -0.267 N 
ATOM      7  C   UNL A   1      29.074  30.453  21.635  1.00  0.00     0.067 C 
ATOM      8  C   UNL A   1      29.349  29.175  22.372  1.00  0.00     0.047 A 
ATOM      9  C   UNL A   1      28.378  28.578  23.067  1.00  0.00     0.095 A 
ATOM     10  N   UNL A   1      30.604  28.642  22.216  1.00  0.00    -0.220 NA
ATOM     11  C   UNL A   1      28.694  27.318  23.735  1.00  0.00     0.255 A 
ATOM     12  C   UNL A   1      30.905  27.546  22.856  1.00  0.00     0.209 A 
ATOM     13  O   UNL A   1      27.785  26.640  24.205  1.00  0.00    -0.269 OA
BRANCH  12  14
ATOM     14  N   UNL A   1      32.119  26.931  22.621  1.00  0.00    -0.342 N 
ATOM     15  C   UNL A   1      32.222  25.780  21.729  1.00  0.00     0.120 C 
ATOM     16  C   UNL A   1      33.299  27.259  23.427  1.00  0.00     0.120 C 
ATOM     17  C   UNL A   1      32.806  24.563  22.444  1.00  0.00     0.025 C 
ATOM     18  C   UNL A   1      33.832  26.043  24.165  1.00  0.00     0.025 C 
ATOM     19  C   UNL A   1      34.111  24.916  23.168  1.00  0.00    -0.011 C 
ATOM     20  C   UNL A   1      34.713  23.709  23.874  1.00  0.00     0.008 C 
ENDBRANCH  12  14
ENDBRANCH   5   6
ENDBRANCH   3   5
ENDBRANCH   2   3
ENDBRANCH   1   2
BRANCH   1  21
ATOM     21  C   UNL A   1      31.781  29.741  26.595  1.00  0.00     0.275 C 
BRANCH  21  22
ATOM     22  O   UNL A   1      33.103  30.236  26.321  1.00  0.00    -0.458 OA
BRANCH  22  23
ATOM     23  C   UNL A   1      33.489  31.294  27.076  1.00  0.00     0.338 C 
ATOM     24  O   UNL A   1      32.881  32.331  27.267  1.00  0.00    -0.246 OA
BRANCH  23  25
ATOM     25  C   UNL A   1      34.789  30.975  27.682  1.00  0.00     0.060 A 
ATOM     26  C   UNL A   1      35.685  31.989  28.001  1.00  0.00     0.016 A 
ATOM     27  C   UNL A   1      35.082  29.650  28.003  1.00  0.00     0.016 A 
ATOM     28  C   UNL A   1      36.888  31.659  28.631  1.00  0.00     0.010 A 
ATOM     29  C   UNL A   1      36.247  29.325  28.686  1.00  0.00     0.010 A 
ATOM     30  C   UNL A   1      37.171  30.325  28.985  1.00  0.00    -0.014 A 
BRANCH  30  31
ATOM     31  C   UNL A   1      38.422  29.980  29.696  1.00  0.00     0.031 A 
ATOM     32  C   UNL A   1      38.686  30.493  31.081  1.00  0.00     0.074 A 
ATOM     33  C   UNL A   1      39.336  29.216  29.069  1.00  0.00     0.049 A 
ATOM     34  N   UNL A   1      39.661  30.189  31.899  1.00  0.00    -0.248 NA
ATOM     35  C   UNL A   1      37.747  31.495  31.613  1.00  0.00     0.031 C 
ATOM     36  C   UNL A   1      39.232  28.748  27.688  1.00  0.00     0.029 A 
ATOM     37  N   UNL A   1      40.519  28.688  29.516  1.00  0.00    -0.354 N 
ATOM     38  C   UNL A   1      39.441  30.941  33.044  1.00  0.00     0.074 A 
ATOM     39  C   UNL A   1      38.285  31.773  32.791  1.00  0.00     0.031 C 
ATOM     40  C   UNL A   1      40.279  27.953  27.416  1.00  0.00     0.029 A 
ATOM     41  C   UNL A   1      41.130  27.869  28.600  1.00  0.00     0.049 A 
ATOM     42  H   UNL A   1      40.894  28.878  30.407  1.00  0.00     0.167 HD
ATOM     43  C   UNL A   1      40.122  30.910  34.214  1.00  0.00     0.037 A 
ATOM     44  C   UNL A   1      42.237  27.112  28.716  1.00  0.00     0.037 A 
ATOM     45  C   UNL A   1      41.269  30.076  34.455  1.00  0.00     0.049 A 
ATOM     46  C   UNL A   1      42.971  27.083  30.026  1.00  0.00     0.074 A 
ATOM     47  C   UNL A   1      41.990  29.917  35.626  1.00  0.00     0.029 A 
ATOM     48  N   UNL A   1      41.868  29.266  33.501  1.00  0.00    -0.354 N 
ATOM     49  N   UNL A   1      42.690  27.707  31.144  1.00  0.00    -0.248 NA
ATOM     50  C   UNL A   1      44.167  26.233  30.097  1.00  0.00     0.031 C 
ATOM     51  C   UNL A   1      43.051  29.044  35.368  1.00  0.00     0.029 A 
ATOM     52  C   UNL A   1      42.966  28.623  34.050  1.00  0.00     0.049 A 
ATOM     53  H   UNL A   1      41.558  29.162  32.573  1.00  0.00     0.167 HD
ATOM     54  C   UNL A   1      43.664  27.321  32.054  1.00  0.00     0.074 A 
ATOM     55  C   UNL A   1      44.532  26.389  31.363  1.00  0.00     0.031 C 
ATOM     56  C   UNL A   1      43.825  27.706  33.344  1.00  0.00     0.037 A 
BRANCH  43  57
ATOM     57  C   UNL A   1      39.627  31.782  35.331  1.00  0.00     0.064 A 
ATOM     58  C   UNL A   1      40.094  33.096  35.487  1.00  0.00     0.173 A 
ATOM     59  C   UNL A   1      38.643  31.325  36.219  1.00  0.00     0.173 A 
ATOM     60  F   UNL A   1      41.041  33.579  34.669  1.00  0.00    -0.203 F 
ATOM     61  C   UNL A   1      39.609  33.913  36.505  1.00  0.00     0.198 A 
ATOM     62  C   UNL A   1      38.141  32.154  37.219  1.00  0.00     0.198 A 
ATOM     63  F   UNL A   1      38.158  30.079  36.109  1.00  0.00    -0.203 F 
ATOM     64  F   UNL A   1      40.096  35.153  36.658  1.00  0.00    -0.200 F 
ATOM     65  C   UNL A   1      38.627  33.445  37.364  1.00  0.00     0.200 A 
ATOM     66  F   UNL A   1      37.182  31.705  38.041  1.00  0.00    -0.200 F 
ATOM     67  F   UNL A   1      38.152  34.236  38.336  1.00  0.00    -0.200 F 
ENDBRANCH  43  57
BRANCH  44  68
ATOM     68  C   UNL A   1      42.655  26.261  27.574  1.00  0.00     0.064 A 
ATOM     69  C   UNL A   1      43.644  26.700  26.683  1.00  0.00     0.173 A 
ATOM     70  C   UNL A   1      42.122  24.979  27.382  1.00  0.00     0.173 A 
ATOM     71  F   UNL A   1      44.172  27.925  26.819  1.00  0.00    -0.203 F 
ATOM     72  C   UNL A   1      44.082  25.888  25.640  1.00  0.00     0.198 A 
ATOM     73  C   UNL A   1      42.577  24.159  26.352  1.00  0.00     0.198 A 
ATOM     74  F   UNL A   1      41.179  24.514  28.213  1.00  0.00    -0.203 F 
ATOM     75  F   UNL A   1      45.013  26.338  24.788  1.00  0.00    -0.200 F 
ATOM     76  C   UNL A   1      43.554  24.615  25.480  1.00  0.00     0.200 A 
ATOM     77  F   UNL A   1      42.075  22.925  26.209  1.00  0.00    -0.200 F 
ATOM     78  F   UNL A   1      43.987  23.828  24.486  1.00  0.00    -0.200 F 
ENDBRANCH  44  68
BRANCH  56  79
ATOM     79  C   UNL A   1      44.985  27.128  34.097  1.00  0.00     0.064 A 
ATOM     80  C   UNL A   1      44.879  25.902  34.767  1.00  0.00     0.173 A 
ATOM     81  C   UNL A   1      46.233  27.768  34.085  1.00  0.00     0.173 A 
ATOM     82  F   UNL A   1      43.703  25.258  34.817  1.00  0.00    -0.203 F 
ATOM     83  C   UNL A   1      45.980  25.341  35.410  1.00  0.00     0.198 A 
ATOM     84  C   UNL A   1      47.338  27.192  34.705  1.00  0.00     0.198 A 
ATOM     85  F   UNL A   1      46.387  28.940  33.450  1.00  0.00    -0.203 F 
ATOM     86  F   UNL A   1      45.850  24.183  36.070  1.00  0.00    -0.200 F 
ATOM     87  C   UNL A   1      47.210  25.981  35.370  1.00  0.00     0.200 A 
ATOM     88  F   UNL A   1      48.529  27.804  34.654  1.00  0.00    -0.200 F 
ATOM     89  F   UNL A   1      48.272  25.432  35.974  1.00  0.00    -0.200 F 
ENDBRANCH  56  79
ENDBRANCH  30  31
ENDBRANCH  23  25
ENDBRANCH  22  23
ENDBRANCH  21  22
ENDBRANCH   1  21
TORSDOF 13
ENDMDL
