MODEL 1
REMARK VINA RESULT:     -12.8      0.000      0.000
REMARK SMILES Cc1ccc(CSCC(=O)N[C@H]2C=C[C@@H](C(=O)OCCOC(=O)c3ccc(-c4c5nc(c(-c6c(F)c(F)c(F)c(F)c6F)c6ccc([nH]6)c(-c6c(F)c(F)c(F)c(F)c6F)c6nc(c(-c7c(F)c(F)c(F)c(F)c7F)c7ccc4[nH]7)C=C6)C=C5)cc3)C2)cc1
REMARK SMILES IDX 18 1 16 2 17 3 15 4 12 5 13 6 87 7 14 8 11 9 9 10 10 11 8 13
REMARK SMILES IDX 7 14 6 15 5 16 1 17 2 18 3 19 89 20 4 21 88 22 19 23 20 24
REMARK SMILES IDX 21 25 22 26 23 27 24 28 25 29 86 30 26 31 85 32 27 33 28 34
REMARK SMILES IDX 29 35 79 36 30 37 84 38 78 39 80 40 31 41 83 42 77 43 76 44
REMARK SMILES IDX 32 46 64 47 44 48 63 49 45 50 48 51 62 52 81 53 46 54 47 55
REMARK SMILES IDX 61 57 82 58 49 59 33 60 34 61 42 62 35 63 36 64 40 65 43 66
REMARK SMILES IDX 37 67 38 68 41 69 39 70 65 71 66 72 74 73 67 74 68 75 72 76
REMARK SMILES IDX 75 77 69 78 70 79 73 80 71 81 50 82 51 83 59 84 52 85 53 86
REMARK SMILES IDX 57 87 60 88 54 89 55 90 58 91 56 92
REMARK H PARENT 11 12 80 45 48 56
REMARK Flexibility Score: inf
ROOT
ATOM      1  O   UNL A   1      33.290  29.992  25.572  1.00  0.00    -0.462 OA
ENDROOT
BRANCH   1   2
ATOM      2  C   UNL A   1      32.927  28.857  24.905  1.00  0.00     0.312 C 
ATOM      3  O   UNL A   1      33.680  27.929  24.702  1.00  0.00    -0.252 OA
BRANCH   2   4
ATOM      4  C   UNL A   1      31.441  28.848  24.576  1.00  0.00     0.124 C 
ATOM      5  C   UNL A   1      30.560  27.628  22.625  1.00  0.00     0.106 C 
ATOM      6  C   UNL A   1      30.349  26.870  23.878  1.00  0.00    -0.006 C 
ATOM      7  C   UNL A   1      31.180  28.960  23.075  1.00  0.00     0.048 C 
ATOM      8  C   UNL A   1      30.794  27.544  24.945  1.00  0.00    -0.014 C 
BRANCH   5   9
ATOM      9  N   UNL A   1      31.374  26.981  21.609  1.00  0.00    -0.349 N 
ATOM     10  C   UNL A   1      32.365  26.048  21.706  1.00  0.00     0.230 C 
ATOM     11  O   UNL A   1      33.423  26.284  21.114  1.00  0.00    -0.274 OA
ATOM     12  H   UNL A   1      31.174  27.265  20.688  1.00  0.00     0.164 HD
BRANCH  10  13
ATOM     13  C   UNL A   1      32.110  24.701  22.345  1.00  0.00     0.169 C 
BRANCH  13  14
ATOM     14  S   UNL A   1      33.556  23.657  22.577  1.00  0.00    -0.147 SA
BRANCH  14  15
ATOM     15  C   UNL A   1      34.445  24.494  23.929  1.00  0.00     0.105 C 
BRANCH  15  16
ATOM     16  C   UNL A   1      35.567  23.662  24.471  1.00  0.00    -0.038 A 
ATOM     17  C   UNL A   1      38.998  21.442  25.799  1.00  0.00     0.044 C 
ATOM     18  C   UNL A   1      37.756  22.172  25.386  1.00  0.00    -0.051 A 
ATOM     19  C   UNL A   1      37.094  21.797  24.213  1.00  0.00     0.004 A 
ATOM     20  C   UNL A   1      37.289  23.267  26.121  1.00  0.00     0.004 A 
ATOM     21  C   UNL A   1      36.002  22.532  23.763  1.00  0.00     0.005 A 
ATOM     22  C   UNL A   1      36.199  24.009  25.668  1.00  0.00     0.005 A 
ENDBRANCH  15  16
ENDBRANCH  14  15
ENDBRANCH  13  14
ENDBRANCH  10  13
ENDBRANCH   5   9
ENDBRANCH   2   4
ENDBRANCH   1   2
BRANCH   1  23
ATOM     23  C   UNL A   1      33.901  29.772  26.848  1.00  0.00     0.274 C 
BRANCH  23  24
ATOM     24  C   UNL A   1      34.056  31.085  27.619  1.00  0.00     0.275 C 
BRANCH  24  25
ATOM     25  O   UNL A   1      35.354  31.370  28.224  1.00  0.00    -0.458 OA
BRANCH  25  26
ATOM     26  C   UNL A   1      36.010  30.761  29.245  1.00  0.00     0.338 C 
ATOM     27  O   UNL A   1      35.653  30.901  30.407  1.00  0.00    -0.246 OA
BRANCH  26  28
ATOM     28  C   UNL A   1      37.135  29.861  28.930  1.00  0.00     0.060 A 
ATOM     29  C   UNL A   1      37.796  29.969  27.692  1.00  0.00     0.016 A 
ATOM     30  C   UNL A   1      37.598  28.981  29.893  1.00  0.00     0.016 A 
ATOM     31  C   UNL A   1      39.019  29.315  27.488  1.00  0.00     0.010 A 
ATOM     32  C   UNL A   1      38.859  28.446  29.744  1.00  0.00     0.010 A 
ATOM     33  C   UNL A   1      39.579  28.593  28.544  1.00  0.00    -0.014 A 
BRANCH  33  34
ATOM     34  C   UNL A   1      40.812  27.801  28.455  1.00  0.00     0.031 A 
ATOM     35  C   UNL A   1      40.878  26.331  28.290  1.00  0.00     0.074 A 
ATOM     36  C   UNL A   1      41.938  28.541  28.561  1.00  0.00     0.049 A 
ATOM     37  N   UNL A   1      41.936  25.629  28.525  1.00  0.00    -0.248 NA
ATOM     38  C   UNL A   1      39.763  25.503  27.863  1.00  0.00     0.031 C 
ATOM     39  C   UNL A   1      43.340  28.168  28.469  1.00  0.00     0.029 A 
ATOM     40  N   UNL A   1      41.973  29.846  29.086  1.00  0.00    -0.354 N 
ATOM     41  C   UNL A   1      41.734  24.343  28.061  1.00  0.00     0.074 A 
ATOM     42  C   UNL A   1      40.338  24.300  27.721  1.00  0.00     0.031 C 
ATOM     43  C   UNL A   1      44.040  29.016  29.250  1.00  0.00     0.029 A 
ATOM     44  C   UNL A   1      43.066  29.850  29.951  1.00  0.00     0.049 A 
ATOM     45  H   UNL A   1      41.360  30.591  28.887  1.00  0.00     0.167 HD
ATOM     46  C   UNL A   1      42.824  23.528  27.933  1.00  0.00     0.037 A 
ATOM     47  C   UNL A   1      42.839  29.868  31.296  1.00  0.00     0.037 A 
ATOM     48  C   UNL A   1      43.940  24.096  28.688  1.00  0.00     0.049 A 
ATOM     49  C   UNL A   1      43.500  28.704  31.978  1.00  0.00     0.074 A 
ATOM     50  C   UNL A   1      45.055  24.830  28.322  1.00  0.00     0.029 A 
ATOM     51  N   UNL A   1      43.812  24.225  30.069  1.00  0.00    -0.354 N 
ATOM     52  N   UNL A   1      43.631  27.518  31.448  1.00  0.00    -0.248 NA
ATOM     53  C   UNL A   1      44.105  28.818  33.296  1.00  0.00     0.031 C 
ATOM     54  C   UNL A   1      45.522  25.505  29.481  1.00  0.00     0.029 A 
ATOM     55  C   UNL A   1      44.726  25.137  30.555  1.00  0.00     0.049 A 
ATOM     56  H   UNL A   1      43.161  23.733  30.621  1.00  0.00     0.167 HD
ATOM     57  C   UNL A   1      44.385  26.742  32.289  1.00  0.00     0.074 A 
ATOM     58  C   UNL A   1      44.644  27.597  33.436  1.00  0.00     0.031 C 
ATOM     59  C   UNL A   1      44.771  25.471  31.971  1.00  0.00     0.037 A 
BRANCH  46  60
ATOM     60  C   UNL A   1      42.989  22.353  26.973  1.00  0.00     0.064 A 
ATOM     61  C   UNL A   1      42.274  21.149  27.200  1.00  0.00     0.173 A 
ATOM     62  C   UNL A   1      43.909  22.276  25.907  1.00  0.00     0.173 A 
ATOM     63  F   UNL A   1      41.322  21.068  28.140  1.00  0.00    -0.203 F 
ATOM     64  C   UNL A   1      42.518  19.969  26.486  1.00  0.00     0.198 A 
ATOM     65  C   UNL A   1      44.145  21.097  25.185  1.00  0.00     0.198 A 
ATOM     66  F   UNL A   1      44.627  23.326  25.511  1.00  0.00    -0.203 F 
ATOM     67  F   UNL A   1      41.841  18.852  26.791  1.00  0.00    -0.200 F 
ATOM     68  C   UNL A   1      43.464  19.938  25.486  1.00  0.00     0.200 A 
ATOM     69  F   UNL A   1      45.056  21.094  24.201  1.00  0.00    -0.200 F 
ATOM     70  F   UNL A   1      43.718  18.806  24.817  1.00  0.00    -0.200 F 
ENDBRANCH  46  60
BRANCH  47  71
ATOM     71  C   UNL A   1      41.542  30.490  31.734  1.00  0.00     0.064 A 
ATOM     72  C   UNL A   1      40.540  29.682  32.322  1.00  0.00     0.173 A 
ATOM     73  C   UNL A   1      41.339  31.875  31.797  1.00  0.00     0.173 A 
ATOM     74  F   UNL A   1      40.650  28.342  32.291  1.00  0.00    -0.203 F 
ATOM     75  C   UNL A   1      39.458  30.226  33.015  1.00  0.00     0.198 A 
ATOM     76  C   UNL A   1      40.234  32.420  32.466  1.00  0.00     0.198 A 
ATOM     77  F   UNL A   1      42.230  32.720  31.259  1.00  0.00    -0.203 F 
ATOM     78  F   UNL A   1      38.589  29.420  33.641  1.00  0.00    -0.200 F 
ATOM     79  C   UNL A   1      39.310  31.598  33.093  1.00  0.00     0.200 A 
ATOM     80  F   UNL A   1      40.094  33.751  32.549  1.00  0.00    -0.200 F 
ATOM     81  F   UNL A   1      38.291  32.127  33.787  1.00  0.00    -0.200 F 
ENDBRANCH  47  71
BRANCH  59  82
ATOM     82  C   UNL A   1      45.349  24.465  32.940  1.00  0.00     0.064 A 
ATOM     83  C   UNL A   1      46.607  24.598  33.551  1.00  0.00     0.173 A 
ATOM     84  C   UNL A   1      44.566  23.378  33.402  1.00  0.00     0.173 A 
ATOM     85  F   UNL A   1      47.386  25.664  33.328  1.00  0.00    -0.203 F 
ATOM     86  C   UNL A   1      47.086  23.666  34.475  1.00  0.00     0.198 A 
ATOM     87  C   UNL A   1      45.020  22.490  34.376  1.00  0.00     0.198 A 
ATOM     88  F   UNL A   1      43.323  23.160  32.950  1.00  0.00    -0.203 F 
ATOM     89  F   UNL A   1      48.319  23.811  34.979  1.00  0.00    -0.200 F 
ATOM     90  C   UNL A   1      46.290  22.620  34.895  1.00  0.00     0.200 A 
ATOM     91  F   UNL A   1      44.208  21.520  34.822  1.00  0.00    -0.200 F 
ATOM     92  F   UNL A   1      46.735  21.757  35.818  1.00  0.00    -0.200 F 
ENDBRANCH  59  82
ENDBRANCH  33  34
ENDBRANCH  26  28
ENDBRANCH  25  26
ENDBRANCH  24  25
ENDBRANCH  23  24
ENDBRANCH   1  23
TORSDOF 16
ENDMDL
MODEL 2
REMARK VINA RESULT:     -12.8      3.855      9.879
REMARK SMILES Cc1ccc(CSCC(=O)N[C@H]2C=C[C@@H](C(=O)OCCOC(=O)c3ccc(-c4c5nc(c(-c6c(F)c(F)c(F)c(F)c6F)c6ccc([nH]6)c(-c6c(F)c(F)c(F)c(F)c6F)c6nc(c(-c7c(F)c(F)c(F)c(F)c7F)c7ccc4[nH]7)C=C6)C=C5)cc3)C2)cc1
REMARK SMILES IDX 18 1 16 2 17 3 15 4 12 5 13 6 87 7 14 8 11 9 9 10 10 11 8 13
REMARK SMILES IDX 7 14 6 15 5 16 1 17 2 18 3 19 89 20 4 21 88 22 19 23 20 24
REMARK SMILES IDX 21 25 22 26 23 27 24 28 25 29 86 30 26 31 85 32 27 33 28 34
REMARK SMILES IDX 29 35 79 36 30 37 84 38 78 39 80 40 31 41 83 42 77 43 76 44
REMARK SMILES IDX 32 46 64 47 44 48 63 49 45 50 48 51 62 52 81 53 46 54 47 55
REMARK SMILES IDX 61 57 82 58 49 59 33 60 34 61 42 62 35 63 36 64 40 65 43 66
REMARK SMILES IDX 37 67 38 68 41 69 39 70 65 71 66 72 74 73 67 74 68 75 72 76
REMARK SMILES IDX 75 77 69 78 70 79 73 80 71 81 50 82 51 83 59 84 52 85 53 86
REMARK SMILES IDX 57 87 60 88 54 89 55 90 58 91 56 92
REMARK H PARENT 11 12 80 45 48 56
REMARK Flexibility Score: inf
ROOT
ATOM      1  O   UNL A   1      35.041  24.695  25.219  1.00  0.00    -0.462 OA
ENDROOT
BRANCH   1   2
ATOM      2  C   UNL A   1      33.870  24.985  25.858  1.00  0.00     0.312 C 
ATOM      3  O   UNL A   1      33.204  24.160  26.447  1.00  0.00    -0.252 OA
BRANCH   2   4
ATOM      4  C   UNL A   1      33.582  26.479  25.855  1.00  0.00     0.124 C 
ATOM      5  C   UNL A   1      32.640  27.606  23.876  1.00  0.00     0.106 C 
ATOM      6  C   UNL A   1      31.601  27.347  24.898  1.00  0.00    -0.006 C 
ATOM      7  C   UNL A   1      33.951  27.137  24.526  1.00  0.00     0.048 C 
ATOM      8  C   UNL A   1      32.114  26.767  25.990  1.00  0.00    -0.014 C 
BRANCH   5   9
ATOM      9  N   UNL A   1      32.438  26.982  22.579  1.00  0.00    -0.349 N 
ATOM     10  C   UNL A   1      32.702  25.720  22.133  1.00  0.00     0.230 C 
ATOM     11  O   UNL A   1      33.333  25.615  21.076  1.00  0.00    -0.274 OA
ATOM     12  H   UNL A   1      32.037  27.575  21.902  1.00  0.00     0.164 HD
BRANCH  10  13
ATOM     13  C   UNL A   1      32.084  24.511  22.799  1.00  0.00     0.169 C 
BRANCH  13  14
ATOM     14  S   UNL A   1      32.912  22.942  22.498  1.00  0.00    -0.147 SA
BRANCH  14  15
ATOM     15  C   UNL A   1      32.536  21.992  24.007  1.00  0.00     0.105 C 
BRANCH  15  16
ATOM     16  C   UNL A   1      32.887  20.542  23.867  1.00  0.00    -0.038 A 
ATOM     17  C   UNL A   1      33.701  16.325  23.751  1.00  0.00     0.044 C 
ATOM     18  C   UNL A   1      33.467  17.805  23.728  1.00  0.00    -0.051 A 
ATOM     19  C   UNL A   1      34.181  18.630  24.603  1.00  0.00     0.004 A 
ATOM     20  C   UNL A   1      32.494  18.366  22.893  1.00  0.00     0.004 A 
ATOM     21  C   UNL A   1      33.900  19.990  24.666  1.00  0.00     0.005 A 
ATOM     22  C   UNL A   1      32.205  19.728  22.959  1.00  0.00     0.005 A 
ENDBRANCH  15  16
ENDBRANCH  14  15
ENDBRANCH  13  14
ENDBRANCH  10  13
ENDBRANCH   5   9
ENDBRANCH   2   4
ENDBRANCH   1   2
BRANCH   1  23
ATOM     23  C   UNL A   1      35.815  23.653  25.824  1.00  0.00     0.274 C 
BRANCH  23  24
ATOM     24  C   UNL A   1      37.299  23.799  25.481  1.00  0.00     0.275 C 
BRANCH  24  25
ATOM     25  O   UNL A   1      38.274  23.455  26.512  1.00  0.00    -0.458 OA
BRANCH  25  26
ATOM     26  C   UNL A   1      39.524  23.931  26.745  1.00  0.00     0.338 C 
ATOM     27  O   UNL A   1      40.518  23.350  26.331  1.00  0.00    -0.246 OA
BRANCH  26  28
ATOM     28  C   UNL A   1      39.673  25.213  27.460  1.00  0.00     0.060 A 
ATOM     29  C   UNL A   1      40.150  26.348  26.776  1.00  0.00     0.016 A 
ATOM     30  C   UNL A   1      39.251  25.318  28.774  1.00  0.00     0.016 A 
ATOM     31  C   UNL A   1      40.045  27.617  27.359  1.00  0.00     0.010 A 
ATOM     32  C   UNL A   1      39.025  26.574  29.294  1.00  0.00     0.010 A 
ATOM     33  C   UNL A   1      39.426  27.734  28.606  1.00  0.00    -0.014 A 
BRANCH  33  34
ATOM     34  C   UNL A   1      39.310  28.983  29.368  1.00  0.00     0.031 A 
ATOM     35  C   UNL A   1      38.365  30.084  29.073  1.00  0.00     0.074 A 
ATOM     36  C   UNL A   1      40.183  29.072  30.396  1.00  0.00     0.049 A 
ATOM     37  N   UNL A   1      38.485  31.281  29.544  1.00  0.00    -0.248 NA
ATOM     38  C   UNL A   1      37.204  29.958  28.208  1.00  0.00     0.031 C 
ATOM     39  C   UNL A   1      40.360  30.094  31.414  1.00  0.00     0.029 A 
ATOM     40  N   UNL A   1      41.337  28.277  30.516  1.00  0.00    -0.354 N 
ATOM     41  C   UNL A   1      37.333  31.992  29.266  1.00  0.00     0.074 A 
ATOM     42  C   UNL A   1      36.596  31.142  28.371  1.00  0.00     0.031 C 
ATOM     43  C   UNL A   1      41.662  30.100  31.766  1.00  0.00     0.029 A 
ATOM     44  C   UNL A   1      42.347  29.169  30.870  1.00  0.00     0.049 A 
ATOM     45  H   UNL A   1      41.414  27.304  30.379  1.00  0.00     0.167 HD
ATOM     46  C   UNL A   1      37.128  33.166  29.932  1.00  0.00     0.037 A 
ATOM     47  C   UNL A   1      43.293  29.493  29.942  1.00  0.00     0.037 A 
ATOM     48  C   UNL A   1      38.386  33.604  30.535  1.00  0.00     0.049 A 
ATOM     49  C   UNL A   1      43.354  30.977  29.717  1.00  0.00     0.074 A 
ATOM     50  C   UNL A   1      38.898  33.530  31.819  1.00  0.00     0.029 A 
ATOM     51  N   UNL A   1      39.455  33.910  29.696  1.00  0.00    -0.354 N 
ATOM     52  N   UNL A   1      42.319  31.771  29.763  1.00  0.00    -0.248 NA
ATOM     53  C   UNL A   1      44.607  31.674  29.473  1.00  0.00     0.031 C 
ATOM     54  C   UNL A   1      40.308  33.669  31.725  1.00  0.00     0.029 A 
ATOM     55  C   UNL A   1      40.642  33.882  30.397  1.00  0.00     0.049 A 
ATOM     56  H   UNL A   1      39.374  34.117  28.736  1.00  0.00     0.167 HD
ATOM     57  C   UNL A   1      42.753  33.066  29.636  1.00  0.00     0.074 A 
ATOM     58  C   UNL A   1      44.189  32.949  29.444  1.00  0.00     0.031 C 
ATOM     59  C   UNL A   1      41.912  34.138  29.732  1.00  0.00     0.037 A 
BRANCH  46  60
ATOM     60  C   UNL A   1      35.788  33.824  30.250  1.00  0.00     0.064 A 
ATOM     61  C   UNL A   1      35.009  34.382  29.204  1.00  0.00     0.173 A 
ATOM     62  C   UNL A   1      35.267  34.065  31.538  1.00  0.00     0.173 A 
ATOM     63  F   UNL A   1      35.333  34.199  27.917  1.00  0.00    -0.203 F 
ATOM     64  C   UNL A   1      33.873  35.170  29.433  1.00  0.00     0.198 A 
ATOM     65  C   UNL A   1      34.123  34.845  31.766  1.00  0.00     0.198 A 
ATOM     66  F   UNL A   1      35.832  33.569  32.638  1.00  0.00    -0.203 F 
ATOM     67  F   UNL A   1      33.215  35.710  28.397  1.00  0.00    -0.200 F 
ATOM     68  C   UNL A   1      33.437  35.413  30.716  1.00  0.00     0.200 A 
ATOM     69  F   UNL A   1      33.704  35.053  33.023  1.00  0.00    -0.200 F 
ATOM     70  F   UNL A   1      32.366  36.185  30.941  1.00  0.00    -0.200 F 
ENDBRANCH  46  60
BRANCH  47  71
ATOM     71  C   UNL A   1      43.553  28.457  28.882  1.00  0.00     0.064 A 
ATOM     72  C   UNL A   1      43.119  28.688  27.556  1.00  0.00     0.173 A 
ATOM     73  C   UNL A   1      44.399  27.358  29.077  1.00  0.00     0.173 A 
ATOM     74  F   UNL A   1      42.292  29.713  27.285  1.00  0.00    -0.203 F 
ATOM     75  C   UNL A   1      43.581  27.928  26.480  1.00  0.00     0.198 A 
ATOM     76  C   UNL A   1      44.838  26.576  28.000  1.00  0.00     0.198 A 
ATOM     77  F   UNL A   1      44.854  27.056  30.302  1.00  0.00    -0.203 F 
ATOM     78  F   UNL A   1      43.220  28.248  25.229  1.00  0.00    -0.200 F 
ATOM     79  C   UNL A   1      44.449  26.875  26.703  1.00  0.00     0.200 A 
ATOM     80  F   UNL A   1      45.685  25.559  28.214  1.00  0.00    -0.200 F 
ATOM     81  F   UNL A   1      44.923  26.164  25.670  1.00  0.00    -0.200 F 
ENDBRANCH  47  71
BRANCH  59  82
ATOM     82  C   UNL A   1      42.252  35.554  29.329  1.00  0.00     0.064 A 
ATOM     83  C   UNL A   1      43.152  36.374  30.030  1.00  0.00     0.173 A 
ATOM     84  C   UNL A   1      41.774  36.090  28.107  1.00  0.00     0.173 A 
ATOM     85  F   UNL A   1      43.802  35.935  31.116  1.00  0.00    -0.203 F 
ATOM     86  C   UNL A   1      43.471  37.664  29.599  1.00  0.00     0.198 A 
ATOM     87  C   UNL A   1      42.151  37.349  27.645  1.00  0.00     0.198 A 
ATOM     88  F   UNL A   1      40.954  35.396  27.305  1.00  0.00    -0.203 F 
ATOM     89  F   UNL A   1      44.288  38.424  30.341  1.00  0.00    -0.200 F 
ATOM     90  C   UNL A   1      42.981  38.147  28.403  1.00  0.00     0.200 A 
ATOM     91  F   UNL A   1      41.720  37.775  26.448  1.00  0.00    -0.200 F 
ATOM     92  F   UNL A   1      43.329  39.366  27.969  1.00  0.00    -0.200 F 
ENDBRANCH  59  82
ENDBRANCH  33  34
ENDBRANCH  26  28
ENDBRANCH  25  26
ENDBRANCH  24  25
ENDBRANCH  23  24
ENDBRANCH   1  23
TORSDOF 16
ENDMDL
MODEL 3
REMARK VINA RESULT:     -12.7      1.570      3.965
REMARK SMILES Cc1ccc(CSCC(=O)N[C@H]2C=C[C@@H](C(=O)OCCOC(=O)c3ccc(-c4c5nc(c(-c6c(F)c(F)c(F)c(F)c6F)c6ccc([nH]6)c(-c6c(F)c(F)c(F)c(F)c6F)c6nc(c(-c7c(F)c(F)c(F)c(F)c7F)c7ccc4[nH]7)C=C6)C=C5)cc3)C2)cc1
REMARK SMILES IDX 18 1 16 2 17 3 15 4 12 5 13 6 87 7 14 8 11 9 9 10 10 11 8 13
REMARK SMILES IDX 7 14 6 15 5 16 1 17 2 18 3 19 89 20 4 21 88 22 19 23 20 24
REMARK SMILES IDX 21 25 22 26 23 27 24 28 25 29 86 30 26 31 85 32 27 33 28 34
REMARK SMILES IDX 29 35 79 36 30 37 84 38 78 39 80 40 31 41 83 42 77 43 76 44
REMARK SMILES IDX 32 46 64 47 44 48 63 49 45 50 48 51 62 52 81 53 46 54 47 55
REMARK SMILES IDX 61 57 82 58 49 59 33 60 34 61 42 62 35 63 36 64 40 65 43 66
REMARK SMILES IDX 37 67 38 68 41 69 39 70 65 71 66 72 74 73 67 74 68 75 72 76
REMARK SMILES IDX 75 77 69 78 70 79 73 80 71 81 50 82 51 83 59 84 52 85 53 86
REMARK SMILES IDX 57 87 60 88 54 89 55 90 58 91 56 92
REMARK H PARENT 11 12 80 45 48 56
REMARK Flexibility Score: inf
ROOT
ATOM      1  O   UNL A   1      33.583  27.565  26.559  1.00  0.00    -0.462 OA
ENDROOT
BRANCH   1   2
ATOM      2  C   UNL A   1      33.527  27.100  25.276  1.00  0.00     0.312 C 
ATOM      3  O   UNL A   1      33.064  27.733  24.352  1.00  0.00    -0.252 OA
BRANCH   2   4
ATOM      4  C   UNL A   1      34.236  25.761  25.131  1.00  0.00     0.124 C 
ATOM      5  C   UNL A   1      33.004  23.630  25.251  1.00  0.00     0.106 C 
ATOM      6  C   UNL A   1      33.300  24.007  23.851  1.00  0.00    -0.006 C 
ATOM      7  C   UNL A   1      33.692  24.710  26.099  1.00  0.00     0.048 C 
ATOM      8  C   UNL A   1      34.001  25.145  23.782  1.00  0.00    -0.014 C 
BRANCH   5   9
ATOM      9  N   UNL A   1      31.598  23.498  25.598  1.00  0.00    -0.349 N 
ATOM     10  C   UNL A   1      30.734  24.359  26.210  1.00  0.00     0.230 C 
ATOM     11  O   UNL A   1      30.079  23.922  27.161  1.00  0.00    -0.274 OA
ATOM     12  H   UNL A   1      31.198  22.635  25.345  1.00  0.00     0.164 HD
BRANCH  10  13
ATOM     13  C   UNL A   1      30.451  25.727  25.627  1.00  0.00     0.169 C 
BRANCH  13  14
ATOM     14  S   UNL A   1      30.049  25.763  23.874  1.00  0.00    -0.147 SA
BRANCH  14  15
ATOM     15  C   UNL A   1      28.440  26.619  23.848  1.00  0.00     0.105 C 
BRANCH  15  16
ATOM     16  C   UNL A   1      28.535  27.988  23.246  1.00  0.00    -0.038 A 
ATOM     17  C   UNL A   1      28.814  32.041  21.849  1.00  0.00     0.044 C 
ATOM     18  C   UNL A   1      28.711  30.604  22.259  1.00  0.00    -0.051 A 
ATOM     19  C   UNL A   1      27.477  30.091  22.670  1.00  0.00     0.004 A 
ATOM     20  C   UNL A   1      29.846  29.786  22.303  1.00  0.00     0.004 A 
ATOM     21  C   UNL A   1      27.388  28.789  23.153  1.00  0.00     0.005 A 
ATOM     22  C   UNL A   1      29.760  28.483  22.792  1.00  0.00     0.005 A 
ENDBRANCH  15  16
ENDBRANCH  14  15
ENDBRANCH  13  14
ENDBRANCH  10  13
ENDBRANCH   5   9
ENDBRANCH   2   4
ENDBRANCH   1   2
BRANCH   1  23
ATOM     23  C   UNL A   1      32.632  28.590  26.869  1.00  0.00     0.274 C 
BRANCH  23  24
ATOM     24  C   UNL A   1      33.332  29.868  27.335  1.00  0.00     0.275 C 
BRANCH  24  25
ATOM     25  O   UNL A   1      34.791  29.859  27.405  1.00  0.00    -0.458 OA
BRANCH  25  26
ATOM     26  C   UNL A   1      35.637  30.367  28.337  1.00  0.00     0.338 C 
ATOM     27  O   UNL A   1      35.302  31.285  29.073  1.00  0.00    -0.246 OA
BRANCH  26  28
ATOM     28  C   UNL A   1      36.966  29.747  28.503  1.00  0.00     0.060 A 
ATOM     29  C   UNL A   1      37.203  28.869  29.577  1.00  0.00     0.016 A 
ATOM     30  C   UNL A   1      37.943  29.957  27.545  1.00  0.00     0.016 A 
ATOM     31  C   UNL A   1      38.358  28.075  29.596  1.00  0.00     0.010 A 
ATOM     32  C   UNL A   1      39.010  29.086  27.492  1.00  0.00     0.010 A 
ATOM     33  C   UNL A   1      39.240  28.147  28.515  1.00  0.00    -0.014 A 
BRANCH  33  34
ATOM     34  C   UNL A   1      40.519  27.433  28.430  1.00  0.00     0.031 A 
ATOM     35  C   UNL A   1      40.676  25.972  28.244  1.00  0.00     0.074 A 
ATOM     36  C   UNL A   1      41.597  28.238  28.561  1.00  0.00     0.049 A 
ATOM     37  N   UNL A   1      41.772  25.331  28.483  1.00  0.00    -0.248 NA
ATOM     38  C   UNL A   1      39.618  25.085  27.791  1.00  0.00     0.031 C 
ATOM     39  C   UNL A   1      43.020  27.952  28.483  1.00  0.00     0.029 A 
ATOM     40  N   UNL A   1      41.546  29.534  29.106  1.00  0.00    -0.354 N 
ATOM     41  C   UNL A   1      41.654  24.043  27.998  1.00  0.00     0.074 A 
ATOM     42  C   UNL A   1      40.267  23.921  27.640  1.00  0.00     0.031 C 
ATOM     43  C   UNL A   1      43.658  28.828  29.285  1.00  0.00     0.029 A 
ATOM     44  C   UNL A   1      42.627  29.590  29.985  1.00  0.00     0.049 A 
ATOM     45  H   UNL A   1      40.892  30.243  28.910  1.00  0.00     0.167 HD
ATOM     46  C   UNL A   1      42.792  23.298  27.873  1.00  0.00     0.037 A 
ATOM     47  C   UNL A   1      42.383  29.575  31.327  1.00  0.00     0.037 A 
ATOM     48  C   UNL A   1      43.863  23.920  28.650  1.00  0.00     0.049 A 
ATOM     49  C   UNL A   1      43.104  28.442  32.001  1.00  0.00     0.074 A 
ATOM     50  C   UNL A   1      44.935  24.725  28.309  1.00  0.00     0.029 A 
ATOM     51  N   UNL A   1      43.710  24.020  30.031  1.00  0.00    -0.354 N 
ATOM     52  N   UNL A   1      43.314  27.275  31.455  1.00  0.00    -0.248 NA
ATOM     53  C   UNL A   1      43.686  28.572  33.328  1.00  0.00     0.031 C 
ATOM     54  C   UNL A   1      45.346  25.409  29.484  1.00  0.00     0.029 A 
ATOM     55  C   UNL A   1      44.561  24.977  30.542  1.00  0.00     0.049 A 
ATOM     56  H   UNL A   1      43.084  23.481  30.567  1.00  0.00     0.167 HD
ATOM     57  C   UNL A   1      44.103  26.532  32.295  1.00  0.00     0.074 A 
ATOM     58  C   UNL A   1      44.296  27.383  33.457  1.00  0.00     0.031 C 
ATOM     59  C   UNL A   1      44.569  25.292  31.964  1.00  0.00     0.037 A 
BRANCH  46  60
ATOM     60  C   UNL A   1      43.039  22.150  26.898  1.00  0.00     0.064 A 
ATOM     61  C   UNL A   1      42.346  20.922  27.060  1.00  0.00     0.173 A 
ATOM     62  C   UNL A   1      44.016  22.120  25.882  1.00  0.00     0.173 A 
ATOM     63  F   UNL A   1      41.348  20.795  27.946  1.00  0.00    -0.203 F 
ATOM     64  C   UNL A   1      42.659  19.765  26.335  1.00  0.00     0.198 A 
ATOM     65  C   UNL A   1      44.322  20.964  25.148  1.00  0.00     0.198 A 
ATOM     66  F   UNL A   1      44.726  23.197  25.547  1.00  0.00    -0.203 F 
ATOM     67  F   UNL A   1      41.997  18.625  26.579  1.00  0.00    -0.200 F 
ATOM     68  C   UNL A   1      43.658  19.782  25.387  1.00  0.00     0.200 A 
ATOM     69  F   UNL A   1      45.285  21.008  24.215  1.00  0.00    -0.200 F 
ATOM     70  F   UNL A   1      43.977  18.672  24.708  1.00  0.00    -0.200 F 
ENDBRANCH  46  60
BRANCH  47  71
ATOM     71  C   UNL A   1      41.045  30.110  31.758  1.00  0.00     0.064 A 
ATOM     72  C   UNL A   1      40.649  31.408  31.358  1.00  0.00     0.173 A 
ATOM     73  C   UNL A   1      40.060  29.316  32.358  1.00  0.00     0.173 A 
ATOM     74  F   UNL A   1      41.538  32.241  30.790  1.00  0.00    -0.203 F 
ATOM     75  C   UNL A   1      39.327  31.846  31.461  1.00  0.00     0.198 A 
ATOM     76  C   UNL A   1      38.739  29.769  32.489  1.00  0.00     0.198 A 
ATOM     77  F   UNL A   1      40.345  28.075  32.777  1.00  0.00    -0.203 F 
ATOM     78  F   UNL A   1      38.979  33.047  30.977  1.00  0.00    -0.200 F 
ATOM     79  C   UNL A   1      38.370  31.021  32.021  1.00  0.00     0.200 A 
ATOM     80  F   UNL A   1      37.808  28.966  33.025  1.00  0.00    -0.200 F 
ATOM     81  F   UNL A   1      37.092  31.422  32.091  1.00  0.00    -0.200 F 
ENDBRANCH  47  71
BRANCH  59  82
ATOM     82  C   UNL A   1      45.195  24.308  32.925  1.00  0.00     0.064 A 
ATOM     83  C   UNL A   1      46.438  24.504  33.550  1.00  0.00     0.173 A 
ATOM     84  C   UNL A   1      44.471  23.171  33.365  1.00  0.00     0.173 A 
ATOM     85  F   UNL A   1      47.156  25.617  33.348  1.00  0.00    -0.203 F 
ATOM     86  C   UNL A   1      46.961  23.589  34.466  1.00  0.00     0.198 A 
ATOM     87  C   UNL A   1      44.967  22.299  34.332  1.00  0.00     0.198 A 
ATOM     88  F   UNL A   1      43.247  22.890  32.899  1.00  0.00    -0.203 F 
ATOM     89  F   UNL A   1      48.179  23.798  34.985  1.00  0.00    -0.200 F 
ATOM     90  C   UNL A   1      46.223  22.494  34.865  1.00  0.00     0.200 A 
ATOM     91  F   UNL A   1      44.208  21.278  34.758  1.00  0.00    -0.200 F 
ATOM     92  F   UNL A   1      46.708  21.646  35.782  1.00  0.00    -0.200 F 
ENDBRANCH  59  82
ENDBRANCH  33  34
ENDBRANCH  26  28
ENDBRANCH  25  26
ENDBRANCH  24  25
ENDBRANCH  23  24
ENDBRANCH   1  23
TORSDOF 16
ENDMDL
