MODEL 1
REMARK VINA RESULT:     -13.9      0.000      0.000
REMARK SMILES Cc1ccc(C(=O)OCCOC(=O)c2ccc(-c3c4nc(c(-c5c(F)c(F)c(F)c(F)c5F)c5ccc([nH]5)c(-c5c(F)c(F)c(F)c(F)c5F)c5nc(c(-c6c(F)c(F)c(F)c(F)c6F)c6ccc3[nH]6)C=C5)C=C4)cc2)cc1N[C@@H]1CC(=O)N(c2ccccc2C)C1=O
REMARK SMILES IDX 9 1 8 2 6 3 7 4 5 5 1 6 2 7 3 8 78 9 4 10 77 11 79 12 80 14
REMARK SMILES IDX 81 15 92 16 82 17 84 18 93 19 83 20 85 21 86 22 90 23 87 24
REMARK SMILES IDX 89 25 91 26 88 27 10 28 11 29 12 30 13 31 14 32 15 33 76 34
REMARK SMILES IDX 16 35 75 36 17 37 18 38 19 39 69 40 20 41 74 42 68 43 70 44
REMARK SMILES IDX 21 45 73 46 67 47 66 48 22 50 54 51 34 52 53 53 35 54 38 55
REMARK SMILES IDX 52 56 71 57 36 58 37 59 51 61 72 62 39 63 23 64 24 65 32 66
REMARK SMILES IDX 25 67 26 68 30 69 33 70 27 71 28 72 31 73 29 74 55 75 56 76
REMARK SMILES IDX 64 77 57 78 58 79 62 80 65 81 59 82 60 83 63 84 61 85 40 86
REMARK SMILES IDX 41 87 49 88 42 89 43 90 47 91 50 92 44 93 45 94 48 95 46 96
REMARK H PARENT 79 13 70 49 38 60
REMARK Flexibility Score: inf
ROOT
ATOM      1  C   UNL A   1      32.865  30.039  27.270  1.00  0.00     0.275 C 
ENDROOT
BRANCH   1   2
ATOM      2  O   UNL A   1      33.179  28.648  27.437  1.00  0.00    -0.458 OA
BRANCH   2   3
ATOM      3  C   UNL A   1      32.347  27.858  26.722  1.00  0.00     0.338 C 
ATOM      4  O   UNL A   1      31.274  27.403  27.104  1.00  0.00    -0.246 OA
BRANCH   3   5
ATOM      5  C   UNL A   1      32.925  27.324  25.486  1.00  0.00     0.062 A 
ATOM      6  C   UNL A   1      32.825  25.574  21.571  1.00  0.00     0.046 C 
ATOM      7  C   UNL A   1      32.881  26.100  22.981  1.00  0.00    -0.028 A 
ATOM      8  C   UNL A   1      33.341  27.433  23.141  1.00  0.00     0.006 A 
ATOM      9  C   UNL A   1      32.462  25.367  24.107  1.00  0.00     0.038 A 
ATOM     10  C   UNL A   1      33.326  28.062  24.388  1.00  0.00     0.016 A 
ATOM     11  C   UNL A   1      32.605  25.982  25.344  1.00  0.00     0.041 A 
BRANCH   9  12
ATOM     12  N   UNL A   1      31.773  24.167  24.026  1.00  0.00    -0.373 N 
ATOM     13  H   UNL A   1      30.849  24.197  23.687  1.00  0.00     0.161 HD
BRANCH  12  14
ATOM     14  C   UNL A   1      32.318  22.845  24.406  1.00  0.00     0.179 C 
ATOM     15  C   UNL A   1      32.220  22.560  25.899  1.00  0.00     0.136 C 
ATOM     16  C   UNL A   1      33.784  22.591  24.062  1.00  0.00     0.256 C 
ATOM     17  C   UNL A   1      33.544  21.945  26.243  1.00  0.00     0.236 C 
ATOM     18  N   UNL A   1      34.384  22.011  25.160  1.00  0.00    -0.248 N 
ATOM     19  O   UNL A   1      34.304  22.847  22.983  1.00  0.00    -0.272 OA
ATOM     20  O   UNL A   1      33.797  21.512  27.358  1.00  0.00    -0.274 OA
BRANCH  18  21
ATOM     21  C   UNL A   1      35.744  21.609  25.211  1.00  0.00     0.055 A 
ATOM     22  C   UNL A   1      36.079  20.275  24.921  1.00  0.00     0.027 A 
ATOM     23  C   UNL A   1      36.775  22.517  25.539  1.00  0.00    -0.027 A 
ATOM     24  C   UNL A   1      37.412  19.853  24.914  1.00  0.00     0.002 A 
ATOM     25  C   UNL A   1      38.110  22.072  25.531  1.00  0.00     0.005 A 
ATOM     26  C   UNL A   1      36.515  23.943  25.943  1.00  0.00     0.046 C 
ATOM     27  C   UNL A   1      38.427  20.752  25.220  1.00  0.00     0.000 A 
ENDBRANCH  18  21
ENDBRANCH  12  14
ENDBRANCH   9  12
ENDBRANCH   3   5
ENDBRANCH   2   3
ENDBRANCH   1   2
BRANCH   1  28
ATOM     28  C   UNL A   1      34.026  30.975  27.618  1.00  0.00     0.275 C 
BRANCH  28  29
ATOM     29  O   UNL A   1      35.403  30.515  27.506  1.00  0.00    -0.458 OA
BRANCH  29  30
ATOM     30  C   UNL A   1      36.481  30.979  28.173  1.00  0.00     0.338 C 
ATOM     31  O   UNL A   1      36.583  32.149  28.536  1.00  0.00    -0.246 OA
BRANCH  30  32
ATOM     32  C   UNL A   1      37.567  30.026  28.431  1.00  0.00     0.060 A 
ATOM     33  C   UNL A   1      37.410  29.083  29.464  1.00  0.00     0.016 A 
ATOM     34  C   UNL A   1      38.672  30.004  27.589  1.00  0.00     0.016 A 
ATOM     35  C   UNL A   1      38.318  28.048  29.603  1.00  0.00     0.010 A 
ATOM     36  C   UNL A   1      39.495  28.912  27.626  1.00  0.00     0.010 A 
ATOM     37  C   UNL A   1      39.355  27.992  28.680  1.00  0.00    -0.014 A 
BRANCH  37  38
ATOM     38  C   UNL A   1      40.604  27.316  28.964  1.00  0.00     0.031 A 
ATOM     39  C   UNL A   1      40.818  25.930  28.538  1.00  0.00     0.074 A 
ATOM     40  C   UNL A   1      41.508  28.245  29.349  1.00  0.00     0.049 A 
ATOM     41  N   UNL A   1      41.722  25.147  29.010  1.00  0.00    -0.248 NA
ATOM     42  C   UNL A   1      39.965  25.267  27.556  1.00  0.00     0.031 C 
ATOM     43  C   UNL A   1      42.952  28.296  29.298  1.00  0.00     0.029 A 
ATOM     44  N   UNL A   1      41.162  29.461  29.981  1.00  0.00    -0.354 N 
ATOM     45  C   UNL A   1      41.846  24.113  28.098  1.00  0.00     0.074 A 
ATOM     46  C   UNL A   1      40.610  24.110  27.366  1.00  0.00     0.031 C 
ATOM     47  C   UNL A   1      43.371  29.260  30.149  1.00  0.00     0.029 A 
ATOM     48  C   UNL A   1      42.196  29.752  30.867  1.00  0.00     0.049 A 
ATOM     49  H   UNL A   1      40.350  29.996  29.826  1.00  0.00     0.167 HD
ATOM     50  C   UNL A   1      43.088  23.589  27.873  1.00  0.00     0.037 A 
ATOM     51  C   UNL A   1      41.930  29.567  32.194  1.00  0.00     0.037 A 
ATOM     52  C   UNL A   1      44.048  24.287  28.728  1.00  0.00     0.049 A 
ATOM     53  C   UNL A   1      42.724  28.388  32.701  1.00  0.00     0.074 A 
ATOM     54  C   UNL A   1      44.879  25.365  28.466  1.00  0.00     0.029 A 
ATOM     55  N   UNL A   1      43.917  24.214  30.110  1.00  0.00    -0.354 N 
ATOM     56  N   UNL A   1      42.973  27.310  32.003  1.00  0.00    -0.248 NA
ATOM     57  C   UNL A   1      43.402  28.410  33.990  1.00  0.00     0.031 C 
ATOM     58  C   UNL A   1      45.185  25.987  29.703  1.00  0.00     0.029 A 
ATOM     59  C   UNL A   1      44.519  25.305  30.708  1.00  0.00     0.049 A 
ATOM     60  H   UNL A   1      43.460  23.488  30.594  1.00  0.00     0.167 HD
ATOM     61  C   UNL A   1      43.908  26.564  32.669  1.00  0.00     0.074 A 
ATOM     62  C   UNL A   1      44.115  27.275  33.921  1.00  0.00     0.031 C 
ATOM     63  C   UNL A   1      44.506  25.451  32.152  1.00  0.00     0.037 A 
BRANCH  50  64
ATOM     64  C   UNL A   1      43.510  22.777  26.659  1.00  0.00     0.064 A 
ATOM     65  C   UNL A   1      43.180  21.403  26.574  1.00  0.00     0.173 A 
ATOM     66  C   UNL A   1      44.249  23.262  25.562  1.00  0.00     0.173 A 
ATOM     67  F   UNL A   1      42.385  20.814  27.477  1.00  0.00    -0.203 F 
ATOM     68  C   UNL A   1      43.639  20.571  25.549  1.00  0.00     0.198 A 
ATOM     69  C   UNL A   1      44.733  22.423  24.546  1.00  0.00     0.198 A 
ATOM     70  F   UNL A   1      44.477  24.571  25.394  1.00  0.00    -0.203 F 
ATOM     71  F   UNL A   1      43.297  19.274  25.544  1.00  0.00    -0.200 F 
ATOM     72  C   UNL A   1      44.437  21.074  24.546  1.00  0.00     0.200 A 
ATOM     73  F   UNL A   1      45.477  22.934  23.556  1.00  0.00    -0.200 F 
ATOM     74  F   UNL A   1      44.886  20.274  23.570  1.00  0.00    -0.200 F 
ENDBRANCH  50  64
BRANCH  51  75
ATOM     75  C   UNL A   1      40.518  29.915  32.585  1.00  0.00     0.064 A 
ATOM     76  C   UNL A   1      40.096  31.263  32.464  1.00  0.00     0.173 A 
ATOM     77  C   UNL A   1      39.510  28.965  32.791  1.00  0.00     0.173 A 
ATOM     78  F   UNL A   1      41.005  32.233  32.268  1.00  0.00    -0.203 F 
ATOM     79  C   UNL A   1      38.748  31.623  32.443  1.00  0.00     0.198 A 
ATOM     80  C   UNL A   1      38.155  29.333  32.791  1.00  0.00     0.198 A 
ATOM     81  F   UNL A   1      39.813  27.667  32.914  1.00  0.00    -0.203 F 
ATOM     82  F   UNL A   1      38.397  32.895  32.208  1.00  0.00    -0.200 F 
ATOM     83  C   UNL A   1      37.775  30.653  32.594  1.00  0.00     0.200 A 
ATOM     84  F   UNL A   1      37.206  28.390  32.895  1.00  0.00    -0.200 F 
ATOM     85  F   UNL A   1      36.477  30.975  32.494  1.00  0.00    -0.200 F 
ENDBRANCH  51  75
BRANCH  63  86
ATOM     86  C   UNL A   1      45.241  24.421  32.964  1.00  0.00     0.064 A 
ATOM     87  C   UNL A   1      46.518  24.642  33.497  1.00  0.00     0.173 A 
ATOM     88  C   UNL A   1      44.587  23.242  33.398  1.00  0.00     0.173 A 
ATOM     89  F   UNL A   1      47.184  25.783  33.273  1.00  0.00    -0.203 F 
ATOM     90  C   UNL A   1      47.131  23.715  34.338  1.00  0.00     0.198 A 
ATOM     91  C   UNL A   1      45.168  22.362  34.303  1.00  0.00     0.198 A 
ATOM     92  F   UNL A   1      43.349  22.925  32.989  1.00  0.00    -0.203 F 
ATOM     93  F   UNL A   1      48.378  23.942  34.771  1.00  0.00    -0.200 F 
ATOM     94  C   UNL A   1      46.451  22.586  34.754  1.00  0.00     0.200 A 
ATOM     95  F   UNL A   1      44.467  21.312  34.754  1.00  0.00    -0.200 F 
ATOM     96  F   UNL A   1      47.024  21.727  35.606  1.00  0.00    -0.200 F 
ENDBRANCH  63  86
ENDBRANCH  37  38
ENDBRANCH  30  32
ENDBRANCH  29  30
ENDBRANCH  28  29
ENDBRANCH   1  28
TORSDOF 14
ENDMDL
MODEL 2
REMARK VINA RESULT:     -13.6      3.703     10.149
REMARK SMILES Cc1ccc(C(=O)OCCOC(=O)c2ccc(-c3c4nc(c(-c5c(F)c(F)c(F)c(F)c5F)c5ccc([nH]5)c(-c5c(F)c(F)c(F)c(F)c5F)c5nc(c(-c6c(F)c(F)c(F)c(F)c6F)c6ccc3[nH]6)C=C5)C=C4)cc2)cc1N[C@@H]1CC(=O)N(c2ccccc2C)C1=O
REMARK SMILES IDX 9 1 8 2 6 3 7 4 5 5 1 6 2 7 3 8 78 9 4 10 77 11 79 12 80 14
REMARK SMILES IDX 81 15 92 16 82 17 84 18 93 19 83 20 85 21 86 22 90 23 87 24
REMARK SMILES IDX 89 25 91 26 88 27 10 28 11 29 12 30 13 31 14 32 15 33 76 34
REMARK SMILES IDX 16 35 75 36 17 37 18 38 19 39 69 40 20 41 74 42 68 43 70 44
REMARK SMILES IDX 21 45 73 46 67 47 66 48 22 50 54 51 34 52 53 53 35 54 38 55
REMARK SMILES IDX 52 56 71 57 36 58 37 59 51 61 72 62 39 63 23 64 24 65 32 66
REMARK SMILES IDX 25 67 26 68 30 69 33 70 27 71 28 72 31 73 29 74 55 75 56 76
REMARK SMILES IDX 64 77 57 78 58 79 62 80 65 81 59 82 60 83 63 84 61 85 40 86
REMARK SMILES IDX 41 87 49 88 42 89 43 90 47 91 50 92 44 93 45 94 48 95 46 96
REMARK H PARENT 79 13 70 49 38 60
REMARK Flexibility Score: inf
ROOT
ATOM      1  C   UNL A   1      38.250  21.464  25.538  1.00  0.00     0.275 C 
ENDROOT
BRANCH   1   2
ATOM      2  O   UNL A   1      37.246  21.316  24.521  1.00  0.00    -0.458 OA
BRANCH   2   3
ATOM      3  C   UNL A   1      36.325  20.388  24.861  1.00  0.00     0.338 C 
ATOM      4  O   UNL A   1      36.515  19.181  24.960  1.00  0.00    -0.246 OA
BRANCH   3   5
ATOM      5  C   UNL A   1      34.942  20.873  24.861  1.00  0.00     0.062 A 
ATOM      6  C   UNL A   1      31.482  22.792  23.203  1.00  0.00     0.046 C 
ATOM      7  C   UNL A   1      32.714  22.200  23.835  1.00  0.00    -0.028 A 
ATOM      8  C   UNL A   1      32.690  20.803  24.080  1.00  0.00     0.006 A 
ATOM      9  C   UNL A   1      33.873  22.942  24.137  1.00  0.00     0.038 A 
ATOM     10  C   UNL A   1      33.818  20.129  24.555  1.00  0.00     0.016 A 
ATOM     11  C   UNL A   1      34.914  22.254  24.746  1.00  0.00     0.041 A 
BRANCH   9  12
ATOM     12  N   UNL A   1      34.080  24.243  23.710  1.00  0.00    -0.373 N 
ATOM     13  H   UNL A   1      34.506  24.369  22.832  1.00  0.00     0.161 HD
BRANCH  12  14
ATOM     14  C   UNL A   1      33.710  25.458  24.470  1.00  0.00     0.179 C 
ATOM     15  C   UNL A   1      32.823  25.169  25.673  1.00  0.00     0.136 C 
ATOM     16  C   UNL A   1      32.965  26.542  23.694  1.00  0.00     0.256 C 
ATOM     17  C   UNL A   1      31.785  26.249  25.631  1.00  0.00     0.236 C 
ATOM     18  N   UNL A   1      31.916  26.978  24.476  1.00  0.00    -0.248 N 
ATOM     19  O   UNL A   1      33.280  26.950  22.583  1.00  0.00    -0.272 OA
ATOM     20  O   UNL A   1      30.937  26.380  26.503  1.00  0.00    -0.274 OA
BRANCH  18  21
ATOM     21  C   UNL A   1      31.006  28.000  24.099  1.00  0.00     0.055 A 
ATOM     22  C   UNL A   1      29.897  27.672  23.299  1.00  0.00     0.027 A 
ATOM     23  C   UNL A   1      31.180  29.339  24.512  1.00  0.00    -0.027 A 
ATOM     24  C   UNL A   1      28.952  28.642  22.948  1.00  0.00     0.002 A 
ATOM     25  C   UNL A   1      30.221  30.301  24.144  1.00  0.00     0.005 A 
ATOM     26  C   UNL A   1      32.374  29.806  25.300  1.00  0.00     0.046 C 
ATOM     27  C   UNL A   1      29.116  29.957  23.370  1.00  0.00     0.000 A 
ENDBRANCH  18  21
ENDBRANCH  12  14
ENDBRANCH   9  12
ENDBRANCH   3   5
ENDBRANCH   2   3
ENDBRANCH   1   2
BRANCH   1  28
ATOM     28  C   UNL A   1      38.384  22.897  26.062  1.00  0.00     0.275 C 
BRANCH  28  29
ATOM     29  O   UNL A   1      39.309  23.203  27.144  1.00  0.00    -0.458 OA
BRANCH  29  30
ATOM     30  C   UNL A   1      40.440  23.938  27.075  1.00  0.00     0.338 C 
ATOM     31  O   UNL A   1      41.509  23.473  26.686  1.00  0.00    -0.246 OA
BRANCH  30  32
ATOM     32  C   UNL A   1      40.357  25.334  27.518  1.00  0.00     0.060 A 
ATOM     33  C   UNL A   1      40.481  26.358  26.560  1.00  0.00     0.016 A 
ATOM     34  C   UNL A   1      40.051  25.615  28.844  1.00  0.00     0.016 A 
ATOM     35  C   UNL A   1      40.208  27.670  26.905  1.00  0.00     0.010 A 
ATOM     36  C   UNL A   1      39.643  26.880  29.163  1.00  0.00     0.010 A 
ATOM     37  C   UNL A   1      39.803  27.905  28.213  1.00  0.00    -0.014 A 
BRANCH  37  38
ATOM     38  C   UNL A   1      39.957  29.198  28.847  1.00  0.00     0.031 A 
ATOM     39  C   UNL A   1      38.881  30.191  28.791  1.00  0.00     0.074 A 
ATOM     40  C   UNL A   1      41.029  29.139  29.669  1.00  0.00     0.049 A 
ATOM     41  N   UNL A   1      39.027  31.448  29.019  1.00  0.00    -0.248 NA
ATOM     42  C   UNL A   1      37.515  29.853  28.400  1.00  0.00     0.031 C 
ATOM     43  C   UNL A   1      41.397  29.866  30.864  1.00  0.00     0.029 A 
ATOM     44  N   UNL A   1      42.131  28.278  29.460  1.00  0.00    -0.354 N 
ATOM     45  C   UNL A   1      37.757  31.945  29.253  1.00  0.00     0.074 A 
ATOM     46  C   UNL A   1      36.867  30.999  28.640  1.00  0.00     0.031 C 
ATOM     47  C   UNL A   1      42.721  29.693  31.071  1.00  0.00     0.029 A 
ATOM     48  C   UNL A   1      43.253  28.958  29.925  1.00  0.00     0.049 A 
ATOM     49  H   UNL A   1      42.109  27.378  29.063  1.00  0.00     0.167 HD
ATOM     50  C   UNL A   1      37.604  32.928  30.190  1.00  0.00     0.037 A 
ATOM     51  C   UNL A   1      44.101  29.454  28.976  1.00  0.00     0.037 A 
ATOM     52  C   UNL A   1      38.920  33.250  30.743  1.00  0.00     0.049 A 
ATOM     53  C   UNL A   1      44.017  30.960  28.972  1.00  0.00     0.074 A 
ATOM     54  C   UNL A   1      39.560  32.795  31.885  1.00  0.00     0.029 A 
ATOM     55  N   UNL A   1      39.910  33.756  29.908  1.00  0.00    -0.354 N 
ATOM     56  N   UNL A   1      42.919  31.640  29.181  1.00  0.00    -0.248 NA
ATOM     57  C   UNL A   1      45.202  31.800  28.861  1.00  0.00     0.031 C 
ATOM     58  C   UNL A   1      40.955  32.964  31.696  1.00  0.00     0.029 A 
ATOM     59  C   UNL A   1      41.161  33.493  30.432  1.00  0.00     0.049 A 
ATOM     60  H   UNL A   1      39.743  34.235  29.064  1.00  0.00     0.167 HD
ATOM     61  C   UNL A   1      43.245  32.959  29.348  1.00  0.00     0.074 A 
ATOM     62  C   UNL A   1      44.677  33.012  29.100  1.00  0.00     0.031 C 
ATOM     63  C   UNL A   1      42.357  33.922  29.732  1.00  0.00     0.037 A 
BRANCH  50  64
ATOM     64  C   UNL A   1      36.307  33.306  30.887  1.00  0.00     0.064 A 
ATOM     65  C   UNL A   1      35.360  34.126  30.227  1.00  0.00     0.173 A 
ATOM     66  C   UNL A   1      35.935  32.929  32.192  1.00  0.00     0.173 A 
ATOM     67  F   UNL A   1      35.509  34.478  28.943  1.00  0.00    -0.203 F 
ATOM     68  C   UNL A   1      34.206  34.611  30.850  1.00  0.00     0.198 A 
ATOM     69  C   UNL A   1      34.791  33.436  32.827  1.00  0.00     0.198 A 
ATOM     70  F   UNL A   1      36.622  32.007  32.878  1.00  0.00    -0.203 F 
ATOM     71  F   UNL A   1      33.363  35.396  30.165  1.00  0.00    -0.200 F 
ATOM     72  C   UNL A   1      33.933  34.287  32.160  1.00  0.00     0.200 A 
ATOM     73  F   UNL A   1      34.516  33.082  34.091  1.00  0.00    -0.200 F 
ATOM     74  F   UNL A   1      32.833  34.761  32.761  1.00  0.00    -0.200 F 
ENDBRANCH  50  64
BRANCH  51  75
ATOM     75  C   UNL A   1      44.236  28.573  27.761  1.00  0.00     0.064 A 
ATOM     76  C   UNL A   1      44.902  27.330  27.899  1.00  0.00     0.173 A 
ATOM     77  C   UNL A   1      43.509  28.760  26.579  1.00  0.00     0.173 A 
ATOM     78  F   UNL A   1      45.623  27.076  29.004  1.00  0.00    -0.203 F 
ATOM     79  C   UNL A   1      44.764  26.302  26.964  1.00  0.00     0.198 A 
ATOM     80  C   UNL A   1      43.389  27.733  25.630  1.00  0.00     0.198 A 
ATOM     81  F   UNL A   1      42.844  29.903  26.363  1.00  0.00    -0.203 F 
ATOM     82  F   UNL A   1      45.319  25.105  27.197  1.00  0.00    -0.200 F 
ATOM     83  C   UNL A   1      43.995  26.501  25.834  1.00  0.00     0.200 A 
ATOM     84  F   UNL A   1      42.610  27.906  24.551  1.00  0.00    -0.200 F 
ATOM     85  F   UNL A   1      43.788  25.496  24.970  1.00  0.00    -0.200 F 
ENDBRANCH  51  75
BRANCH  63  86
ATOM     86  C   UNL A   1      42.579  35.401  29.572  1.00  0.00     0.064 A 
ATOM     87  C   UNL A   1      43.425  36.138  30.412  1.00  0.00     0.173 A 
ATOM     88  C   UNL A   1      42.092  36.086  28.431  1.00  0.00     0.173 A 
ATOM     89  F   UNL A   1      44.058  35.567  31.447  1.00  0.00    -0.203 F 
ATOM     90  C   UNL A   1      43.700  37.484  30.176  1.00  0.00     0.198 A 
ATOM     91  C   UNL A   1      42.437  37.403  28.155  1.00  0.00     0.198 A 
ATOM     92  F   UNL A   1      41.299  35.488  27.530  1.00  0.00    -0.203 F 
ATOM     93  F   UNL A   1      44.463  38.161  31.043  1.00  0.00    -0.200 F 
ATOM     94  C   UNL A   1      43.221  38.110  29.041  1.00  0.00     0.200 A 
ATOM     95  F   UNL A   1      42.027  37.972  27.013  1.00  0.00    -0.200 F 
ATOM     96  F   UNL A   1      43.535  39.387  28.791  1.00  0.00    -0.200 F 
ENDBRANCH  63  86
ENDBRANCH  37  38
ENDBRANCH  30  32
ENDBRANCH  29  30
ENDBRANCH  28  29
ENDBRANCH   1  28
TORSDOF 14
ENDMDL
MODEL 3
REMARK VINA RESULT:     -13.5      1.313      2.315
REMARK SMILES Cc1ccc(C(=O)OCCOC(=O)c2ccc(-c3c4nc(c(-c5c(F)c(F)c(F)c(F)c5F)c5ccc([nH]5)c(-c5c(F)c(F)c(F)c(F)c5F)c5nc(c(-c6c(F)c(F)c(F)c(F)c6F)c6ccc3[nH]6)C=C5)C=C4)cc2)cc1N[C@@H]1CC(=O)N(c2ccccc2C)C1=O
REMARK SMILES IDX 9 1 8 2 6 3 7 4 5 5 1 6 2 7 3 8 78 9 4 10 77 11 79 12 80 14
REMARK SMILES IDX 81 15 92 16 82 17 84 18 93 19 83 20 85 21 86 22 90 23 87 24
REMARK SMILES IDX 89 25 91 26 88 27 10 28 11 29 12 30 13 31 14 32 15 33 76 34
REMARK SMILES IDX 16 35 75 36 17 37 18 38 19 39 69 40 20 41 74 42 68 43 70 44
REMARK SMILES IDX 21 45 73 46 67 47 66 48 22 50 54 51 34 52 53 53 35 54 38 55
REMARK SMILES IDX 52 56 71 57 36 58 37 59 51 61 72 62 39 63 23 64 24 65 32 66
REMARK SMILES IDX 25 67 26 68 30 69 33 70 27 71 28 72 31 73 29 74 55 75 56 76
REMARK SMILES IDX 64 77 57 78 58 79 62 80 65 81 59 82 60 83 63 84 61 85 40 86
REMARK SMILES IDX 41 87 49 88 42 89 43 90 47 91 50 92 44 93 45 94 48 95 46 96
REMARK H PARENT 79 13 70 49 38 60
REMARK Flexibility Score: inf
ROOT
ATOM      1  C   UNL A   1      33.604  31.796  27.976  1.00  0.00     0.275 C 
ENDROOT
BRANCH   1   2
ATOM      2  O   UNL A   1      32.950  30.638  27.434  1.00  0.00    -0.458 OA
BRANCH   2   3
ATOM      3  C   UNL A   1      32.049  30.972  26.483  1.00  0.00     0.338 C 
ATOM      4  O   UNL A   1      31.280  31.926  26.519  1.00  0.00    -0.246 OA
BRANCH   3   5
ATOM      5  C   UNL A   1      31.833  29.946  25.460  1.00  0.00     0.062 A 
ATOM      6  C   UNL A   1      30.238  26.292  23.877  1.00  0.00     0.046 C 
ATOM      7  C   UNL A   1      30.882  27.528  24.447  1.00  0.00    -0.028 A 
ATOM      8  C   UNL A   1      30.438  28.770  23.924  1.00  0.00     0.006 A 
ATOM      9  C   UNL A   1      31.840  27.507  25.479  1.00  0.00     0.038 A 
ATOM     10  C   UNL A   1      30.882  29.983  24.457  1.00  0.00     0.016 A 
ATOM     11  C   UNL A   1      32.361  28.732  25.873  1.00  0.00     0.041 A 
BRANCH   9  12
ATOM     12  N   UNL A   1      32.146  26.374  26.214  1.00  0.00    -0.373 N 
ATOM     13  H   UNL A   1      31.543  26.138  26.956  1.00  0.00     0.161 HD
BRANCH  12  14
ATOM     14  C   UNL A   1      33.308  25.490  25.972  1.00  0.00     0.179 C 
ATOM     15  C   UNL A   1      33.923  25.668  24.590  1.00  0.00     0.136 C 
ATOM     16  C   UNL A   1      33.054  23.989  26.088  1.00  0.00     0.256 C 
ATOM     17  C   UNL A   1      34.194  24.269  24.126  1.00  0.00     0.236 C 
ATOM     18  N   UNL A   1      33.661  23.370  25.015  1.00  0.00    -0.248 N 
ATOM     19  O   UNL A   1      32.435  23.452  26.999  1.00  0.00    -0.272 OA
ATOM     20  O   UNL A   1      34.766  24.026  23.072  1.00  0.00    -0.274 OA
BRANCH  18  21
ATOM     21  C   UNL A   1      33.660  21.969  24.791  1.00  0.00     0.055 A 
ATOM     22  C   UNL A   1      32.548  21.373  24.170  1.00  0.00     0.027 A 
ATOM     23  C   UNL A   1      34.749  21.155  25.170  1.00  0.00    -0.027 A 
ATOM     24  C   UNL A   1      32.530  20.003  23.888  1.00  0.00     0.002 A 
ATOM     25  C   UNL A   1      34.711  19.778  24.882  1.00  0.00     0.005 A 
ATOM     26  C   UNL A   1      35.948  21.682  25.912  1.00  0.00     0.046 C 
ATOM     27  C   UNL A   1      33.612  19.206  24.246  1.00  0.00     0.000 A 
ENDBRANCH  18  21
ENDBRANCH  12  14
ENDBRANCH   9  12
ENDBRANCH   3   5
ENDBRANCH   2   3
ENDBRANCH   1   2
BRANCH   1  28
ATOM     28  C   UNL A   1      35.093  31.877  27.627  1.00  0.00     0.275 C 
BRANCH  28  29
ATOM     29  O   UNL A   1      36.046  30.965  28.245  1.00  0.00    -0.458 OA
BRANCH  29  30
ATOM     30  C   UNL A   1      36.300  29.684  27.899  1.00  0.00     0.338 C 
ATOM     31  O   UNL A   1      35.470  28.972  27.340  1.00  0.00    -0.246 OA
BRANCH  30  32
ATOM     32  C   UNL A   1      37.620  29.148  28.250  1.00  0.00     0.060 A 
ATOM     33  C   UNL A   1      38.721  29.473  27.437  1.00  0.00     0.016 A 
ATOM     34  C   UNL A   1      37.775  28.426  29.428  1.00  0.00     0.016 A 
ATOM     35  C   UNL A   1      40.005  29.155  27.846  1.00  0.00     0.010 A 
ATOM     36  C   UNL A   1      39.039  28.232  29.909  1.00  0.00     0.010 A 
ATOM     37  C   UNL A   1      40.135  28.526  29.078  1.00  0.00    -0.014 A 
BRANCH  37  38
ATOM     38  C   UNL A   1      41.288  27.715  29.411  1.00  0.00     0.031 A 
ATOM     39  C   UNL A   1      41.411  26.346  28.903  1.00  0.00     0.074 A 
ATOM     40  C   UNL A   1      42.235  28.525  29.935  1.00  0.00     0.049 A 
ATOM     41  N   UNL A   1      42.195  25.450  29.388  1.00  0.00    -0.248 NA
ATOM     42  C   UNL A   1      40.591  25.834  27.809  1.00  0.00     0.031 C 
ATOM     43  C   UNL A   1      43.677  28.440  30.005  1.00  0.00     0.029 A 
ATOM     44  N   UNL A   1      41.947  29.725  30.625  1.00  0.00    -0.354 N 
ATOM     45  C   UNL A   1      42.305  24.471  28.415  1.00  0.00     0.074 A 
ATOM     46  C   UNL A   1      41.142  24.635  27.588  1.00  0.00     0.031 C 
ATOM     47  C   UNL A   1      44.105  29.301  30.955  1.00  0.00     0.029 A 
ATOM     48  C   UNL A   1      42.922  29.856  31.610  1.00  0.00     0.049 A 
ATOM     49  H   UNL A   1      41.204  30.345  30.445  1.00  0.00     0.167 HD
ATOM     50  C   UNL A   1      43.509  23.845  28.253  1.00  0.00     0.037 A 
ATOM     51  C   UNL A   1      42.526  29.611  32.894  1.00  0.00     0.037 A 
ATOM     52  C   UNL A   1      44.450  24.390  29.233  1.00  0.00     0.049 A 
ATOM     53  C   UNL A   1      43.162  28.331  33.376  1.00  0.00     0.074 A 
ATOM     54  C   UNL A   1      45.395  25.397  29.118  1.00  0.00     0.029 A 
ATOM     55  N   UNL A   1      44.192  24.239  30.590  1.00  0.00    -0.354 N 
ATOM     56  N   UNL A   1      43.372  27.281  32.624  1.00  0.00    -0.248 NA
ATOM     57  C   UNL A   1      43.724  28.202  34.713  1.00  0.00     0.031 C 
ATOM     58  C   UNL A   1      45.646  25.904  30.419  1.00  0.00     0.029 A 
ATOM     59  C   UNL A   1      44.836  25.225  31.314  1.00  0.00     0.049 A 
ATOM     60  H   UNL A   1      43.631  23.530  30.981  1.00  0.00     0.167 HD
ATOM     61  C   UNL A   1      44.174  26.407  33.306  1.00  0.00     0.074 A 
ATOM     62  C   UNL A   1      44.334  27.010  34.619  1.00  0.00     0.031 C 
ATOM     63  C   UNL A   1      44.711  25.277  32.758  1.00  0.00     0.037 A 
BRANCH  50  64
ATOM     64  C   UNL A   1      43.960  23.078  27.021  1.00  0.00     0.064 A 
ATOM     65  C   UNL A   1      43.399  21.811  26.729  1.00  0.00     0.173 A 
ATOM     66  C   UNL A   1      44.940  23.501  26.102  1.00  0.00     0.173 A 
ATOM     67  F   UNL A   1      42.376  21.315  27.438  1.00  0.00    -0.203 F 
ATOM     68  C   UNL A   1      43.852  20.999  25.685  1.00  0.00     0.198 A 
ATOM     69  C   UNL A   1      45.414  22.676  25.070  1.00  0.00     0.198 A 
ATOM     70  F   UNL A   1      45.429  24.747  26.124  1.00  0.00    -0.203 F 
ATOM     71  F   UNL A   1      43.282  19.803  25.480  1.00  0.00    -0.200 F 
ATOM     72  C   UNL A   1      44.878  21.420  24.869  1.00  0.00     0.200 A 
ATOM     73  F   UNL A   1      46.387  23.115  24.259  1.00  0.00    -0.200 F 
ATOM     74  F   UNL A   1      45.319  20.637  23.875  1.00  0.00    -0.200 F 
ENDBRANCH  50  64
BRANCH  51  75
ATOM     75  C   UNL A   1      41.122  30.068  33.195  1.00  0.00     0.064 A 
ATOM     76  C   UNL A   1      40.862  31.460  33.252  1.00  0.00     0.173 A 
ATOM     77  C   UNL A   1      40.002  29.229  33.143  1.00  0.00     0.173 A 
ATOM     78  F   UNL A   1      41.885  32.330  33.307  1.00  0.00    -0.203 F 
ATOM     79  C   UNL A   1      39.571  31.982  33.155  1.00  0.00     0.198 A 
ATOM     80  C   UNL A   1      38.703  29.756  33.068  1.00  0.00     0.198 A 
ATOM     81  F   UNL A   1      40.150  27.899  33.084  1.00  0.00    -0.203 F 
ATOM     82  F   UNL A   1      39.387  33.309  33.096  1.00  0.00    -0.200 F 
ATOM     83  C   UNL A   1      38.491  31.127  33.051  1.00  0.00     0.200 A 
ATOM     84  F   UNL A   1      37.654  28.932  32.924  1.00  0.00    -0.200 F 
ATOM     85  F   UNL A   1      37.255  31.617  32.876  1.00  0.00    -0.200 F 
ENDBRANCH  51  75
BRANCH  63  86
ATOM     86  C   UNL A   1      45.275  24.130  33.550  1.00  0.00     0.064 A 
ATOM     87  C   UNL A   1      44.551  22.960  33.815  1.00  0.00     0.173 A 
ATOM     88  C   UNL A   1      46.648  24.098  33.898  1.00  0.00     0.173 A 
ATOM     89  F   UNL A   1      43.281  22.814  33.411  1.00  0.00    -0.203 F 
ATOM     90  C   UNL A   1      45.133  21.868  34.456  1.00  0.00     0.198 A 
ATOM     91  C   UNL A   1      47.244  22.975  34.460  1.00  0.00     0.198 A 
ATOM     92  F   UNL A   1      47.463  25.139  33.670  1.00  0.00    -0.203 F 
ATOM     93  F   UNL A   1      44.382  20.797  34.744  1.00  0.00    -0.200 F 
ATOM     94  C   UNL A   1      46.481  21.869  34.762  1.00  0.00     0.200 A 
ATOM     95  F   UNL A   1      48.566  22.965  34.681  1.00  0.00    -0.200 F 
ATOM     96  F   UNL A   1      47.047  20.795  35.326  1.00  0.00    -0.200 F 
ENDBRANCH  63  86
ENDBRANCH  37  38
ENDBRANCH  30  32
ENDBRANCH  29  30
ENDBRANCH  28  29
ENDBRANCH   1  28
TORSDOF 14
ENDMDL
