MODEL 1
REMARK VINA RESULT:     -13.1      0.000      0.000
REMARK SMILES C[N@@H+]1CC2(CC[NH+](C(=O)c3cc(-c4ccncc4)n[nH]3)CC2)C[C@H]1C(=O)OCCOC(=O)c1ccc(-c2c3nc(c(-c4c(F)c(F)c(F)c(F)c4F)c4ccc([nH]4)c(-c4c(F)c(F)c(F)c(F)c4F)c4nc(c(-c5c(F)c(F)c(F)c(F)c5F)c5ccc2[nH]5)C=C4)C=C3)cc1
REMARK SMILES IDX 28 1 27 2 25 3 26 4 24 5 1 6 2 7 3 8 4 10 23 11 5 12 22 13
REMARK SMILES IDX 6 14 21 15 7 16 8 18 9 19 10 20 11 21 20 22 12 23 19 24
REMARK SMILES IDX 13 26 14 27 18 28 15 29 17 30 16 31 29 32 30 33 31 34 32 35
REMARK SMILES IDX 33 36 34 37 95 38 35 39 94 40 36 41 37 42 38 43 88 44 39 45
REMARK SMILES IDX 93 46 87 47 89 48 40 49 92 50 86 51 85 52 41 54 73 55 53 56
REMARK SMILES IDX 72 57 54 58 57 59 71 60 90 61 55 62 56 63 70 65 91 66 58 67
REMARK SMILES IDX 42 68 43 69 51 70 44 71 45 72 49 73 52 74 46 75 47 76 50 77
REMARK SMILES IDX 48 78 74 79 75 80 83 81 76 82 77 83 81 84 84 85 78 86 79 87
REMARK SMILES IDX 82 88 80 89 59 90 60 91 68 92 61 93 62 94 66 95 69 96 63 97
REMARK SMILES IDX 64 98 67 99 65 100
REMARK H PARENT 2 9 7 17 20 25 89 53 57 64
REMARK Flexibility Score: inf
ROOT
ATOM      1  C   UNL A   1      38.331  20.036  24.987  1.00  0.00     0.274 C 
ENDROOT
BRANCH   1   2
ATOM      2  O   UNL A   1      37.721  21.049  25.806  1.00  0.00    -0.458 OA
BRANCH   2   3
ATOM      3  C   UNL A   1      36.871  21.909  25.183  1.00  0.00     0.365 C 
ATOM      4  O   UNL A   1      37.020  23.127  25.148  1.00  0.00    -0.245 OA
BRANCH   3   5
ATOM      5  C   UNL A   1      35.665  21.224  24.518  1.00  0.00     0.295 C 
ATOM      6  C   UNL A   1      34.467  19.101  24.626  1.00  0.00     0.333 C 
ATOM      7  N   UNL A   1      34.991  20.233  25.384  1.00  0.00    -0.325 N 
ATOM      8  C   UNL A   1      33.933  20.959  26.094  1.00  0.00     0.270 C 
ATOM      9  H   UNL A   1      35.653  19.821  26.042  1.00  0.00     0.348 HD
ATOM     10  C   UNL A   1      33.556  22.190  25.239  1.00  0.00     0.036 C 
ATOM     11  C   UNL A   1      34.605  22.229  24.118  1.00  0.00     0.091 C 
ATOM     12  C   UNL A   1      33.634  23.483  26.083  1.00  0.00     0.075 C 
ATOM     13  C   UNL A   1      32.144  22.057  24.620  1.00  0.00     0.075 C 
ATOM     14  C   UNL A   1      32.502  23.546  27.099  1.00  0.00     0.271 C 
ATOM     15  C   UNL A   1      31.022  22.222  25.645  1.00  0.00     0.271 C 
ATOM     16  N   UNL A   1      31.216  23.447  26.409  1.00  0.00    -0.266 N 
ATOM     17  H   UNL A   1      31.037  22.485  26.521  1.00  0.00     0.357 HD
BRANCH  16  18
ATOM     18  C   UNL A   1      30.169  24.357  26.521  1.00  0.00     0.362 C 
ATOM     19  O   UNL A   1      29.198  24.146  27.243  1.00  0.00    -0.224 OA
BRANCH  18  20
ATOM     20  C   UNL A   1      30.278  25.584  25.783  1.00  0.00     0.163 A 
ATOM     21  C   UNL A   1      29.450  26.190  24.858  1.00  0.00     0.068 A 
ATOM     22  N   UNL A   1      31.316  26.454  25.947  1.00  0.00    -0.269 N 
ATOM     23  C   UNL A   1      30.152  27.336  24.414  1.00  0.00     0.093 A 
ATOM     24  N   UNL A   1      31.317  27.468  25.065  1.00  0.00    -0.175 NA
ATOM     25  H   UNL A   1      32.000  26.349  26.647  1.00  0.00     0.190 HD
BRANCH  23  26
ATOM     26  C   UNL A   1      29.754  28.262  23.367  1.00  0.00     0.005 A 
ATOM     27  C   UNL A   1      30.713  28.927  22.604  1.00  0.00     0.030 A 
ATOM     28  C   UNL A   1      28.402  28.505  23.131  1.00  0.00     0.030 A 
ATOM     29  C   UNL A   1      30.273  29.811  21.633  1.00  0.00     0.111 A 
ATOM     30  C   UNL A   1      28.064  29.416  22.145  1.00  0.00     0.111 A 
ATOM     31  N   UNL A   1      28.971  30.078  21.395  1.00  0.00    -0.265 NA
ENDBRANCH  23  26
ENDBRANCH  18  20
ENDBRANCH  16  18
ENDBRANCH   3   5
ENDBRANCH   2   3
ENDBRANCH   1   2
BRANCH   1  32
ATOM     32  C   UNL A   1      39.452  19.331  25.751  1.00  0.00     0.275 C 
BRANCH  32  33
ATOM     33  O   UNL A   1      40.521  20.253  26.038  1.00  0.00    -0.458 OA
BRANCH  33  34
ATOM     34  C   UNL A   1      40.810  20.416  27.350  1.00  0.00     0.338 C 
ATOM     35  O   UNL A   1      40.914  19.563  28.211  1.00  0.00    -0.246 OA
BRANCH  34  36
ATOM     36  C   UNL A   1      41.061  21.840  27.608  1.00  0.00     0.060 A 
ATOM     37  C   UNL A   1      40.449  22.781  26.782  1.00  0.00     0.016 A 
ATOM     38  C   UNL A   1      41.981  22.240  28.574  1.00  0.00     0.016 A 
ATOM     39  C   UNL A   1      40.759  24.131  26.897  1.00  0.00     0.010 A 
ATOM     40  C   UNL A   1      42.279  23.600  28.708  1.00  0.00     0.010 A 
ATOM     41  C   UNL A   1      41.684  24.551  27.858  1.00  0.00    -0.014 A 
BRANCH  41  42
ATOM     42  C   UNL A   1      42.080  25.978  27.921  1.00  0.00     0.031 A 
ATOM     43  C   UNL A   1      43.367  26.419  27.285  1.00  0.00     0.074 A 
ATOM     44  C   UNL A   1      41.279  26.877  28.522  1.00  0.00     0.049 A 
ATOM     45  N   UNL A   1      43.962  27.583  27.336  1.00  0.00    -0.248 NA
ATOM     46  C   UNL A   1      44.083  25.411  26.486  1.00  0.00     0.031 C 
ATOM     47  C   UNL A   1      39.975  26.582  29.116  1.00  0.00     0.029 A 
ATOM     48  N   UNL A   1      41.446  28.222  28.735  1.00  0.00    -0.354 N 
ATOM     49  C   UNL A   1      45.140  27.436  26.614  1.00  0.00     0.074 A 
ATOM     50  C   UNL A   1      45.178  26.072  26.134  1.00  0.00     0.031 C 
ATOM     51  C   UNL A   1      39.456  27.713  29.621  1.00  0.00     0.029 A 
ATOM     52  C   UNL A   1      40.418  28.797  29.442  1.00  0.00     0.049 A 
ATOM     53  H   UNL A   1      42.227  28.727  28.412  1.00  0.00     0.167 HD
ATOM     54  C   UNL A   1      46.100  28.361  26.379  1.00  0.00     0.037 A 
ATOM     55  C   UNL A   1      40.287  30.047  29.924  1.00  0.00     0.037 A 
ATOM     56  C   UNL A   1      46.034  29.728  26.826  1.00  0.00     0.049 A 
ATOM     57  C   UNL A   1      41.396  31.039  29.694  1.00  0.00     0.074 A 
ATOM     58  C   UNL A   1      46.945  30.749  26.618  1.00  0.00     0.029 A 
ATOM     59  N   UNL A   1      44.993  30.264  27.568  1.00  0.00    -0.354 N 
ATOM     60  N   UNL A   1      42.516  30.888  29.028  1.00  0.00    -0.248 NA
ATOM     61  C   UNL A   1      41.229  32.369  30.293  1.00  0.00     0.031 C 
ATOM     62  C   UNL A   1      46.473  31.893  27.270  1.00  0.00     0.029 A 
ATOM     63  C   UNL A   1      45.247  31.598  27.845  1.00  0.00     0.049 A 
ATOM     64  H   UNL A   1      44.191  29.771  27.856  1.00  0.00     0.167 HD
ATOM     65  C   UNL A   1      43.174  32.108  29.109  1.00  0.00     0.074 A 
ATOM     66  C   UNL A   1      42.321  32.992  29.875  1.00  0.00     0.031 C 
ATOM     67  C   UNL A   1      44.378  32.463  28.597  1.00  0.00     0.037 A 
BRANCH  54  68
ATOM     68  C   UNL A   1      47.326  27.920  25.636  1.00  0.00     0.064 A 
ATOM     69  C   UNL A   1      48.497  27.529  26.301  1.00  0.00     0.173 A 
ATOM     70  C   UNL A   1      47.310  27.844  24.234  1.00  0.00     0.173 A 
ATOM     71  F   UNL A   1      48.569  27.598  27.639  1.00  0.00    -0.203 F 
ATOM     72  C   UNL A   1      49.612  27.094  25.588  1.00  0.00     0.198 A 
ATOM     73  C   UNL A   1      48.417  27.385  23.528  1.00  0.00     0.198 A 
ATOM     74  F   UNL A   1      46.212  28.203  23.552  1.00  0.00    -0.203 F 
ATOM     75  F   UNL A   1      50.733  26.759  26.241  1.00  0.00    -0.200 F 
ATOM     76  C   UNL A   1      49.569  27.015  24.204  1.00  0.00     0.200 A 
ATOM     77  F   UNL A   1      48.368  27.299  22.190  1.00  0.00    -0.200 F 
ATOM     78  F   UNL A   1      50.639  26.586  23.522  1.00  0.00    -0.200 F 
ENDBRANCH  54  68
BRANCH  55  79
ATOM     79  C   UNL A   1      39.078  30.427  30.699  1.00  0.00     0.064 A 
ATOM     80  C   UNL A   1      37.972  31.013  30.069  1.00  0.00     0.173 A 
ATOM     81  C   UNL A   1      39.011  30.233  32.088  1.00  0.00     0.173 A 
ATOM     82  F   UNL A   1      37.998  31.243  28.748  1.00  0.00    -0.203 F 
ATOM     83  C   UNL A   1      36.852  31.406  30.800  1.00  0.00     0.198 A 
ATOM     84  C   UNL A   1      37.879  30.600  32.812  1.00  0.00     0.198 A 
ATOM     85  F   UNL A   1      40.045  29.682  32.739  1.00  0.00    -0.203 F 
ATOM     86  F   UNL A   1      35.828  32.008  30.181  1.00  0.00    -0.200 F 
ATOM     87  C   UNL A   1      36.805  31.194  32.169  1.00  0.00     0.200 A 
ATOM     88  F   UNL A   1      37.834  30.383  34.134  1.00  0.00    -0.200 F 
ATOM     89  F   UNL A   1      35.727  31.572  32.872  1.00  0.00    -0.200 F 
ENDBRANCH  55  79
BRANCH  67  90
ATOM     90  C   UNL A   1      44.821  33.880  28.814  1.00  0.00     0.064 A 
ATOM     91  C   UNL A   1      44.466  34.905  27.928  1.00  0.00     0.173 A 
ATOM     92  C   UNL A   1      45.584  34.217  29.943  1.00  0.00     0.173 A 
ATOM     93  F   UNL A   1      43.753  34.628  26.825  1.00  0.00    -0.203 F 
ATOM     94  C   UNL A   1      44.876  36.216  28.151  1.00  0.00     0.198 A 
ATOM     95  C   UNL A   1      45.968  35.534  30.178  1.00  0.00     0.198 A 
ATOM     96  F   UNL A   1      45.945  33.272  30.823  1.00  0.00    -0.203 F 
ATOM     97  F   UNL A   1      44.563  37.174  27.268  1.00  0.00    -0.200 F 
ATOM     98  C   UNL A   1      45.620  36.530  29.278  1.00  0.00     0.200 A 
ATOM     99  F   UNL A   1      46.678  35.837  31.273  1.00  0.00    -0.200 F 
ATOM    100  F   UNL A   1      46.010  37.795  29.495  1.00  0.00    -0.200 F 
ENDBRANCH  67  90
ENDBRANCH  41  42
ENDBRANCH  34  36
ENDBRANCH  33  34
ENDBRANCH  32  33
ENDBRANCH   1  32
TORSDOF 14
ENDMDL
MODEL 2
REMARK VINA RESULT:     -13.1      4.387      8.253
REMARK SMILES C[N@@H+]1CC2(CC[NH+](C(=O)c3cc(-c4ccncc4)n[nH]3)CC2)C[C@H]1C(=O)OCCOC(=O)c1ccc(-c2c3nc(c(-c4c(F)c(F)c(F)c(F)c4F)c4ccc([nH]4)c(-c4c(F)c(F)c(F)c(F)c4F)c4nc(c(-c5c(F)c(F)c(F)c(F)c5F)c5ccc2[nH]5)C=C4)C=C3)cc1
REMARK SMILES IDX 28 1 27 2 25 3 26 4 24 5 1 6 2 7 3 8 4 10 23 11 5 12 22 13
REMARK SMILES IDX 6 14 21 15 7 16 8 18 9 19 10 20 11 21 20 22 12 23 19 24
REMARK SMILES IDX 13 26 14 27 18 28 15 29 17 30 16 31 29 32 30 33 31 34 32 35
REMARK SMILES IDX 33 36 34 37 95 38 35 39 94 40 36 41 37 42 38 43 88 44 39 45
REMARK SMILES IDX 93 46 87 47 89 48 40 49 92 50 86 51 85 52 41 54 73 55 53 56
REMARK SMILES IDX 72 57 54 58 57 59 71 60 90 61 55 62 56 63 70 65 91 66 58 67
REMARK SMILES IDX 42 68 43 69 51 70 44 71 45 72 49 73 52 74 46 75 47 76 50 77
REMARK SMILES IDX 48 78 74 79 75 80 83 81 76 82 77 83 81 84 84 85 78 86 79 87
REMARK SMILES IDX 82 88 80 89 59 90 60 91 68 92 61 93 62 94 66 95 69 96 63 97
REMARK SMILES IDX 64 98 67 99 65 100
REMARK H PARENT 2 9 7 17 20 25 89 53 57 64
REMARK Flexibility Score: inf
ROOT
ATOM      1  C   UNL A   1      31.026  29.366  25.145  1.00  0.00     0.274 C 
ENDROOT
BRANCH   1   2
ATOM      2  O   UNL A   1      30.937  29.461  23.713  1.00  0.00    -0.458 OA
BRANCH   2   3
ATOM      3  C   UNL A   1      30.685  28.308  23.037  1.00  0.00     0.365 C 
ATOM      4  O   UNL A   1      29.568  27.818  22.895  1.00  0.00    -0.245 OA
BRANCH   3   5
ATOM      5  C   UNL A   1      31.941  27.635  22.460  1.00  0.00     0.295 C 
ATOM      6  C   UNL A   1      34.274  28.182  22.002  1.00  0.00     0.333 C 
ATOM      7  N   UNL A   1      33.207  28.176  22.998  1.00  0.00    -0.325 N 
ATOM      8  C   UNL A   1      33.545  27.351  24.163  1.00  0.00     0.270 C 
ATOM      9  H   UNL A   1      33.096  29.154  23.266  1.00  0.00     0.348 HD
ATOM     10  C   UNL A   1      32.865  25.976  23.975  1.00  0.00     0.036 C 
ATOM     11  C   UNL A   1      31.958  26.148  22.747  1.00  0.00     0.091 C 
ATOM     12  C   UNL A   1      32.016  25.614  25.215  1.00  0.00     0.075 C 
ATOM     13  C   UNL A   1      33.894  24.851  23.703  1.00  0.00     0.075 C 
ATOM     14  C   UNL A   1      32.900  25.280  26.408  1.00  0.00     0.271 C 
ATOM     15  C   UNL A   1      34.701  24.466  24.943  1.00  0.00     0.271 C 
ATOM     16  N   UNL A   1      33.806  24.187  26.058  1.00  0.00    -0.266 N 
ATOM     17  H   UNL A   1      34.610  24.703  25.822  1.00  0.00     0.357 HD
BRANCH  16  18
ATOM     18  C   UNL A   1      33.939  22.993  26.761  1.00  0.00     0.362 C 
ATOM     19  O   UNL A   1      34.410  22.954  27.894  1.00  0.00    -0.224 OA
BRANCH  18  20
ATOM     20  C   UNL A   1      33.469  21.795  26.123  1.00  0.00     0.163 A 
ATOM     21  C   UNL A   1      33.840  20.470  26.245  1.00  0.00     0.068 A 
ATOM     22  N   UNL A   1      32.430  21.789  25.238  1.00  0.00    -0.269 N 
ATOM     23  C   UNL A   1      33.074  19.772  25.279  1.00  0.00     0.093 A 
ATOM     24  N   UNL A   1      32.237  20.601  24.640  1.00  0.00    -0.175 NA
ATOM     25  H   UNL A   1      31.875  22.581  25.055  1.00  0.00     0.190 HD
BRANCH  23  26
ATOM     26  C   UNL A   1      33.163  18.363  24.937  1.00  0.00     0.005 A 
ATOM     27  C   UNL A   1      33.837  17.951  23.788  1.00  0.00     0.030 A 
ATOM     28  C   UNL A   1      32.552  17.409  25.751  1.00  0.00     0.030 A 
ATOM     29  C   UNL A   1      33.872  16.597  23.504  1.00  0.00     0.111 A 
ATOM     30  C   UNL A   1      32.633  16.081  25.374  1.00  0.00     0.111 A 
ATOM     31  N   UNL A   1      33.276  15.654  24.265  1.00  0.00    -0.265 NA
ENDBRANCH  23  26
ENDBRANCH  18  20
ENDBRANCH  16  18
ENDBRANCH   3   5
ENDBRANCH   2   3
ENDBRANCH   1   2
BRANCH   1  32
ATOM     32  C   UNL A   1      31.512  30.686  25.743  1.00  0.00     0.275 C 
BRANCH  32  33
ATOM     33  O   UNL A   1      32.775  30.502  26.408  1.00  0.00    -0.458 OA
BRANCH  33  34
ATOM     34  C   UNL A   1      33.226  31.571  27.104  1.00  0.00     0.338 C 
ATOM     35  O   UNL A   1      32.669  32.636  27.295  1.00  0.00    -0.246 OA
BRANCH  34  36
ATOM     36  C   UNL A   1      34.530  31.240  27.693  1.00  0.00     0.060 A 
ATOM     37  C   UNL A   1      34.775  29.917  28.058  1.00  0.00     0.016 A 
ATOM     38  C   UNL A   1      35.454  32.238  27.992  1.00  0.00     0.016 A 
ATOM     39  C   UNL A   1      35.937  29.576  28.741  1.00  0.00     0.010 A 
ATOM     40  C   UNL A   1      36.635  31.895  28.659  1.00  0.00     0.010 A 
ATOM     41  C   UNL A   1      36.874  30.565  29.054  1.00  0.00    -0.014 A 
BRANCH  41  42
ATOM     42  C   UNL A   1      38.069  30.216  29.859  1.00  0.00     0.031 A 
ATOM     43  C   UNL A   1      39.114  29.308  29.279  1.00  0.00     0.074 A 
ATOM     44  C   UNL A   1      38.228  30.732  31.093  1.00  0.00     0.049 A 
ATOM     45  N   UNL A   1      40.163  28.775  29.853  1.00  0.00    -0.248 NA
ATOM     46  C   UNL A   1      38.956  28.947  27.861  1.00  0.00     0.031 C 
ATOM     47  C   UNL A   1      37.316  31.677  31.737  1.00  0.00     0.029 A 
ATOM     48  N   UNL A   1      39.214  30.530  32.025  1.00  0.00    -0.354 N 
ATOM     49  C   UNL A   1      40.763  27.984  28.882  1.00  0.00     0.074 A 
ATOM     50  C   UNL A   1      39.966  28.106  27.680  1.00  0.00     0.031 C 
ATOM     51  C   UNL A   1      37.787  31.979  32.958  1.00  0.00     0.029 A 
ATOM     52  C   UNL A   1      38.998  31.201  33.204  1.00  0.00     0.049 A 
ATOM     53  H   UNL A   1      40.000  29.960  31.865  1.00  0.00     0.167 HD
ATOM     54  C   UNL A   1      41.880  27.226  28.990  1.00  0.00     0.037 A 
ATOM     55  C   UNL A   1      39.680  31.161  34.364  1.00  0.00     0.037 A 
ATOM     56  C   UNL A   1      42.689  27.144  30.176  1.00  0.00     0.049 A 
ATOM     57  C   UNL A   1      40.887  30.266  34.472  1.00  0.00     0.074 A 
ATOM     58  C   UNL A   1      43.853  26.423  30.379  1.00  0.00     0.029 A 
ATOM     59  N   UNL A   1      42.421  27.812  31.362  1.00  0.00    -0.354 N 
ATOM     60  N   UNL A   1      41.437  29.506  33.557  1.00  0.00    -0.248 NA
ATOM     61  C   UNL A   1      41.556  30.214  35.778  1.00  0.00     0.031 C 
ATOM     62  C   UNL A   1      44.266  26.623  31.701  1.00  0.00     0.029 A 
ATOM     63  C   UNL A   1      43.385  27.504  32.307  1.00  0.00     0.049 A 
ATOM     64  H   UNL A   1      41.657  28.416  31.510  1.00  0.00     0.167 HD
ATOM     65  C   UNL A   1      42.529  28.905  34.168  1.00  0.00     0.074 A 
ATOM     66  C   UNL A   1      42.572  29.401  35.528  1.00  0.00     0.031 C 
ATOM     67  C   UNL A   1      43.416  28.020  33.650  1.00  0.00     0.037 A 
BRANCH  54  68
ATOM     68  C   UNL A   1      42.273  26.392  27.807  1.00  0.00     0.064 A 
ATOM     69  C   UNL A   1      43.287  26.787  26.924  1.00  0.00     0.173 A 
ATOM     70  C   UNL A   1      41.653  25.152  27.584  1.00  0.00     0.173 A 
ATOM     71  F   UNL A   1      43.900  27.969  27.085  1.00  0.00    -0.203 F 
ATOM     72  C   UNL A   1      43.655  25.979  25.850  1.00  0.00     0.198 A 
ATOM     73  C   UNL A   1      42.041  24.337  26.525  1.00  0.00     0.198 A 
ATOM     74  F   UNL A   1      40.679  24.727  28.403  1.00  0.00    -0.203 F 
ATOM     75  F   UNL A   1      44.602  26.392  24.997  1.00  0.00    -0.200 F 
ATOM     76  C   UNL A   1      43.037  24.752  25.656  1.00  0.00     0.200 A 
ATOM     77  F   UNL A   1      41.449  23.146  26.347  1.00  0.00    -0.200 F 
ATOM     78  F   UNL A   1      43.400  23.972  24.629  1.00  0.00    -0.200 F 
ENDBRANCH  54  68
BRANCH  55  79
ATOM     79  C   UNL A   1      39.225  31.965  35.528  1.00  0.00     0.064 A 
ATOM     80  C   UNL A   1      39.707  33.264  35.740  1.00  0.00     0.173 A 
ATOM     81  C   UNL A   1      38.316  31.445  36.463  1.00  0.00     0.173 A 
ATOM     82  F   UNL A   1      40.597  33.794  34.889  1.00  0.00    -0.203 F 
ATOM     83  C   UNL A   1      39.311  34.005  36.852  1.00  0.00     0.198 A 
ATOM     84  C   UNL A   1      37.899  32.198  37.557  1.00  0.00     0.198 A 
ATOM     85  F   UNL A   1      37.830  30.206  36.308  1.00  0.00    -0.203 F 
ATOM     86  F   UNL A   1      39.824  35.226  37.057  1.00  0.00    -0.200 F 
ATOM     87  C   UNL A   1      38.404  33.474  37.756  1.00  0.00     0.200 A 
ATOM     88  F   UNL A   1      37.014  31.685  38.423  1.00  0.00    -0.200 F 
ATOM     89  F   UNL A   1      38.024  34.188  38.825  1.00  0.00    -0.200 F 
ENDBRANCH  55  79
BRANCH  67  90
ATOM     90  C   UNL A   1      44.530  27.566  34.546  1.00  0.00     0.064 A 
ATOM     91  C   UNL A   1      45.732  28.280  34.646  1.00  0.00     0.173 A 
ATOM     92  C   UNL A   1      44.377  26.418  35.340  1.00  0.00     0.173 A 
ATOM     93  F   UNL A   1      45.931  29.373  33.894  1.00  0.00    -0.203 F 
ATOM     94  C   UNL A   1      46.750  27.850  35.492  1.00  0.00     0.198 A 
ATOM     95  C   UNL A   1      45.386  26.007  36.205  1.00  0.00     0.198 A 
ATOM     96  F   UNL A   1      43.243  25.703  35.284  1.00  0.00    -0.203 F 
ATOM     97  F   UNL A   1      47.908  28.523  35.538  1.00  0.00    -0.200 F 
ATOM     98  C   UNL A   1      46.574  26.720  36.275  1.00  0.00     0.200 A 
ATOM     99  F   UNL A   1      45.210  24.921  36.970  1.00  0.00    -0.200 F 
ATOM    100  F   UNL A   1      47.554  26.311  37.093  1.00  0.00    -0.200 F 
ENDBRANCH  67  90
ENDBRANCH  41  42
ENDBRANCH  34  36
ENDBRANCH  33  34
ENDBRANCH  32  33
ENDBRANCH   1  32
TORSDOF 14
ENDMDL
MODEL 3
REMARK VINA RESULT:     -13.1      4.761      8.946
REMARK SMILES C[N@@H+]1CC2(CC[NH+](C(=O)c3cc(-c4ccncc4)n[nH]3)CC2)C[C@H]1C(=O)OCCOC(=O)c1ccc(-c2c3nc(c(-c4c(F)c(F)c(F)c(F)c4F)c4ccc([nH]4)c(-c4c(F)c(F)c(F)c(F)c4F)c4nc(c(-c5c(F)c(F)c(F)c(F)c5F)c5ccc2[nH]5)C=C4)C=C3)cc1
REMARK SMILES IDX 28 1 27 2 25 3 26 4 24 5 1 6 2 7 3 8 4 10 23 11 5 12 22 13
REMARK SMILES IDX 6 14 21 15 7 16 8 18 9 19 10 20 11 21 20 22 12 23 19 24
REMARK SMILES IDX 13 26 14 27 18 28 15 29 17 30 16 31 29 32 30 33 31 34 32 35
REMARK SMILES IDX 33 36 34 37 95 38 35 39 94 40 36 41 37 42 38 43 88 44 39 45
REMARK SMILES IDX 93 46 87 47 89 48 40 49 92 50 86 51 85 52 41 54 73 55 53 56
REMARK SMILES IDX 72 57 54 58 57 59 71 60 90 61 55 62 56 63 70 65 91 66 58 67
REMARK SMILES IDX 42 68 43 69 51 70 44 71 45 72 49 73 52 74 46 75 47 76 50 77
REMARK SMILES IDX 48 78 74 79 75 80 83 81 76 82 77 83 81 84 84 85 78 86 79 87
REMARK SMILES IDX 82 88 80 89 59 90 60 91 68 92 61 93 62 94 66 95 69 96 63 97
REMARK SMILES IDX 64 98 67 99 65 100
REMARK H PARENT 2 9 7 17 20 25 89 53 57 64
REMARK Flexibility Score: inf
ROOT
ATOM      1  C   UNL A   1      31.393  31.623  26.194  1.00  0.00     0.274 C 
ENDROOT
BRANCH   1   2
ATOM      2  O   UNL A   1      32.015  30.509  26.858  1.00  0.00    -0.458 OA
BRANCH   2   3
ATOM      3  C   UNL A   1      33.056  29.916  26.214  1.00  0.00     0.365 C 
ATOM      4  O   UNL A   1      34.193  29.826  26.671  1.00  0.00    -0.245 OA
BRANCH   3   5
ATOM      5  C   UNL A   1      32.698  29.363  24.825  1.00  0.00     0.295 C 
ATOM      6  C   UNL A   1      33.776  28.952  22.675  1.00  0.00     0.333 C 
ATOM      7  N   UNL A   1      33.839  28.743  24.118  1.00  0.00    -0.325 N 
ATOM      8  C   UNL A   1      33.818  27.320  24.471  1.00  0.00     0.270 C 
ATOM      9  H   UNL A   1      34.718  29.175  24.406  1.00  0.00     0.348 HD
ATOM     10  C   UNL A   1      32.368  26.956  24.861  1.00  0.00     0.036 C 
ATOM     11  C   UNL A   1      31.623  28.299  24.911  1.00  0.00     0.091 C 
ATOM     12  C   UNL A   1      32.331  26.278  26.250  1.00  0.00     0.075 C 
ATOM     13  C   UNL A   1      31.698  26.033  23.814  1.00  0.00     0.075 C 
ATOM     14  C   UNL A   1      32.919  24.875  26.192  1.00  0.00     0.271 C 
ATOM     15  C   UNL A   1      32.237  24.603  23.843  1.00  0.00     0.271 C 
ATOM     16  N   UNL A   1      32.195  24.079  25.202  1.00  0.00    -0.266 N 
ATOM     17  H   UNL A   1      32.798  24.180  24.430  1.00  0.00     0.357 HD
BRANCH  16  18
ATOM     18  C   UNL A   1      31.590  22.849  25.442  1.00  0.00     0.362 C 
ATOM     19  O   UNL A   1      30.415  22.758  25.787  1.00  0.00    -0.224 OA
BRANCH  18  20
ATOM     20  C   UNL A   1      32.384  21.669  25.237  1.00  0.00     0.163 A 
ATOM     21  C   UNL A   1      32.047  20.351  25.001  1.00  0.00     0.068 A 
ATOM     22  N   UNL A   1      33.748  21.698  25.191  1.00  0.00    -0.269 N 
ATOM     23  C   UNL A   1      33.274  19.644  24.984  1.00  0.00     0.093 A 
ATOM     24  N   UNL A   1      34.311  20.479  25.140  1.00  0.00    -0.175 NA
ATOM     25  H   UNL A   1      34.269  22.532  25.196  1.00  0.00     0.190 HD
BRANCH  23  26
ATOM     26  C   UNL A   1      33.461  18.208  24.870  1.00  0.00     0.005 A 
ATOM     27  C   UNL A   1      34.279  17.674  23.875  1.00  0.00     0.030 A 
ATOM     28  C   UNL A   1      32.801  17.348  25.748  1.00  0.00     0.030 A 
ATOM     29  C   UNL A   1      34.403  16.297  23.804  1.00  0.00     0.111 A 
ATOM     30  C   UNL A   1      32.981  15.986  25.586  1.00  0.00     0.111 A 
ATOM     31  N   UNL A   1      33.763  15.442  24.630  1.00  0.00    -0.265 NA
ENDBRANCH  23  26
ENDBRANCH  18  20
ENDBRANCH  16  18
ENDBRANCH   3   5
ENDBRANCH   2   3
ENDBRANCH   1   2
BRANCH   1  32
ATOM     32  C   UNL A   1      31.497  32.886  27.050  1.00  0.00     0.275 C 
BRANCH  32  33
ATOM     33  O   UNL A   1      32.841  33.402  27.022  1.00  0.00    -0.458 OA
BRANCH  33  34
ATOM     34  C   UNL A   1      33.236  34.052  28.141  1.00  0.00     0.338 C 
ATOM     35  O   UNL A   1      32.679  34.967  28.718  1.00  0.00    -0.246 OA
BRANCH  34  36
ATOM     36  C   UNL A   1      34.469  33.431  28.641  1.00  0.00     0.060 A 
ATOM     37  C   UNL A   1      34.397  32.140  29.162  1.00  0.00     0.016 A 
ATOM     38  C   UNL A   1      35.658  34.153  28.706  1.00  0.00     0.016 A 
ATOM     39  C   UNL A   1      35.505  31.560  29.770  1.00  0.00     0.010 A 
ATOM     40  C   UNL A   1      36.781  33.565  29.296  1.00  0.00     0.010 A 
ATOM     41  C   UNL A   1      36.706  32.272  29.849  1.00  0.00    -0.014 A 
BRANCH  41  42
ATOM     42  C   UNL A   1      37.859  31.689  30.575  1.00  0.00     0.031 A 
ATOM     43  C   UNL A   1      38.741  30.689  29.883  1.00  0.00     0.074 A 
ATOM     44  C   UNL A   1      38.129  32.072  31.837  1.00  0.00     0.049 A 
ATOM     45  N   UNL A   1      39.715  29.964  30.371  1.00  0.00    -0.248 NA
ATOM     46  C   UNL A   1      38.489  30.473  28.449  1.00  0.00     0.031 C 
ATOM     47  C   UNL A   1      37.386  33.083  32.589  1.00  0.00     0.029 A 
ATOM     48  N   UNL A   1      39.101  31.653  32.709  1.00  0.00    -0.354 N 
ATOM     49  C   UNL A   1      40.163  29.177  29.318  1.00  0.00     0.074 A 
ATOM     50  C   UNL A   1      39.358  29.512  28.163  1.00  0.00     0.031 C 
ATOM     51  C   UNL A   1      37.932  33.212  33.809  1.00  0.00     0.029 A 
ATOM     52  C   UNL A   1      39.021  32.249  33.944  1.00  0.00     0.049 A 
ATOM     53  H   UNL A   1      39.789  30.990  32.474  1.00  0.00     0.167 HD
ATOM     54  C   UNL A   1      41.158  28.259  29.321  1.00  0.00     0.037 A 
ATOM     55  C   UNL A   1      39.724  32.015  35.068  1.00  0.00     0.037 A 
ATOM     56  C   UNL A   1      41.982  27.962  30.463  1.00  0.00     0.049 A 
ATOM     57  C   UNL A   1      40.787  30.949  35.058  1.00  0.00     0.074 A 
ATOM     58  C   UNL A   1      43.032  27.066  30.562  1.00  0.00     0.029 A 
ATOM     59  N   UNL A   1      41.849  28.563  31.707  1.00  0.00    -0.354 N 
ATOM     60  N   UNL A   1      41.192  30.195  34.065  1.00  0.00    -0.248 NA
ATOM     61  C   UNL A   1      41.479  30.693  36.328  1.00  0.00     0.031 C 
ATOM     62  C   UNL A   1      43.508  27.094  31.877  1.00  0.00     0.029 A 
ATOM     63  C   UNL A   1      42.785  28.041  32.585  1.00  0.00     0.049 A 
ATOM     64  H   UNL A   1      41.188  29.256  31.932  1.00  0.00     0.167 HD
ATOM     65  C   UNL A   1      42.201  29.394  34.583  1.00  0.00     0.074 A 
ATOM     66  C   UNL A   1      42.356  29.764  35.974  1.00  0.00     0.031 C 
ATOM     67  C   UNL A   1      42.931  28.435  33.962  1.00  0.00     0.037 A 
BRANCH  54  68
ATOM     68  C   UNL A   1      41.389  27.477  28.062  1.00  0.00     0.064 A 
ATOM     69  C   UNL A   1      42.300  27.898  27.083  1.00  0.00     0.173 A 
ATOM     70  C   UNL A   1      40.719  26.260  27.858  1.00  0.00     0.173 A 
ATOM     71  F   UNL A   1      42.953  29.060  27.224  1.00  0.00    -0.203 F 
ATOM     72  C   UNL A   1      42.518  27.137  25.937  1.00  0.00     0.198 A 
ATOM     73  C   UNL A   1      40.960  25.491  26.724  1.00  0.00     0.198 A 
ATOM     74  F   UNL A   1      39.841  25.812  28.768  1.00  0.00    -0.203 F 
ATOM     75  F   UNL A   1      43.366  27.575  24.996  1.00  0.00    -0.200 F 
ATOM     76  C   UNL A   1      41.855  25.931  25.762  1.00  0.00     0.200 A 
ATOM     77  F   UNL A   1      40.325  24.320  26.563  1.00  0.00    -0.200 F 
ATOM     78  F   UNL A   1      42.075  25.196  24.663  1.00  0.00    -0.200 F 
ENDBRANCH  54  68
BRANCH  55  79
ATOM     79  C   UNL A   1      39.426  32.778  36.309  1.00  0.00     0.064 A 
ATOM     80  C   UNL A   1      38.457  32.330  37.216  1.00  0.00     0.173 A 
ATOM     81  C   UNL A   1      40.089  33.980  36.602  1.00  0.00     0.173 A 
ATOM     82  F   UNL A   1      37.778  31.201  36.967  1.00  0.00    -0.203 F 
ATOM     83  C   UNL A   1      38.149  33.063  38.361  1.00  0.00     0.198 A 
ATOM     84  C   UNL A   1      39.801  34.696  37.761  1.00  0.00     0.198 A 
ATOM     85  F   UNL A   1      41.021  34.454  35.764  1.00  0.00    -0.203 F 
ATOM     86  F   UNL A   1      37.184  32.638  39.187  1.00  0.00    -0.200 F 
ATOM     87  C   UNL A   1      38.825  34.243  38.635  1.00  0.00     0.200 A 
ATOM     88  F   UNL A   1      40.465  35.830  38.027  1.00  0.00    -0.200 F 
ATOM     89  F   UNL A   1      38.529  34.947  39.735  1.00  0.00    -0.200 F 
ENDBRANCH  55  79
BRANCH  67  90
ATOM     90  C   UNL A   1      43.992  27.751  34.774  1.00  0.00     0.064 A 
ATOM     91  C   UNL A   1      43.744  26.543  35.439  1.00  0.00     0.173 A 
ATOM     92  C   UNL A   1      45.281  28.299  34.857  1.00  0.00     0.173 A 
ATOM     93  F   UNL A   1      42.521  25.991  35.403  1.00  0.00    -0.203 F 
ATOM     94  C   UNL A   1      44.743  25.916  36.178  1.00  0.00     0.198 A 
ATOM     95  C   UNL A   1      46.286  27.654  35.573  1.00  0.00     0.198 A 
ATOM     96  F   UNL A   1      45.570  29.451  34.233  1.00  0.00    -0.203 F 
ATOM     97  F   UNL A   1      44.473  24.785  36.843  1.00  0.00    -0.200 F 
ATOM     98  C   UNL A   1      46.014  26.468  36.238  1.00  0.00     0.200 A 
ATOM     99  F   UNL A   1      47.517  28.184  35.621  1.00  0.00    -0.200 F 
ATOM    100  F   UNL A   1      46.977  25.861  36.945  1.00  0.00    -0.200 F 
ENDBRANCH  67  90
ENDBRANCH  41  42
ENDBRANCH  34  36
ENDBRANCH  33  34
ENDBRANCH  32  33
ENDBRANCH   1  32
TORSDOF 14
ENDMDL
