MODEL 1
REMARK VINA RESULT:     -14.3      0.000      0.000
REMARK SMILES CC(=O)Nc1cnc(N2CC=C(c3ccccc3C)CC2)c(C(=O)OCCOC(=O)c2ccc(-c3c4nc(c(-c5c(F)c(F)c(F)c(F)c5F)c5ccc([nH]5)c(-c5c(F)c(F)c(F)c(F)c5F)c5nc(c(-c6c(F)c(F)c(F)c(F)c6F)c6ccc3[nH]6)C=C5)C=C4)cc2)c1
REMARK SMILES IDX 26 1 25 2 23 3 24 4 22 5 5 6 6 7 94 8 7 9 8 10 4 11 1 12
REMARK SMILES IDX 2 13 3 14 9 16 10 17 21 18 11 19 20 20 12 21 13 22 14 23
REMARK SMILES IDX 18 24 15 25 17 26 19 27 16 28 27 29 28 30 29 31 30 32 31 33
REMARK SMILES IDX 32 34 93 35 33 36 92 37 34 38 35 39 36 40 86 41 37 42 91 43
REMARK SMILES IDX 85 44 87 45 38 46 90 47 84 48 83 49 39 51 71 52 51 53 70 54
REMARK SMILES IDX 52 55 55 56 69 57 88 58 53 59 54 60 68 62 89 63 56 64 40 65
REMARK SMILES IDX 41 66 49 67 42 68 43 69 47 70 50 71 44 72 45 73 48 74 46 75
REMARK SMILES IDX 72 76 73 77 81 78 74 79 75 80 79 81 82 82 76 83 77 84 80 85
REMARK SMILES IDX 78 86 57 87 58 88 66 89 59 90 60 91 64 92 67 93 61 94 62 95
REMARK SMILES IDX 65 96 63 97
REMARK H PARENT 4 15 87 50 55 61
REMARK Flexibility Score: inf
ROOT
ATOM      1  C   UNL A   1      37.646  22.265  25.120  1.00  0.00     0.275 C 
ENDROOT
BRANCH   1   2
ATOM      2  O   UNL A   1      36.822  21.395  25.946  1.00  0.00    -0.458 OA
BRANCH   2   3
ATOM      3  C   UNL A   1      35.557  21.878  26.116  1.00  0.00     0.342 C 
ATOM      4  O   UNL A   1      35.179  22.441  27.147  1.00  0.00    -0.246 OA
BRANCH   3   5
ATOM      5  C   UNL A   1      34.500  21.389  25.203  1.00  0.00     0.104 A 
ATOM      6  C   UNL A   1      33.566  19.153  24.933  1.00  0.00     0.060 A 
ATOM      7  C   UNL A   1      32.399  19.765  24.545  1.00  0.00     0.139 A 
ATOM      8  C   UNL A   1      34.644  19.981  25.162  1.00  0.00     0.047 A 
ATOM      9  N   UNL A   1      32.243  21.111  24.499  1.00  0.00    -0.236 NA
ATOM     10  C   UNL A   1      33.252  21.960  24.865  1.00  0.00     0.143 A 
BRANCH   6  11
ATOM     11  N   UNL A   1      33.642  17.769  25.127  1.00  0.00    -0.325 N 
ATOM     12  C   UNL A   1      33.828  17.143  22.722  1.00  0.00     0.114 C 
ATOM     13  C   UNL A   1      33.577  16.783  24.172  1.00  0.00     0.221 C 
ATOM     14  O   UNL A   1      33.409  15.613  24.516  1.00  0.00    -0.275 OA
ATOM     15  H   UNL A   1      33.755  17.467  26.057  1.00  0.00     0.169 HD
ENDBRANCH   6  11
BRANCH  10  16
ATOM     16  N   UNL A   1      32.867  23.294  24.861  1.00  0.00    -0.352 N 
ATOM     17  C   UNL A   1      33.834  24.254  24.278  1.00  0.00     0.146 C 
ATOM     18  C   UNL A   1      31.738  23.803  25.640  1.00  0.00     0.123 C 
ATOM     19  C   UNL A   1      33.489  25.712  24.502  1.00  0.00    -0.002 C 
ATOM     20  C   UNL A   1      32.004  25.130  26.355  1.00  0.00     0.057 C 
ATOM     21  C   UNL A   1      32.642  26.147  25.446  1.00  0.00    -0.041 C 
BRANCH  21  22
ATOM     22  C   UNL A   1      32.367  27.581  25.710  1.00  0.00    -0.020 A 
ATOM     23  C   UNL A   1      33.117  28.308  26.649  1.00  0.00     0.008 A 
ATOM     24  C   UNL A   1      31.389  28.269  24.968  1.00  0.00    -0.044 A 
ATOM     25  C   UNL A   1      32.970  29.694  26.790  1.00  0.00     0.001 A 
ATOM     26  C   UNL A   1      31.261  29.664  25.102  1.00  0.00     0.004 A 
ATOM     27  C   UNL A   1      30.500  27.551  23.992  1.00  0.00     0.045 C 
ATOM     28  C   UNL A   1      32.054  30.375  26.000  1.00  0.00     0.000 A 
ENDBRANCH  21  22
ENDBRANCH  10  16
ENDBRANCH   3   5
ENDBRANCH   2   3
ENDBRANCH   1   2
BRANCH   1  29
ATOM     29  C   UNL A   1      37.844  23.698  25.654  1.00  0.00     0.275 C 
BRANCH  29  30
ATOM     30  O   UNL A   1      38.359  23.925  26.985  1.00  0.00    -0.458 OA
BRANCH  30  31
ATOM     31  C   UNL A   1      39.647  24.279  27.154  1.00  0.00     0.338 C 
ATOM     32  O   UNL A   1      40.580  23.525  26.916  1.00  0.00    -0.246 OA
BRANCH  31  33
ATOM     33  C   UNL A   1      39.769  25.647  27.696  1.00  0.00     0.060 A 
ATOM     34  C   UNL A   1      39.999  26.733  26.836  1.00  0.00     0.016 A 
ATOM     35  C   UNL A   1      39.451  25.859  29.035  1.00  0.00     0.016 A 
ATOM     36  C   UNL A   1      39.852  28.032  27.259  1.00  0.00     0.010 A 
ATOM     37  C   UNL A   1      39.205  27.138  29.449  1.00  0.00     0.010 A 
ATOM     38  C   UNL A   1      39.466  28.199  28.568  1.00  0.00    -0.014 A 
BRANCH  38  39
ATOM     39  C   UNL A   1      39.648  29.465  29.219  1.00  0.00     0.031 A 
ATOM     40  C   UNL A   1      38.567  30.452  29.125  1.00  0.00     0.074 A 
ATOM     41  C   UNL A   1      40.794  29.419  29.936  1.00  0.00     0.049 A 
ATOM     42  N   UNL A   1      38.750  31.722  29.157  1.00  0.00    -0.248 NA
ATOM     43  C   UNL A   1      37.162  30.107  28.859  1.00  0.00     0.031 C 
ATOM     44  C   UNL A   1      41.251  30.150  31.094  1.00  0.00     0.029 A 
ATOM     45  N   UNL A   1      41.885  28.572  29.636  1.00  0.00    -0.354 N 
ATOM     46  C   UNL A   1      37.516  32.267  29.444  1.00  0.00     0.074 A 
ATOM     47  C   UNL A   1      36.552  31.292  29.005  1.00  0.00     0.031 C 
ATOM     48  C   UNL A   1      42.579  29.954  31.236  1.00  0.00     0.029 A 
ATOM     49  C   UNL A   1      43.052  29.176  30.101  1.00  0.00     0.049 A 
ATOM     50  H   UNL A   1      41.831  27.704  29.175  1.00  0.00     0.167 HD
ATOM     51  C   UNL A   1      37.470  33.319  30.311  1.00  0.00     0.037 A 
ATOM     52  C   UNL A   1      43.955  29.608  29.168  1.00  0.00     0.037 A 
ATOM     53  C   UNL A   1      38.826  33.599  30.778  1.00  0.00     0.049 A 
ATOM     54  C   UNL A   1      43.855  31.107  29.013  1.00  0.00     0.074 A 
ATOM     55  C   UNL A   1      39.513  33.135  31.889  1.00  0.00     0.029 A 
ATOM     56  N   UNL A   1      39.788  34.015  29.866  1.00  0.00    -0.354 N 
ATOM     57  N   UNL A   1      42.780  31.810  29.254  1.00  0.00    -0.248 NA
ATOM     58  C   UNL A   1      45.010  31.923  28.674  1.00  0.00     0.031 C 
ATOM     59  C   UNL A   1      40.902  33.259  31.628  1.00  0.00     0.029 A 
ATOM     60  C   UNL A   1      41.059  33.748  30.342  1.00  0.00     0.049 A 
ATOM     61  H   UNL A   1      39.593  34.442  29.001  1.00  0.00     0.167 HD
ATOM     62  C   UNL A   1      43.103  33.140  29.231  1.00  0.00     0.074 A 
ATOM     63  C   UNL A   1      44.508  33.155  28.854  1.00  0.00     0.031 C 
ATOM     64  C   UNL A   1      42.227  34.135  29.572  1.00  0.00     0.037 A 
BRANCH  51  65
ATOM     65  C   UNL A   1      36.234  33.832  31.008  1.00  0.00     0.064 A 
ATOM     66  C   UNL A   1      35.177  34.412  30.268  1.00  0.00     0.173 A 
ATOM     67  C   UNL A   1      36.014  33.752  32.395  1.00  0.00     0.173 A 
ATOM     68  F   UNL A   1      35.232  34.527  28.936  1.00  0.00    -0.203 F 
ATOM     69  C   UNL A   1      34.014  34.901  30.865  1.00  0.00     0.198 A 
ATOM     70  C   UNL A   1      34.855  34.266  32.998  1.00  0.00     0.198 A 
ATOM     71  F   UNL A   1      36.893  33.139  33.201  1.00  0.00    -0.203 F 
ATOM     72  F   UNL A   1      33.050  35.434  30.101  1.00  0.00    -0.200 F 
ATOM     73  C   UNL A   1      33.856  34.838  32.232  1.00  0.00     0.200 A 
ATOM     74  F   UNL A   1      34.706  34.194  34.329  1.00  0.00    -0.200 F 
ATOM     75  F   UNL A   1      32.741  35.309  32.805  1.00  0.00    -0.200 F 
ENDBRANCH  51  65
BRANCH  52  76
ATOM     76  C   UNL A   1      44.123  28.627  28.054  1.00  0.00     0.064 A 
ATOM     77  C   UNL A   1      44.471  27.298  28.392  1.00  0.00     0.173 A 
ATOM     78  C   UNL A   1      43.516  28.833  26.817  1.00  0.00     0.173 A 
ATOM     79  F   UNL A   1      45.101  27.048  29.550  1.00  0.00    -0.203 F 
ATOM     80  C   UNL A   1      44.045  26.214  27.627  1.00  0.00     0.198 A 
ATOM     81  C   UNL A   1      43.097  27.744  26.064  1.00  0.00     0.198 A 
ATOM     82  F   UNL A   1      43.186  30.063  26.402  1.00  0.00    -0.203 F 
ATOM     83  F   UNL A   1      44.261  24.959  28.048  1.00  0.00    -0.200 F 
ATOM     84  C   UNL A   1      43.305  26.440  26.489  1.00  0.00     0.200 A 
ATOM     85  F   UNL A   1      42.354  27.974  24.983  1.00  0.00    -0.200 F 
ATOM     86  F   UNL A   1      42.758  25.412  25.825  1.00  0.00    -0.200 F 
ENDBRANCH  52  76
BRANCH  64  87
ATOM     87  C   UNL A   1      42.436  35.610  29.332  1.00  0.00     0.064 A 
ATOM     88  C   UNL A   1      43.279  36.413  30.112  1.00  0.00     0.173 A 
ATOM     89  C   UNL A   1      41.884  36.242  28.187  1.00  0.00     0.173 A 
ATOM     90  F   UNL A   1      44.005  35.905  31.116  1.00  0.00    -0.203 F 
ATOM     91  C   UNL A   1      43.460  37.768  29.840  1.00  0.00     0.198 A 
ATOM     92  C   UNL A   1      42.153  37.565  27.861  1.00  0.00     0.198 A 
ATOM     93  F   UNL A   1      41.086  35.595  27.325  1.00  0.00    -0.203 F 
ATOM     94  F   UNL A   1      44.198  38.512  30.674  1.00  0.00    -0.200 F 
ATOM     95  C   UNL A   1      42.912  38.340  28.708  1.00  0.00     0.200 A 
ATOM     96  F   UNL A   1      41.685  38.074  26.713  1.00  0.00    -0.200 F 
ATOM     97  F   UNL A   1      43.134  39.628  28.423  1.00  0.00    -0.200 F 
ENDBRANCH  64  87
ENDBRANCH  38  39
ENDBRANCH  31  33
ENDBRANCH  30  31
ENDBRANCH  29  30
ENDBRANCH   1  29
TORSDOF 14
ENDMDL
MODEL 2
REMARK VINA RESULT:     -14.3      4.263     10.624
REMARK SMILES CC(=O)Nc1cnc(N2CC=C(c3ccccc3C)CC2)c(C(=O)OCCOC(=O)c2ccc(-c3c4nc(c(-c5c(F)c(F)c(F)c(F)c5F)c5ccc([nH]5)c(-c5c(F)c(F)c(F)c(F)c5F)c5nc(c(-c6c(F)c(F)c(F)c(F)c6F)c6ccc3[nH]6)C=C5)C=C4)cc2)c1
REMARK SMILES IDX 26 1 25 2 23 3 24 4 22 5 5 6 6 7 94 8 7 9 8 10 4 11 1 12
REMARK SMILES IDX 2 13 3 14 9 16 10 17 21 18 11 19 20 20 12 21 13 22 14 23
REMARK SMILES IDX 18 24 15 25 17 26 19 27 16 28 27 29 28 30 29 31 30 32 31 33
REMARK SMILES IDX 32 34 93 35 33 36 92 37 34 38 35 39 36 40 86 41 37 42 91 43
REMARK SMILES IDX 85 44 87 45 38 46 90 47 84 48 83 49 39 51 71 52 51 53 70 54
REMARK SMILES IDX 52 55 55 56 69 57 88 58 53 59 54 60 68 62 89 63 56 64 40 65
REMARK SMILES IDX 41 66 49 67 42 68 43 69 47 70 50 71 44 72 45 73 48 74 46 75
REMARK SMILES IDX 72 76 73 77 81 78 74 79 75 80 79 81 82 82 76 83 77 84 80 85
REMARK SMILES IDX 78 86 57 87 58 88 66 89 59 90 60 91 64 92 67 93 61 94 62 95
REMARK SMILES IDX 65 96 63 97
REMARK H PARENT 4 15 87 50 55 61
REMARK Flexibility Score: inf
ROOT
ATOM      1  C   UNL A   1      33.011  29.526  27.108  1.00  0.00     0.275 C 
ENDROOT
BRANCH   1   2
ATOM      2  O   UNL A   1      32.715  30.159  25.832  1.00  0.00    -0.458 OA
BRANCH   2   3
ATOM      3  C   UNL A   1      32.827  29.297  24.780  1.00  0.00     0.342 C 
ATOM      4  O   UNL A   1      33.861  29.159  24.123  1.00  0.00    -0.246 OA
BRANCH   3   5
ATOM      5  C   UNL A   1      31.580  28.788  24.167  1.00  0.00     0.104 A 
ATOM      6  C   UNL A   1      29.986  29.896  22.691  1.00  0.00     0.060 A 
ATOM      7  C   UNL A   1      29.717  28.655  22.167  1.00  0.00     0.139 A 
ATOM      8  C   UNL A   1      30.849  29.933  23.766  1.00  0.00     0.047 A 
ATOM      9  N   UNL A   1      30.341  27.523  22.575  1.00  0.00    -0.236 NA
ATOM     10  C   UNL A   1      31.312  27.550  23.538  1.00  0.00     0.143 A 
BRANCH   6  11
ATOM     11  N   UNL A   1      29.446  31.062  22.137  1.00  0.00    -0.325 N 
ATOM     12  C   UNL A   1      27.553  31.303  23.739  1.00  0.00     0.114 C 
ATOM     13  C   UNL A   1      28.245  31.657  22.439  1.00  0.00     0.221 C 
ATOM     14  O   UNL A   1      27.795  32.531  21.698  1.00  0.00    -0.275 OA
ATOM     15  H   UNL A   1      29.991  31.509  21.450  1.00  0.00     0.169 HD
ENDBRANCH   6  11
BRANCH  10  16
ATOM     16  N   UNL A   1      31.913  26.314  23.739  1.00  0.00    -0.352 N 
ATOM     17  C   UNL A   1      32.424  26.046  25.104  1.00  0.00     0.146 C 
ATOM     18  C   UNL A   1      32.312  25.432  22.641  1.00  0.00     0.123 C 
ATOM     19  C   UNL A   1      33.275  24.799  25.226  1.00  0.00    -0.002 C 
ATOM     20  C   UNL A   1      33.686  24.780  22.816  1.00  0.00     0.057 C 
ATOM     21  C   UNL A   1      33.863  24.187  24.188  1.00  0.00    -0.041 C 
BRANCH  21  22
ATOM     22  C   UNL A   1      34.757  23.010  24.324  1.00  0.00    -0.020 A 
ATOM     23  C   UNL A   1      36.151  23.134  24.203  1.00  0.00     0.008 A 
ATOM     24  C   UNL A   1      34.230  21.747  24.652  1.00  0.00    -0.044 A 
ATOM     25  C   UNL A   1      37.009  22.063  24.484  1.00  0.00     0.001 A 
ATOM     26  C   UNL A   1      35.100  20.682  24.952  1.00  0.00     0.004 A 
ATOM     27  C   UNL A   1      32.748  21.517  24.735  1.00  0.00     0.045 C 
ATOM     28  C   UNL A   1      36.482  20.841  24.878  1.00  0.00     0.000 A 
ENDBRANCH  21  22
ENDBRANCH  10  16
ENDBRANCH   3   5
ENDBRANCH   2   3
ENDBRANCH   1   2
BRANCH   1  29
ATOM     29  C   UNL A   1      34.495  29.184  27.353  1.00  0.00     0.275 C 
BRANCH  29  30
ATOM     30  O   UNL A   1      35.210  29.757  28.470  1.00  0.00    -0.458 OA
BRANCH  30  31
ATOM     31  C   UNL A   1      36.313  30.499  28.251  1.00  0.00     0.338 C 
ATOM     32  O   UNL A   1      36.268  31.651  27.845  1.00  0.00    -0.246 OA
BRANCH  31  33
ATOM     33  C   UNL A   1      37.546  29.732  28.519  1.00  0.00     0.060 A 
ATOM     34  C   UNL A   1      37.570  28.758  29.528  1.00  0.00     0.016 A 
ATOM     35  C   UNL A   1      38.607  29.853  27.625  1.00  0.00     0.016 A 
ATOM     36  C   UNL A   1      38.596  27.849  29.630  1.00  0.00     0.010 A 
ATOM     37  C   UNL A   1      39.586  28.900  27.647  1.00  0.00     0.010 A 
ATOM     38  C   UNL A   1      39.589  27.954  28.684  1.00  0.00    -0.014 A 
BRANCH  38  39
ATOM     39  C   UNL A   1      40.865  27.336  28.905  1.00  0.00     0.031 A 
ATOM     40  C   UNL A   1      41.050  25.952  28.454  1.00  0.00     0.074 A 
ATOM     41  C   UNL A   1      41.716  28.269  29.391  1.00  0.00     0.049 A 
ATOM     42  N   UNL A   1      41.852  25.118  29.009  1.00  0.00    -0.248 NA
ATOM     43  C   UNL A   1      40.249  25.321  27.394  1.00  0.00     0.031 C 
ATOM     44  C   UNL A   1      43.155  28.381  29.371  1.00  0.00     0.029 A 
ATOM     45  N   UNL A   1      41.311  29.417  30.108  1.00  0.00    -0.354 N 
ATOM     46  C   UNL A   1      42.034  24.109  28.085  1.00  0.00     0.074 A 
ATOM     47  C   UNL A   1      40.866  24.139  27.245  1.00  0.00     0.031 C 
ATOM     48  C   UNL A   1      43.530  29.330  30.254  1.00  0.00     0.029 A 
ATOM     49  C   UNL A   1      42.345  29.788  30.965  1.00  0.00     0.049 A 
ATOM     50  H   UNL A   1      40.445  29.875  30.019  1.00  0.00     0.167 HD
ATOM     51  C   UNL A   1      43.290  23.597  27.942  1.00  0.00     0.037 A 
ATOM     52  C   UNL A   1      42.130  29.655  32.310  1.00  0.00     0.037 A 
ATOM     53  C   UNL A   1      44.194  24.318  28.835  1.00  0.00     0.049 A 
ATOM     54  C   UNL A   1      42.838  28.424  32.824  1.00  0.00     0.074 A 
ATOM     55  C   UNL A   1      44.980  25.438  28.613  1.00  0.00     0.029 A 
ATOM     56  N   UNL A   1      44.003  24.238  30.208  1.00  0.00    -0.354 N 
ATOM     57  N   UNL A   1      43.121  27.372  32.102  1.00  0.00    -0.248 NA
ATOM     58  C   UNL A   1      43.372  28.352  34.175  1.00  0.00     0.031 C 
ATOM     59  C   UNL A   1      45.244  26.044  29.869  1.00  0.00     0.029 A 
ATOM     60  C   UNL A   1      44.577  25.323  30.845  1.00  0.00     0.049 A 
ATOM     61  H   UNL A   1      43.525  23.509  30.666  1.00  0.00     0.167 HD
ATOM     62  C   UNL A   1      43.955  26.553  32.815  1.00  0.00     0.074 A 
ATOM     63  C   UNL A   1      44.072  27.209  34.108  1.00  0.00     0.031 C 
ATOM     64  C   UNL A   1      44.537  25.430  32.292  1.00  0.00     0.037 A 
BRANCH  51  65
ATOM     65  C   UNL A   1      43.769  22.753  26.786  1.00  0.00     0.064 A 
ATOM     66  C   UNL A   1      43.303  21.428  26.619  1.00  0.00     0.173 A 
ATOM     67  C   UNL A   1      44.658  23.200  25.792  1.00  0.00     0.173 A 
ATOM     68  F   UNL A   1      42.428  20.877  27.469  1.00  0.00    -0.203 F 
ATOM     69  C   UNL A   1      43.716  20.607  25.568  1.00  0.00     0.198 A 
ATOM     70  C   UNL A   1      45.092  22.366  24.750  1.00  0.00     0.198 A 
ATOM     71  F   UNL A   1      45.101  24.465  25.778  1.00  0.00    -0.203 F 
ATOM     72  F   UNL A   1      43.228  19.362  25.468  1.00  0.00    -0.200 F 
ATOM     73  C   UNL A   1      44.618  21.072  24.637  1.00  0.00     0.200 A 
ATOM     74  F   UNL A   1      45.966  22.829  23.843  1.00  0.00    -0.200 F 
ATOM     75  F   UNL A   1      45.016  20.283  23.630  1.00  0.00    -0.200 F 
ENDBRANCH  51  65
BRANCH  52  76
ATOM     76  C   UNL A   1      40.759  30.099  32.705  1.00  0.00     0.064 A 
ATOM     77  C   UNL A   1      40.359  31.407  32.343  1.00  0.00     0.173 A 
ATOM     78  C   UNL A   1      39.752  29.173  32.969  1.00  0.00     0.173 A 
ATOM     79  F   UNL A   1      41.286  32.351  32.125  1.00  0.00    -0.203 F 
ATOM     80  C   UNL A   1      39.030  31.711  32.056  1.00  0.00     0.198 A 
ATOM     81  C   UNL A   1      38.430  29.489  32.680  1.00  0.00     0.198 A 
ATOM     82  F   UNL A   1      40.041  27.923  33.353  1.00  0.00    -0.203 F 
ATOM     83  F   UNL A   1      38.699  32.917  31.573  1.00  0.00    -0.200 F 
ATOM     84  C   UNL A   1      38.072  30.729  32.171  1.00  0.00     0.200 A 
ATOM     85  F   UNL A   1      37.519  28.523  32.762  1.00  0.00    -0.200 F 
ATOM     86  F   UNL A   1      36.818  30.958  31.755  1.00  0.00    -0.200 F 
ENDBRANCH  52  76
BRANCH  64  87
ATOM     87  C   UNL A   1      45.254  24.364  33.082  1.00  0.00     0.064 A 
ATOM     88  C   UNL A   1      46.532  24.530  33.632  1.00  0.00     0.173 A 
ATOM     89  C   UNL A   1      44.593  23.158  33.437  1.00  0.00     0.173 A 
ATOM     90  F   UNL A   1      47.198  25.686  33.528  1.00  0.00    -0.203 F 
ATOM     91  C   UNL A   1      47.148  23.524  34.374  1.00  0.00     0.198 A 
ATOM     92  C   UNL A   1      45.170  22.206  34.266  1.00  0.00     0.198 A 
ATOM     93  F   UNL A   1      43.351  22.871  33.018  1.00  0.00    -0.203 F 
ATOM     94  F   UNL A   1      48.409  23.696  34.794  1.00  0.00    -0.200 F 
ATOM     95  C   UNL A   1      46.463  22.371  34.705  1.00  0.00     0.200 A 
ATOM     96  F   UNL A   1      44.456  21.138  34.648  1.00  0.00    -0.200 F 
ATOM     97  F   UNL A   1      47.041  21.433  35.465  1.00  0.00    -0.200 F 
ENDBRANCH  64  87
ENDBRANCH  38  39
ENDBRANCH  31  33
ENDBRANCH  30  31
ENDBRANCH  29  30
ENDBRANCH   1  29
TORSDOF 14
ENDMDL
MODEL 3
REMARK VINA RESULT:     -14.2      4.015     10.471
REMARK SMILES CC(=O)Nc1cnc(N2CC=C(c3ccccc3C)CC2)c(C(=O)OCCOC(=O)c2ccc(-c3c4nc(c(-c5c(F)c(F)c(F)c(F)c5F)c5ccc([nH]5)c(-c5c(F)c(F)c(F)c(F)c5F)c5nc(c(-c6c(F)c(F)c(F)c(F)c6F)c6ccc3[nH]6)C=C5)C=C4)cc2)c1
REMARK SMILES IDX 26 1 25 2 23 3 24 4 22 5 5 6 6 7 94 8 7 9 8 10 4 11 1 12
REMARK SMILES IDX 2 13 3 14 9 16 10 17 21 18 11 19 20 20 12 21 13 22 14 23
REMARK SMILES IDX 18 24 15 25 17 26 19 27 16 28 27 29 28 30 29 31 30 32 31 33
REMARK SMILES IDX 32 34 93 35 33 36 92 37 34 38 35 39 36 40 86 41 37 42 91 43
REMARK SMILES IDX 85 44 87 45 38 46 90 47 84 48 83 49 39 51 71 52 51 53 70 54
REMARK SMILES IDX 52 55 55 56 69 57 88 58 53 59 54 60 68 62 89 63 56 64 40 65
REMARK SMILES IDX 41 66 49 67 42 68 43 69 47 70 50 71 44 72 45 73 48 74 46 75
REMARK SMILES IDX 72 76 73 77 81 78 74 79 75 80 79 81 82 82 76 83 77 84 80 85
REMARK SMILES IDX 78 86 57 87 58 88 66 89 59 90 60 91 64 92 67 93 61 94 62 95
REMARK SMILES IDX 65 96 63 97
REMARK H PARENT 4 15 87 50 55 61
REMARK Flexibility Score: inf
ROOT
ATOM      1  C   UNL A   1      34.144  28.482  27.149  1.00  0.00     0.275 C 
ENDROOT
BRANCH   1   2
ATOM      2  O   UNL A   1      33.577  27.826  25.981  1.00  0.00    -0.458 OA
BRANCH   2   3
ATOM      3  C   UNL A   1      32.257  27.517  26.141  1.00  0.00     0.342 C 
ATOM      4  O   UNL A   1      31.773  27.146  27.213  1.00  0.00    -0.246 OA
BRANCH   3   5
ATOM      5  C   UNL A   1      31.455  27.255  24.926  1.00  0.00     0.104 A 
ATOM      6  C   UNL A   1      30.610  28.795  23.235  1.00  0.00     0.060 A 
ATOM      7  C   UNL A   1      30.695  27.753  22.345  1.00  0.00     0.139 A 
ATOM      8  C   UNL A   1      30.898  28.502  24.551  1.00  0.00     0.047 A 
ATOM      9  N   UNL A   1      31.153  26.522  22.681  1.00  0.00    -0.236 NA
ATOM     10  C   UNL A   1      31.587  26.242  23.948  1.00  0.00     0.143 A 
BRANCH   6  11
ATOM     11  N   UNL A   1      30.290  30.093  22.820  1.00  0.00    -0.325 N 
ATOM     12  C   UNL A   1      27.818  29.786  22.769  1.00  0.00     0.114 C 
ATOM     13  C   UNL A   1      29.066  30.565  22.411  1.00  0.00     0.221 C 
ATOM     14  O   UNL A   1      28.994  31.655  21.843  1.00  0.00    -0.275 OA
ATOM     15  H   UNL A   1      31.028  30.744  22.823  1.00  0.00     0.169 HD
ENDBRANCH   6  11
BRANCH  10  16
ATOM     16  N   UNL A   1      32.124  24.968  24.069  1.00  0.00    -0.352 N 
ATOM     17  C   UNL A   1      32.713  24.384  22.840  1.00  0.00     0.146 C 
ATOM     18  C   UNL A   1      31.875  24.101  25.222  1.00  0.00     0.123 C 
ATOM     19  C   UNL A   1      33.072  22.916  22.948  1.00  0.00    -0.002 C 
ATOM     20  C   UNL A   1      31.586  22.639  24.870  1.00  0.00     0.057 C 
ATOM     21  C   UNL A   1      32.575  22.088  23.878  1.00  0.00    -0.041 C 
BRANCH  21  22
ATOM     22  C   UNL A   1      32.873  20.635  23.932  1.00  0.00    -0.020 A 
ATOM     23  C   UNL A   1      32.137  19.711  23.171  1.00  0.00     0.008 A 
ATOM     24  C   UNL A   1      33.953  20.154  24.695  1.00  0.00    -0.044 A 
ATOM     25  C   UNL A   1      32.511  18.363  23.094  1.00  0.00     0.001 A 
ATOM     26  C   UNL A   1      34.333  18.803  24.597  1.00  0.00     0.004 A 
ATOM     27  C   UNL A   1      34.747  21.067  25.585  1.00  0.00     0.045 C 
ATOM     28  C   UNL A   1      33.623  17.913  23.794  1.00  0.00     0.000 A 
ENDBRANCH  21  22
ENDBRANCH  10  16
ENDBRANCH   3   5
ENDBRANCH   2   3
ENDBRANCH   1   2
BRANCH   1  29
ATOM     29  C   UNL A   1      34.376  30.000  27.013  1.00  0.00     0.275 C 
BRANCH  29  30
ATOM     30  O   UNL A   1      35.667  30.579  27.306  1.00  0.00    -0.458 OA
BRANCH  30  31
ATOM     31  C   UNL A   1      36.086  30.674  28.583  1.00  0.00     0.338 C 
ATOM     32  O   UNL A   1      35.504  31.343  29.424  1.00  0.00    -0.246 OA
BRANCH  31  33
ATOM     33  C   UNL A   1      37.333  29.916  28.805  1.00  0.00     0.060 A 
ATOM     34  C   UNL A   1      37.394  28.923  29.794  1.00  0.00     0.016 A 
ATOM     35  C   UNL A   1      38.370  30.065  27.887  1.00  0.00     0.016 A 
ATOM     36  C   UNL A   1      38.431  28.023  29.853  1.00  0.00     0.010 A 
ATOM     37  C   UNL A   1      39.359  29.123  27.866  1.00  0.00     0.010 A 
ATOM     38  C   UNL A   1      39.399  28.157  28.884  1.00  0.00    -0.014 A 
BRANCH  38  39
ATOM     39  C   UNL A   1      40.686  27.549  29.061  1.00  0.00     0.031 A 
ATOM     40  C   UNL A   1      40.874  26.175  28.582  1.00  0.00     0.074 A 
ATOM     41  C   UNL A   1      41.541  28.483  29.539  1.00  0.00     0.049 A 
ATOM     42  N   UNL A   1      41.699  25.341  29.102  1.00  0.00    -0.248 NA
ATOM     43  C   UNL A   1      40.051  25.553  27.534  1.00  0.00     0.031 C 
ATOM     44  C   UNL A   1      42.978  28.612  29.482  1.00  0.00     0.029 A 
ATOM     45  N   UNL A   1      41.144  29.615  30.286  1.00  0.00    -0.354 N 
ATOM     46  C   UNL A   1      41.866  24.349  28.158  1.00  0.00     0.074 A 
ATOM     47  C   UNL A   1      40.676  24.380  27.350  1.00  0.00     0.031 C 
ATOM     48  C   UNL A   1      43.366  29.550  30.371  1.00  0.00     0.029 A 
ATOM     49  C   UNL A   1      42.196  29.984  31.121  1.00  0.00     0.049 A 
ATOM     50  H   UNL A   1      40.270  30.066  30.227  1.00  0.00     0.167 HD
ATOM     51  C   UNL A   1      43.123  23.852  27.972  1.00  0.00     0.037 A 
ATOM     52  C   UNL A   1      42.019  29.827  32.468  1.00  0.00     0.037 A 
ATOM     53  C   UNL A   1      44.043  24.569  28.852  1.00  0.00     0.049 A 
ATOM     54  C   UNL A   1      42.753  28.596  32.943  1.00  0.00     0.074 A 
ATOM     55  C   UNL A   1      44.811  25.701  28.628  1.00  0.00     0.029 A 
ATOM     56  N   UNL A   1      43.890  24.465  30.229  1.00  0.00    -0.354 N 
ATOM     57  N   UNL A   1      43.027  27.559  32.197  1.00  0.00    -0.248 NA
ATOM     58  C   UNL A   1      43.323  28.508  34.278  1.00  0.00     0.031 C 
ATOM     59  C   UNL A   1      45.103  26.289  29.886  1.00  0.00     0.029 A 
ATOM     60  C   UNL A   1      44.470  25.546  30.868  1.00  0.00     0.049 A 
ATOM     61  H   UNL A   1      43.432  23.723  30.687  1.00  0.00     0.167 HD
ATOM     62  C   UNL A   1      43.888  26.737  32.874  1.00  0.00     0.074 A 
ATOM     63  C   UNL A   1      44.033  27.373  34.174  1.00  0.00     0.031 C 
ATOM     64  C   UNL A   1      44.467  25.629  32.317  1.00  0.00     0.037 A 
BRANCH  51  65
ATOM     65  C   UNL A   1      43.580  23.032  26.791  1.00  0.00     0.064 A 
ATOM     66  C   UNL A   1      43.233  21.665  26.685  1.00  0.00     0.173 A 
ATOM     67  C   UNL A   1      44.330  23.540  25.714  1.00  0.00     0.173 A 
ATOM     68  F   UNL A   1      42.494  21.052  27.618  1.00  0.00    -0.203 F 
ATOM     69  C   UNL A   1      43.631  20.864  25.613  1.00  0.00     0.198 A 
ATOM     70  C   UNL A   1      44.750  22.728  24.650  1.00  0.00     0.198 A 
ATOM     71  F   UNL A   1      44.644  24.842  25.643  1.00  0.00    -0.203 F 
ATOM     72  F   UNL A   1      43.261  19.576  25.575  1.00  0.00    -0.200 F 
ATOM     73  C   UNL A   1      44.398  21.392  24.599  1.00  0.00     0.200 A 
ATOM     74  F   UNL A   1      45.492  23.253  23.662  1.00  0.00    -0.200 F 
ATOM     75  F   UNL A   1      44.781  20.623  23.571  1.00  0.00    -0.200 F 
ENDBRANCH  51  65
BRANCH  52  76
ATOM     76  C   UNL A   1      40.654  30.250  32.907  1.00  0.00     0.064 A 
ATOM     77  C   UNL A   1      40.239  31.566  32.595  1.00  0.00     0.173 A 
ATOM     78  C   UNL A   1      39.658  29.310  33.163  1.00  0.00     0.173 A 
ATOM     79  F   UNL A   1      41.156  32.523  32.387  1.00  0.00    -0.203 F 
ATOM     80  C   UNL A   1      38.902  31.871  32.347  1.00  0.00     0.198 A 
ATOM     81  C   UNL A   1      38.329  29.627  32.913  1.00  0.00     0.198 A 
ATOM     82  F   UNL A   1      39.963  28.050  33.501  1.00  0.00    -0.203 F 
ATOM     83  F   UNL A   1      38.554  33.090  31.909  1.00  0.00    -0.200 F 
ATOM     84  C   UNL A   1      37.953  30.879  32.451  1.00  0.00     0.200 A 
ATOM     85  F   UNL A   1      37.425  28.653  32.985  1.00  0.00    -0.200 F 
ATOM     86  F   UNL A   1      36.689  31.114  32.071  1.00  0.00    -0.200 F 
ENDBRANCH  52  76
BRANCH  64  87
ATOM     87  C   UNL A   1      45.217  24.558  33.070  1.00  0.00     0.064 A 
ATOM     88  C   UNL A   1      46.514  24.723  33.572  1.00  0.00     0.173 A 
ATOM     89  C   UNL A   1      44.572  23.347  33.440  1.00  0.00     0.173 A 
ATOM     90  F   UNL A   1      47.173  25.881  33.453  1.00  0.00    -0.203 F 
ATOM     91  C   UNL A   1      47.160  23.712  34.282  1.00  0.00     0.198 A 
ATOM     92  C   UNL A   1      45.182  22.390  34.239  1.00  0.00     0.198 A 
ATOM     93  F   UNL A   1      43.316  23.061  33.065  1.00  0.00    -0.203 F 
ATOM     94  F   UNL A   1      48.436  23.884  34.655  1.00  0.00    -0.200 F 
ATOM     95  C   UNL A   1      46.491  22.555  34.629  1.00  0.00     0.200 A 
ATOM     96  F   UNL A   1      44.485  21.317  34.638  1.00  0.00    -0.200 F 
ATOM     97  F   UNL A   1      47.099  21.611  35.359  1.00  0.00    -0.200 F 
ENDBRANCH  64  87
ENDBRANCH  38  39
ENDBRANCH  31  33
ENDBRANCH  30  31
ENDBRANCH  29  30
ENDBRANCH   1  29
TORSDOF 14
ENDMDL
