MODEL 1
REMARK VINA RESULT:     -13.6      0.000      0.000
REMARK SMILES CS(=O)(=O)c1ccc(C2=NN(c3ccc(C(=O)OCCOC(=O)c4ccc(-c5c6nc(c(-c7c(F)c(F)c(F)c(F)c7F)c7ccc([nH]7)c(-c7c(F)c(F)c(F)c(F)c7F)c7nc(c(-c8c(F)c(F)c(F)c(F)c8F)c8ccc5[nH]8)C=C7)C=C6)cc4)cc3)[C@H](c3ccc(Cl)cc3)C2)cc1
REMARK SMILES IDX 19 1 18 2 16 3 17 4 15 5 12 6 13 7 88 8 14 9 87 10 11 11
REMARK SMILES IDX 9 12 10 13 97 14 89 15 8 16 5 17 6 18 99 19 7 20 98 21 2 22
REMARK SMILES IDX 1 23 3 24 4 25 90 26 91 27 96 28 92 29 95 30 93 31 94 32
REMARK SMILES IDX 20 33 21 34 22 35 23 36 24 37 25 38 86 39 26 40 85 41 27 42
REMARK SMILES IDX 28 43 29 44 79 45 30 46 84 47 78 48 80 49 31 50 83 51 77 52
REMARK SMILES IDX 76 53 32 55 64 56 44 57 63 58 45 59 48 60 62 61 81 62 46 63
REMARK SMILES IDX 47 64 61 66 82 67 49 68 33 69 34 70 42 71 35 72 36 73 40 74
REMARK SMILES IDX 43 75 37 76 38 77 41 78 39 79 65 80 66 81 74 82 67 83 68 84
REMARK SMILES IDX 72 85 75 86 69 87 70 88 73 89 71 90 50 91 51 92 59 93 52 94
REMARK SMILES IDX 53 95 57 96 60 97 54 98 55 99 58 100 56 101
REMARK H PARENT 80 54 48 65
REMARK Flexibility Score: inf
ROOT
ATOM      1  C   UNL A   1      38.223  20.587  25.328  1.00  0.00     0.275 C 
ENDROOT
BRANCH   1   2
ATOM      2  O   UNL A   1      38.532  21.510  26.391  1.00  0.00    -0.458 OA
BRANCH   2   3
ATOM      3  C   UNL A   1      38.536  22.820  26.049  1.00  0.00     0.338 C 
ATOM      4  O   UNL A   1      39.485  23.586  26.121  1.00  0.00    -0.246 OA
BRANCH   3   5
ATOM      5  C   UNL A   1      37.230  23.226  25.472  1.00  0.00     0.060 A 
ATOM      6  C   UNL A   1      34.675  23.897  24.513  1.00  0.00     0.060 A 
ATOM      7  C   UNL A   1      34.966  24.001  25.876  1.00  0.00     0.029 A 
ATOM      8  C   UNL A   1      35.692  23.508  23.631  1.00  0.00     0.029 A 
ATOM      9  C   UNL A   1      36.220  23.635  26.356  1.00  0.00     0.018 A 
ATOM     10  C   UNL A   1      36.969  23.180  24.101  1.00  0.00     0.018 A 
BRANCH   6  11
ATOM     11  N   UNL A   1      33.359  24.024  24.052  1.00  0.00    -0.257 N 
ATOM     12  C   UNL A   1      31.660  25.309  23.886  1.00  0.00     0.071 C 
ATOM     13  N   UNL A   1      32.929  25.241  23.619  1.00  0.00    -0.176 NA
ATOM     14  C   UNL A   1      31.086  24.150  24.651  1.00  0.00     0.091 C 
ATOM     15  C   UNL A   1      32.326  23.260  24.770  1.00  0.00     0.144 C 
BRANCH  12  16
ATOM     16  C   UNL A   1      30.812  26.432  23.450  1.00  0.00    -0.002 A 
ATOM     17  C   UNL A   1      29.168  28.575  22.774  1.00  0.00     0.067 A 
ATOM     18  C   UNL A   1      28.640  27.502  23.498  1.00  0.00     0.021 A 
ATOM     19  C   UNL A   1      30.509  28.579  22.378  1.00  0.00     0.021 A 
ATOM     20  C   UNL A   1      29.461  26.421  23.820  1.00  0.00     0.011 A 
ATOM     21  C   UNL A   1      31.337  27.506  22.724  1.00  0.00     0.011 A 
BRANCH  17  22
ATOM     22  S   UNL A   1      28.129  29.975  22.422  1.00  0.00     0.175 S 
ATOM     23  C   UNL A   1      29.002  31.358  23.106  1.00  0.00     0.163 C 
ATOM     24  O   UNL A   1      26.903  29.811  23.179  1.00  0.00    -0.224 OA
ATOM     25  O   UNL A   1      28.102  30.117  20.979  1.00  0.00    -0.224 OA
ENDBRANCH  17  22
ENDBRANCH  12  16
BRANCH  15  26
ATOM     26  C   UNL A   1      32.260  21.847  24.209  1.00  0.00    -0.023 A 
ATOM     27  C   UNL A   1      32.086  21.570  22.845  1.00  0.00     0.007 A 
ATOM     28  C   UNL A   1      32.505  20.769  25.082  1.00  0.00     0.007 A 
ATOM     29  C   UNL A   1      32.151  20.254  22.372  1.00  0.00     0.021 A 
ATOM     30  C   UNL A   1      32.596  19.459  24.608  1.00  0.00     0.021 A 
ATOM     31  C   UNL A   1      32.417  19.207  23.253  1.00  0.00     0.041 A 
ATOM     32  Cl  UNL A   1      32.554  17.600  22.658  1.00  0.00    -0.084 Cl
ENDBRANCH  15  26
ENDBRANCH   6  11
ENDBRANCH   3   5
ENDBRANCH   2   3
ENDBRANCH   1   2
BRANCH   1  33
ATOM     33  C   UNL A   1      39.159  19.380  25.374  1.00  0.00     0.275 C 
BRANCH  33  34
ATOM     34  O   UNL A   1      40.072  19.513  26.479  1.00  0.00    -0.458 OA
BRANCH  34  35
ATOM     35  C   UNL A   1      41.383  19.367  26.183  1.00  0.00     0.338 C 
ATOM     36  O   UNL A   1      41.949  18.378  25.754  1.00  0.00    -0.246 OA
BRANCH  35  37
ATOM     37  C   UNL A   1      42.087  20.633  26.442  1.00  0.00     0.060 A 
ATOM     38  C   UNL A   1      42.292  21.038  27.758  1.00  0.00     0.016 A 
ATOM     39  C   UNL A   1      42.424  21.481  25.390  1.00  0.00     0.016 A 
ATOM     40  C   UNL A   1      42.766  22.318  28.036  1.00  0.00     0.010 A 
ATOM     41  C   UNL A   1      42.978  22.737  25.667  1.00  0.00     0.010 A 
ATOM     42  C   UNL A   1      43.123  23.185  26.994  1.00  0.00    -0.014 A 
BRANCH  42  43
ATOM     43  C   UNL A   1      43.590  24.569  27.289  1.00  0.00     0.031 A 
ATOM     44  C   UNL A   1      42.646  25.567  27.908  1.00  0.00     0.074 A 
ATOM     45  C   UNL A   1      44.859  24.939  27.028  1.00  0.00     0.049 A 
ATOM     46  N   UNL A   1      42.793  26.858  28.079  1.00  0.00    -0.248 NA
ATOM     47  C   UNL A   1      41.357  25.045  28.393  1.00  0.00     0.031 C 
ATOM     48  C   UNL A   1      45.900  24.069  26.479  1.00  0.00     0.029 A 
ATOM     49  N   UNL A   1      45.493  26.148  27.194  1.00  0.00    -0.354 N 
ATOM     50  C   UNL A   1      41.602  27.307  28.634  1.00  0.00     0.074 A 
ATOM     51  C   UNL A   1      40.739  26.153  28.774  1.00  0.00     0.031 C 
ATOM     52  C   UNL A   1      47.048  24.759  26.385  1.00  0.00     0.029 A 
ATOM     53  C   UNL A   1      46.806  26.141  26.785  1.00  0.00     0.049 A 
ATOM     54  H   UNL A   1      45.050  26.941  27.570  1.00  0.00     0.167 HD
ATOM     55  C   UNL A   1      41.260  28.568  28.995  1.00  0.00     0.037 A 
ATOM     56  C   UNL A   1      47.702  27.142  26.697  1.00  0.00     0.037 A 
ATOM     57  C   UNL A   1      42.139  29.706  28.912  1.00  0.00     0.049 A 
ATOM     58  C   UNL A   1      47.289  28.538  27.077  1.00  0.00     0.074 A 
ATOM     59  C   UNL A   1      41.884  31.021  29.260  1.00  0.00     0.029 A 
ATOM     60  N   UNL A   1      43.452  29.658  28.468  1.00  0.00    -0.354 N 
ATOM     61  N   UNL A   1      46.140  28.962  27.541  1.00  0.00    -0.248 NA
ATOM     62  C   UNL A   1      48.292  29.597  26.899  1.00  0.00     0.031 C 
ATOM     63  C   UNL A   1      43.033  31.776  29.000  1.00  0.00     0.029 A 
ATOM     64  C   UNL A   1      44.017  30.922  28.528  1.00  0.00     0.049 A 
ATOM     65  H   UNL A   1      43.913  28.846  28.157  1.00  0.00     0.167 HD
ATOM     66  C   UNL A   1      46.284  30.332  27.721  1.00  0.00     0.074 A 
ATOM     67  C   UNL A   1      47.641  30.664  27.340  1.00  0.00     0.031 C 
ATOM     68  C   UNL A   1      45.371  31.234  28.153  1.00  0.00     0.037 A 
BRANCH  55  69
ATOM     69  C   UNL A   1      39.863  28.798  29.492  1.00  0.00     0.064 A 
ATOM     70  C   UNL A   1      39.530  28.684  30.850  1.00  0.00     0.173 A 
ATOM     71  C   UNL A   1      38.854  29.193  28.599  1.00  0.00     0.173 A 
ATOM     72  F   UNL A   1      40.456  28.300  31.741  1.00  0.00    -0.203 F 
ATOM     73  C   UNL A   1      38.235  28.940  31.293  1.00  0.00     0.198 A 
ATOM     74  C   UNL A   1      37.567  29.473  29.049  1.00  0.00     0.198 A 
ATOM     75  F   UNL A   1      39.122  29.324  27.291  1.00  0.00    -0.203 F 
ATOM     76  F   UNL A   1      37.931  28.794  32.589  1.00  0.00    -0.200 F 
ATOM     77  C   UNL A   1      37.257  29.343  30.394  1.00  0.00     0.200 A 
ATOM     78  F   UNL A   1      36.627  29.875  28.182  1.00  0.00    -0.200 F 
ATOM     79  F   UNL A   1      36.015  29.601  30.825  1.00  0.00    -0.200 F 
ENDBRANCH  55  69
BRANCH  56  80
ATOM     80  C   UNL A   1      49.073  26.872  26.187  1.00  0.00     0.064 A 
ATOM     81  C   UNL A   1      49.373  26.991  24.824  1.00  0.00     0.173 A 
ATOM     82  C   UNL A   1      50.106  26.474  27.050  1.00  0.00     0.173 A 
ATOM     83  F   UNL A   1      48.412  27.340  23.955  1.00  0.00    -0.203 F 
ATOM     84  C   UNL A   1      50.650  26.712  24.340  1.00  0.00     0.198 A 
ATOM     85  C   UNL A   1      51.389  26.226  26.571  1.00  0.00     0.198 A 
ATOM     86  F   UNL A   1      49.869  26.338  28.363  1.00  0.00    -0.203 F 
ATOM     87  F   UNL A   1      50.898  26.790  23.026  1.00  0.00    -0.200 F 
ATOM     88  C   UNL A   1      51.659  26.337  25.216  1.00  0.00     0.200 A 
ATOM     89  F   UNL A   1      52.364  25.877  27.422  1.00  0.00    -0.200 F 
ATOM     90  F   UNL A   1      52.888  26.074  24.751  1.00  0.00    -0.200 F 
ENDBRANCH  56  80
BRANCH  68  91
ATOM     91  C   UNL A   1      45.821  32.660  28.268  1.00  0.00     0.064 A 
ATOM     92  C   UNL A   1      45.669  33.564  27.207  1.00  0.00     0.173 A 
ATOM     93  C   UNL A   1      46.383  33.134  29.463  1.00  0.00     0.173 A 
ATOM     94  F   UNL A   1      45.151  33.154  26.039  1.00  0.00    -0.203 F 
ATOM     95  C   UNL A   1      46.086  34.887  27.329  1.00  0.00     0.198 A 
ATOM     96  C   UNL A   1      46.777  34.463  29.590  1.00  0.00     0.198 A 
ATOM     97  F   UNL A   1      46.545  32.308  30.508  1.00  0.00    -0.203 F 
ATOM     98  F   UNL A   1      45.974  35.722  26.287  1.00  0.00    -0.200 F 
ATOM     99  C   UNL A   1      46.636  35.336  28.522  1.00  0.00     0.200 A 
ATOM    100  F   UNL A   1      47.298  34.898  30.745  1.00  0.00    -0.200 F 
ATOM    101  F   UNL A   1      47.035  36.610  28.638  1.00  0.00    -0.200 F 
ENDBRANCH  68  91
ENDBRANCH  42  43
ENDBRANCH  35  37
ENDBRANCH  34  35
ENDBRANCH  33  34
ENDBRANCH   1  33
TORSDOF 15
ENDMDL
MODEL 2
REMARK VINA RESULT:     -13.4      3.841      9.145
REMARK SMILES CS(=O)(=O)c1ccc(C2=NN(c3ccc(C(=O)OCCOC(=O)c4ccc(-c5c6nc(c(-c7c(F)c(F)c(F)c(F)c7F)c7ccc([nH]7)c(-c7c(F)c(F)c(F)c(F)c7F)c7nc(c(-c8c(F)c(F)c(F)c(F)c8F)c8ccc5[nH]8)C=C7)C=C6)cc4)cc3)[C@H](c3ccc(Cl)cc3)C2)cc1
REMARK SMILES IDX 19 1 18 2 16 3 17 4 15 5 12 6 13 7 88 8 14 9 87 10 11 11
REMARK SMILES IDX 9 12 10 13 97 14 89 15 8 16 5 17 6 18 99 19 7 20 98 21 2 22
REMARK SMILES IDX 1 23 3 24 4 25 90 26 91 27 96 28 92 29 95 30 93 31 94 32
REMARK SMILES IDX 20 33 21 34 22 35 23 36 24 37 25 38 86 39 26 40 85 41 27 42
REMARK SMILES IDX 28 43 29 44 79 45 30 46 84 47 78 48 80 49 31 50 83 51 77 52
REMARK SMILES IDX 76 53 32 55 64 56 44 57 63 58 45 59 48 60 62 61 81 62 46 63
REMARK SMILES IDX 47 64 61 66 82 67 49 68 33 69 34 70 42 71 35 72 36 73 40 74
REMARK SMILES IDX 43 75 37 76 38 77 41 78 39 79 65 80 66 81 74 82 67 83 68 84
REMARK SMILES IDX 72 85 75 86 69 87 70 88 73 89 71 90 50 91 51 92 59 93 52 94
REMARK SMILES IDX 53 95 57 96 60 97 54 98 55 99 58 100 56 101
REMARK H PARENT 80 54 48 65
REMARK Flexibility Score: inf
ROOT
ATOM      1  C   UNL A   1      34.372  33.270  29.521  1.00  0.00     0.275 C 
ENDROOT
BRANCH   1   2
ATOM      2  O   UNL A   1      34.005  31.964  29.034  1.00  0.00    -0.458 OA
BRANCH   2   3
ATOM      3  C   UNL A   1      34.537  31.613  27.839  1.00  0.00     0.338 C 
ATOM      4  O   UNL A   1      35.443  32.185  27.251  1.00  0.00    -0.246 OA
BRANCH   3   5
ATOM      5  C   UNL A   1      33.935  30.354  27.334  1.00  0.00     0.060 A 
ATOM      6  C   UNL A   1      32.917  27.973  26.241  1.00  0.00     0.060 A 
ATOM      7  C   UNL A   1      34.295  28.140  26.407  1.00  0.00     0.029 A 
ATOM      8  C   UNL A   1      32.054  28.987  26.680  1.00  0.00     0.029 A 
ATOM      9  C   UNL A   1      34.801  29.333  26.915  1.00  0.00     0.018 A 
ATOM     10  C   UNL A   1      32.554  30.171  27.233  1.00  0.00     0.018 A 
BRANCH   6  11
ATOM     11  N   UNL A   1      32.411  26.891  25.511  1.00  0.00    -0.257 N 
ATOM     12  C   UNL A   1      32.755  24.888  24.852  1.00  0.00     0.071 C 
ATOM     13  N   UNL A   1      32.710  25.626  25.918  1.00  0.00    -0.176 NA
ATOM     14  C   UNL A   1      32.591  25.610  23.544  1.00  0.00     0.091 C 
ATOM     15  C   UNL A   1      32.367  27.038  24.047  1.00  0.00     0.144 C 
BRANCH  12  16
ATOM     16  C   UNL A   1      32.928  23.425  24.900  1.00  0.00    -0.002 A 
ATOM     17  C   UNL A   1      33.172  20.653  24.858  1.00  0.00     0.067 A 
ATOM     18  C   UNL A   1      31.902  21.233  24.796  1.00  0.00     0.021 A 
ATOM     19  C   UNL A   1      34.319  21.447  24.951  1.00  0.00     0.021 A 
ATOM     20  C   UNL A   1      31.782  22.623  24.835  1.00  0.00     0.011 A 
ATOM     21  C   UNL A   1      34.196  22.841  24.964  1.00  0.00     0.011 A 
BRANCH  17  22
ATOM     22  S   UNL A   1      33.319  18.883  24.747  1.00  0.00     0.175 S 
ATOM     23  C   UNL A   1      32.528  18.468  23.216  1.00  0.00     0.163 C 
ATOM     24  O   UNL A   1      32.528  18.310  25.819  1.00  0.00    -0.224 OA
ATOM     25  O   UNL A   1      34.735  18.593  24.626  1.00  0.00    -0.224 OA
ENDBRANCH  17  22
ENDBRANCH  12  16
BRANCH  15  26
ATOM     26  C   UNL A   1      31.084  27.753  23.649  1.00  0.00    -0.023 A 
ATOM     27  C   UNL A   1      29.814  27.169  23.759  1.00  0.00     0.007 A 
ATOM     28  C   UNL A   1      31.164  29.107  23.266  1.00  0.00     0.007 A 
ATOM     29  C   UNL A   1      28.661  27.916  23.489  1.00  0.00     0.021 A 
ATOM     30  C   UNL A   1      30.013  29.860  23.023  1.00  0.00     0.021 A 
ATOM     31  C   UNL A   1      28.765  29.258  23.134  1.00  0.00     0.041 A 
ATOM     32  Cl  UNL A   1      27.344  30.187  22.862  1.00  0.00    -0.084 Cl
ENDBRANCH  15  26
ENDBRANCH   6  11
ENDBRANCH   3   5
ENDBRANCH   2   3
ENDBRANCH   1   2
BRANCH   1  33
ATOM     33  C   UNL A   1      34.370  33.294  31.048  1.00  0.00     0.275 C 
BRANCH  33  34
ATOM     34  O   UNL A   1      34.742  32.000  31.558  1.00  0.00    -0.458 OA
BRANCH  34  35
ATOM     35  C   UNL A   1      35.832  31.970  32.357  1.00  0.00     0.338 C 
ATOM     36  O   UNL A   1      35.943  32.403  33.490  1.00  0.00    -0.246 OA
BRANCH  35  37
ATOM     37  C   UNL A   1      36.935  31.294  31.655  1.00  0.00     0.060 A 
ATOM     38  C   UNL A   1      37.892  30.608  32.396  1.00  0.00     0.016 A 
ATOM     39  C   UNL A   1      37.096  31.451  30.280  1.00  0.00     0.016 A 
ATOM     40  C   UNL A   1      39.052  30.135  31.786  1.00  0.00     0.010 A 
ATOM     41  C   UNL A   1      38.222  30.905  29.652  1.00  0.00     0.010 A 
ATOM     42  C   UNL A   1      39.231  30.271  30.402  1.00  0.00    -0.014 A 
BRANCH  42  43
ATOM     43  C   UNL A   1      40.490  29.805  29.754  1.00  0.00     0.031 A 
ATOM     44  C   UNL A   1      41.650  30.752  29.594  1.00  0.00     0.074 A 
ATOM     45  C   UNL A   1      40.615  28.533  29.326  1.00  0.00     0.049 A 
ATOM     46  N   UNL A   1      42.757  30.604  28.908  1.00  0.00    -0.248 NA
ATOM     47  C   UNL A   1      41.549  32.044  30.292  1.00  0.00     0.031 C 
ATOM     48  C   UNL A   1      39.598  27.489  29.461  1.00  0.00     0.029 A 
ATOM     49  N   UNL A   1      41.657  27.899  28.691  1.00  0.00    -0.354 N 
ATOM     50  C   UNL A   1      43.452  31.799  29.044  1.00  0.00     0.074 A 
ATOM     51  C   UNL A   1      42.646  32.664  29.879  1.00  0.00     0.031 C 
ATOM     52  C   UNL A   1      40.076  26.340  28.957  1.00  0.00     0.029 A 
ATOM     53  C   UNL A   1      41.397  26.583  28.387  1.00  0.00     0.049 A 
ATOM     54  H   UNL A   1      42.507  28.344  28.475  1.00  0.00     0.167 HD
ATOM     55  C   UNL A   1      44.654  32.143  28.521  1.00  0.00     0.037 A 
ATOM     56  C   UNL A   1      42.118  25.685  27.690  1.00  0.00     0.037 A 
ATOM     57  C   UNL A   1      45.485  31.262  27.740  1.00  0.00     0.049 A 
ATOM     58  C   UNL A   1      43.437  26.100  27.095  1.00  0.00     0.074 A 
ATOM     59  C   UNL A   1      46.720  31.518  27.173  1.00  0.00     0.029 A 
ATOM     60  N   UNL A   1      45.170  29.946  27.436  1.00  0.00    -0.354 N 
ATOM     61  N   UNL A   1      44.055  27.252  27.177  1.00  0.00    -0.248 NA
ATOM     62  C   UNL A   1      44.146  25.094  26.292  1.00  0.00     0.031 C 
ATOM     63  C   UNL A   1      47.143  30.366  26.500  1.00  0.00     0.029 A 
ATOM     64  C   UNL A   1      46.187  29.380  26.683  1.00  0.00     0.049 A 
ATOM     65  H   UNL A   1      44.347  29.483  27.713  1.00  0.00     0.167 HD
ATOM     66  C   UNL A   1      45.228  27.107  26.448  1.00  0.00     0.074 A 
ATOM     67  C   UNL A   1      45.248  25.748  25.952  1.00  0.00     0.031 C 
ATOM     68  C   UNL A   1      46.196  28.023  26.204  1.00  0.00     0.037 A 
BRANCH  55  69
ATOM     69  C   UNL A   1      45.142  33.543  28.751  1.00  0.00     0.064 A 
ATOM     70  C   UNL A   1      44.805  34.597  27.890  1.00  0.00     0.173 A 
ATOM     71  C   UNL A   1      45.915  33.842  29.884  1.00  0.00     0.173 A 
ATOM     72  F   UNL A   1      44.077  34.362  26.788  1.00  0.00    -0.203 F 
ATOM     73  C   UNL A   1      45.238  35.895  28.145  1.00  0.00     0.198 A 
ATOM     74  C   UNL A   1      46.325  35.145  30.150  1.00  0.00     0.198 A 
ATOM     75  F   UNL A   1      46.259  32.870  30.744  1.00  0.00    -0.203 F 
ATOM     76  F   UNL A   1      44.932  36.882  27.291  1.00  0.00    -0.200 F 
ATOM     77  C   UNL A   1      45.990  36.170  29.279  1.00  0.00     0.200 A 
ATOM     78  F   UNL A   1      47.039  35.411  31.253  1.00  0.00    -0.200 F 
ATOM     79  F   UNL A   1      46.395  37.423  29.528  1.00  0.00    -0.200 F 
ENDBRANCH  55  69
BRANCH  56  80
ATOM     80  C   UNL A   1      41.591  24.311  27.476  1.00  0.00     0.064 A 
ATOM     81  C   UNL A   1      42.207  23.201  28.067  1.00  0.00     0.173 A 
ATOM     82  C   UNL A   1      40.469  24.080  26.665  1.00  0.00     0.173 A 
ATOM     83  F   UNL A   1      43.300  23.367  28.827  1.00  0.00    -0.203 F 
ATOM     84  C   UNL A   1      41.730  21.910  27.847  1.00  0.00     0.198 A 
ATOM     85  C   UNL A   1      39.973  22.794  26.471  1.00  0.00     0.198 A 
ATOM     86  F   UNL A   1      39.846  25.109  26.071  1.00  0.00    -0.203 F 
ATOM     87  F   UNL A   1      42.366  20.862  28.386  1.00  0.00    -0.200 F 
ATOM     88  C   UNL A   1      40.609  21.708  27.055  1.00  0.00     0.200 A 
ATOM     89  F   UNL A   1      38.883  22.605  25.716  1.00  0.00    -0.200 F 
ATOM     90  F   UNL A   1      40.147  20.468  26.848  1.00  0.00    -0.200 F 
ENDBRANCH  56  80
BRANCH  68  91
ATOM     91  C   UNL A   1      47.372  27.573  25.390  1.00  0.00     0.064 A 
ATOM     92  C   UNL A   1      48.473  26.937  25.982  1.00  0.00     0.173 A 
ATOM     93  C   UNL A   1      47.384  27.753  23.998  1.00  0.00     0.173 A 
ATOM     94  F   UNL A   1      48.514  26.757  27.311  1.00  0.00    -0.203 F 
ATOM     95  C   UNL A   1      49.556  26.520  25.213  1.00  0.00     0.198 A 
ATOM     96  C   UNL A   1      48.457  27.312  23.229  1.00  0.00     0.198 A 
ATOM     97  F   UNL A   1      46.352  28.351  23.385  1.00  0.00    -0.203 F 
ATOM     98  F   UNL A   1      50.618  25.956  25.805  1.00  0.00    -0.200 F 
ATOM     99  C   UNL A   1      49.545  26.703  23.838  1.00  0.00     0.200 A 
ATOM    100  F   UNL A   1      48.442  27.481  21.901  1.00  0.00    -0.200 F 
ATOM    101  F   UNL A   1      50.588  26.298  23.099  1.00  0.00    -0.200 F 
ENDBRANCH  68  91
ENDBRANCH  42  43
ENDBRANCH  35  37
ENDBRANCH  34  35
ENDBRANCH  33  34
ENDBRANCH   1  33
TORSDOF 15
ENDMDL
MODEL 3
REMARK VINA RESULT:     -13.4      0.634      7.027
REMARK SMILES CS(=O)(=O)c1ccc(C2=NN(c3ccc(C(=O)OCCOC(=O)c4ccc(-c5c6nc(c(-c7c(F)c(F)c(F)c(F)c7F)c7ccc([nH]7)c(-c7c(F)c(F)c(F)c(F)c7F)c7nc(c(-c8c(F)c(F)c(F)c(F)c8F)c8ccc5[nH]8)C=C7)C=C6)cc4)cc3)[C@H](c3ccc(Cl)cc3)C2)cc1
REMARK SMILES IDX 19 1 18 2 16 3 17 4 15 5 12 6 13 7 88 8 14 9 87 10 11 11
REMARK SMILES IDX 9 12 10 13 97 14 89 15 8 16 5 17 6 18 99 19 7 20 98 21 2 22
REMARK SMILES IDX 1 23 3 24 4 25 90 26 91 27 96 28 92 29 95 30 93 31 94 32
REMARK SMILES IDX 20 33 21 34 22 35 23 36 24 37 25 38 86 39 26 40 85 41 27 42
REMARK SMILES IDX 28 43 29 44 79 45 30 46 84 47 78 48 80 49 31 50 83 51 77 52
REMARK SMILES IDX 76 53 32 55 64 56 44 57 63 58 45 59 48 60 62 61 81 62 46 63
REMARK SMILES IDX 47 64 61 66 82 67 49 68 33 69 34 70 42 71 35 72 36 73 40 74
REMARK SMILES IDX 43 75 37 76 38 77 41 78 39 79 65 80 66 81 74 82 67 83 68 84
REMARK SMILES IDX 72 85 75 86 69 87 70 88 73 89 71 90 50 91 51 92 59 93 52 94
REMARK SMILES IDX 53 95 57 96 60 97 54 98 55 99 58 100 56 101
REMARK H PARENT 80 54 48 65
REMARK Flexibility Score: inf
ROOT
ATOM      1  C   UNL A   1      38.848  20.520  25.219  1.00  0.00     0.275 C 
ENDROOT
BRANCH   1   2
ATOM      2  O   UNL A   1      38.546  21.413  26.309  1.00  0.00    -0.458 OA
BRANCH   2   3
ATOM      3  C   UNL A   1      38.523  22.731  25.998  1.00  0.00     0.338 C 
ATOM      4  O   UNL A   1      39.450  23.519  26.107  1.00  0.00    -0.246 OA
BRANCH   3   5
ATOM      5  C   UNL A   1      37.218  23.118  25.405  1.00  0.00     0.060 A 
ATOM      6  C   UNL A   1      34.666  23.778  24.432  1.00  0.00     0.060 A 
ATOM      7  C   UNL A   1      35.012  24.068  25.755  1.00  0.00     0.029 A 
ATOM      8  C   UNL A   1      35.629  23.206  23.589  1.00  0.00     0.029 A 
ATOM      9  C   UNL A   1      36.264  23.709  26.247  1.00  0.00     0.018 A 
ATOM     10  C   UNL A   1      36.905  22.883  24.066  1.00  0.00     0.018 A 
BRANCH   6  11
ATOM     11  N   UNL A   1      33.342  23.907  23.995  1.00  0.00    -0.257 N 
ATOM     12  C   UNL A   1      31.638  25.190  23.875  1.00  0.00     0.071 C 
ATOM     13  N   UNL A   1      32.901  25.128  23.585  1.00  0.00    -0.176 NA
ATOM     14  C   UNL A   1      31.079  24.021  24.636  1.00  0.00     0.091 C 
ATOM     15  C   UNL A   1      32.323  23.132  24.723  1.00  0.00     0.144 C 
BRANCH  12  16
ATOM     16  C   UNL A   1      30.779  26.315  23.466  1.00  0.00    -0.002 A 
ATOM     17  C   UNL A   1      29.123  28.465  22.845  1.00  0.00     0.067 A 
ATOM     18  C   UNL A   1      28.618  27.401  23.599  1.00  0.00     0.021 A 
ATOM     19  C   UNL A   1      30.446  28.456  22.392  1.00  0.00     0.021 A 
ATOM     20  C   UNL A   1      29.445  26.316  23.893  1.00  0.00     0.011 A 
ATOM     21  C   UNL A   1      31.280  27.380  22.711  1.00  0.00     0.011 A 
BRANCH  17  22
ATOM     22  S   UNL A   1      28.079  29.870  22.526  1.00  0.00     0.175 S 
ATOM     23  C   UNL A   1      28.853  31.204  23.399  1.00  0.00     0.163 C 
ATOM     24  O   UNL A   1      26.799  29.615  23.159  1.00  0.00    -0.224 OA
ATOM     25  O   UNL A   1      28.169  30.137  21.104  1.00  0.00    -0.224 OA
ENDBRANCH  17  22
ENDBRANCH  12  16
BRANCH  15  26
ATOM     26  C   UNL A   1      32.250  21.726  24.147  1.00  0.00    -0.023 A 
ATOM     27  C   UNL A   1      32.072  21.463  22.781  1.00  0.00     0.007 A 
ATOM     28  C   UNL A   1      32.494  20.637  25.009  1.00  0.00     0.007 A 
ATOM     29  C   UNL A   1      32.131  20.152  22.295  1.00  0.00     0.021 A 
ATOM     30  C   UNL A   1      32.579  19.332  24.520  1.00  0.00     0.021 A 
ATOM     31  C   UNL A   1      32.395  19.096  23.163  1.00  0.00     0.041 A 
ATOM     32  Cl  UNL A   1      32.525  17.494  22.551  1.00  0.00    -0.084 Cl
ENDBRANCH  15  26
ENDBRANCH   6  11
ENDBRANCH   3   5
ENDBRANCH   2   3
ENDBRANCH   1   2
BRANCH   1  33
ATOM     33  C   UNL A   1      39.431  19.209  25.743  1.00  0.00     0.275 C 
BRANCH  33  34
ATOM     34  O   UNL A   1      40.434  19.484  26.737  1.00  0.00    -0.458 OA
BRANCH  34  35
ATOM     35  C   UNL A   1      41.711  19.524  26.293  1.00  0.00     0.338 C 
ATOM     36  O   UNL A   1      42.354  18.627  25.778  1.00  0.00    -0.246 OA
BRANCH  35  37
ATOM     37  C   UNL A   1      42.260  20.873  26.506  1.00  0.00     0.060 A 
ATOM     38  C   UNL A   1      42.362  21.367  27.804  1.00  0.00     0.016 A 
ATOM     39  C   UNL A   1      42.550  21.696  25.421  1.00  0.00     0.016 A 
ATOM     40  C   UNL A   1      42.681  22.704  28.026  1.00  0.00     0.010 A 
ATOM     41  C   UNL A   1      42.951  23.018  25.647  1.00  0.00     0.010 A 
ATOM     42  C   UNL A   1      42.988  23.549  26.950  1.00  0.00    -0.014 A 
BRANCH  42  43
ATOM     43  C   UNL A   1      43.288  24.990  27.183  1.00  0.00     0.031 A 
ATOM     44  C   UNL A   1      44.626  25.556  26.783  1.00  0.00     0.074 A 
ATOM     45  C   UNL A   1      42.366  25.807  27.731  1.00  0.00     0.049 A 
ATOM     46  N   UNL A   1      45.150  26.725  27.056  1.00  0.00    -0.248 NA
ATOM     47  C   UNL A   1      45.496  24.686  25.975  1.00  0.00     0.031 C 
ATOM     48  C   UNL A   1      41.010  25.415  28.119  1.00  0.00     0.029 A 
ATOM     49  N   UNL A   1      42.428  27.142  28.052  1.00  0.00    -0.354 N 
ATOM     50  C   UNL A   1      46.425  26.709  26.505  1.00  0.00     0.074 A 
ATOM     51  C   UNL A   1      46.599  25.414  25.881  1.00  0.00     0.031 C 
ATOM     52  C   UNL A   1      40.359  26.488  28.594  1.00  0.00     0.029 A 
ATOM     53  C   UNL A   1      41.274  27.624  28.625  1.00  0.00     0.049 A 
ATOM     54  H   UNL A   1      43.222  27.699  27.888  1.00  0.00     0.167 HD
ATOM     55  C   UNL A   1      47.365  27.685  26.518  1.00  0.00     0.037 A 
ATOM     56  C   UNL A   1      40.997  28.830  29.156  1.00  0.00     0.037 A 
ATOM     57  C   UNL A   1      47.171  28.995  27.087  1.00  0.00     0.049 A 
ATOM     58  C   UNL A   1      42.067  29.888  29.185  1.00  0.00     0.074 A 
ATOM     59  C   UNL A   1      48.062  30.052  27.142  1.00  0.00     0.029 A 
ATOM     60  N   UNL A   1      45.996  29.431  27.679  1.00  0.00    -0.354 N 
ATOM     61  N   UNL A   1      43.290  29.839  28.717  1.00  0.00    -0.248 NA
ATOM     62  C   UNL A   1      41.723  31.160  29.834  1.00  0.00     0.031 C 
ATOM     63  C   UNL A   1      47.437  31.120  27.794  1.00  0.00     0.029 A 
ATOM     64  C   UNL A   1      46.142  30.741  28.107  1.00  0.00     0.049 A 
ATOM     65  H   UNL A   1      45.180  28.891  27.779  1.00  0.00     0.167 HD
ATOM     66  C   UNL A   1      43.857  31.074  29.006  1.00  0.00     0.074 A 
ATOM     67  C   UNL A   1      42.836  31.860  29.666  1.00  0.00     0.031 C 
ATOM     68  C   UNL A   1      45.114  31.512  28.755  1.00  0.00     0.037 A 
BRANCH  55  69
ATOM     69  C   UNL A   1      48.706  27.373  25.922  1.00  0.00     0.064 A 
ATOM     70  C   UNL A   1      49.793  26.971  26.711  1.00  0.00     0.173 A 
ATOM     71  C   UNL A   1      48.887  27.425  24.531  1.00  0.00     0.173 A 
ATOM     72  F   UNL A   1      49.675  26.915  28.046  1.00  0.00    -0.203 F 
ATOM     73  C   UNL A   1      51.018  26.649  26.131  1.00  0.00     0.198 A 
ATOM     74  C   UNL A   1      50.105  27.078  23.952  1.00  0.00     0.198 A 
ATOM     75  F   UNL A   1      47.876  27.796  23.731  1.00  0.00    -0.203 F 
ATOM     76  F   UNL A   1      52.053  26.298  26.906  1.00  0.00    -0.200 F 
ATOM     77  C   UNL A   1      51.170  26.694  24.752  1.00  0.00     0.200 A 
ATOM     78  F   UNL A   1      50.246  27.108  22.620  1.00  0.00    -0.200 F 
ATOM     79  F   UNL A   1      52.346  26.372  24.195  1.00  0.00    -0.200 F 
ENDBRANCH  55  69
BRANCH  56  80
ATOM     80  C   UNL A   1      39.658  29.093  29.747  1.00  0.00     0.064 A 
ATOM     81  C   UNL A   1      39.388  28.787  31.087  1.00  0.00     0.173 A 
ATOM     82  C   UNL A   1      38.618  29.640  28.981  1.00  0.00     0.173 A 
ATOM     83  F   UNL A   1      40.341  28.235  31.854  1.00  0.00    -0.203 F 
ATOM     84  C   UNL A   1      38.126  29.007  31.636  1.00  0.00     0.198 A 
ATOM     85  C   UNL A   1      37.367  29.890  29.538  1.00  0.00     0.198 A 
ATOM     86  F   UNL A   1      38.823  29.945  27.691  1.00  0.00    -0.203 F 
ATOM     87  F   UNL A   1      37.881  28.663  32.908  1.00  0.00    -0.200 F 
ATOM     88  C   UNL A   1      37.119  29.566  30.863  1.00  0.00     0.200 A 
ATOM     89  F   UNL A   1      36.401  30.441  28.791  1.00  0.00    -0.200 F 
ATOM     90  F   UNL A   1      35.907  29.783  31.393  1.00  0.00    -0.200 F 
ENDBRANCH  56  80
BRANCH  68  91
ATOM     91  C   UNL A   1      45.443  32.916  29.168  1.00  0.00     0.064 A 
ATOM     92  C   UNL A   1      45.998  33.200  30.424  1.00  0.00     0.173 A 
ATOM     93  C   UNL A   1      45.226  33.985  28.284  1.00  0.00     0.173 A 
ATOM     94  F   UNL A   1      46.208  32.213  31.307  1.00  0.00    -0.203 F 
ATOM     95  C   UNL A   1      46.303  34.508  30.790  1.00  0.00     0.198 A 
ATOM     96  C   UNL A   1      45.555  35.288  28.645  1.00  0.00     0.198 A 
ATOM     97  F   UNL A   1      44.701  33.763  27.070  1.00  0.00    -0.203 F 
ATOM     98  F   UNL A   1      46.790  34.762  32.013  1.00  0.00    -0.200 F 
ATOM     99  C   UNL A   1      46.086  35.550  29.900  1.00  0.00     0.200 A 
ATOM    100  F   UNL A   1      45.354  36.292  27.782  1.00  0.00    -0.200 F 
ATOM    101  F   UNL A   1      46.382  36.808  30.255  1.00  0.00    -0.200 F 
ENDBRANCH  68  91
ENDBRANCH  42  43
ENDBRANCH  35  37
ENDBRANCH  34  35
ENDBRANCH  33  34
ENDBRANCH   1  33
TORSDOF 15
ENDMDL
