MODEL 1
REMARK VINA RESULT:     -11.0      0.000      0.000
REMARK SMILES COCc1cc(SCC(=O)OCCOC(=O)c2ccc(-c3c4nc(c(-c5c(F)c(F)c(F)c(F)c5F)c5ccc([nH]5)c(-c5c(F)c(F)c(F)c(F)c5F)c5nc(c(-c6c(F)c(F)c(F)c(F)c6F)c6ccc3[nH]6)C=C5)C=C4)cc2)nc(-c2cccnc2)n1
REMARK SMILES IDX 12 1 11 2 9 3 10 4 8 5 7 6 6 7 4 8 5 9 88 10 81 11 80 12
REMARK SMILES IDX 3 13 2 14 1 15 82 16 83 17 87 18 84 19 86 20 85 21 13 22
REMARK SMILES IDX 14 23 15 24 16 25 17 26 18 27 79 28 19 29 78 30 20 31 21 32
REMARK SMILES IDX 22 33 72 34 23 35 77 36 71 37 73 38 24 39 76 40 70 41 69 42
REMARK SMILES IDX 25 44 57 45 37 46 56 47 38 48 41 49 55 50 74 51 39 52 40 53
REMARK SMILES IDX 54 55 75 56 42 57 26 58 27 59 35 60 28 61 29 62 33 63 36 64
REMARK SMILES IDX 30 65 31 66 34 67 32 68 58 69 59 70 67 71 60 72 61 73 65 74
REMARK SMILES IDX 68 75 62 76 63 77 66 78 64 79 43 80 44 81 52 82 45 83 46 84
REMARK SMILES IDX 50 85 53 86 47 87 48 88 51 89 49 90
REMARK H PARENT 73 43 41 54
REMARK Flexibility Score: inf
ROOT
ATOM      1  C   UNL A   1      35.122  20.436  25.007  1.00  0.00     0.274 C 
ENDROOT
BRANCH   1   2
ATOM      2  O   UNL A   1      34.182  21.322  24.366  1.00  0.00    -0.461 OA
BRANCH   2   3
ATOM      3  C   UNL A   1      32.917  21.314  24.860  1.00  0.00     0.316 C 
ATOM      4  O   UNL A   1      32.251  20.295  25.026  1.00  0.00    -0.251 OA
BRANCH   3   5
ATOM      5  C   UNL A   1      32.375  22.672  25.251  1.00  0.00     0.199 C 
BRANCH   5   6
ATOM      6  S   UNL A   1      33.494  23.707  26.240  1.00  0.00    -0.094 SA
BRANCH   6   7
ATOM      7  C   UNL A   1      33.578  25.242  25.335  1.00  0.00     0.101 A 
ATOM      8  C   UNL A   1      33.469  26.615  23.422  1.00  0.00     0.071 A 
ATOM      9  C   UNL A   1      33.430  25.343  23.966  1.00  0.00     0.062 A 
ATOM     10  N   UNL A   1      33.630  27.706  24.187  1.00  0.00    -0.230 NA
ATOM     11  C   UNL A   1      33.754  27.517  25.506  1.00  0.00     0.162 A 
ATOM     12  N   UNL A   1      33.758  26.324  26.116  1.00  0.00    -0.222 NA
BRANCH   8  13
ATOM     13  C   UNL A   1      33.397  26.816  21.925  1.00  0.00     0.215 C 
BRANCH  13  14
ATOM     14  O   UNL A   1      33.449  25.616  21.148  1.00  0.00    -0.378 OA
ATOM     15  C   UNL A   1      32.456  25.592  20.130  1.00  0.00     0.195 C 
ENDBRANCH  13  14
ENDBRANCH   8  13
BRANCH  11  16
ATOM     16  C   UNL A   1      33.850  28.719  26.314  1.00  0.00     0.038 A 
ATOM     17  C   UNL A   1      34.932  28.974  27.161  1.00  0.00     0.015 A 
ATOM     18  C   UNL A   1      32.874  29.710  26.224  1.00  0.00     0.123 A 
ATOM     19  C   UNL A   1      35.003  30.182  27.851  1.00  0.00     0.021 A 
ATOM     20  N   UNL A   1      32.903  30.887  26.897  1.00  0.00    -0.264 NA
ATOM     21  C   UNL A   1      33.973  31.096  27.690  1.00  0.00     0.111 A 
ENDBRANCH  11  16
ENDBRANCH   6   7
ENDBRANCH   5   6
ENDBRANCH   3   5
ENDBRANCH   2   3
ENDBRANCH   1   2
BRANCH   1  22
ATOM     22  C   UNL A   1      36.558  20.852  24.707  1.00  0.00     0.275 C 
BRANCH  22  23
ATOM     23  O   UNL A   1      37.123  21.534  25.843  1.00  0.00    -0.458 OA
BRANCH  23  24
ATOM     24  C   UNL A   1      38.459  21.400  25.987  1.00  0.00     0.338 C 
ATOM     25  O   UNL A   1      39.141  20.433  25.695  1.00  0.00    -0.246 OA
BRANCH  24  26
ATOM     26  C   UNL A   1      39.065  22.639  26.511  1.00  0.00     0.060 A 
ATOM     27  C   UNL A   1      38.604  23.897  26.110  1.00  0.00     0.016 A 
ATOM     28  C   UNL A   1      40.239  22.528  27.263  1.00  0.00     0.016 A 
ATOM     29  C   UNL A   1      39.347  25.038  26.420  1.00  0.00     0.010 A 
ATOM     30  C   UNL A   1      40.951  23.675  27.619  1.00  0.00     0.010 A 
ATOM     31  C   UNL A   1      40.524  24.938  27.183  1.00  0.00    -0.014 A 
BRANCH  31  32
ATOM     32  C   UNL A   1      41.265  26.155  27.597  1.00  0.00     0.031 A 
ATOM     33  C   UNL A   1      40.600  27.259  28.369  1.00  0.00     0.074 A 
ATOM     34  C   UNL A   1      42.555  26.275  27.231  1.00  0.00     0.049 A 
ATOM     35  N   UNL A   1      41.099  28.403  28.767  1.00  0.00    -0.248 NA
ATOM     36  C   UNL A   1      39.197  27.052  28.751  1.00  0.00     0.031 C 
ATOM     37  C   UNL A   1      43.313  25.276  26.476  1.00  0.00     0.029 A 
ATOM     38  N   UNL A   1      43.450  27.294  27.435  1.00  0.00    -0.354 N 
ATOM     39  C   UNL A   1      40.079  29.043  29.458  1.00  0.00     0.074 A 
ATOM     40  C   UNL A   1      38.924  28.172  29.409  1.00  0.00     0.031 C 
ATOM     41  C   UNL A   1      44.559  25.731  26.278  1.00  0.00     0.029 A 
ATOM     42  C   UNL A   1      44.673  27.068  26.854  1.00  0.00     0.049 A 
ATOM     43  H   UNL A   1      43.237  28.107  27.946  1.00  0.00     0.167 HD
ATOM     44  C   UNL A   1      40.104  30.250  30.075  1.00  0.00     0.037 A 
ATOM     45  C   UNL A   1      45.757  27.858  26.766  1.00  0.00     0.037 A 
ATOM     46  C   UNL A   1      41.238  31.136  30.097  1.00  0.00     0.049 A 
ATOM     47  C   UNL A   1      45.731  29.223  27.387  1.00  0.00     0.074 A 
ATOM     48  C   UNL A   1      41.358  32.372  30.711  1.00  0.00     0.029 A 
ATOM     49  N   UNL A   1      42.443  30.889  29.459  1.00  0.00    -0.354 N 
ATOM     50  N   UNL A   1      44.769  29.805  28.059  1.00  0.00    -0.248 NA
ATOM     51  C   UNL A   1      46.940  30.043  27.230  1.00  0.00     0.031 C 
ATOM     52  C   UNL A   1      42.625  32.888  30.415  1.00  0.00     0.029 A 
ATOM     53  C   UNL A   1      43.304  31.960  29.642  1.00  0.00     0.049 A 
ATOM     54  H   UNL A   1      42.657  30.073  28.952  1.00  0.00     0.167 HD
ATOM     55  C   UNL A   1      45.254  31.054  28.410  1.00  0.00     0.074 A 
ATOM     56  C   UNL A   1      46.604  31.142  27.890  1.00  0.00     0.031 C 
ATOM     57  C   UNL A   1      44.635  32.041  29.102  1.00  0.00     0.037 A 
BRANCH  44  58
ATOM     58  C   UNL A   1      38.859  30.697  30.776  1.00  0.00     0.064 A 
ATOM     59  C   UNL A   1      38.692  30.499  32.155  1.00  0.00     0.173 A 
ATOM     60  C   UNL A   1      37.860  31.397  30.084  1.00  0.00     0.173 A 
ATOM     61  F   UNL A   1      39.619  29.831  32.857  1.00  0.00    -0.203 F 
ATOM     62  C   UNL A   1      37.566  30.986  32.815  1.00  0.00     0.198 A 
ATOM     63  C   UNL A   1      36.743  31.894  30.749  1.00  0.00     0.198 A 
ATOM     64  F   UNL A   1      37.980  31.615  28.765  1.00  0.00    -0.203 F 
ATOM     65  F   UNL A   1      37.422  30.782  34.130  1.00  0.00    -0.200 F 
ATOM     66  C   UNL A   1      36.597  31.689  32.113  1.00  0.00     0.200 A 
ATOM     67  F   UNL A   1      35.812  32.581  30.073  1.00  0.00    -0.200 F 
ATOM     68  F   UNL A   1      35.522  32.172  32.753  1.00  0.00    -0.200 F 
ENDBRANCH  44  58
BRANCH  45  69
ATOM     69  C   UNL A   1      46.951  27.370  26.037  1.00  0.00     0.064 A 
ATOM     70  C   UNL A   1      47.082  27.571  24.658  1.00  0.00     0.173 A 
ATOM     71  C   UNL A   1      47.999  26.731  26.715  1.00  0.00     0.173 A 
ATOM     72  F   UNL A   1      46.094  28.161  23.970  1.00  0.00    -0.203 F 
ATOM     73  C   UNL A   1      48.224  27.151  23.982  1.00  0.00     0.198 A 
ATOM     74  C   UNL A   1      49.149  26.330  26.041  1.00  0.00     0.198 A 
ATOM     75  F   UNL A   1      47.915  26.522  28.037  1.00  0.00    -0.203 F 
ATOM     76  F   UNL A   1      48.323  27.338  22.658  1.00  0.00    -0.200 F 
ATOM     77  C   UNL A   1      49.259  26.539  24.674  1.00  0.00     0.200 A 
ATOM     78  F   UNL A   1      50.151  25.752  26.715  1.00  0.00    -0.200 F 
ATOM     79  F   UNL A   1      50.364  26.149  24.024  1.00  0.00    -0.200 F 
ENDBRANCH  45  69
BRANCH  57  80
ATOM     80  C   UNL A   1      45.415  33.298  29.332  1.00  0.00     0.064 A 
ATOM     81  C   UNL A   1      45.337  34.375  28.437  1.00  0.00     0.173 A 
ATOM     82  C   UNL A   1      46.239  33.432  30.459  1.00  0.00     0.173 A 
ATOM     83  F   UNL A   1      44.576  34.283  27.336  1.00  0.00    -0.203 F 
ATOM     84  C   UNL A   1      46.073  35.536  28.653  1.00  0.00     0.198 A 
ATOM     85  C   UNL A   1      46.961  34.601  30.680  1.00  0.00     0.198 A 
ATOM     86  F   UNL A   1      46.345  32.427  31.341  1.00  0.00    -0.203 F 
ATOM     87  F   UNL A   1      46.015  36.539  27.765  1.00  0.00    -0.200 F 
ATOM     88  C   UNL A   1      46.882  35.649  29.775  1.00  0.00     0.200 A 
ATOM     89  F   UNL A   1      47.739  34.711  31.764  1.00  0.00    -0.200 F 
ATOM     90  F   UNL A   1      47.594  36.766  29.977  1.00  0.00    -0.200 F 
ENDBRANCH  57  80
ENDBRANCH  31  32
ENDBRANCH  24  26
ENDBRANCH  23  24
ENDBRANCH  22  23
ENDBRANCH   1  22
TORSDOF 16
ENDMDL
MODEL 2
REMARK VINA RESULT:     -10.8      5.127     10.280
REMARK SMILES COCc1cc(SCC(=O)OCCOC(=O)c2ccc(-c3c4nc(c(-c5c(F)c(F)c(F)c(F)c5F)c5ccc([nH]5)c(-c5c(F)c(F)c(F)c(F)c5F)c5nc(c(-c6c(F)c(F)c(F)c(F)c6F)c6ccc3[nH]6)C=C5)C=C4)cc2)nc(-c2cccnc2)n1
REMARK SMILES IDX 12 1 11 2 9 3 10 4 8 5 7 6 6 7 4 8 5 9 88 10 81 11 80 12
REMARK SMILES IDX 3 13 2 14 1 15 82 16 83 17 87 18 84 19 86 20 85 21 13 22
REMARK SMILES IDX 14 23 15 24 16 25 17 26 18 27 79 28 19 29 78 30 20 31 21 32
REMARK SMILES IDX 22 33 72 34 23 35 77 36 71 37 73 38 24 39 76 40 70 41 69 42
REMARK SMILES IDX 25 44 57 45 37 46 56 47 38 48 41 49 55 50 74 51 39 52 40 53
REMARK SMILES IDX 54 55 75 56 42 57 26 58 27 59 35 60 28 61 29 62 33 63 36 64
REMARK SMILES IDX 30 65 31 66 34 67 32 68 58 69 59 70 67 71 60 72 61 73 65 74
REMARK SMILES IDX 68 75 62 76 63 77 66 78 64 79 43 80 44 81 52 82 45 83 46 84
REMARK SMILES IDX 50 85 53 86 47 87 48 88 51 89 49 90
REMARK H PARENT 73 43 41 54
REMARK Flexibility Score: inf
ROOT
ATOM      1  C   UNL A   1      32.494  32.023  27.355  1.00  0.00     0.274 C 
ENDROOT
BRANCH   1   2
ATOM      2  O   UNL A   1      33.753  31.448  27.759  1.00  0.00    -0.461 OA
BRANCH   2   3
ATOM      3  C   UNL A   1      34.041  30.220  27.257  1.00  0.00     0.316 C 
ATOM      4  O   UNL A   1      35.159  29.710  27.284  1.00  0.00    -0.251 OA
BRANCH   3   5
ATOM      5  C   UNL A   1      32.856  29.469  26.688  1.00  0.00     0.199 C 
BRANCH   5   6
ATOM      6  S   UNL A   1      33.106  27.686  26.435  1.00  0.00    -0.094 SA
BRANCH   6   7
ATOM      7  C   UNL A   1      32.482  27.391  24.791  1.00  0.00     0.101 A 
ATOM      8  C   UNL A   1      32.301  26.250  22.736  1.00  0.00     0.071 A 
ATOM      9  C   UNL A   1      32.925  26.378  23.964  1.00  0.00     0.062 A 
ATOM     10  N   UNL A   1      31.298  27.061  22.366  1.00  0.00    -0.230 NA
ATOM     11  C   UNL A   1      30.923  28.008  23.234  1.00  0.00     0.162 A 
ATOM     12  N   UNL A   1      31.489  28.225  24.429  1.00  0.00    -0.222 NA
BRANCH   8  13
ATOM     13  C   UNL A   1      32.775  25.222  21.733  1.00  0.00     0.215 C 
BRANCH  13  14
ATOM     14  O   UNL A   1      33.258  25.757  20.498  1.00  0.00    -0.378 OA
ATOM     15  C   UNL A   1      32.453  25.366  19.392  1.00  0.00     0.195 C 
ENDBRANCH  13  14
ENDBRANCH   8  13
BRANCH  11  16
ATOM     16  C   UNL A   1      29.788  28.821  22.837  1.00  0.00     0.038 A 
ATOM     17  C   UNL A   1      28.476  28.520  23.215  1.00  0.00     0.015 A 
ATOM     18  C   UNL A   1      29.978  29.988  22.100  1.00  0.00     0.123 A 
ATOM     19  C   UNL A   1      27.439  29.383  22.867  1.00  0.00     0.021 A 
ATOM     20  N   UNL A   1      28.989  30.838  21.728  1.00  0.00    -0.264 NA
ATOM     21  C   UNL A   1      27.742  30.516  22.129  1.00  0.00     0.111 A 
ENDBRANCH  11  16
ENDBRANCH   6   7
ENDBRANCH   5   6
ENDBRANCH   3   5
ENDBRANCH   2   3
ENDBRANCH   1   2
BRANCH   1  22
ATOM     22  C   UNL A   1      32.595  33.540  27.245  1.00  0.00     0.275 C 
BRANCH  22  23
ATOM     23  O   UNL A   1      32.274  34.150  28.509  1.00  0.00    -0.458 OA
BRANCH  23  24
ATOM     24  C   UNL A   1      33.086  35.164  28.880  1.00  0.00     0.338 C 
ATOM     25  O   UNL A   1      32.886  36.358  28.743  1.00  0.00    -0.246 OA
BRANCH  24  26
ATOM     26  C   UNL A   1      34.291  34.658  29.565  1.00  0.00     0.060 A 
ATOM     27  C   UNL A   1      35.559  34.789  28.991  1.00  0.00     0.016 A 
ATOM     28  C   UNL A   1      34.114  33.868  30.705  1.00  0.00     0.016 A 
ATOM     29  C   UNL A   1      36.640  34.089  29.531  1.00  0.00     0.010 A 
ATOM     30  C   UNL A   1      35.207  33.212  31.276  1.00  0.00     0.010 A 
ATOM     31  C   UNL A   1      36.474  33.299  30.683  1.00  0.00    -0.014 A 
BRANCH  31  32
ATOM     32  C   UNL A   1      37.637  32.630  31.316  1.00  0.00     0.031 A 
ATOM     33  C   UNL A   1      38.332  31.469  30.661  1.00  0.00     0.074 A 
ATOM     34  C   UNL A   1      38.045  33.059  32.525  1.00  0.00     0.049 A 
ATOM     35  N   UNL A   1      39.334  30.751  31.105  1.00  0.00    -0.248 NA
ATOM     36  C   UNL A   1      37.847  31.066  29.335  1.00  0.00     0.031 C 
ATOM     37  C   UNL A   1      37.451  34.172  33.267  1.00  0.00     0.029 A 
ATOM     38  N   UNL A   1      39.045  32.604  33.345  1.00  0.00    -0.354 N 
ATOM     39  C   UNL A   1      39.608  29.824  30.108  1.00  0.00     0.074 A 
ATOM     40  C   UNL A   1      38.655  30.055  29.043  1.00  0.00     0.031 C 
ATOM     41  C   UNL A   1      38.096  34.313  34.434  1.00  0.00     0.029 A 
ATOM     42  C   UNL A   1      39.118  33.275  34.539  1.00  0.00     0.049 A 
ATOM     43  H   UNL A   1      39.651  31.867  33.101  1.00  0.00     0.167 HD
ATOM     44  C   UNL A   1      40.567  28.867  30.085  1.00  0.00     0.037 A 
ATOM     45  C   UNL A   1      39.898  33.064  35.613  1.00  0.00     0.037 A 
ATOM     46  C   UNL A   1      41.495  28.609  31.156  1.00  0.00     0.049 A 
ATOM     47  C   UNL A   1      40.896  31.945  35.595  1.00  0.00     0.074 A 
ATOM     48  C   UNL A   1      42.510  27.669  31.213  1.00  0.00     0.029 A 
ATOM     49  N   UNL A   1      41.506  29.283  32.367  1.00  0.00    -0.354 N 
ATOM     50  N   UNL A   1      41.162  31.093  34.637  1.00  0.00    -0.248 NA
ATOM     51  C   UNL A   1      41.697  31.754  36.813  1.00  0.00     0.031 C 
ATOM     52  C   UNL A   1      43.114  27.751  32.473  1.00  0.00     0.029 A 
ATOM     53  C   UNL A   1      42.494  28.763  33.189  1.00  0.00     0.049 A 
ATOM     54  H   UNL A   1      40.904  30.023  32.607  1.00  0.00     0.167 HD
ATOM     55  C   UNL A   1      42.162  30.269  35.129  1.00  0.00     0.074 A 
ATOM     56  C   UNL A   1      42.467  30.732  36.467  1.00  0.00     0.031 C 
ATOM     57  C   UNL A   1      42.771  29.220  34.524  1.00  0.00     0.037 A 
BRANCH  44  58
ATOM     58  C   UNL A   1      40.662  28.008  28.862  1.00  0.00     0.064 A 
ATOM     59  C   UNL A   1      39.914  26.826  28.745  1.00  0.00     0.173 A 
ATOM     60  C   UNL A   1      41.441  28.408  27.767  1.00  0.00     0.173 A 
ATOM     61  F   UNL A   1      39.158  26.403  29.769  1.00  0.00    -0.203 F 
ATOM     62  C   UNL A   1      39.948  26.074  27.574  1.00  0.00     0.198 A 
ATOM     63  C   UNL A   1      41.461  27.659  26.593  1.00  0.00     0.198 A 
ATOM     64  F   UNL A   1      42.167  29.534  27.831  1.00  0.00    -0.203 F 
ATOM     65  F   UNL A   1      39.232  24.945  27.485  1.00  0.00    -0.200 F 
ATOM     66  C   UNL A   1      40.715  26.494  26.497  1.00  0.00     0.200 A 
ATOM     67  F   UNL A   1      42.195  28.071  25.550  1.00  0.00    -0.200 F 
ATOM     68  F   UNL A   1      40.733  25.777  25.364  1.00  0.00    -0.200 F 
ENDBRANCH  44  58
BRANCH  45  69
ATOM     69  C   UNL A   1      39.740  33.931  36.804  1.00  0.00     0.064 A 
ATOM     70  C   UNL A   1      38.924  33.542  37.873  1.00  0.00     0.173 A 
ATOM     71  C   UNL A   1      40.435  35.144  36.911  1.00  0.00     0.173 A 
ATOM     72  F   UNL A   1      38.228  32.398  37.802  1.00  0.00    -0.203 F 
ATOM     73  C   UNL A   1      38.811  34.336  39.010  1.00  0.00     0.198 A 
ATOM     74  C   UNL A   1      40.337  35.928  38.057  1.00  0.00     0.198 A 
ATOM     75  F   UNL A   1      41.230  35.552  35.910  1.00  0.00    -0.203 F 
ATOM     76  F   UNL A   1      38.011  33.954  40.015  1.00  0.00    -0.200 F 
ATOM     77  C   UNL A   1      39.523  35.523  39.105  1.00  0.00     0.200 A 
ATOM     78  F   UNL A   1      41.036  37.066  38.150  1.00  0.00    -0.200 F 
ATOM     79  F   UNL A   1      39.425  36.280  40.207  1.00  0.00    -0.200 F 
ENDBRANCH  45  69
BRANCH  57  80
ATOM     80  C   UNL A   1      43.827  28.507  35.310  1.00  0.00     0.064 A 
ATOM     81  C   UNL A   1      45.175  28.883  35.224  1.00  0.00     0.173 A 
ATOM     82  C   UNL A   1      43.488  27.447  36.163  1.00  0.00     0.173 A 
ATOM     83  F   UNL A   1      45.546  29.879  34.406  1.00  0.00    -0.203 F 
ATOM     84  C   UNL A   1      46.151  28.208  35.951  1.00  0.00     0.198 A 
ATOM     85  C   UNL A   1      44.465  26.786  36.902  1.00  0.00     0.198 A 
ATOM     86  F   UNL A   1      42.211  27.052  36.277  1.00  0.00    -0.203 F 
ATOM     87  F   UNL A   1      47.439  28.557  35.825  1.00  0.00    -0.200 F 
ATOM     88  C   UNL A   1      45.795  27.163  36.791  1.00  0.00     0.200 A 
ATOM     89  F   UNL A   1      44.121  25.777  37.714  1.00  0.00    -0.200 F 
ATOM     90  F   UNL A   1      46.738  26.511  37.485  1.00  0.00    -0.200 F 
ENDBRANCH  57  80
ENDBRANCH  31  32
ENDBRANCH  24  26
ENDBRANCH  23  24
ENDBRANCH  22  23
ENDBRANCH   1  22
TORSDOF 16
ENDMDL
MODEL 3
REMARK VINA RESULT:     -10.8      4.986      8.304
REMARK SMILES COCc1cc(SCC(=O)OCCOC(=O)c2ccc(-c3c4nc(c(-c5c(F)c(F)c(F)c(F)c5F)c5ccc([nH]5)c(-c5c(F)c(F)c(F)c(F)c5F)c5nc(c(-c6c(F)c(F)c(F)c(F)c6F)c6ccc3[nH]6)C=C5)C=C4)cc2)nc(-c2cccnc2)n1
REMARK SMILES IDX 12 1 11 2 9 3 10 4 8 5 7 6 6 7 4 8 5 9 88 10 81 11 80 12
REMARK SMILES IDX 3 13 2 14 1 15 82 16 83 17 87 18 84 19 86 20 85 21 13 22
REMARK SMILES IDX 14 23 15 24 16 25 17 26 18 27 79 28 19 29 78 30 20 31 21 32
REMARK SMILES IDX 22 33 72 34 23 35 77 36 71 37 73 38 24 39 76 40 70 41 69 42
REMARK SMILES IDX 25 44 57 45 37 46 56 47 38 48 41 49 55 50 74 51 39 52 40 53
REMARK SMILES IDX 54 55 75 56 42 57 26 58 27 59 35 60 28 61 29 62 33 63 36 64
REMARK SMILES IDX 30 65 31 66 34 67 32 68 58 69 59 70 67 71 60 72 61 73 65 74
REMARK SMILES IDX 68 75 62 76 63 77 66 78 64 79 43 80 44 81 52 82 45 83 46 84
REMARK SMILES IDX 50 85 53 86 47 87 48 88 51 89 49 90
REMARK H PARENT 73 43 41 54
REMARK Flexibility Score: inf
ROOT
ATOM      1  C   UNL A   1      32.414  32.159  27.305  1.00  0.00     0.274 C 
ENDROOT
BRANCH   1   2
ATOM      2  O   UNL A   1      33.655  31.551  27.715  1.00  0.00    -0.461 OA
BRANCH   2   3
ATOM      3  C   UNL A   1      33.876  30.284  27.279  1.00  0.00     0.316 C 
ATOM      4  O   UNL A   1      34.984  29.754  27.237  1.00  0.00    -0.251 OA
BRANCH   3   5
ATOM      5  C   UNL A   1      32.631  29.520  26.880  1.00  0.00     0.199 C 
BRANCH   5   6
ATOM      6  S   UNL A   1      32.850  27.731  26.649  1.00  0.00    -0.094 SA
BRANCH   6   7
ATOM      7  C   UNL A   1      32.354  27.449  24.959  1.00  0.00     0.101 A 
ATOM      8  C   UNL A   1      32.344  26.335  22.881  1.00  0.00     0.071 A 
ATOM      9  C   UNL A   1      32.874  26.456  24.153  1.00  0.00     0.062 A 
ATOM     10  N   UNL A   1      31.358  27.136  22.448  1.00  0.00    -0.230 NA
ATOM     11  C   UNL A   1      30.903  28.065  23.299  1.00  0.00     0.162 A 
ATOM     12  N   UNL A   1      31.377  28.272  24.536  1.00  0.00    -0.222 NA
BRANCH   8  13
ATOM     13  C   UNL A   1      32.908  25.331  21.902  1.00  0.00     0.215 C 
BRANCH  13  14
ATOM     14  O   UNL A   1      33.287  25.867  20.632  1.00  0.00    -0.378 OA
ATOM     15  C   UNL A   1      32.508  25.331  19.569  1.00  0.00     0.195 C 
ENDBRANCH  13  14
ENDBRANCH   8  13
BRANCH  11  16
ATOM     16  C   UNL A   1      29.787  28.864  22.831  1.00  0.00     0.038 A 
ATOM     17  C   UNL A   1      28.464  28.608  23.206  1.00  0.00     0.015 A 
ATOM     18  C   UNL A   1      30.006  29.977  22.021  1.00  0.00     0.123 A 
ATOM     19  C   UNL A   1      27.446  29.460  22.784  1.00  0.00     0.021 A 
ATOM     20  N   UNL A   1      29.036  30.814  21.577  1.00  0.00    -0.264 NA
ATOM     21  C   UNL A   1      27.779  30.537  21.977  1.00  0.00     0.111 A 
ENDBRANCH  11  16
ENDBRANCH   6   7
ENDBRANCH   5   6
ENDBRANCH   3   5
ENDBRANCH   2   3
ENDBRANCH   1   2
BRANCH   1  22
ATOM     22  C   UNL A   1      32.559  33.673  27.186  1.00  0.00     0.275 C 
BRANCH  22  23
ATOM     23  O   UNL A   1      32.245  34.299  28.444  1.00  0.00    -0.458 OA
BRANCH  23  24
ATOM     24  C   UNL A   1      33.117  35.250  28.845  1.00  0.00     0.338 C 
ATOM     25  O   UNL A   1      32.998  36.457  28.732  1.00  0.00    -0.246 OA
BRANCH  24  26
ATOM     26  C   UNL A   1      34.278  34.651  29.532  1.00  0.00     0.060 A 
ATOM     27  C   UNL A   1      35.562  34.729  28.984  1.00  0.00     0.016 A 
ATOM     28  C   UNL A   1      34.035  33.834  30.641  1.00  0.00     0.016 A 
ATOM     29  C   UNL A   1      36.590  33.948  29.517  1.00  0.00     0.010 A 
ATOM     30  C   UNL A   1      35.077  33.096  31.206  1.00  0.00     0.010 A 
ATOM     31  C   UNL A   1      36.358  33.131  30.638  1.00  0.00    -0.014 A 
BRANCH  31  32
ATOM     32  C   UNL A   1      37.469  32.374  31.266  1.00  0.00     0.031 A 
ATOM     33  C   UNL A   1      38.017  32.751  32.614  1.00  0.00     0.074 A 
ATOM     34  C   UNL A   1      38.013  31.349  30.585  1.00  0.00     0.049 A 
ATOM     35  N   UNL A   1      39.011  32.217  33.279  1.00  0.00    -0.248 NA
ATOM     36  C   UNL A   1      37.363  33.867  33.310  1.00  0.00     0.031 C 
ATOM     37  C   UNL A   1      37.575  30.887  29.267  1.00  0.00     0.029 A 
ATOM     38  N   UNL A   1      39.059  30.521  30.901  1.00  0.00    -0.354 N 
ATOM     39  C   UNL A   1      39.091  32.919  34.474  1.00  0.00     0.074 A 
ATOM     40  C   UNL A   1      38.058  33.933  34.438  1.00  0.00     0.031 C 
ATOM     41  C   UNL A   1      38.346  29.859  28.885  1.00  0.00     0.029 A 
ATOM     42  C   UNL A   1      39.358  29.619  29.911  1.00  0.00     0.049 A 
ATOM     43  H   UNL A   1      39.549  30.568  31.753  1.00  0.00     0.167 HD
ATOM     44  C   UNL A   1      39.949  32.734  35.506  1.00  0.00     0.037 A 
ATOM     45  C   UNL A   1      40.352  28.718  29.821  1.00  0.00     0.037 A 
ATOM     46  C   UNL A   1      41.000  31.751  35.534  1.00  0.00     0.049 A 
ATOM     47  C   UNL A   1      41.339  28.590  30.942  1.00  0.00     0.074 A 
ATOM     48  C   UNL A   1      41.908  31.482  36.545  1.00  0.00     0.029 A 
ATOM     49  N   UNL A   1      41.297  30.886  34.492  1.00  0.00    -0.354 N 
ATOM     50  N   UNL A   1      41.386  29.242  32.077  1.00  0.00    -0.248 NA
ATOM     51  C   UNL A   1      42.414  27.604  30.766  1.00  0.00     0.031 C 
ATOM     52  C   UNL A   1      42.776  30.479  36.101  1.00  0.00     0.029 A 
ATOM     53  C   UNL A   1      42.390  30.101  34.825  1.00  0.00     0.049 A 
ATOM     54  H   UNL A   1      40.803  30.835  33.642  1.00  0.00     0.167 HD
ATOM     55  C   UNL A   1      42.490  28.746  32.753  1.00  0.00     0.074 A 
ATOM     56  C   UNL A   1      43.077  27.725  31.908  1.00  0.00     0.031 C 
ATOM     57  C   UNL A   1      42.974  29.106  33.967  1.00  0.00     0.037 A 
BRANCH  44  58
ATOM     58  C   UNL A   1      39.799  33.625  36.701  1.00  0.00     0.064 A 
ATOM     59  C   UNL A   1      40.440  34.871  36.762  1.00  0.00     0.173 A 
ATOM     60  C   UNL A   1      38.946  33.268  37.756  1.00  0.00     0.173 A 
ATOM     61  F   UNL A   1      41.267  35.252  35.778  1.00  0.00    -0.203 F 
ATOM     62  C   UNL A   1      40.234  35.727  37.841  1.00  0.00     0.198 A 
ATOM     63  C   UNL A   1      38.733  34.132  38.826  1.00  0.00     0.198 A 
ATOM     64  F   UNL A   1      38.307  32.088  37.737  1.00  0.00    -0.203 F 
ATOM     65  F   UNL A   1      40.861  36.910  37.884  1.00  0.00    -0.200 F 
ATOM     66  C   UNL A   1      39.376  35.361  38.868  1.00  0.00     0.200 A 
ATOM     67  F   UNL A   1      37.897  33.781  39.813  1.00  0.00    -0.200 F 
ATOM     68  F   UNL A   1      39.166  36.193  39.898  1.00  0.00    -0.200 F 
ENDBRANCH  44  58
BRANCH  45  69
ATOM     69  C   UNL A   1      40.463  27.883  28.602  1.00  0.00     0.064 A 
ATOM     70  C   UNL A   1      41.214  28.314  27.502  1.00  0.00     0.173 A 
ATOM     71  C   UNL A   1      39.855  26.622  28.533  1.00  0.00     0.173 A 
ATOM     72  F   UNL A   1      41.796  29.522  27.520  1.00  0.00    -0.203 F 
ATOM     73  C   UNL A   1      41.355  27.510  26.375  1.00  0.00     0.198 A 
ATOM     74  C   UNL A   1      40.013  25.810  27.414  1.00  0.00     0.198 A 
ATOM     75  F   UNL A   1      39.129  26.169  29.566  1.00  0.00    -0.203 F 
ATOM     76  F   UNL A   1      42.064  27.949  25.326  1.00  0.00    -0.200 F 
ATOM     77  C   UNL A   1      40.762  26.256  26.335  1.00  0.00     0.200 A 
ATOM     78  F   UNL A   1      39.450  24.595  27.384  1.00  0.00    -0.200 F 
ATOM     79  F   UNL A   1      40.911  25.476  25.254  1.00  0.00    -0.200 F 
ENDBRANCH  45  69
BRANCH  57  80
ATOM     80  C   UNL A   1      44.197  28.389  34.446  1.00  0.00     0.064 A 
ATOM     81  C   UNL A   1      45.480  28.902  34.206  1.00  0.00     0.173 A 
ATOM     82  C   UNL A   1      44.087  27.187  35.159  1.00  0.00     0.173 A 
ATOM     83  F   UNL A   1      45.632  30.040  33.512  1.00  0.00    -0.203 F 
ATOM     84  C   UNL A   1      46.613  28.224  34.647  1.00  0.00     0.198 A 
ATOM     85  C   UNL A   1      45.222  26.520  35.613  1.00  0.00     0.198 A 
ATOM     86  F   UNL A   1      42.880  26.658  35.411  1.00  0.00    -0.203 F 
ATOM     87  F   UNL A   1      47.831  28.711  34.373  1.00  0.00    -0.200 F 
ATOM     88  C   UNL A   1      46.483  27.036  35.352  1.00  0.00     0.200 A 
ATOM     89  F   UNL A   1      45.096  25.374  36.295  1.00  0.00    -0.200 F 
ATOM     90  F   UNL A   1      47.575  26.383  35.770  1.00  0.00    -0.200 F 
ENDBRANCH  57  80
ENDBRANCH  31  32
ENDBRANCH  24  26
ENDBRANCH  23  24
ENDBRANCH  22  23
ENDBRANCH   1  22
TORSDOF 16
ENDMDL
