MODEL 1
REMARK VINA RESULT:     -12.3      0.000      0.000
REMARK SMILES Cc1ncccc1NC(=O)N1CCC(C(=O)OCCOC(=O)c2ccc(-c3c4nc(c(-c5c(F)c(F)c(F)c(F)c5F)c5ccc([nH]5)c(-c5c(F)c(F)c(F)c(F)c5F)c5nc(c(-c6c(F)c(F)c(F)c(F)c6F)c6ccc3[nH]6)C=C5)C=C4)cc2)CC1
REMARK SMILES IDX 19 1 18 2 17 3 15 4 16 5 14 6 8 7 9 8 10 10 11 11 12 12
REMARK SMILES IDX 87 13 13 14 86 15 7 16 1 17 2 18 3 19 4 20 6 21 5 22 20 23
REMARK SMILES IDX 21 24 22 25 23 26 24 27 85 28 25 29 84 30 26 31 27 32 28 33
REMARK SMILES IDX 78 34 29 35 83 36 77 37 79 38 30 39 82 40 76 41 75 42 31 44
REMARK SMILES IDX 63 45 43 46 62 47 44 48 47 49 61 50 80 51 45 52 46 53 60 55
REMARK SMILES IDX 81 56 48 57 32 58 33 59 41 60 34 61 35 62 39 63 42 64 36 65
REMARK SMILES IDX 37 66 40 67 38 68 64 69 65 70 73 71 66 72 67 73 71 74 74 75
REMARK SMILES IDX 68 76 69 77 72 78 70 79 49 80 50 81 58 82 51 83 52 84 56 85
REMARK SMILES IDX 59 86 53 87 54 88 57 89 55 90
REMARK H PARENT 8 9 79 43 47 54
REMARK Flexibility Score: inf
ROOT
ATOM      1  C   UNL A   1      38.433  19.785  25.267  1.00  0.00     0.275 C 
ENDROOT
BRANCH   1   2
ATOM      2  C   UNL A   1      36.973  20.017  24.871  1.00  0.00     0.274 C 
BRANCH   2   3
ATOM      3  O   UNL A   1      36.507  21.304  25.320  1.00  0.00    -0.462 OA
BRANCH   3   4
ATOM      4  C   UNL A   1      36.124  22.169  24.350  1.00  0.00     0.309 C 
ATOM      5  O   UNL A   1      36.800  22.478  23.374  1.00  0.00    -0.252 OA
BRANCH   4   6
ATOM      6  C   UNL A   1      34.743  22.742  24.572  1.00  0.00     0.103 C 
ATOM      7  N   UNL A   1      30.971  25.460  26.781  1.00  0.00    -0.306 N 
ATOM      8  C   UNL A   1      31.362  24.163  26.657  1.00  0.00     0.321 C 
ATOM      9  H   UNL A   1      30.726  25.727  27.696  1.00  0.00     0.171 HD
ATOM     10  O   UNL A   1      30.834  23.333  27.399  1.00  0.00    -0.248 OA
ATOM     11  N   UNL A   1      32.353  23.818  25.764  1.00  0.00    -0.324 N 
ATOM     12  C   UNL A   1      32.355  22.454  25.235  1.00  0.00     0.122 C 
ATOM     13  C   UNL A   1      33.424  24.719  25.316  1.00  0.00     0.122 C 
ATOM     14  C   UNL A   1      33.738  21.811  25.249  1.00  0.00     0.037 C 
ATOM     15  C   UNL A   1      34.800  24.055  25.345  1.00  0.00     0.037 C 
BRANCH   7  16
ATOM     16  C   UNL A   1      30.857  26.490  25.821  1.00  0.00     0.064 A 
ATOM     17  C   UNL A   1      32.210  28.084  27.283  1.00  0.00     0.069 C 
ATOM     18  C   UNL A   1      31.477  27.735  26.021  1.00  0.00     0.061 A 
ATOM     19  N   UNL A   1      31.417  28.741  25.107  1.00  0.00    -0.259 NA
ATOM     20  C   UNL A   1      30.710  28.528  23.978  1.00  0.00     0.111 A 
ATOM     21  C   UNL A   1      30.077  26.345  24.671  1.00  0.00     0.030 A 
ATOM     22  C   UNL A   1      30.016  27.363  23.724  1.00  0.00     0.022 A 
ENDBRANCH   7  16
ENDBRANCH   4   6
ENDBRANCH   3   4
ENDBRANCH   2   3
ENDBRANCH   1   2
BRANCH   1  23
ATOM     23  O   UNL A   1      39.083  21.014  25.650  1.00  0.00    -0.458 OA
BRANCH  23  24
ATOM     24  C   UNL A   1      39.965  20.903  26.669  1.00  0.00     0.338 C 
ATOM     25  O   UNL A   1      40.418  19.880  27.150  1.00  0.00    -0.246 OA
BRANCH  24  26
ATOM     26  C   UNL A   1      40.435  22.237  27.076  1.00  0.00     0.060 A 
ATOM     27  C   UNL A   1      39.933  23.344  26.387  1.00  0.00     0.016 A 
ATOM     28  C   UNL A   1      41.424  22.397  28.049  1.00  0.00     0.016 A 
ATOM     29  C   UNL A   1      40.412  24.621  26.671  1.00  0.00     0.010 A 
ATOM     30  C   UNL A   1      41.908  23.681  28.330  1.00  0.00     0.010 A 
ATOM     31  C   UNL A   1      41.413  24.798  27.637  1.00  0.00    -0.014 A 
BRANCH  31  32
ATOM     32  C   UNL A   1      41.956  26.156  27.879  1.00  0.00     0.031 A 
ATOM     33  C   UNL A   1      43.297  26.542  27.328  1.00  0.00     0.074 A 
ATOM     34  C   UNL A   1      41.222  27.056  28.560  1.00  0.00     0.049 A 
ATOM     35  N   UNL A   1      43.946  27.675  27.441  1.00  0.00    -0.248 NA
ATOM     36  C   UNL A   1      44.006  25.519  26.546  1.00  0.00     0.031 C 
ATOM     37  C   UNL A   1      39.892  26.811  29.114  1.00  0.00     0.029 A 
ATOM     38  N   UNL A   1      41.492  28.359  28.895  1.00  0.00    -0.354 N 
ATOM     39  C   UNL A   1      45.141  27.497  26.759  1.00  0.00     0.074 A 
ATOM     40  C   UNL A   1      45.137  26.142  26.247  1.00  0.00     0.031 C 
ATOM     41  C   UNL A   1      39.456  27.932  29.712  1.00  0.00     0.029 A 
ATOM     42  C   UNL A   1      40.489  28.960  29.614  1.00  0.00     0.049 A 
ATOM     43  H   UNL A   1      42.326  28.819  28.643  1.00  0.00     0.167 HD
ATOM     44  C   UNL A   1      46.148  28.385  26.575  1.00  0.00     0.037 A 
ATOM     45  C   UNL A   1      40.419  30.195  30.144  1.00  0.00     0.037 A 
ATOM     46  C   UNL A   1      46.144  29.737  27.069  1.00  0.00     0.049 A 
ATOM     47  C   UNL A   1      41.571  31.145  29.962  1.00  0.00     0.074 A 
ATOM     48  C   UNL A   1      47.105  30.721  26.903  1.00  0.00     0.029 A 
ATOM     49  N   UNL A   1      45.131  30.297  27.832  1.00  0.00    -0.354 N 
ATOM     50  N   UNL A   1      42.690  30.972  29.303  1.00  0.00    -0.248 NA
ATOM     51  C   UNL A   1      41.449  32.461  30.605  1.00  0.00     0.031 C 
ATOM     52  C   UNL A   1      46.690  31.862  27.599  1.00  0.00     0.029 A 
ATOM     53  C   UNL A   1      45.453  31.603  28.166  1.00  0.00     0.049 A 
ATOM     54  H   UNL A   1      44.303  29.834  28.099  1.00  0.00     0.167 HD
ATOM     55  C   UNL A   1      43.399  32.157  29.438  1.00  0.00     0.074 A 
ATOM     56  C   UNL A   1      42.574  33.050  30.226  1.00  0.00     0.031 C 
ATOM     57  C   UNL A   1      44.625  32.477  28.956  1.00  0.00     0.037 A 
BRANCH  44  58
ATOM     58  C   UNL A   1      47.357  27.911  25.826  1.00  0.00     0.064 A 
ATOM     59  C   UNL A   1      47.373  27.831  24.426  1.00  0.00     0.173 A 
ATOM     60  C   UNL A   1      48.528  27.565  26.518  1.00  0.00     0.173 A 
ATOM     61  F   UNL A   1      46.276  28.139  23.719  1.00  0.00    -0.203 F 
ATOM     62  C   UNL A   1      48.511  27.401  23.748  1.00  0.00     0.198 A 
ATOM     63  C   UNL A   1      49.670  27.158  25.836  1.00  0.00     0.198 A 
ATOM     64  F   UNL A   1      48.563  27.628  27.858  1.00  0.00    -0.203 F 
ATOM     65  F   UNL A   1      48.493  27.295  22.412  1.00  0.00    -0.200 F 
ATOM     66  C   UNL A   1      49.660  27.070  24.453  1.00  0.00     0.200 A 
ATOM     67  F   UNL A   1      50.780  26.847  26.518  1.00  0.00    -0.200 F 
ATOM     68  F   UNL A   1      50.755  26.660  23.797  1.00  0.00    -0.200 F 
ENDBRANCH  44  58
BRANCH  45  69
ATOM     69  C   UNL A   1      39.211  30.604  30.906  1.00  0.00     0.064 A 
ATOM     70  C   UNL A   1      38.152  31.266  30.273  1.00  0.00     0.173 A 
ATOM     71  C   UNL A   1      39.099  30.350  32.281  1.00  0.00     0.173 A 
ATOM     72  F   UNL A   1      38.227  31.553  28.966  1.00  0.00    -0.203 F 
ATOM     73  C   UNL A   1      37.027  31.668  30.990  1.00  0.00     0.198 A 
ATOM     74  C   UNL A   1      37.963  30.730  32.991  1.00  0.00     0.198 A 
ATOM     75  F   UNL A   1      40.091  29.723  32.931  1.00  0.00    -0.203 F 
ATOM     76  F   UNL A   1      36.043  32.333  30.369  1.00  0.00    -0.200 F 
ATOM     77  C   UNL A   1      36.931  31.394  32.346  1.00  0.00     0.200 A 
ATOM     78  F   UNL A   1      37.871  30.457  34.299  1.00  0.00    -0.200 F 
ATOM     79  F   UNL A   1      35.847  31.778  33.034  1.00  0.00    -0.200 F 
ENDBRANCH  45  69
BRANCH  57  80
ATOM     80  C   UNL A   1      45.139  33.853  29.260  1.00  0.00     0.064 A 
ATOM     81  C   UNL A   1      45.921  34.109  30.395  1.00  0.00     0.173 A 
ATOM     82  C   UNL A   1      44.856  34.926  28.400  1.00  0.00     0.173 A 
ATOM     83  F   UNL A   1      46.202  33.121  31.257  1.00  0.00    -0.203 F 
ATOM     84  C   UNL A   1      46.380  35.394  30.674  1.00  0.00     0.198 A 
ATOM     85  C   UNL A   1      45.338  36.204  28.667  1.00  0.00     0.198 A 
ATOM     86  F   UNL A   1      44.115  34.731  27.299  1.00  0.00    -0.203 F 
ATOM     87  F   UNL A   1      47.084  35.625  31.790  1.00  0.00    -0.200 F 
ATOM     88  C   UNL A   1      46.092  36.439  29.808  1.00  0.00     0.200 A 
ATOM     89  F   UNL A   1      45.066  37.211  27.826  1.00  0.00    -0.200 F 
ATOM     90  F   UNL A   1      46.532  37.675  30.078  1.00  0.00    -0.200 F 
ENDBRANCH  57  80
ENDBRANCH  31  32
ENDBRANCH  24  26
ENDBRANCH  23  24
ENDBRANCH   1  23
TORSDOF 12
ENDMDL
MODEL 2
REMARK VINA RESULT:     -12.3      0.066      1.974
REMARK SMILES Cc1ncccc1NC(=O)N1CCC(C(=O)OCCOC(=O)c2ccc(-c3c4nc(c(-c5c(F)c(F)c(F)c(F)c5F)c5ccc([nH]5)c(-c5c(F)c(F)c(F)c(F)c5F)c5nc(c(-c6c(F)c(F)c(F)c(F)c6F)c6ccc3[nH]6)C=C5)C=C4)cc2)CC1
REMARK SMILES IDX 19 1 18 2 17 3 15 4 16 5 14 6 8 7 9 8 10 10 11 11 12 12
REMARK SMILES IDX 87 13 13 14 86 15 7 16 1 17 2 18 3 19 4 20 6 21 5 22 20 23
REMARK SMILES IDX 21 24 22 25 23 26 24 27 85 28 25 29 84 30 26 31 27 32 28 33
REMARK SMILES IDX 78 34 29 35 83 36 77 37 79 38 30 39 82 40 76 41 75 42 31 44
REMARK SMILES IDX 63 45 43 46 62 47 44 48 47 49 61 50 80 51 45 52 46 53 60 55
REMARK SMILES IDX 81 56 48 57 32 58 33 59 41 60 34 61 35 62 39 63 42 64 36 65
REMARK SMILES IDX 37 66 40 67 38 68 64 69 65 70 73 71 66 72 67 73 71 74 74 75
REMARK SMILES IDX 68 76 69 77 72 78 70 79 49 80 50 81 58 82 51 83 52 84 56 85
REMARK SMILES IDX 59 86 53 87 54 88 57 89 55 90
REMARK H PARENT 8 9 79 43 47 54
REMARK Flexibility Score: inf
ROOT
ATOM      1  C   UNL A   1      38.472  19.812  25.301  1.00  0.00     0.275 C 
ENDROOT
BRANCH   1   2
ATOM      2  C   UNL A   1      37.020  20.039  24.874  1.00  0.00     0.274 C 
BRANCH   2   3
ATOM      3  O   UNL A   1      36.533  21.314  25.334  1.00  0.00    -0.462 OA
BRANCH   3   4
ATOM      4  C   UNL A   1      36.163  22.192  24.371  1.00  0.00     0.309 C 
ATOM      5  O   UNL A   1      36.850  22.508  23.405  1.00  0.00    -0.252 OA
BRANCH   4   6
ATOM      6  C   UNL A   1      34.784  22.771  24.588  1.00  0.00     0.103 C 
ATOM      7  N   UNL A   1      31.010  25.486  26.797  1.00  0.00    -0.306 N 
ATOM      8  C   UNL A   1      31.395  24.188  26.661  1.00  0.00     0.321 C 
ATOM      9  H   UNL A   1      30.759  25.744  27.713  1.00  0.00     0.171 HD
ATOM     10  O   UNL A   1      30.855  23.353  27.389  1.00  0.00    -0.248 OA
ATOM     11  N   UNL A   1      32.391  23.848  25.773  1.00  0.00    -0.324 N 
ATOM     12  C   UNL A   1      32.389  22.490  25.228  1.00  0.00     0.122 C 
ATOM     13  C   UNL A   1      33.471  24.747  25.344  1.00  0.00     0.122 C 
ATOM     14  C   UNL A   1      33.767  21.838  25.246  1.00  0.00     0.037 C 
ATOM     15  C   UNL A   1      34.842  24.075  25.377  1.00  0.00     0.037 C 
BRANCH   7  16
ATOM     16  C   UNL A   1      30.911  26.529  25.849  1.00  0.00     0.064 A 
ATOM     17  C   UNL A   1      32.186  28.122  27.379  1.00  0.00     0.069 C 
ATOM     18  C   UNL A   1      31.503  27.780  26.087  1.00  0.00     0.061 A 
ATOM     19  N   UNL A   1      31.455  28.798  25.186  1.00  0.00    -0.259 NA
ATOM     20  C   UNL A   1      30.791  28.590  24.031  1.00  0.00     0.111 A 
ATOM     21  C   UNL A   1      30.172  26.388  24.671  1.00  0.00     0.030 A 
ATOM     22  C   UNL A   1      30.125  27.418  23.738  1.00  0.00     0.022 A 
ENDBRANCH   7  16
ENDBRANCH   4   6
ENDBRANCH   3   4
ENDBRANCH   2   3
ENDBRANCH   1   2
BRANCH   1  23
ATOM     23  O   UNL A   1      39.115  21.044  25.683  1.00  0.00    -0.458 OA
BRANCH  23  24
ATOM     24  C   UNL A   1      39.997  20.939  26.703  1.00  0.00     0.338 C 
ATOM     25  O   UNL A   1      40.454  19.919  27.187  1.00  0.00    -0.246 OA
BRANCH  24  26
ATOM     26  C   UNL A   1      40.461  22.276  27.108  1.00  0.00     0.060 A 
ATOM     27  C   UNL A   1      39.965  23.379  26.407  1.00  0.00     0.016 A 
ATOM     28  C   UNL A   1      41.438  22.443  28.091  1.00  0.00     0.016 A 
ATOM     29  C   UNL A   1      40.440  24.657  26.689  1.00  0.00     0.010 A 
ATOM     30  C   UNL A   1      41.918  23.728  28.371  1.00  0.00     0.010 A 
ATOM     31  C   UNL A   1      41.430  24.841  27.665  1.00  0.00    -0.014 A 
BRANCH  31  32
ATOM     32  C   UNL A   1      41.968  26.201  27.906  1.00  0.00     0.031 A 
ATOM     33  C   UNL A   1      43.314  26.587  27.364  1.00  0.00     0.074 A 
ATOM     34  C   UNL A   1      41.228  27.103  28.577  1.00  0.00     0.049 A 
ATOM     35  N   UNL A   1      43.959  27.721  27.477  1.00  0.00    -0.248 NA
ATOM     36  C   UNL A   1      44.030  25.561  26.591  1.00  0.00     0.031 C 
ATOM     37  C   UNL A   1      39.894  26.858  29.122  1.00  0.00     0.029 A 
ATOM     38  N   UNL A   1      41.494  28.408  28.908  1.00  0.00    -0.354 N 
ATOM     39  C   UNL A   1      45.160  27.542  26.805  1.00  0.00     0.074 A 
ATOM     40  C   UNL A   1      45.163  26.185  26.298  1.00  0.00     0.031 C 
ATOM     41  C   UNL A   1      39.451  27.981  29.711  1.00  0.00     0.029 A 
ATOM     42  C   UNL A   1      40.483  29.010  29.616  1.00  0.00     0.049 A 
ATOM     43  H   UNL A   1      42.328  28.868  28.661  1.00  0.00     0.167 HD
ATOM     44  C   UNL A   1      46.167  28.431  26.625  1.00  0.00     0.037 A 
ATOM     45  C   UNL A   1      40.408  30.247  30.141  1.00  0.00     0.037 A 
ATOM     46  C   UNL A   1      46.158  29.785  27.113  1.00  0.00     0.049 A 
ATOM     47  C   UNL A   1      41.559  31.198  29.964  1.00  0.00     0.074 A 
ATOM     48  C   UNL A   1      47.118  30.770  26.950  1.00  0.00     0.029 A 
ATOM     49  N   UNL A   1      45.137  30.347  27.866  1.00  0.00    -0.354 N 
ATOM     50  N   UNL A   1      42.684  31.024  29.314  1.00  0.00    -0.248 NA
ATOM     51  C   UNL A   1      41.431  32.517  30.599  1.00  0.00     0.031 C 
ATOM     52  C   UNL A   1      46.696  31.914  27.638  1.00  0.00     0.029 A 
ATOM     53  C   UNL A   1      45.455  31.655  28.196  1.00  0.00     0.049 A 
ATOM     54  H   UNL A   1      44.308  29.884  28.128  1.00  0.00     0.167 HD
ATOM     55  C   UNL A   1      43.390  32.212  29.450  1.00  0.00     0.074 A 
ATOM     56  C   UNL A   1      42.558  33.106  30.227  1.00  0.00     0.031 C 
ATOM     57  C   UNL A   1      44.620  32.531  28.976  1.00  0.00     0.037 A 
BRANCH  44  58
ATOM     58  C   UNL A   1      47.383  27.956  25.888  1.00  0.00     0.064 A 
ATOM     59  C   UNL A   1      48.554  27.576  26.561  1.00  0.00     0.173 A 
ATOM     60  C   UNL A   1      47.364  27.848  24.488  1.00  0.00     0.173 A 
ATOM     61  F   UNL A   1      48.626  27.673  27.896  1.00  0.00    -0.203 F 
ATOM     62  C   UNL A   1      49.668  27.125  25.857  1.00  0.00     0.198 A 
ATOM     63  C   UNL A   1      48.472  27.376  23.792  1.00  0.00     0.198 A 
ATOM     64  F   UNL A   1      46.267  28.197  23.799  1.00  0.00    -0.203 F 
ATOM     65  F   UNL A   1      50.789  26.803  26.517  1.00  0.00    -0.200 F 
ATOM     66  C   UNL A   1      49.624  27.020  24.474  1.00  0.00     0.200 A 
ATOM     67  F   UNL A   1      48.425  27.267  22.457  1.00  0.00    -0.200 F 
ATOM     68  F   UNL A   1      50.698  26.583  23.800  1.00  0.00    -0.200 F 
ENDBRANCH  44  58
BRANCH  45  69
ATOM     69  C   UNL A   1      39.193  30.658  30.891  1.00  0.00     0.064 A 
ATOM     70  C   UNL A   1      39.079  30.413  32.265  1.00  0.00     0.173 A 
ATOM     71  C   UNL A   1      38.122  31.294  30.247  1.00  0.00     0.173 A 
ATOM     72  F   UNL A   1      40.067  29.783  32.917  1.00  0.00    -0.203 F 
ATOM     73  C   UNL A   1      37.933  30.780  32.967  1.00  0.00     0.198 A 
ATOM     74  C   UNL A   1      36.988  31.683  30.955  1.00  0.00     0.198 A 
ATOM     75  F   UNL A   1      38.184  31.546  28.931  1.00  0.00    -0.203 F 
ATOM     76  F   UNL A   1      37.832  30.500  34.273  1.00  0.00    -0.200 F 
ATOM     77  C   UNL A   1      36.891  31.420  32.312  1.00  0.00     0.200 A 
ATOM     78  F   UNL A   1      35.987  32.309  30.320  1.00  0.00    -0.200 F 
ATOM     79  F   UNL A   1      35.790  31.776  32.989  1.00  0.00    -0.200 F 
ENDBRANCH  45  69
BRANCH  57  80
ATOM     80  C   UNL A   1      45.128  33.910  29.277  1.00  0.00     0.064 A 
ATOM     81  C   UNL A   1      44.855  34.992  28.429  1.00  0.00     0.173 A 
ATOM     82  C   UNL A   1      45.886  34.154  30.433  1.00  0.00     0.173 A 
ATOM     83  F   UNL A   1      44.151  34.805  27.302  1.00  0.00    -0.203 F 
ATOM     84  C   UNL A   1      45.344  36.265  28.711  1.00  0.00     0.198 A 
ATOM     85  C   UNL A   1      46.352  35.432  30.726  1.00  0.00     0.198 A 
ATOM     86  F   UNL A   1      46.170  33.152  31.278  1.00  0.00    -0.203 F 
ATOM     87  F   UNL A   1      45.113  37.274  27.861  1.00  0.00    -0.200 F 
ATOM     88  C   UNL A   1      46.088  36.485  29.862  1.00  0.00     0.200 A 
ATOM     89  F   UNL A   1      47.064  35.645  31.842  1.00  0.00    -0.200 F 
ATOM     90  F   UNL A   1      46.561  37.709  30.132  1.00  0.00    -0.200 F 
ENDBRANCH  57  80
ENDBRANCH  31  32
ENDBRANCH  24  26
ENDBRANCH  23  24
ENDBRANCH   1  23
TORSDOF 12
ENDMDL
MODEL 3
REMARK VINA RESULT:     -12.3      0.055      1.141
REMARK SMILES Cc1ncccc1NC(=O)N1CCC(C(=O)OCCOC(=O)c2ccc(-c3c4nc(c(-c5c(F)c(F)c(F)c(F)c5F)c5ccc([nH]5)c(-c5c(F)c(F)c(F)c(F)c5F)c5nc(c(-c6c(F)c(F)c(F)c(F)c6F)c6ccc3[nH]6)C=C5)C=C4)cc2)CC1
REMARK SMILES IDX 19 1 18 2 17 3 15 4 16 5 14 6 8 7 9 8 10 10 11 11 12 12
REMARK SMILES IDX 87 13 13 14 86 15 7 16 1 17 2 18 3 19 4 20 6 21 5 22 20 23
REMARK SMILES IDX 21 24 22 25 23 26 24 27 85 28 25 29 84 30 26 31 27 32 28 33
REMARK SMILES IDX 78 34 29 35 83 36 77 37 79 38 30 39 82 40 76 41 75 42 31 44
REMARK SMILES IDX 63 45 43 46 62 47 44 48 47 49 61 50 80 51 45 52 46 53 60 55
REMARK SMILES IDX 81 56 48 57 32 58 33 59 41 60 34 61 35 62 39 63 42 64 36 65
REMARK SMILES IDX 37 66 40 67 38 68 64 69 65 70 73 71 66 72 67 73 71 74 74 75
REMARK SMILES IDX 68 76 69 77 72 78 70 79 49 80 50 81 58 82 51 83 52 84 56 85
REMARK SMILES IDX 59 86 53 87 54 88 57 89 55 90
REMARK H PARENT 8 9 79 43 47 54
REMARK Flexibility Score: inf
ROOT
ATOM      1  C   UNL A   1      38.451  19.773  25.317  1.00  0.00     0.275 C 
ENDROOT
BRANCH   1   2
ATOM      2  C   UNL A   1      37.015  20.045  24.861  1.00  0.00     0.274 C 
BRANCH   2   3
ATOM      3  O   UNL A   1      36.551  21.325  25.331  1.00  0.00    -0.462 OA
BRANCH   3   4
ATOM      4  C   UNL A   1      36.187  22.214  24.375  1.00  0.00     0.309 C 
ATOM      5  O   UNL A   1      36.878  22.537  23.415  1.00  0.00    -0.252 OA
BRANCH   4   6
ATOM      6  C   UNL A   1      34.808  22.794  24.592  1.00  0.00     0.103 C 
ATOM      7  N   UNL A   1      31.039  25.517  26.800  1.00  0.00    -0.306 N 
ATOM      8  C   UNL A   1      31.422  24.218  26.665  1.00  0.00     0.321 C 
ATOM      9  H   UNL A   1      30.789  25.775  27.716  1.00  0.00     0.171 HD
ATOM     10  O   UNL A   1      30.882  23.385  27.395  1.00  0.00    -0.248 OA
ATOM     11  N   UNL A   1      32.417  23.876  25.777  1.00  0.00    -0.324 N 
ATOM     12  C   UNL A   1      32.414  22.517  25.234  1.00  0.00     0.122 C 
ATOM     13  C   UNL A   1      33.498  24.773  25.347  1.00  0.00     0.122 C 
ATOM     14  C   UNL A   1      33.791  21.864  25.251  1.00  0.00     0.037 C 
ATOM     15  C   UNL A   1      34.869  24.099  25.380  1.00  0.00     0.037 C 
BRANCH   7  16
ATOM     16  C   UNL A   1      30.941  26.559  25.852  1.00  0.00     0.064 A 
ATOM     17  C   UNL A   1      32.225  28.150  27.376  1.00  0.00     0.069 C 
ATOM     18  C   UNL A   1      31.537  27.808  26.086  1.00  0.00     0.061 A 
ATOM     19  N   UNL A   1      31.491  28.826  25.184  1.00  0.00    -0.259 NA
ATOM     20  C   UNL A   1      30.823  28.618  24.031  1.00  0.00     0.111 A 
ATOM     21  C   UNL A   1      30.199  26.418  24.675  1.00  0.00     0.030 A 
ATOM     22  C   UNL A   1      30.153  27.448  23.741  1.00  0.00     0.022 A 
ENDBRANCH   7  16
ENDBRANCH   4   6
ENDBRANCH   3   4
ENDBRANCH   2   3
ENDBRANCH   1   2
BRANCH   1  23
ATOM     23  O   UNL A   1      39.140  20.992  25.662  1.00  0.00    -0.458 OA
BRANCH  23  24
ATOM     24  C   UNL A   1      39.997  20.891  26.704  1.00  0.00     0.338 C 
ATOM     25  O   UNL A   1      40.434  19.873  27.209  1.00  0.00    -0.246 OA
BRANCH  24  26
ATOM     26  C   UNL A   1      40.463  22.229  27.104  1.00  0.00     0.060 A 
ATOM     27  C   UNL A   1      39.954  23.331  26.413  1.00  0.00     0.016 A 
ATOM     28  C   UNL A   1      41.453  22.396  28.075  1.00  0.00     0.016 A 
ATOM     29  C   UNL A   1      40.428  24.610  26.690  1.00  0.00     0.010 A 
ATOM     30  C   UNL A   1      41.932  23.683  28.350  1.00  0.00     0.010 A 
ATOM     31  C   UNL A   1      41.431  24.795  27.653  1.00  0.00    -0.014 A 
BRANCH  31  32
ATOM     32  C   UNL A   1      41.968  26.157  27.889  1.00  0.00     0.031 A 
ATOM     33  C   UNL A   1      43.307  26.546  27.334  1.00  0.00     0.074 A 
ATOM     34  C   UNL A   1      41.233  27.056  28.568  1.00  0.00     0.049 A 
ATOM     35  N   UNL A   1      43.951  27.682  27.441  1.00  0.00    -0.248 NA
ATOM     36  C   UNL A   1      44.018  25.523  26.554  1.00  0.00     0.031 C 
ATOM     37  C   UNL A   1      39.904  26.809  29.126  1.00  0.00     0.029 A 
ATOM     38  N   UNL A   1      41.498  28.362  28.897  1.00  0.00    -0.354 N 
ATOM     39  C   UNL A   1      45.146  27.506  26.757  1.00  0.00     0.074 A 
ATOM     40  C   UNL A   1      45.147  26.149  26.250  1.00  0.00     0.031 C 
ATOM     41  C   UNL A   1      39.465  27.930  29.720  1.00  0.00     0.029 A 
ATOM     42  C   UNL A   1      40.493  28.961  29.615  1.00  0.00     0.049 A 
ATOM     43  H   UNL A   1      42.329  28.824  28.642  1.00  0.00     0.167 HD
ATOM     44  C   UNL A   1      46.149  28.397  26.568  1.00  0.00     0.037 A 
ATOM     45  C   UNL A   1      40.420  30.198  30.141  1.00  0.00     0.037 A 
ATOM     46  C   UNL A   1      46.141  29.751  27.057  1.00  0.00     0.049 A 
ATOM     47  C   UNL A   1      41.567  31.152  29.953  1.00  0.00     0.074 A 
ATOM     48  C   UNL A   1      47.097  30.738  26.884  1.00  0.00     0.029 A 
ATOM     49  N   UNL A   1      45.126  30.310  27.819  1.00  0.00    -0.354 N 
ATOM     50  N   UNL A   1      42.686  30.981  29.292  1.00  0.00    -0.248 NA
ATOM     51  C   UNL A   1      41.442  32.470  30.590  1.00  0.00     0.031 C 
ATOM     52  C   UNL A   1      46.679  31.881  27.577  1.00  0.00     0.029 A 
ATOM     53  C   UNL A   1      45.444  31.619  28.147  1.00  0.00     0.049 A 
ATOM     54  H   UNL A   1      44.301  29.845  28.089  1.00  0.00     0.167 HD
ATOM     55  C   UNL A   1      43.390  32.170  29.421  1.00  0.00     0.074 A 
ATOM     56  C   UNL A   1      42.563  33.063  30.207  1.00  0.00     0.031 C 
ATOM     57  C   UNL A   1      44.614  32.493  28.936  1.00  0.00     0.037 A 
BRANCH  44  58
ATOM     58  C   UNL A   1      47.358  27.926  25.818  1.00  0.00     0.064 A 
ATOM     59  C   UNL A   1      47.372  27.839  24.418  1.00  0.00     0.173 A 
ATOM     60  C   UNL A   1      48.532  27.587  26.510  1.00  0.00     0.173 A 
ATOM     61  F   UNL A   1      46.272  28.139  23.713  1.00  0.00    -0.203 F 
ATOM     62  C   UNL A   1      48.511  27.411  23.740  1.00  0.00     0.198 A 
ATOM     63  C   UNL A   1      49.674  27.182  25.827  1.00  0.00     0.198 A 
ATOM     64  F   UNL A   1      48.570  27.656  27.849  1.00  0.00    -0.203 F 
ATOM     65  F   UNL A   1      48.490  27.299  22.404  1.00  0.00    -0.200 F 
ATOM     66  C   UNL A   1      49.662  27.088  24.444  1.00  0.00     0.200 A 
ATOM     67  F   UNL A   1      50.788  26.879  26.508  1.00  0.00    -0.200 F 
ATOM     68  F   UNL A   1      50.758  26.680  23.788  1.00  0.00    -0.200 F 
ENDBRANCH  44  58
BRANCH  45  69
ATOM     69  C   UNL A   1      39.212  30.606  30.903  1.00  0.00     0.064 A 
ATOM     70  C   UNL A   1      38.149  31.262  30.270  1.00  0.00     0.173 A 
ATOM     71  C   UNL A   1      39.103  30.355  32.279  1.00  0.00     0.173 A 
ATOM     72  F   UNL A   1      38.221  31.546  28.962  1.00  0.00    -0.203 F 
ATOM     73  C   UNL A   1      37.024  31.663  30.988  1.00  0.00     0.198 A 
ATOM     74  C   UNL A   1      37.966  30.734  32.990  1.00  0.00     0.198 A 
ATOM     75  F   UNL A   1      40.097  29.734  32.930  1.00  0.00    -0.203 F 
ATOM     76  F   UNL A   1      36.037  32.322  30.367  1.00  0.00    -0.200 F 
ATOM     77  C   UNL A   1      36.931  31.392  32.345  1.00  0.00     0.200 A 
ATOM     78  F   UNL A   1      37.877  30.463  34.299  1.00  0.00    -0.200 F 
ATOM     79  F   UNL A   1      35.846  31.775  33.033  1.00  0.00    -0.200 F 
ENDBRANCH  45  69
BRANCH  57  80
ATOM     80  C   UNL A   1      45.123  33.873  29.232  1.00  0.00     0.064 A 
ATOM     81  C   UNL A   1      44.835  34.956  28.389  1.00  0.00     0.173 A 
ATOM     82  C   UNL A   1      45.894  34.118  30.378  1.00  0.00     0.173 A 
ATOM     83  F   UNL A   1      44.117  34.768  27.271  1.00  0.00    -0.203 F 
ATOM     84  C   UNL A   1      45.324  36.229  28.667  1.00  0.00     0.198 A 
ATOM     85  C   UNL A   1      46.360  35.397  30.667  1.00  0.00     0.198 A 
ATOM     86  F   UNL A   1      46.193  33.115  31.218  1.00  0.00    -0.203 F 
ATOM     87  F   UNL A   1      45.078  37.239  27.822  1.00  0.00    -0.200 F 
ATOM     88  C   UNL A   1      46.082  36.450  29.808  1.00  0.00     0.200 A 
ATOM     89  F   UNL A   1      47.086  35.610  31.774  1.00  0.00    -0.200 F 
ATOM     90  F   UNL A   1      46.554  37.675  30.074  1.00  0.00    -0.200 F 
ENDBRANCH  57  80
ENDBRANCH  31  32
ENDBRANCH  24  26
ENDBRANCH  23  24
ENDBRANCH   1  23
TORSDOF 12
ENDMDL
