MODEL 1
REMARK VINA RESULT:     -13.0      0.000      0.000
REMARK SMILES O=C(OCCOC(=O)c1cc(F)c(F)cc1NS(=O)(=O)c1ccc2c(c1)CCC2)c1ccc(-c2c3nc(c(-c4c(F)c(F)c(F)c(F)c4F)c4ccc([nH]4)c(-c4c(F)c(F)c(F)c(F)c4F)c4nc(c(-c5c(F)c(F)c(F)c(F)c5F)c5ccc2[nH]5)C=C4)C=C3)cc1
REMARK SMILES IDX 5 1 4 2 3 3 2 4 1 5 30 6 31 7 92 8 32 9 91 10 33 11 34 12
REMARK SMILES IDX 35 13 85 14 36 15 90 16 84 17 86 18 37 19 89 20 83 21 82 22
REMARK SMILES IDX 38 24 70 25 50 26 69 27 51 28 54 29 68 30 87 31 52 32 53 33
REMARK SMILES IDX 67 35 88 36 55 37 39 38 40 39 48 40 41 41 42 42 46 43 49 44
REMARK SMILES IDX 43 45 44 46 47 47 45 48 71 49 72 50 80 51 73 52 74 53 78 54
REMARK SMILES IDX 81 55 75 56 76 57 79 58 77 59 56 60 57 61 65 62 58 63 59 64
REMARK SMILES IDX 63 65 66 66 60 67 61 68 64 69 62 70 6 71 7 72 8 73 9 74
REMARK SMILES IDX 10 75 16 76 11 77 15 78 12 79 13 80 14 81 17 82 18 84 19 85
REMARK SMILES IDX 20 86 21 87 22 88 26 89 23 90 25 91 24 92 27 93 29 94 28 95
REMARK H PARENT 86 23 54 34 17 83
REMARK Flexibility Score: inf
ROOT
ATOM      1  C   UNL A   1      32.433  30.946  26.911  1.00  0.00     0.275 C 
ENDROOT
BRANCH   1   2
ATOM      2  C   UNL A   1      31.688  32.282  27.004  1.00  0.00     0.275 C 
BRANCH   2   3
ATOM      3  O   UNL A   1      32.515  33.450  27.085  1.00  0.00    -0.458 OA
BRANCH   3   4
ATOM      4  C   UNL A   1      33.220  33.945  28.122  1.00  0.00     0.338 C 
ATOM      5  O   UNL A   1      32.820  34.984  28.642  1.00  0.00    -0.246 OA
BRANCH   4   6
ATOM      6  C   UNL A   1      34.504  33.352  28.633  1.00  0.00     0.060 A 
ATOM      7  C   UNL A   1      35.794  33.745  28.283  1.00  0.00     0.016 A 
ATOM      8  C   UNL A   1      34.382  32.336  29.597  1.00  0.00     0.016 A 
ATOM      9  C   UNL A   1      36.910  33.221  28.940  1.00  0.00     0.010 A 
ATOM     10  C   UNL A   1      35.482  31.837  30.291  1.00  0.00     0.010 A 
ATOM     11  C   UNL A   1      36.761  32.279  29.958  1.00  0.00    -0.014 A 
BRANCH  11  12
ATOM     12  C   UNL A   1      37.959  31.652  30.551  1.00  0.00     0.031 A 
ATOM     13  C   UNL A   1      38.377  32.081  31.922  1.00  0.00     0.074 A 
ATOM     14  C   UNL A   1      38.608  30.667  29.904  1.00  0.00     0.049 A 
ATOM     15  N   UNL A   1      39.333  31.608  32.674  1.00  0.00    -0.248 NA
ATOM     16  C   UNL A   1      37.596  33.163  32.546  1.00  0.00     0.031 C 
ATOM     17  C   UNL A   1      38.221  30.125  28.606  1.00  0.00     0.029 A 
ATOM     18  N   UNL A   1      39.725  29.947  30.241  1.00  0.00    -0.354 N 
ATOM     19  C   UNL A   1      39.229  32.294  33.873  1.00  0.00     0.074 A 
ATOM     20  C   UNL A   1      38.191  33.285  33.721  1.00  0.00     0.031 C 
ATOM     21  C   UNL A   1      39.115  29.199  28.224  1.00  0.00     0.029 A 
ATOM     22  C   UNL A   1      40.125  29.066  29.265  1.00  0.00     0.049 A 
ATOM     23  H   UNL A   1      40.194  30.052  31.100  1.00  0.00     0.167 HD
ATOM     24  C   UNL A   1      39.907  32.070  35.021  1.00  0.00     0.037 A 
ATOM     25  C   UNL A   1      41.185  28.237  29.223  1.00  0.00     0.037 A 
ATOM     26  C   UNL A   1      40.947  31.089  35.144  1.00  0.00     0.049 A 
ATOM     27  C   UNL A   1      42.031  28.112  30.458  1.00  0.00     0.074 A 
ATOM     28  C   UNL A   1      41.713  30.781  36.250  1.00  0.00     0.029 A 
ATOM     29  N   UNL A   1      41.375  30.264  34.110  1.00  0.00    -0.354 N 
ATOM     30  N   UNL A   1      41.895  28.730  31.608  1.00  0.00    -0.248 NA
ATOM     31  C   UNL A   1      43.139  27.152  30.417  1.00  0.00     0.031 C 
ATOM     32  C   UNL A   1      42.648  29.814  35.869  1.00  0.00     0.029 A 
ATOM     33  C   UNL A   1      42.422  29.472  34.543  1.00  0.00     0.049 A 
ATOM     34  H   UNL A   1      40.991  30.248  33.204  1.00  0.00     0.167 HD
ATOM     35  C   UNL A   1      42.866  28.202  32.444  1.00  0.00     0.074 A 
ATOM     36  C   UNL A   1      43.592  27.218  31.663  1.00  0.00     0.031 C 
ATOM     37  C   UNL A   1      43.120  28.493  33.743  1.00  0.00     0.037 A 
BRANCH  24  38
ATOM     38  C   UNL A   1      39.532  32.905  36.208  1.00  0.00     0.064 A 
ATOM     39  C   UNL A   1      38.543  32.472  37.100  1.00  0.00     0.173 A 
ATOM     40  C   UNL A   1      40.163  34.132  36.468  1.00  0.00     0.173 A 
ATOM     41  F   UNL A   1      37.917  31.303  36.901  1.00  0.00    -0.203 F 
ATOM     42  C   UNL A   1      38.199  33.237  38.211  1.00  0.00     0.198 A 
ATOM     43  C   UNL A   1      39.837  34.880  37.596  1.00  0.00     0.198 A 
ATOM     44  F   UNL A   1      41.135  34.578  35.657  1.00  0.00    -0.203 F 
ATOM     45  F   UNL A   1      37.241  32.809  39.045  1.00  0.00    -0.200 F 
ATOM     46  C   UNL A   1      38.851  34.435  38.463  1.00  0.00     0.200 A 
ATOM     47  F   UNL A   1      40.494  36.019  37.856  1.00  0.00    -0.200 F 
ATOM     48  F   UNL A   1      38.537  35.156  39.548  1.00  0.00    -0.200 F 
ENDBRANCH  24  38
BRANCH  25  49
ATOM     49  C   UNL A   1      41.442  27.434  27.999  1.00  0.00     0.064 A 
ATOM     50  C   UNL A   1      40.902  26.147  27.852  1.00  0.00     0.173 A 
ATOM     51  C   UNL A   1      42.278  27.907  26.979  1.00  0.00     0.173 A 
ATOM     52  F   UNL A   1      40.097  25.646  28.800  1.00  0.00    -0.203 F 
ATOM     53  C   UNL A   1      41.201  25.359  26.741  1.00  0.00     0.198 A 
ATOM     54  C   UNL A   1      42.561  27.126  25.859  1.00  0.00     0.198 A 
ATOM     55  F   UNL A   1      42.812  29.134  27.065  1.00  0.00    -0.203 F 
ATOM     56  F   UNL A   1      40.694  24.122  26.641  1.00  0.00    -0.200 F 
ATOM     57  C   UNL A   1      42.031  25.849  25.745  1.00  0.00     0.200 A 
ATOM     58  F   UNL A   1      43.352  27.609  24.890  1.00  0.00    -0.200 F 
ATOM     59  F   UNL A   1      42.318  25.094  24.676  1.00  0.00    -0.200 F 
ENDBRANCH  25  49
BRANCH  37  60
ATOM     60  C   UNL A   1      44.211  27.726  34.425  1.00  0.00     0.064 A 
ATOM     61  C   UNL A   1      45.533  28.195  34.384  1.00  0.00     0.173 A 
ATOM     62  C   UNL A   1      43.971  26.475  35.008  1.00  0.00     0.173 A 
ATOM     63  F   UNL A   1      45.812  29.384  33.827  1.00  0.00    -0.203 F 
ATOM     64  C   UNL A   1      46.581  27.422  34.872  1.00  0.00     0.198 A 
ATOM     65  C   UNL A   1      45.018  25.719  35.526  1.00  0.00     0.198 A 
ATOM     66  F   UNL A   1      42.721  25.993  35.081  1.00  0.00    -0.203 F 
ATOM     67  F   UNL A   1      47.841  27.865  34.770  1.00  0.00    -0.200 F 
ATOM     68  C   UNL A   1      46.322  26.186  35.444  1.00  0.00     0.200 A 
ATOM     69  F   UNL A   1      44.765  24.534  36.098  1.00  0.00    -0.200 F 
ATOM     70  F   UNL A   1      47.332  25.440  35.911  1.00  0.00    -0.200 F 
ENDBRANCH  37  60
ENDBRANCH  11  12
ENDBRANCH   4   6
ENDBRANCH   3   4
ENDBRANCH   2   3
ENDBRANCH   1   2
BRANCH   1  71
ATOM     71  O   UNL A   1      31.742  29.911  26.191  1.00  0.00    -0.458 OA
BRANCH  71  72
ATOM     72  C   UNL A   1      32.239  29.571  24.968  1.00  0.00     0.340 C 
ATOM     73  O   UNL A   1      33.395  29.297  24.700  1.00  0.00    -0.246 OA
BRANCH  72  74
ATOM     74  C   UNL A   1      31.118  29.495  24.001  1.00  0.00     0.087 A 
ATOM     75  C   UNL A   1      30.069  30.417  24.198  1.00  0.00     0.060 A 
ATOM     76  C   UNL A   1      31.088  28.555  22.933  1.00  0.00     0.066 A 
ATOM     77  C   UNL A   1      28.968  30.400  23.361  1.00  0.00     0.159 A 
ATOM     78  C   UNL A   1      29.932  28.561  22.145  1.00  0.00     0.070 A 
ATOM     79  F   UNL A   1      27.993  31.302  23.529  1.00  0.00    -0.204 F 
ATOM     80  C   UNL A   1      28.880  29.449  22.369  1.00  0.00     0.160 A 
ATOM     81  F   UNL A   1      27.800  29.391  21.578  1.00  0.00    -0.204 F 
BRANCH  76  82
ATOM     82  N   UNL A   1      32.302  27.877  22.513  1.00  0.00    -0.279 N 
ATOM     83  H   UNL A   1      33.106  28.445  22.483  1.00  0.00     0.180 HD
BRANCH  82  84
ATOM     84  S   UNL A   1      32.551  26.255  22.065  1.00  0.00     0.261 S 
ATOM     85  O   UNL A   1      31.245  25.628  22.065  1.00  0.00    -0.201 OA
ATOM     86  O   UNL A   1      33.362  26.230  20.869  1.00  0.00    -0.201 OA
BRANCH  84  87
ATOM     87  C   UNL A   1      33.509  25.444  23.315  1.00  0.00     0.088 A 
ATOM     88  C   UNL A   1      33.573  25.995  24.607  1.00  0.00     0.022 A 
ATOM     89  C   UNL A   1      34.236  24.290  22.973  1.00  0.00     0.026 A 
ATOM     90  C   UNL A   1      34.456  25.453  25.546  1.00  0.00     0.005 A 
ATOM     91  C   UNL A   1      35.099  23.765  23.917  1.00  0.00    -0.043 A 
ATOM     92  C   UNL A   1      35.221  24.354  25.181  1.00  0.00    -0.045 A 
ATOM     93  C   UNL A   1      36.064  22.632  23.755  1.00  0.00     0.036 C 
ATOM     94  C   UNL A   1      36.309  23.688  25.967  1.00  0.00     0.036 C 
ATOM     95  C   UNL A   1      36.452  22.357  25.215  1.00  0.00     0.010 C 
ENDBRANCH  84  87
ENDBRANCH  82  84
ENDBRANCH  76  82
ENDBRANCH  72  74
ENDBRANCH  71  72
ENDBRANCH   1  71
TORSDOF 14
ENDMDL
MODEL 2
REMARK VINA RESULT:     -13.0      5.245     10.697
REMARK SMILES O=C(OCCOC(=O)c1cc(F)c(F)cc1NS(=O)(=O)c1ccc2c(c1)CCC2)c1ccc(-c2c3nc(c(-c4c(F)c(F)c(F)c(F)c4F)c4ccc([nH]4)c(-c4c(F)c(F)c(F)c(F)c4F)c4nc(c(-c5c(F)c(F)c(F)c(F)c5F)c5ccc2[nH]5)C=C4)C=C3)cc1
REMARK SMILES IDX 5 1 4 2 3 3 2 4 1 5 30 6 31 7 92 8 32 9 91 10 33 11 34 12
REMARK SMILES IDX 35 13 85 14 36 15 90 16 84 17 86 18 37 19 89 20 83 21 82 22
REMARK SMILES IDX 38 24 70 25 50 26 69 27 51 28 54 29 68 30 87 31 52 32 53 33
REMARK SMILES IDX 67 35 88 36 55 37 39 38 40 39 48 40 41 41 42 42 46 43 49 44
REMARK SMILES IDX 43 45 44 46 47 47 45 48 71 49 72 50 80 51 73 52 74 53 78 54
REMARK SMILES IDX 81 55 75 56 76 57 79 58 77 59 56 60 57 61 65 62 58 63 59 64
REMARK SMILES IDX 63 65 66 66 60 67 61 68 64 69 62 70 6 71 7 72 8 73 9 74
REMARK SMILES IDX 10 75 16 76 11 77 15 78 12 79 13 80 14 81 17 82 18 84 19 85
REMARK SMILES IDX 20 86 21 87 22 88 26 89 23 90 25 91 24 92 27 93 29 94 28 95
REMARK H PARENT 86 23 54 34 17 83
REMARK Flexibility Score: inf
ROOT
ATOM      1  C   UNL A   1      38.003  20.993  25.364  1.00  0.00     0.275 C 
ENDROOT
BRANCH   1   2
ATOM      2  C   UNL A   1      38.711  19.686  24.995  1.00  0.00     0.275 C 
BRANCH   2   3
ATOM      3  O   UNL A   1      39.697  19.228  25.928  1.00  0.00    -0.458 OA
BRANCH   3   4
ATOM      4  C   UNL A   1      40.969  19.636  26.119  1.00  0.00     0.338 C 
ATOM      5  O   UNL A   1      41.866  18.818  25.933  1.00  0.00    -0.246 OA
BRANCH   4   6
ATOM      6  C   UNL A   1      41.353  21.001  26.617  1.00  0.00     0.060 A 
ATOM      7  C   UNL A   1      41.579  21.366  27.943  1.00  0.00     0.016 A 
ATOM      8  C   UNL A   1      41.554  21.989  25.637  1.00  0.00     0.016 A 
ATOM      9  C   UNL A   1      42.081  22.628  28.268  1.00  0.00     0.010 A 
ATOM     10  C   UNL A   1      42.096  23.237  25.942  1.00  0.00     0.010 A 
ATOM     11  C   UNL A   1      42.359  23.564  27.271  1.00  0.00    -0.014 A 
BRANCH  11  12
ATOM     12  C   UNL A   1      42.773  24.930  27.648  1.00  0.00     0.031 A 
ATOM     13  C   UNL A   1      44.200  25.322  27.434  1.00  0.00     0.074 A 
ATOM     14  C   UNL A   1      41.870  25.818  28.101  1.00  0.00     0.049 A 
ATOM     15  N   UNL A   1      44.766  26.486  27.603  1.00  0.00    -0.248 NA
ATOM     16  C   UNL A   1      45.107  24.276  26.928  1.00  0.00     0.031 C 
ATOM     17  C   UNL A   1      40.443  25.552  28.259  1.00  0.00     0.029 A 
ATOM     18  N   UNL A   1      42.008  27.118  28.511  1.00  0.00    -0.354 N 
ATOM     19  C   UNL A   1      46.073  26.324  27.173  1.00  0.00     0.074 A 
ATOM     20  C   UNL A   1      46.252  24.932  26.832  1.00  0.00     0.031 C 
ATOM     21  C   UNL A   1      39.844  26.630  28.787  1.00  0.00     0.029 A 
ATOM     22  C   UNL A   1      40.842  27.674  28.981  1.00  0.00     0.049 A 
ATOM     23  H   UNL A   1      42.862  27.607  28.474  1.00  0.00     0.167 HD
ATOM     24  C   UNL A   1      47.022  27.274  27.021  1.00  0.00     0.037 A 
ATOM     25  C   UNL A   1      40.606  28.893  29.499  1.00  0.00     0.037 A 
ATOM     26  C   UNL A   1      46.827  28.649  27.382  1.00  0.00     0.049 A 
ATOM     27  C   UNL A   1      41.721  29.899  29.471  1.00  0.00     0.074 A 
ATOM     28  C   UNL A   1      47.718  29.698  27.287  1.00  0.00     0.029 A 
ATOM     29  N   UNL A   1      45.652  29.159  27.924  1.00  0.00    -0.354 N 
ATOM     30  N   UNL A   1      42.943  29.751  29.015  1.00  0.00    -0.248 NA
ATOM     31  C   UNL A   1      41.424  31.244  29.976  1.00  0.00     0.031 C 
ATOM     32  C   UNL A   1      47.106  30.832  27.830  1.00  0.00     0.029 A 
ATOM     33  C   UNL A   1      45.810  30.504  28.204  1.00  0.00     0.049 A 
ATOM     34  H   UNL A   1      44.832  28.640  28.086  1.00  0.00     0.167 HD
ATOM     35  C   UNL A   1      43.548  30.993  29.132  1.00  0.00     0.074 A 
ATOM     36  C   UNL A   1      42.559  31.881  29.712  1.00  0.00     0.031 C 
ATOM     37  C   UNL A   1      44.801  31.365  28.775  1.00  0.00     0.037 A 
BRANCH  24  38
ATOM     38  C   UNL A   1      48.336  26.838  26.446  1.00  0.00     0.064 A 
ATOM     39  C   UNL A   1      49.307  26.239  27.259  1.00  0.00     0.173 A 
ATOM     40  C   UNL A   1      48.630  27.005  25.083  1.00  0.00     0.173 A 
ATOM     41  F   UNL A   1      49.070  26.050  28.566  1.00  0.00    -0.203 F 
ATOM     42  C   UNL A   1      50.524  25.822  26.729  1.00  0.00     0.198 A 
ATOM     43  C   UNL A   1      49.837  26.559  24.551  1.00  0.00     0.198 A 
ATOM     44  F   UNL A   1      47.723  27.550  24.257  1.00  0.00    -0.203 F 
ATOM     45  F   UNL A   1      51.442  25.261  27.529  1.00  0.00    -0.200 F 
ATOM     46  C   UNL A   1      50.785  25.974  25.376  1.00  0.00     0.200 A 
ATOM     47  F   UNL A   1      50.072  26.675  23.236  1.00  0.00    -0.200 F 
ATOM     48  F   UNL A   1      51.947  25.545  24.863  1.00  0.00    -0.200 F 
ENDBRANCH  24  38
BRANCH  25  49
ATOM     49  C   UNL A   1      39.251  29.223  30.015  1.00  0.00     0.064 A 
ATOM     50  C   UNL A   1      38.299  29.850  29.196  1.00  0.00     0.173 A 
ATOM     51  C   UNL A   1      38.899  28.976  31.349  1.00  0.00     0.173 A 
ATOM     52  F   UNL A   1      38.586  30.111  27.913  1.00  0.00    -0.203 F 
ATOM     53  C   UNL A   1      37.054  30.231  29.696  1.00  0.00     0.198 A 
ATOM     54  C   UNL A   1      37.646  29.340  31.842  1.00  0.00     0.198 A 
ATOM     55  F   UNL A   1      39.768  28.370  32.170  1.00  0.00    -0.203 F 
ATOM     56  F   UNL A   1      36.174  30.854  28.899  1.00  0.00    -0.200 F 
ATOM     57  C   UNL A   1      36.728  29.975  31.019  1.00  0.00     0.200 A 
ATOM     58  F   UNL A   1      37.329  29.078  33.118  1.00  0.00    -0.200 F 
ATOM     59  F   UNL A   1      35.531  30.339  31.500  1.00  0.00    -0.200 F 
ENDBRANCH  25  49
BRANCH  37  60
ATOM     60  C   UNL A   1      45.180  32.801  28.971  1.00  0.00     0.064 A 
ATOM     61  C   UNL A   1      44.949  33.736  27.951  1.00  0.00     0.173 A 
ATOM     62  C   UNL A   1      45.879  33.224  30.110  1.00  0.00     0.173 A 
ATOM     63  F   UNL A   1      44.292  33.373  26.838  1.00  0.00    -0.203 F 
ATOM     64  C   UNL A   1      45.433  35.036  28.049  1.00  0.00     0.198 A 
ATOM     65  C   UNL A   1      46.333  34.535  30.219  1.00  0.00     0.198 A 
ATOM     66  F   UNL A   1      46.111  32.368  31.117  1.00  0.00    -0.203 F 
ATOM     67  F   UNL A   1      45.250  35.895  27.038  1.00  0.00    -0.200 F 
ATOM     68  C   UNL A   1      46.124  35.434  29.184  1.00  0.00     0.200 A 
ATOM     69  F   UNL A   1      46.981  34.925  31.326  1.00  0.00    -0.200 F 
ATOM     70  F   UNL A   1      46.594  36.685  29.276  1.00  0.00    -0.200 F 
ENDBRANCH  37  60
ENDBRANCH  11  12
ENDBRANCH   4   6
ENDBRANCH   3   4
ENDBRANCH   2   3
ENDBRANCH   1   2
BRANCH   1  71
ATOM     71  O   UNL A   1      36.769  21.237  24.667  1.00  0.00    -0.458 OA
BRANCH  71  72
ATOM     72  C   UNL A   1      35.644  21.364  25.427  1.00  0.00     0.340 C 
ATOM     73  O   UNL A   1      35.516  22.035  26.435  1.00  0.00    -0.246 OA
BRANCH  72  74
ATOM     74  C   UNL A   1      34.543  20.613  24.779  1.00  0.00     0.087 A 
ATOM     75  C   UNL A   1      34.630  19.207  24.845  1.00  0.00     0.060 A 
ATOM     76  C   UNL A   1      33.455  21.258  24.125  1.00  0.00     0.066 A 
ATOM     77  C   UNL A   1      33.662  18.426  24.242  1.00  0.00     0.159 A 
ATOM     78  C   UNL A   1      32.529  20.415  23.503  1.00  0.00     0.070 A 
ATOM     79  F   UNL A   1      33.730  17.092  24.340  1.00  0.00    -0.204 F 
ATOM     80  C   UNL A   1      32.642  19.025  23.537  1.00  0.00     0.160 A 
ATOM     81  F   UNL A   1      31.721  18.281  22.911  1.00  0.00    -0.204 F 
BRANCH  76  82
ATOM     82  N   UNL A   1      33.174  22.661  24.374  1.00  0.00    -0.279 N 
ATOM     83  H   UNL A   1      33.709  23.294  23.842  1.00  0.00     0.180 HD
BRANCH  82  84
ATOM     84  S   UNL A   1      32.063  23.382  25.444  1.00  0.00     0.261 S 
ATOM     85  O   UNL A   1      30.775  23.336  24.784  1.00  0.00    -0.201 OA
ATOM     86  O   UNL A   1      32.226  22.778  26.747  1.00  0.00    -0.201 OA
BRANCH  84  87
ATOM     87  C   UNL A   1      32.475  25.092  25.648  1.00  0.00     0.088 A 
ATOM     88  C   UNL A   1      33.654  25.596  25.072  1.00  0.00     0.022 A 
ATOM     89  C   UNL A   1      31.637  25.904  26.435  1.00  0.00     0.026 A 
ATOM     90  C   UNL A   1      34.066  26.899  25.368  1.00  0.00     0.005 A 
ATOM     91  C   UNL A   1      32.058  27.191  26.711  1.00  0.00    -0.043 A 
ATOM     92  C   UNL A   1      33.269  27.673  26.200  1.00  0.00    -0.045 A 
ATOM     93  C   UNL A   1      31.416  28.197  27.615  1.00  0.00     0.036 C 
ATOM     94  C   UNL A   1      33.563  29.036  26.748  1.00  0.00     0.036 C 
ATOM     95  C   UNL A   1      32.172  29.476  27.228  1.00  0.00     0.010 C 
ENDBRANCH  84  87
ENDBRANCH  82  84
ENDBRANCH  76  82
ENDBRANCH  72  74
ENDBRANCH  71  72
ENDBRANCH   1  71
TORSDOF 14
ENDMDL
MODEL 3
REMARK VINA RESULT:     -13.0      2.264      4.438
REMARK SMILES O=C(OCCOC(=O)c1cc(F)c(F)cc1NS(=O)(=O)c1ccc2c(c1)CCC2)c1ccc(-c2c3nc(c(-c4c(F)c(F)c(F)c(F)c4F)c4ccc([nH]4)c(-c4c(F)c(F)c(F)c(F)c4F)c4nc(c(-c5c(F)c(F)c(F)c(F)c5F)c5ccc2[nH]5)C=C4)C=C3)cc1
REMARK SMILES IDX 5 1 4 2 3 3 2 4 1 5 30 6 31 7 92 8 32 9 91 10 33 11 34 12
REMARK SMILES IDX 35 13 85 14 36 15 90 16 84 17 86 18 37 19 89 20 83 21 82 22
REMARK SMILES IDX 38 24 70 25 50 26 69 27 51 28 54 29 68 30 87 31 52 32 53 33
REMARK SMILES IDX 67 35 88 36 55 37 39 38 40 39 48 40 41 41 42 42 46 43 49 44
REMARK SMILES IDX 43 45 44 46 47 47 45 48 71 49 72 50 80 51 73 52 74 53 78 54
REMARK SMILES IDX 81 55 75 56 76 57 79 58 77 59 56 60 57 61 65 62 58 63 59 64
REMARK SMILES IDX 63 65 66 66 60 67 61 68 64 69 62 70 6 71 7 72 8 73 9 74
REMARK SMILES IDX 10 75 16 76 11 77 15 78 12 79 13 80 14 81 17 82 18 84 19 85
REMARK SMILES IDX 20 86 21 87 22 88 26 89 23 90 25 91 24 92 27 93 29 94 28 95
REMARK H PARENT 86 23 54 34 17 83
REMARK Flexibility Score: inf
ROOT
ATOM      1  C   UNL A   1      31.679  28.252  26.183  1.00  0.00     0.275 C 
ENDROOT
BRANCH   1   2
ATOM      2  C   UNL A   1      31.863  29.540  26.991  1.00  0.00     0.275 C 
BRANCH   2   3
ATOM      3  O   UNL A   1      32.925  30.400  26.556  1.00  0.00    -0.458 OA
BRANCH   3   4
ATOM      4  C   UNL A   1      33.664  31.288  27.252  1.00  0.00     0.338 C 
ATOM      5  O   UNL A   1      33.254  32.444  27.319  1.00  0.00    -0.246 OA
BRANCH   4   6
ATOM      6  C   UNL A   1      34.991  30.974  27.883  1.00  0.00     0.060 A 
ATOM      7  C   UNL A   1      36.078  31.839  28.001  1.00  0.00     0.016 A 
ATOM      8  C   UNL A   1      35.123  29.697  28.455  1.00  0.00     0.016 A 
ATOM      9  C   UNL A   1      37.205  31.483  28.745  1.00  0.00     0.010 A 
ATOM     10  C   UNL A   1      36.222  29.344  29.237  1.00  0.00     0.010 A 
ATOM     11  C   UNL A   1      37.278  30.243  29.381  1.00  0.00    -0.014 A 
BRANCH  11  12
ATOM     12  C   UNL A   1      38.527  29.844  30.058  1.00  0.00     0.031 A 
ATOM     13  C   UNL A   1      38.827  30.436  31.398  1.00  0.00     0.074 A 
ATOM     14  C   UNL A   1      39.333  28.914  29.514  1.00  0.00     0.049 A 
ATOM     15  N   UNL A   1      39.810  30.166  32.213  1.00  0.00    -0.248 NA
ATOM     16  C   UNL A   1      37.877  31.441  31.907  1.00  0.00     0.031 C 
ATOM     17  C   UNL A   1      39.077  28.220  28.256  1.00  0.00     0.029 A 
ATOM     18  N   UNL A   1      40.526  28.390  29.941  1.00  0.00    -0.354 N 
ATOM     19  C   UNL A   1      39.564  30.924  33.347  1.00  0.00     0.074 A 
ATOM     20  C   UNL A   1      38.403  31.740  33.084  1.00  0.00     0.031 C 
ATOM     21  C   UNL A   1      40.107  27.404  27.978  1.00  0.00     0.029 A 
ATOM     22  C   UNL A   1      41.084  27.501  29.054  1.00  0.00     0.049 A 
ATOM     23  H   UNL A   1      40.942  28.629  30.800  1.00  0.00     0.167 HD
ATOM     24  C   UNL A   1      40.220  30.891  34.528  1.00  0.00     0.037 A 
ATOM     25  C   UNL A   1      42.250  26.831  29.112  1.00  0.00     0.037 A 
ATOM     26  C   UNL A   1      41.383  30.082  34.762  1.00  0.00     0.049 A 
ATOM     27  C   UNL A   1      43.057  26.928  30.375  1.00  0.00     0.074 A 
ATOM     28  C   UNL A   1      42.140  29.976  35.910  1.00  0.00     0.029 A 
ATOM     29  N   UNL A   1      41.963  29.247  33.813  1.00  0.00    -0.354 N 
ATOM     30  N   UNL A   1      42.791  27.610  31.464  1.00  0.00    -0.248 NA
ATOM     31  C   UNL A   1      44.290  26.136  30.446  1.00  0.00     0.031 C 
ATOM     32  C   UNL A   1      43.216  29.125  35.638  1.00  0.00     0.029 A 
ATOM     33  C   UNL A   1      43.093  28.650  34.340  1.00  0.00     0.049 A 
ATOM     34  H   UNL A   1      41.620  29.104  32.901  1.00  0.00     0.167 HD
ATOM     35  C   UNL A   1      43.793  27.294  32.368  1.00  0.00     0.074 A 
ATOM     36  C   UNL A   1      44.679  26.365  31.694  1.00  0.00     0.031 C 
ATOM     37  C   UNL A   1      43.952  27.721  33.645  1.00  0.00     0.037 A 
BRANCH  24  38
ATOM     38  C   UNL A   1      39.686  31.755  35.629  1.00  0.00     0.064 A 
ATOM     39  C   UNL A   1      40.182  33.051  35.822  1.00  0.00     0.173 A 
ATOM     40  C   UNL A   1      38.671  31.303  36.489  1.00  0.00     0.173 A 
ATOM     41  F   UNL A   1      41.144  33.533  35.022  1.00  0.00    -0.203 F 
ATOM     42  C   UNL A   1      39.681  33.864  36.836  1.00  0.00     0.198 A 
ATOM     43  C   UNL A   1      38.153  32.129  37.482  1.00  0.00     0.198 A 
ATOM     44  F   UNL A   1      38.145  30.078  36.328  1.00  0.00    -0.203 F 
ATOM     45  F   UNL A   1      40.179  35.096  37.009  1.00  0.00    -0.200 F 
ATOM     46  C   UNL A   1      38.663  33.406  37.658  1.00  0.00     0.200 A 
ATOM     47  F   UNL A   1      37.144  31.697  38.252  1.00  0.00    -0.200 F 
ATOM     48  F   UNL A   1      38.163  34.200  38.615  1.00  0.00    -0.200 F 
ENDBRANCH  24  38
BRANCH  25  49
ATOM     49  C   UNL A   1      42.666  25.979  27.967  1.00  0.00     0.064 A 
ATOM     50  C   UNL A   1      43.513  26.478  26.965  1.00  0.00     0.173 A 
ATOM     51  C   UNL A   1      42.181  24.673  27.815  1.00  0.00     0.173 A 
ATOM     52  F   UNL A   1      44.004  27.721  27.060  1.00  0.00    -0.203 F 
ATOM     53  C   UNL A   1      43.845  25.709  25.850  1.00  0.00     0.198 A 
ATOM     54  C   UNL A   1      42.529  23.898  26.709  1.00  0.00     0.198 A 
ATOM     55  F   UNL A   1      41.376  24.145  28.749  1.00  0.00    -0.203 F 
ATOM     56  F   UNL A   1      44.634  26.221  24.894  1.00  0.00    -0.200 F 
ATOM     57  C   UNL A   1      43.353  24.419  25.723  1.00  0.00     0.200 A 
ATOM     58  F   UNL A   1      42.063  22.646  26.597  1.00  0.00    -0.200 F 
ATOM     59  F   UNL A   1      43.673  23.679  24.653  1.00  0.00    -0.200 F 
ENDBRANCH  25  49
BRANCH  37  60
ATOM     60  C   UNL A   1      45.113  27.175  34.419  1.00  0.00     0.064 A 
ATOM     61  C   UNL A   1      44.958  26.017  35.196  1.00  0.00     0.173 A 
ATOM     62  C   UNL A   1      46.332  27.861  34.489  1.00  0.00     0.173 A 
ATOM     63  F   UNL A   1      43.804  25.332  35.166  1.00  0.00    -0.203 F 
ATOM     64  C   UNL A   1      45.973  25.584  36.042  1.00  0.00     0.198 A 
ATOM     65  C   UNL A   1      47.357  27.406  35.312  1.00  0.00     0.198 A 
ATOM     66  F   UNL A   1      46.530  28.966  33.754  1.00  0.00    -0.203 F 
ATOM     67  F   UNL A   1      45.782  24.508  36.817  1.00  0.00    -0.200 F 
ATOM     68  C   UNL A   1      47.171  26.278  36.099  1.00  0.00     0.200 A 
ATOM     69  F   UNL A   1      48.524  28.064  35.350  1.00  0.00    -0.200 F 
ATOM     70  F   UNL A   1      48.147  25.862  36.917  1.00  0.00    -0.200 F 
ENDBRANCH  37  60
ENDBRANCH  11  12
ENDBRANCH   4   6
ENDBRANCH   3   4
ENDBRANCH   2   3
ENDBRANCH   1   2
BRANCH   1  71
ATOM     71  O   UNL A   1      32.629  27.210  26.471  1.00  0.00    -0.458 OA
BRANCH  71  72
ATOM     72  C   UNL A   1      32.154  25.933  26.499  1.00  0.00     0.340 C 
ATOM     73  O   UNL A   1      31.017  25.582  26.756  1.00  0.00    -0.246 OA
BRANCH  72  74
ATOM     74  C   UNL A   1      33.235  25.012  26.072  1.00  0.00     0.087 A 
ATOM     75  C   UNL A   1      33.406  23.853  26.858  1.00  0.00     0.060 A 
ATOM     76  C   UNL A   1      34.059  25.269  24.940  1.00  0.00     0.066 A 
ATOM     77  C   UNL A   1      34.409  22.952  26.551  1.00  0.00     0.159 A 
ATOM     78  C   UNL A   1      35.079  24.341  24.704  1.00  0.00     0.070 A 
ATOM     79  F   UNL A   1      34.542  21.835  27.276  1.00  0.00    -0.204 F 
ATOM     80  C   UNL A   1      35.269  23.217  25.508  1.00  0.00     0.160 A 
ATOM     81  F   UNL A   1      36.272  22.376  25.225  1.00  0.00    -0.204 F 
BRANCH  76  82
ATOM     82  N   UNL A   1      33.654  26.240  23.939  1.00  0.00    -0.279 N 
ATOM     83  H   UNL A   1      34.032  27.142  24.057  1.00  0.00     0.180 HD
BRANCH  82  84
ATOM     84  S   UNL A   1      32.626  26.062  22.595  1.00  0.00     0.261 S 
ATOM     85  O   UNL A   1      33.276  26.741  21.493  1.00  0.00    -0.201 OA
ATOM     86  O   UNL A   1      32.271  24.666  22.472  1.00  0.00    -0.201 OA
BRANCH  84  87
ATOM     87  C   UNL A   1      31.107  26.921  22.902  1.00  0.00     0.088 A 
ATOM     88  C   UNL A   1      30.050  26.252  23.544  1.00  0.00     0.022 A 
ATOM     89  C   UNL A   1      30.970  28.244  22.446  1.00  0.00     0.026 A 
ATOM     90  C   UNL A   1      28.799  26.869  23.640  1.00  0.00     0.005 A 
ATOM     91  C   UNL A   1      29.727  28.840  22.556  1.00  0.00    -0.043 A 
ATOM     92  C   UNL A   1      28.651  28.151  23.127  1.00  0.00    -0.045 A 
ATOM     93  C   UNL A   1      29.297  30.176  22.037  1.00  0.00     0.036 C 
ATOM     94  C   UNL A   1      27.392  28.954  23.007  1.00  0.00     0.036 C 
ATOM     95  C   UNL A   1      27.954  30.361  22.757  1.00  0.00     0.010 C 
ENDBRANCH  84  87
ENDBRANCH  82  84
ENDBRANCH  76  82
ENDBRANCH  72  74
ENDBRANCH  71  72
ENDBRANCH   1  71
TORSDOF 14
ENDMDL
