MODEL 1
REMARK VINA RESULT:     -11.3      0.000      0.000
REMARK SMILES O=C(OCCOC(=O)c1cncc(Sc2ccc(Cl)cn2)n1)c1ccc(-c2c3nc(c(-c4c(F)c(F)c(F)c(F)c4F)c4ccc([nH]4)c(-c4c(F)c(F)c(F)c(F)c4F)c4nc(c(-c5c(F)c(F)c(F)c(F)c5F)c5ccc2[nH]5)C=C4)C=C3)cc1
REMARK SMILES IDX 4 1 3 2 2 3 1 4 23 5 24 6 85 7 25 8 84 9 26 10 27 11 28 12
REMARK SMILES IDX 78 13 29 14 83 15 77 16 79 17 30 18 82 19 76 20 75 21 31 23
REMARK SMILES IDX 63 24 43 25 62 26 44 27 47 28 61 29 80 30 45 31 46 32 60 34
REMARK SMILES IDX 81 35 48 36 32 37 33 38 41 39 34 40 35 41 39 42 42 43 36 44
REMARK SMILES IDX 37 45 40 46 38 47 64 48 65 49 73 50 66 51 67 52 71 53 74 54
REMARK SMILES IDX 68 55 69 56 72 57 70 58 49 59 50 60 58 61 51 62 52 63 56 64
REMARK SMILES IDX 59 65 53 66 54 67 57 68 55 69 5 70 6 71 7 72 8 73 9 74 10 75
REMARK SMILES IDX 22 76 11 77 13 78 12 79 14 80 15 81 16 82 21 83 17 84 20 85
REMARK SMILES IDX 18 86 19 87
REMARK H PARENT 79 22 47 33
REMARK Flexibility Score: inf
ROOT
ATOM      1  C   UNL A   1      40.457  21.235  26.816  1.00  0.00     0.275 C 
ENDROOT
BRANCH   1   2
ATOM      2  O   UNL A   1      39.355  21.766  26.063  1.00  0.00    -0.458 OA
BRANCH   2   3
ATOM      3  C   UNL A   1      38.669  22.916  26.255  1.00  0.00     0.338 C 
ATOM      4  O   UNL A   1      37.539  23.033  25.784  1.00  0.00    -0.246 OA
BRANCH   3   5
ATOM      5  C   UNL A   1      39.268  24.127  26.895  1.00  0.00     0.060 A 
ATOM      6  C   UNL A   1      39.179  24.483  28.240  1.00  0.00     0.016 A 
ATOM      7  C   UNL A   1      39.918  25.017  26.022  1.00  0.00     0.016 A 
ATOM      8  C   UNL A   1      39.757  25.672  28.706  1.00  0.00     0.010 A 
ATOM      9  C   UNL A   1      40.496  26.205  26.475  1.00  0.00     0.010 A 
ATOM     10  C   UNL A   1      40.404  26.545  27.826  1.00  0.00    -0.014 A 
BRANCH  10  11
ATOM     11  C   UNL A   1      40.874  27.865  28.305  1.00  0.00     0.031 A 
ATOM     12  C   UNL A   1      42.347  28.145  28.337  1.00  0.00     0.074 A 
ATOM     13  C   UNL A   1      39.989  28.804  28.682  1.00  0.00     0.049 A 
ATOM     14  N   UNL A   1      42.972  29.249  28.654  1.00  0.00    -0.248 NA
ATOM     15  C   UNL A   1      43.238  27.039  27.947  1.00  0.00     0.031 C 
ATOM     16  C   UNL A   1      38.538  28.638  28.677  1.00  0.00     0.029 A 
ATOM     17  N   UNL A   1      40.175  30.078  29.154  1.00  0.00    -0.354 N 
ATOM     18  C   UNL A   1      44.321  28.982  28.469  1.00  0.00     0.074 A 
ATOM     19  C   UNL A   1      44.433  27.595  28.076  1.00  0.00     0.031 C 
ATOM     20  C   UNL A   1      37.962  29.750  29.161  1.00  0.00     0.029 A 
ATOM     21  C   UNL A   1      39.005  30.711  29.502  1.00  0.00     0.049 A 
ATOM     22  H   UNL A   1      41.061  30.499  29.236  1.00  0.00     0.167 HD
ATOM     23  C   UNL A   1      45.367  29.833  28.586  1.00  0.00     0.037 A 
ATOM     24  C   UNL A   1      38.806  31.929  30.037  1.00  0.00     0.037 A 
ATOM     25  C   UNL A   1      45.242  31.205  28.997  1.00  0.00     0.049 A 
ATOM     26  C   UNL A   1      39.997  32.828  30.241  1.00  0.00     0.074 A 
ATOM     27  C   UNL A   1      46.230  32.163  29.129  1.00  0.00     0.029 A 
ATOM     28  N   UNL A   1      44.046  31.809  29.359  1.00  0.00    -0.354 N 
ATOM     29  N   UNL A   1      41.261  32.595  29.980  1.00  0.00    -0.248 NA
ATOM     30  C   UNL A   1      39.733  34.166  30.787  1.00  0.00     0.031 C 
ATOM     31  C   UNL A   1      45.639  33.333  29.616  1.00  0.00     0.029 A 
ATOM     32  C   UNL A   1      44.275  33.119  29.743  1.00  0.00     0.049 A 
ATOM     33  H   UNL A   1      43.165  31.370  29.346  1.00  0.00     0.167 HD
ATOM     34  C   UNL A   1      41.937  33.766  30.287  1.00  0.00     0.074 A 
ATOM     35  C   UNL A   1      40.941  34.711  30.750  1.00  0.00     0.031 C 
ATOM     36  C   UNL A   1      43.261  34.041  30.189  1.00  0.00     0.037 A 
BRANCH  23  37
ATOM     37  C   UNL A   1      46.728  29.296  28.261  1.00  0.00     0.064 A 
ATOM     38  C   UNL A   1      47.636  28.947  29.274  1.00  0.00     0.173 A 
ATOM     39  C   UNL A   1      47.128  29.117  26.930  1.00  0.00     0.173 A 
ATOM     40  F   UNL A   1      47.306  29.118  30.563  1.00  0.00    -0.203 F 
ATOM     41  C   UNL A   1      48.902  28.459  28.965  1.00  0.00     0.198 A 
ATOM     42  C   UNL A   1      48.388  28.605  26.624  1.00  0.00     0.198 A 
ATOM     43  F   UNL A   1      46.299  29.437  25.926  1.00  0.00    -0.203 F 
ATOM     44  F   UNL A   1      49.767  28.174  29.947  1.00  0.00    -0.200 F 
ATOM     45  C   UNL A   1      49.275  28.284  27.641  1.00  0.00     0.200 A 
ATOM     46  F   UNL A   1      48.747  28.432  25.344  1.00  0.00    -0.200 F 
ATOM     47  F   UNL A   1      50.495  27.813  27.344  1.00  0.00    -0.200 F 
ENDBRANCH  23  37
BRANCH  24  48
ATOM     48  C   UNL A   1      37.435  32.377  30.398  1.00  0.00     0.064 A 
ATOM     49  C   UNL A   1      36.630  33.071  29.483  1.00  0.00     0.173 A 
ATOM     50  C   UNL A   1      36.909  32.139  31.677  1.00  0.00     0.173 A 
ATOM     51  F   UNL A   1      37.094  33.340  28.254  1.00  0.00    -0.203 F 
ATOM     52  C   UNL A   1      35.366  33.534  29.843  1.00  0.00     0.198 A 
ATOM     53  C   UNL A   1      35.633  32.579  32.026  1.00  0.00     0.198 A 
ATOM     54  F   UNL A   1      37.637  31.479  32.589  1.00  0.00    -0.203 F 
ATOM     55  F   UNL A   1      34.639  34.240  28.965  1.00  0.00    -0.200 F 
ATOM     56  C   UNL A   1      34.866  33.286  31.113  1.00  0.00     0.200 A 
ATOM     57  F   UNL A   1      35.152  32.328  33.251  1.00  0.00    -0.200 F 
ATOM     58  F   UNL A   1      33.653  33.735  31.459  1.00  0.00    -0.200 F 
ENDBRANCH  24  48
BRANCH  36  59
ATOM     59  C   UNL A   1      43.699  35.428  30.551  1.00  0.00     0.064 A 
ATOM     60  C   UNL A   1      44.135  35.745  31.844  1.00  0.00     0.173 A 
ATOM     61  C   UNL A   1      43.721  36.439  29.578  1.00  0.00     0.173 A 
ATOM     62  F   UNL A   1      44.114  34.817  32.811  1.00  0.00    -0.203 F 
ATOM     63  C   UNL A   1      44.558  37.035  32.158  1.00  0.00     0.198 A 
ATOM     64  C   UNL A   1      44.173  37.718  29.887  1.00  0.00     0.198 A 
ATOM     65  F   UNL A   1      43.319  36.181  28.324  1.00  0.00    -0.203 F 
ATOM     66  F   UNL A   1      44.927  37.330  33.412  1.00  0.00    -0.200 F 
ATOM     67  C   UNL A   1      44.584  38.016  31.178  1.00  0.00     0.200 A 
ATOM     68  F   UNL A   1      44.210  38.661  28.937  1.00  0.00    -0.200 F 
ATOM     69  F   UNL A   1      45.000  39.253  31.479  1.00  0.00    -0.200 F 
ENDBRANCH  36  59
ENDBRANCH  10  11
ENDBRANCH   3   5
ENDBRANCH   2   3
ENDBRANCH   1   2
BRANCH   1  70
ATOM     70  C   UNL A   1      40.807  19.782  26.495  1.00  0.00     0.275 C 
BRANCH  70  71
ATOM     71  O   UNL A   1      41.782  19.651  25.450  1.00  0.00    -0.457 OA
BRANCH  71  72
ATOM     72  C   UNL A   1      42.766  18.735  25.688  1.00  0.00     0.358 C 
ATOM     73  O   UNL A   1      42.611  17.609  26.126  1.00  0.00    -0.244 OA
BRANCH  72  74
ATOM     74  C   UNL A   1      44.067  19.320  25.289  1.00  0.00     0.167 A 
ATOM     75  C   UNL A   1      45.191  18.512  25.250  1.00  0.00     0.147 A 
ATOM     76  N   UNL A   1      44.103  20.649  24.987  1.00  0.00    -0.231 NA
ATOM     77  N   UNL A   1      46.411  18.993  24.921  1.00  0.00    -0.259 NA
ATOM     78  C   UNL A   1      45.317  21.145  24.650  1.00  0.00     0.122 A 
ATOM     79  C   UNL A   1      46.444  20.320  24.627  1.00  0.00     0.146 A 
BRANCH  78  80
ATOM     80  S   UNL A   1      45.530  22.870  24.252  1.00  0.00    -0.048 SA
BRANCH  80  81
ATOM     81  C   UNL A   1      46.025  23.611  25.787  1.00  0.00     0.102 A 
ATOM     82  C   UNL A   1      47.054  24.550  25.809  1.00  0.00     0.037 A 
ATOM     83  N   UNL A   1      45.295  23.310  26.884  1.00  0.00    -0.248 NA
ATOM     84  C   UNL A   1      47.403  25.151  27.018  1.00  0.00     0.025 A 
ATOM     85  C   UNL A   1      45.648  23.917  28.045  1.00  0.00     0.132 A 
ATOM     86  C   UNL A   1      46.685  24.829  28.161  1.00  0.00     0.059 A 
ATOM     87  Cl  UNL A   1      47.057  25.565  29.665  1.00  0.00    -0.083 Cl
ENDBRANCH  80  81
ENDBRANCH  78  80
ENDBRANCH  72  74
ENDBRANCH  71  72
ENDBRANCH  70  71
ENDBRANCH   1  70
TORSDOF 13
ENDMDL
MODEL 2
REMARK VINA RESULT:     -11.2      4.461      6.318
REMARK SMILES O=C(OCCOC(=O)c1cncc(Sc2ccc(Cl)cn2)n1)c1ccc(-c2c3nc(c(-c4c(F)c(F)c(F)c(F)c4F)c4ccc([nH]4)c(-c4c(F)c(F)c(F)c(F)c4F)c4nc(c(-c5c(F)c(F)c(F)c(F)c5F)c5ccc2[nH]5)C=C4)C=C3)cc1
REMARK SMILES IDX 4 1 3 2 2 3 1 4 23 5 24 6 85 7 25 8 84 9 26 10 27 11 28 12
REMARK SMILES IDX 78 13 29 14 83 15 77 16 79 17 30 18 82 19 76 20 75 21 31 23
REMARK SMILES IDX 63 24 43 25 62 26 44 27 47 28 61 29 80 30 45 31 46 32 60 34
REMARK SMILES IDX 81 35 48 36 32 37 33 38 41 39 34 40 35 41 39 42 42 43 36 44
REMARK SMILES IDX 37 45 40 46 38 47 64 48 65 49 73 50 66 51 67 52 71 53 74 54
REMARK SMILES IDX 68 55 69 56 72 57 70 58 49 59 50 60 58 61 51 62 52 63 56 64
REMARK SMILES IDX 59 65 53 66 54 67 57 68 55 69 5 70 6 71 7 72 8 73 9 74 10 75
REMARK SMILES IDX 22 76 11 77 13 78 12 79 14 80 15 81 16 82 21 83 17 84 20 85
REMARK SMILES IDX 18 86 19 87
REMARK H PARENT 79 22 47 33
REMARK Flexibility Score: inf
ROOT
ATOM      1  C   UNL A   1      46.501  23.785  24.958  1.00  0.00     0.275 C 
ENDROOT
BRANCH   1   2
ATOM      2  O   UNL A   1      45.455  24.717  24.639  1.00  0.00    -0.458 OA
BRANCH   2   3
ATOM      3  C   UNL A   1      44.154  24.692  25.006  1.00  0.00     0.338 C 
ATOM      4  O   UNL A   1      43.365  23.976  24.392  1.00  0.00    -0.246 OA
BRANCH   3   5
ATOM      5  C   UNL A   1      43.579  25.606  26.040  1.00  0.00     0.060 A 
ATOM      6  C   UNL A   1      44.048  26.876  26.375  1.00  0.00     0.016 A 
ATOM      7  C   UNL A   1      42.507  25.085  26.784  1.00  0.00     0.016 A 
ATOM      8  C   UNL A   1      43.438  27.618  27.396  1.00  0.00     0.010 A 
ATOM      9  C   UNL A   1      41.892  25.815  27.804  1.00  0.00     0.010 A 
ATOM     10  C   UNL A   1      42.368  27.087  28.125  1.00  0.00    -0.014 A 
BRANCH  10  11
ATOM     11  C   UNL A   1      41.836  27.819  29.297  1.00  0.00     0.031 A 
ATOM     12  C   UNL A   1      42.506  27.644  30.628  1.00  0.00     0.074 A 
ATOM     13  C   UNL A   1      40.784  28.644  29.162  1.00  0.00     0.049 A 
ATOM     14  N   UNL A   1      42.250  28.235  31.766  1.00  0.00    -0.248 NA
ATOM     15  C   UNL A   1      43.622  26.686  30.685  1.00  0.00     0.031 C 
ATOM     16  C   UNL A   1      40.071  28.893  27.912  1.00  0.00     0.029 A 
ATOM     17  N   UNL A   1      40.121  29.415  30.081  1.00  0.00    -0.354 N 
ATOM     18  C   UNL A   1      43.192  27.749  32.662  1.00  0.00     0.074 A 
ATOM     19  C   UNL A   1      43.984  26.765  31.957  1.00  0.00     0.031 C 
ATOM     20  C   UNL A   1      39.044  29.727  28.146  1.00  0.00     0.029 A 
ATOM     21  C   UNL A   1      39.035  30.077  29.562  1.00  0.00     0.049 A 
ATOM     22  H   UNL A   1      40.398  29.488  31.024  1.00  0.00     0.167 HD
ATOM     23  C   UNL A   1      43.395  28.118  33.947  1.00  0.00     0.037 A 
ATOM     24  C   UNL A   1      38.135  30.874  30.168  1.00  0.00     0.037 A 
ATOM     25  C   UNL A   1      42.586  29.084  34.641  1.00  0.00     0.049 A 
ATOM     26  C   UNL A   1      38.330  31.201  31.624  1.00  0.00     0.074 A 
ATOM     27  C   UNL A   1      42.713  29.549  35.936  1.00  0.00     0.029 A 
ATOM     28  N   UNL A   1      41.482  29.721  34.091  1.00  0.00    -0.354 N 
ATOM     29  N   UNL A   1      39.278  30.803  32.440  1.00  0.00    -0.248 NA
ATOM     30  C   UNL A   1      37.352  32.109  32.238  1.00  0.00     0.031 C 
ATOM     31  C   UNL A   1      41.659  30.434  36.186  1.00  0.00     0.029 A 
ATOM     32  C   UNL A   1      40.901  30.555  35.031  1.00  0.00     0.049 A 
ATOM     33  H   UNL A   1      41.159  29.598  33.169  1.00  0.00     0.167 HD
ATOM     34  C   UNL A   1      39.036  31.441  33.647  1.00  0.00     0.074 A 
ATOM     35  C   UNL A   1      37.855  32.258  33.456  1.00  0.00     0.031 C 
ATOM     36  C   UNL A   1      39.732  31.366  34.808  1.00  0.00     0.037 A 
BRANCH  23  37
ATOM     37  C   UNL A   1      44.535  27.474  34.675  1.00  0.00     0.064 A 
ATOM     38  C   UNL A   1      45.814  28.053  34.686  1.00  0.00     0.173 A 
ATOM     39  C   UNL A   1      44.351  26.276  35.378  1.00  0.00     0.173 A 
ATOM     40  F   UNL A   1      46.046  29.190  34.013  1.00  0.00    -0.203 F 
ATOM     41  C   UNL A   1      46.872  27.444  35.356  1.00  0.00     0.198 A 
ATOM     42  C   UNL A   1      45.405  25.681  36.068  1.00  0.00     0.198 A 
ATOM     43  F   UNL A   1      43.149  25.681  35.397  1.00  0.00    -0.203 F 
ATOM     44  F   UNL A   1      48.094  27.992  35.316  1.00  0.00    -0.200 F 
ATOM     45  C   UNL A   1      46.665  26.262  36.050  1.00  0.00     0.200 A 
ATOM     46  F   UNL A   1      45.205  24.540  36.742  1.00  0.00    -0.200 F 
ATOM     47  F   UNL A   1      47.684  25.675  36.696  1.00  0.00    -0.200 F 
ENDBRANCH  23  37
BRANCH  24  48
ATOM     48  C   UNL A   1      36.987  31.429  29.402  1.00  0.00     0.064 A 
ATOM     49  C   UNL A   1      36.941  32.782  29.037  1.00  0.00     0.173 A 
ATOM     50  C   UNL A   1      35.899  30.620  29.041  1.00  0.00     0.173 A 
ATOM     51  F   UNL A   1      37.947  33.601  29.375  1.00  0.00    -0.203 F 
ATOM     52  C   UNL A   1      35.839  33.309  28.365  1.00  0.00     0.198 A 
ATOM     53  C   UNL A   1      34.811  31.143  28.345  1.00  0.00     0.198 A 
ATOM     54  F   UNL A   1      35.894  29.319  29.365  1.00  0.00    -0.203 F 
ATOM     55  F   UNL A   1      35.798  34.617  28.075  1.00  0.00    -0.200 F 
ATOM     56  C   UNL A   1      34.776  32.490  28.017  1.00  0.00     0.200 A 
ATOM     57  F   UNL A   1      33.790  30.345  28.002  1.00  0.00    -0.200 F 
ATOM     58  F   UNL A   1      33.715  32.999  27.376  1.00  0.00    -0.200 F 
ENDBRANCH  24  48
BRANCH  36  59
ATOM     59  C   UNL A   1      39.255  32.219  35.945  1.00  0.00     0.064 A 
ATOM     60  C   UNL A   1      38.331  31.741  36.884  1.00  0.00     0.173 A 
ATOM     61  C   UNL A   1      39.763  33.516  36.117  1.00  0.00     0.173 A 
ATOM     62  F   UNL A   1      37.805  30.515  36.750  1.00  0.00    -0.203 F 
ATOM     63  C   UNL A   1      37.915  32.540  37.946  1.00  0.00     0.198 A 
ATOM     64  C   UNL A   1      39.368  34.301  37.196  1.00  0.00     0.198 A 
ATOM     65  F   UNL A   1      40.654  34.015  35.247  1.00  0.00    -0.203 F 
ATOM     66  F   UNL A   1      36.996  32.081  38.806  1.00  0.00    -0.200 F 
ATOM     67  C   UNL A   1      38.440  33.815  38.105  1.00  0.00     0.200 A 
ATOM     68  F   UNL A   1      39.885  35.526  37.356  1.00  0.00    -0.200 F 
ATOM     69  F   UNL A   1      38.045  34.578  39.132  1.00  0.00    -0.200 F 
ENDBRANCH  36  59
ENDBRANCH  10  11
ENDBRANCH   3   5
ENDBRANCH   2   3
ENDBRANCH   1   2
BRANCH   1  70
ATOM     70  C   UNL A   1      46.364  22.419  24.286  1.00  0.00     0.275 C 
BRANCH  70  71
ATOM     71  O   UNL A   1      45.641  21.466  25.080  1.00  0.00    -0.457 OA
BRANCH  71  72
ATOM     72  C   UNL A   1      44.756  20.689  24.390  1.00  0.00     0.358 C 
ATOM     73  O   UNL A   1      44.835  20.380  23.214  1.00  0.00    -0.244 OA
BRANCH  72  74
ATOM     74  C   UNL A   1      43.691  20.242  25.316  1.00  0.00     0.167 A 
ATOM     75  C   UNL A   1      43.369  18.897  25.384  1.00  0.00     0.147 A 
ATOM     76  N   UNL A   1      43.053  21.191  26.061  1.00  0.00    -0.231 NA
ATOM     77  N   UNL A   1      42.388  18.431  26.189  1.00  0.00    -0.259 NA
ATOM     78  C   UNL A   1      42.071  20.739  26.876  1.00  0.00     0.122 A 
ATOM     79  C   UNL A   1      41.751  19.380  26.925  1.00  0.00     0.146 A 
BRANCH  78  80
ATOM     80  S   UNL A   1      41.131  21.861  27.895  1.00  0.00    -0.048 SA
BRANCH  80  81
ATOM     81  C   UNL A   1      39.714  22.261  26.904  1.00  0.00     0.102 A 
ATOM     82  C   UNL A   1      39.207  23.559  26.904  1.00  0.00     0.037 A 
ATOM     83  N   UNL A   1      39.237  21.297  26.086  1.00  0.00    -0.248 NA
ATOM     84  C   UNL A   1      38.116  23.865  26.090  1.00  0.00     0.025 A 
ATOM     85  C   UNL A   1      38.184  21.624  25.295  1.00  0.00     0.132 A 
ATOM     86  C   UNL A   1      37.594  22.878  25.267  1.00  0.00     0.059 A 
ATOM     87  Cl  UNL A   1      36.273  23.214  24.225  1.00  0.00    -0.083 Cl
ENDBRANCH  80  81
ENDBRANCH  78  80
ENDBRANCH  72  74
ENDBRANCH  71  72
ENDBRANCH  70  71
ENDBRANCH   1  70
TORSDOF 13
ENDMDL
MODEL 3
REMARK VINA RESULT:     -11.2      6.881     12.210
REMARK SMILES O=C(OCCOC(=O)c1cncc(Sc2ccc(Cl)cn2)n1)c1ccc(-c2c3nc(c(-c4c(F)c(F)c(F)c(F)c4F)c4ccc([nH]4)c(-c4c(F)c(F)c(F)c(F)c4F)c4nc(c(-c5c(F)c(F)c(F)c(F)c5F)c5ccc2[nH]5)C=C4)C=C3)cc1
REMARK SMILES IDX 4 1 3 2 2 3 1 4 23 5 24 6 85 7 25 8 84 9 26 10 27 11 28 12
REMARK SMILES IDX 78 13 29 14 83 15 77 16 79 17 30 18 82 19 76 20 75 21 31 23
REMARK SMILES IDX 63 24 43 25 62 26 44 27 47 28 61 29 80 30 45 31 46 32 60 34
REMARK SMILES IDX 81 35 48 36 32 37 33 38 41 39 34 40 35 41 39 42 42 43 36 44
REMARK SMILES IDX 37 45 40 46 38 47 64 48 65 49 73 50 66 51 67 52 71 53 74 54
REMARK SMILES IDX 68 55 69 56 72 57 70 58 49 59 50 60 58 61 51 62 52 63 56 64
REMARK SMILES IDX 59 65 53 66 54 67 57 68 55 69 5 70 6 71 7 72 8 73 9 74 10 75
REMARK SMILES IDX 22 76 11 77 13 78 12 79 14 80 15 81 16 82 21 83 17 84 20 85
REMARK SMILES IDX 18 86 19 87
REMARK H PARENT 79 22 47 33
REMARK Flexibility Score: inf
ROOT
ATOM      1  C   UNL A   1      32.367  33.160  26.938  1.00  0.00     0.275 C 
ENDROOT
BRANCH   1   2
ATOM      2  O   UNL A   1      32.031  34.161  27.912  1.00  0.00    -0.458 OA
BRANCH   2   3
ATOM      3  C   UNL A   1      32.854  34.906  28.685  1.00  0.00     0.338 C 
ATOM      4  O   UNL A   1      32.620  36.103  28.842  1.00  0.00    -0.246 OA
BRANCH   3   5
ATOM      5  C   UNL A   1      34.133  34.383  29.255  1.00  0.00     0.060 A 
ATOM      6  C   UNL A   1      35.406  34.530  28.705  1.00  0.00     0.016 A 
ATOM      7  C   UNL A   1      34.008  33.609  30.421  1.00  0.00     0.016 A 
ATOM      8  C   UNL A   1      36.524  33.953  29.324  1.00  0.00     0.010 A 
ATOM      9  C   UNL A   1      35.114  33.029  31.045  1.00  0.00     0.010 A 
ATOM     10  C   UNL A   1      36.383  33.189  30.487  1.00  0.00    -0.014 A 
BRANCH  10  11
ATOM     11  C   UNL A   1      37.549  32.463  31.041  1.00  0.00     0.031 A 
ATOM     12  C   UNL A   1      38.084  32.864  32.384  1.00  0.00     0.074 A 
ATOM     13  C   UNL A   1      38.101  31.445  30.358  1.00  0.00     0.049 A 
ATOM     14  N   UNL A   1      39.048  32.324  33.083  1.00  0.00    -0.248 NA
ATOM     15  C   UNL A   1      37.441  34.018  33.033  1.00  0.00     0.031 C 
ATOM     16  C   UNL A   1      37.650  30.970  29.053  1.00  0.00     0.029 A 
ATOM     17  N   UNL A   1      39.166  30.635  30.656  1.00  0.00    -0.354 N 
ATOM     18  C   UNL A   1      39.103  33.048  34.266  1.00  0.00     0.074 A 
ATOM     19  C   UNL A   1      38.123  34.107  34.166  1.00  0.00     0.031 C 
ATOM     20  C   UNL A   1      38.454  29.976  28.640  1.00  0.00     0.029 A 
ATOM     21  C   UNL A   1      39.472  29.741  29.657  1.00  0.00     0.049 A 
ATOM     22  H   UNL A   1      39.665  30.689  31.503  1.00  0.00     0.167 HD
ATOM     23  C   UNL A   1      39.880  32.824  35.350  1.00  0.00     0.037 A 
ATOM     24  C   UNL A   1      40.467  28.838  29.579  1.00  0.00     0.037 A 
ATOM     25  C   UNL A   1      40.865  31.779  35.429  1.00  0.00     0.049 A 
ATOM     26  C   UNL A   1      41.378  28.667  30.765  1.00  0.00     0.074 A 
ATOM     27  C   UNL A   1      41.694  31.448  36.484  1.00  0.00     0.029 A 
ATOM     28  N   UNL A   1      41.163  30.903  34.393  1.00  0.00    -0.354 N 
ATOM     29  N   UNL A   1      41.364  29.299  31.915  1.00  0.00    -0.248 NA
ATOM     30  C   UNL A   1      42.423  27.640  30.658  1.00  0.00     0.031 C 
ATOM     31  C   UNL A   1      42.525  30.401  36.072  1.00  0.00     0.029 A 
ATOM     32  C   UNL A   1      42.183  30.050  34.775  1.00  0.00     0.049 A 
ATOM     33  H   UNL A   1      40.714  30.892  33.517  1.00  0.00     0.167 HD
ATOM     34  C   UNL A   1      42.365  28.722  32.681  1.00  0.00     0.074 A 
ATOM     35  C   UNL A   1      42.964  27.683  31.868  1.00  0.00     0.031 C 
ATOM     36  C   UNL A   1      42.751  29.017  33.947  1.00  0.00     0.037 A 
BRANCH  23  37
ATOM     37  C   UNL A   1      39.689  33.727  36.531  1.00  0.00     0.064 A 
ATOM     38  C   UNL A   1      38.854  33.365  37.599  1.00  0.00     0.173 A 
ATOM     39  C   UNL A   1      40.354  34.959  36.605  1.00  0.00     0.173 A 
ATOM     40  F   UNL A   1      38.182  32.204  37.567  1.00  0.00    -0.203 F 
ATOM     41  C   UNL A   1      38.673  34.214  38.688  1.00  0.00     0.198 A 
ATOM     42  C   UNL A   1      40.190  35.796  37.708  1.00  0.00     0.198 A 
ATOM     43  F   UNL A   1      41.162  35.353  35.610  1.00  0.00    -0.203 F 
ATOM     44  F   UNL A   1      37.837  33.866  39.676  1.00  0.00    -0.200 F 
ATOM     45  C   UNL A   1      39.345  35.425  38.744  1.00  0.00     0.200 A 
ATOM     46  F   UNL A   1      40.842  36.965  37.763  1.00  0.00    -0.200 F 
ATOM     47  F   UNL A   1      39.171  36.242  39.793  1.00  0.00    -0.200 F 
ENDBRANCH  23  37
BRANCH  24  48
ATOM     48  C   UNL A   1      40.641  28.017  28.351  1.00  0.00     0.064 A 
ATOM     49  C   UNL A   1      40.061  26.746  28.235  1.00  0.00     0.173 A 
ATOM     50  C   UNL A   1      41.415  28.480  27.276  1.00  0.00     0.173 A 
ATOM     51  F   UNL A   1      39.328  26.251  29.242  1.00  0.00    -0.203 F 
ATOM     52  C   UNL A   1      40.271  25.959  27.104  1.00  0.00     0.198 A 
ATOM     53  C   UNL A   1      41.601  27.703  26.134  1.00  0.00     0.198 A 
ATOM     54  F   UNL A   1      41.992  29.689  27.335  1.00  0.00    -0.203 F 
ATOM     55  F   UNL A   1      39.747  24.727  27.042  1.00  0.00    -0.200 F 
ATOM     56  C   UNL A   1      41.038  26.439  26.052  1.00  0.00     0.200 A 
ATOM     57  F   UNL A   1      42.335  28.175  25.117  1.00  0.00    -0.200 F 
ATOM     58  F   UNL A   1      41.243  25.680  24.968  1.00  0.00    -0.200 F 
ENDBRANCH  24  48
BRANCH  36  59
ATOM     59  C   UNL A   1      43.844  28.179  34.540  1.00  0.00     0.064 A 
ATOM     60  C   UNL A   1      45.186  28.581  34.489  1.00  0.00     0.173 A 
ATOM     61  C   UNL A   1      43.536  26.981  35.202  1.00  0.00     0.173 A 
ATOM     62  F   UNL A   1      45.529  29.709  33.851  1.00  0.00    -0.203 F 
ATOM     63  C   UNL A   1      46.186  27.800  35.063  1.00  0.00     0.198 A 
ATOM     64  C   UNL A   1      44.534  26.218  35.800  1.00  0.00     0.198 A 
ATOM     65  F   UNL A   1      42.265  26.558  35.281  1.00  0.00    -0.203 F 
ATOM     66  F   UNL A   1      47.467  28.179  34.963  1.00  0.00    -0.200 F 
ATOM     67  C   UNL A   1      45.858  26.625  35.724  1.00  0.00     0.200 A 
ATOM     68  F   UNL A   1      44.215  25.091  36.450  1.00  0.00    -0.200 F 
ATOM     69  F   UNL A   1      46.821  25.880  36.283  1.00  0.00    -0.200 F 
ENDBRANCH  36  59
ENDBRANCH  10  11
ENDBRANCH   3   5
ENDBRANCH   2   3
ENDBRANCH   1   2
BRANCH   1  70
ATOM     70  C   UNL A   1      31.398  31.978  26.880  1.00  0.00     0.275 C 
BRANCH  70  71
ATOM     71  O   UNL A   1      31.803  30.959  25.954  1.00  0.00    -0.457 OA
BRANCH  71  72
ATOM     72  C   UNL A   1      32.543  29.946  26.494  1.00  0.00     0.358 C 
ATOM     73  O   UNL A   1      33.589  30.067  27.105  1.00  0.00    -0.244 OA
BRANCH  72  74
ATOM     74  C   UNL A   1      31.844  28.664  26.250  1.00  0.00     0.167 A 
ATOM     75  C   UNL A   1      31.831  27.697  27.242  1.00  0.00     0.147 A 
ATOM     76  N   UNL A   1      31.248  28.482  25.037  1.00  0.00    -0.231 NA
ATOM     77  N   UNL A   1      31.235  26.496  27.069  1.00  0.00    -0.259 NA
ATOM     78  C   UNL A   1      30.641  27.286  24.850  1.00  0.00     0.122 A 
ATOM     79  C   UNL A   1      30.648  26.317  25.856  1.00  0.00     0.146 A 
BRANCH  78  80
ATOM     80  S   UNL A   1      29.838  26.891  23.308  1.00  0.00    -0.048 SA
BRANCH  80  81
ATOM     81  C   UNL A   1      29.243  28.454  22.715  1.00  0.00     0.102 A 
ATOM     82  C   UNL A   1      28.017  28.947  23.158  1.00  0.00     0.037 A 
ATOM     83  N   UNL A   1      30.071  29.173  21.925  1.00  0.00    -0.248 NA
ATOM     84  C   UNL A   1      27.583  30.196  22.713  1.00  0.00     0.025 A 
ATOM     85  C   UNL A   1      29.630  30.390  21.516  1.00  0.00     0.132 A 
ATOM     86  C   UNL A   1      28.406  30.934  21.874  1.00  0.00     0.059 A 
ATOM     87  Cl  UNL A   1      27.929  32.487  21.324  1.00  0.00    -0.083 Cl
ENDBRANCH  80  81
ENDBRANCH  78  80
ENDBRANCH  72  74
ENDBRANCH  71  72
ENDBRANCH  70  71
ENDBRANCH   1  70
TORSDOF 13
ENDMDL
