MODEL 1
REMARK VINA RESULT:     -12.3      0.000      0.000
REMARK SMILES O=C(OCCOC(=O)[C@@H]1[C@@H](C(=O)Nc2nc(-c3ccc(F)cc3)cs2)[C@H]2C=C[C@@H]1O2)c1ccc(-c2c3nc(c(-c4c(F)c(F)c(F)c(F)c4F)c4ccc([nH]4)c(-c4c(F)c(F)c(F)c(F)c4F)c4nc(c(-c5c(F)c(F)c(F)c(F)c5F)c5ccc2[nH]5)C=C4)C=C3)cc1
REMARK SMILES IDX 5 1 4 2 3 3 2 4 1 5 31 6 32 7 93 8 33 9 92 10 34 11 35 12
REMARK SMILES IDX 36 13 86 14 37 15 91 16 85 17 87 18 38 19 90 20 84 21 83 22
REMARK SMILES IDX 39 24 71 25 51 26 70 27 52 28 55 29 69 30 88 31 53 32 54 33
REMARK SMILES IDX 68 35 89 36 56 37 40 38 41 39 49 40 42 41 43 42 47 43 50 44
REMARK SMILES IDX 44 45 45 46 48 47 46 48 72 49 73 50 81 51 74 52 75 53 79 54
REMARK SMILES IDX 82 55 76 56 77 57 80 58 78 59 57 60 58 61 66 62 59 63 60 64
REMARK SMILES IDX 64 65 67 66 61 67 62 68 65 69 63 70 6 71 7 72 8 73 9 74
REMARK SMILES IDX 10 75 29 76 26 77 28 78 30 79 27 80 11 81 12 82 13 83 14 85
REMARK SMILES IDX 15 86 25 87 16 88 24 89 17 90 18 91 23 92 19 93 22 94 20 95
REMARK SMILES IDX 21 96
REMARK H PARENT 87 23 55 34 13 84
REMARK Flexibility Score: inf
ROOT
ATOM      1  C   UNL A   1      32.009  29.906  25.403  1.00  0.00     0.274 C 
ENDROOT
BRANCH   1   2
ATOM      2  C   UNL A   1      32.334  29.959  26.899  1.00  0.00     0.275 C 
BRANCH   2   3
ATOM      3  O   UNL A   1      33.736  29.821  27.206  1.00  0.00    -0.458 OA
BRANCH   3   4
ATOM      4  C   UNL A   1      34.527  30.556  28.026  1.00  0.00     0.338 C 
ATOM      5  O   UNL A   1      34.152  31.682  28.352  1.00  0.00    -0.246 OA
BRANCH   4   6
ATOM      6  C   UNL A   1      35.904  30.136  28.454  1.00  0.00     0.060 A 
ATOM      7  C   UNL A   1      36.256  29.638  29.712  1.00  0.00     0.016 A 
ATOM      8  C   UNL A   1      36.916  30.220  27.477  1.00  0.00     0.016 A 
ATOM      9  C   UNL A   1      37.535  29.131  29.961  1.00  0.00     0.010 A 
ATOM     10  C   UNL A   1      38.201  29.720  27.723  1.00  0.00     0.010 A 
ATOM     11  C   UNL A   1      38.514  29.163  28.969  1.00  0.00    -0.014 A 
BRANCH  11  12
ATOM     12  C   UNL A   1      39.905  28.780  29.302  1.00  0.00     0.031 A 
ATOM     13  C   UNL A   1      40.743  29.782  30.029  1.00  0.00     0.074 A 
ATOM     14  C   UNL A   1      40.393  27.556  29.025  1.00  0.00     0.049 A 
ATOM     15  N   UNL A   1      41.972  29.667  30.454  1.00  0.00    -0.248 NA
ATOM     16  C   UNL A   1      40.095  31.057  30.384  1.00  0.00     0.031 C 
ATOM     17  C   UNL A   1      39.621  26.446  28.483  1.00  0.00     0.029 A 
ATOM     18  N   UNL A   1      41.664  27.046  29.119  1.00  0.00    -0.354 N 
ATOM     19  C   UNL A   1      42.216  30.817  31.186  1.00  0.00     0.074 A 
ATOM     20  C   UNL A   1      41.046  31.658  31.081  1.00  0.00     0.031 C 
ATOM     21  C   UNL A   1      40.449  25.446  28.137  1.00  0.00     0.029 A 
ATOM     22  C   UNL A   1      41.805  25.816  28.516  1.00  0.00     0.049 A 
ATOM     23  H   UNL A   1      42.402  27.514  29.573  1.00  0.00     0.167 HD
ATOM     24  C   UNL A   1      43.307  31.109  31.924  1.00  0.00     0.037 A 
ATOM     25  C   UNL A   1      42.908  25.075  28.301  1.00  0.00     0.037 A 
ATOM     26  C   UNL A   1      44.469  30.267  31.991  1.00  0.00     0.049 A 
ATOM     27  C   UNL A   1      44.186  25.518  28.958  1.00  0.00     0.074 A 
ATOM     28  C   UNL A   1      45.638  30.473  32.697  1.00  0.00     0.029 A 
ATOM     29  N   UNL A   1      44.611  29.066  31.308  1.00  0.00    -0.354 N 
ATOM     30  N   UNL A   1      44.397  26.584  29.694  1.00  0.00    -0.248 NA
ATOM     31  C   UNL A   1      45.352  24.637  28.826  1.00  0.00     0.031 C 
ATOM     32  C   UNL A   1      46.514  29.429  32.388  1.00  0.00     0.029 A 
ATOM     33  C   UNL A   1      45.869  28.540  31.540  1.00  0.00     0.049 A 
ATOM     34  H   UNL A   1      43.920  28.652  30.742  1.00  0.00     0.167 HD
ATOM     35  C   UNL A   1      45.696  26.474  30.162  1.00  0.00     0.074 A 
ATOM     36  C   UNL A   1      46.230  25.241  29.618  1.00  0.00     0.031 C 
ATOM     37  C   UNL A   1      46.374  27.309  30.986  1.00  0.00     0.037 A 
BRANCH  24  38
ATOM     38  C   UNL A   1      43.289  32.381  32.708  1.00  0.00     0.064 A 
ATOM     39  C   UNL A   1      42.806  32.400  34.022  1.00  0.00     0.173 A 
ATOM     40  C   UNL A   1      43.709  33.594  32.140  1.00  0.00     0.173 A 
ATOM     41  F   UNL A   1      42.405  31.263  34.611  1.00  0.00    -0.203 F 
ATOM     42  C   UNL A   1      42.721  33.593  34.734  1.00  0.00     0.198 A 
ATOM     43  C   UNL A   1      43.644  34.781  32.863  1.00  0.00     0.198 A 
ATOM     44  F   UNL A   1      44.205  33.622  30.894  1.00  0.00    -0.203 F 
ATOM     45  F   UNL A   1      42.229  33.592  35.981  1.00  0.00    -0.200 F 
ATOM     46  C   UNL A   1      43.140  34.782  34.155  1.00  0.00     0.200 A 
ATOM     47  F   UNL A   1      44.075  35.925  32.313  1.00  0.00    -0.200 F 
ATOM     48  F   UNL A   1      43.061  35.928  34.845  1.00  0.00    -0.200 F 
ENDBRANCH  24  38
BRANCH  25  49
ATOM     49  C   UNL A   1      42.834  23.827  27.493  1.00  0.00     0.064 A 
ATOM     50  C   UNL A   1      43.147  23.835  26.124  1.00  0.00     0.173 A 
ATOM     51  C   UNL A   1      42.452  22.606  28.063  1.00  0.00     0.173 A 
ATOM     52  F   UNL A   1      43.525  24.976  25.528  1.00  0.00    -0.203 F 
ATOM     53  C   UNL A   1      43.078  22.670  25.360  1.00  0.00     0.198 A 
ATOM     54  C   UNL A   1      42.402  21.437  27.302  1.00  0.00     0.198 A 
ATOM     55  F   UNL A   1      42.159  22.541  29.370  1.00  0.00    -0.203 F 
ATOM     56  F   UNL A   1      43.377  22.706  24.053  1.00  0.00    -0.200 F 
ATOM     57  C   UNL A   1      42.711  21.471  25.951  1.00  0.00     0.200 A 
ATOM     58  F   UNL A   1      42.070  20.277  27.883  1.00  0.00    -0.200 F 
ATOM     59  F   UNL A   1      42.665  20.347  25.222  1.00  0.00    -0.200 F 
ENDBRANCH  25  49
BRANCH  37  60
ATOM     60  C   UNL A   1      47.768  26.917  31.368  1.00  0.00     0.064 A 
ATOM     61  C   UNL A   1      48.865  27.386  30.626  1.00  0.00     0.173 A 
ATOM     62  C   UNL A   1      48.011  25.999  32.398  1.00  0.00     0.173 A 
ATOM     63  F   UNL A   1      48.680  28.258  29.624  1.00  0.00    -0.203 F 
ATOM     64  C   UNL A   1      50.151  26.926  30.886  1.00  0.00     0.198 A 
ATOM     65  C   UNL A   1      49.304  25.569  32.678  1.00  0.00     0.198 A 
ATOM     66  F   UNL A   1      46.996  25.534  33.141  1.00  0.00    -0.203 F 
ATOM     67  F   UNL A   1      51.175  27.347  30.131  1.00  0.00    -0.200 F 
ATOM     68  C   UNL A   1      50.369  26.021  31.912  1.00  0.00     0.200 A 
ATOM     69  F   UNL A   1      49.519  24.713  33.686  1.00  0.00    -0.200 F 
ATOM     70  F   UNL A   1      51.610  25.581  32.165  1.00  0.00    -0.200 F 
ENDBRANCH  37  60
ENDBRANCH  11  12
ENDBRANCH   4   6
ENDBRANCH   3   4
ENDBRANCH   2   3
ENDBRANCH   1   2
BRANCH   1  71
ATOM     71  O   UNL A   1      33.122  29.397  24.653  1.00  0.00    -0.462 OA
BRANCH  71  72
ATOM     72  C   UNL A   1      32.930  28.233  23.966  1.00  0.00     0.312 C 
ATOM     73  O   UNL A   1      33.709  27.781  23.140  1.00  0.00    -0.252 OA
BRANCH  72  74
ATOM     74  C   UNL A   1      31.612  27.618  24.380  1.00  0.00     0.147 C 
ATOM     75  C   UNL A   1      31.700  26.131  24.780  1.00  0.00     0.129 C 
ATOM     76  C   UNL A   1      30.688  27.565  23.169  1.00  0.00     0.157 C 
ATOM     77  C   UNL A   1      30.782  25.472  23.729  1.00  0.00     0.155 C 
ATOM     78  C   UNL A   1      29.301  27.172  23.592  1.00  0.00     0.004 C 
ATOM     79  O   UNL A   1      31.103  26.302  22.577  1.00  0.00    -0.365 OA
ATOM     80  C   UNL A   1      29.350  25.868  23.889  1.00  0.00     0.004 C 
BRANCH  75  81
ATOM     81  C   UNL A   1      31.215  25.869  26.216  1.00  0.00     0.233 C 
ATOM     82  O   UNL A   1      30.746  26.749  26.939  1.00  0.00    -0.274 OA
ATOM     83  N   UNL A   1      31.196  24.577  26.661  1.00  0.00    -0.302 N 
ATOM     84  H   UNL A   1      30.495  24.293  27.292  1.00  0.00     0.172 HD
BRANCH  83  85
ATOM     85  C   UNL A   1      32.128  23.678  26.250  1.00  0.00     0.189 A 
ATOM     86  N   UNL A   1      33.418  23.811  26.380  1.00  0.00    -0.220 NA
ATOM     87  S   UNL A   1      31.566  22.285  25.462  1.00  0.00    -0.105 S 
ATOM     88  C   UNL A   1      34.044  22.798  25.696  1.00  0.00     0.084 A 
ATOM     89  C   UNL A   1      33.203  21.904  25.063  1.00  0.00     0.097 A 
BRANCH  88  90
ATOM     90  C   UNL A   1      35.487  22.734  25.680  1.00  0.00     0.001 A 
ATOM     91  C   UNL A   1      36.111  21.517  25.374  1.00  0.00     0.013 A 
ATOM     92  C   UNL A   1      36.258  23.839  26.059  1.00  0.00     0.013 A 
ATOM     93  C   UNL A   1      37.501  21.414  25.414  1.00  0.00     0.040 A 
ATOM     94  C   UNL A   1      37.648  23.729  26.114  1.00  0.00     0.040 A 
ATOM     95  C   UNL A   1      38.256  22.520  25.788  1.00  0.00     0.123 A 
ATOM     96  F   UNL A   1      39.589  22.414  25.852  1.00  0.00    -0.207 F 
ENDBRANCH  88  90
ENDBRANCH  83  85
ENDBRANCH  75  81
ENDBRANCH  72  74
ENDBRANCH  71  72
ENDBRANCH   1  71
TORSDOF 14
ENDMDL
MODEL 2
REMARK VINA RESULT:     -12.2      3.401      8.802
REMARK SMILES O=C(OCCOC(=O)[C@@H]1[C@@H](C(=O)Nc2nc(-c3ccc(F)cc3)cs2)[C@H]2C=C[C@@H]1O2)c1ccc(-c2c3nc(c(-c4c(F)c(F)c(F)c(F)c4F)c4ccc([nH]4)c(-c4c(F)c(F)c(F)c(F)c4F)c4nc(c(-c5c(F)c(F)c(F)c(F)c5F)c5ccc2[nH]5)C=C4)C=C3)cc1
REMARK SMILES IDX 5 1 4 2 3 3 2 4 1 5 31 6 32 7 93 8 33 9 92 10 34 11 35 12
REMARK SMILES IDX 36 13 86 14 37 15 91 16 85 17 87 18 38 19 90 20 84 21 83 22
REMARK SMILES IDX 39 24 71 25 51 26 70 27 52 28 55 29 69 30 88 31 53 32 54 33
REMARK SMILES IDX 68 35 89 36 56 37 40 38 41 39 49 40 42 41 43 42 47 43 50 44
REMARK SMILES IDX 44 45 45 46 48 47 46 48 72 49 73 50 81 51 74 52 75 53 79 54
REMARK SMILES IDX 82 55 76 56 77 57 80 58 78 59 57 60 58 61 66 62 59 63 60 64
REMARK SMILES IDX 64 65 67 66 61 67 62 68 65 69 63 70 6 71 7 72 8 73 9 74
REMARK SMILES IDX 10 75 29 76 26 77 28 78 30 79 27 80 11 81 12 82 13 83 14 85
REMARK SMILES IDX 15 86 25 87 16 88 24 89 17 90 18 91 23 92 19 93 22 94 20 95
REMARK SMILES IDX 21 96
REMARK H PARENT 87 23 55 34 13 84
REMARK Flexibility Score: inf
ROOT
ATOM      1  C   UNL A   1      36.129  21.110  25.281  1.00  0.00     0.274 C 
ENDROOT
BRANCH   1   2
ATOM      2  C   UNL A   1      37.387  21.822  24.775  1.00  0.00     0.275 C 
BRANCH   2   3
ATOM      3  O   UNL A   1      37.877  22.854  25.654  1.00  0.00    -0.458 OA
BRANCH   3   4
ATOM      4  C   UNL A   1      39.107  23.027  26.199  1.00  0.00     0.338 C 
ATOM      5  O   UNL A   1      39.853  22.052  26.288  1.00  0.00    -0.246 OA
BRANCH   4   6
ATOM      6  C   UNL A   1      39.570  24.308  26.830  1.00  0.00     0.060 A 
ATOM      7  C   UNL A   1      40.329  25.303  26.206  1.00  0.00     0.016 A 
ATOM      8  C   UNL A   1      39.160  24.536  28.158  1.00  0.00     0.016 A 
ATOM      9  C   UNL A   1      40.577  26.528  26.832  1.00  0.00     0.010 A 
ATOM     10  C   UNL A   1      39.411  25.758  28.794  1.00  0.00     0.010 A 
ATOM     11  C   UNL A   1      40.116  26.768  28.126  1.00  0.00    -0.014 A 
BRANCH  11  12
ATOM     12  C   UNL A   1      40.532  27.999  28.834  1.00  0.00     0.031 A 
ATOM     13  C   UNL A   1      41.910  28.034  29.411  1.00  0.00     0.074 A 
ATOM     14  C   UNL A   1      39.734  29.082  28.909  1.00  0.00     0.049 A 
ATOM     15  N   UNL A   1      42.508  29.007  30.043  1.00  0.00    -0.248 NA
ATOM     16  C   UNL A   1      42.752  26.844  29.191  1.00  0.00     0.031 C 
ATOM     17  C   UNL A   1      38.449  29.227  28.238  1.00  0.00     0.029 A 
ATOM     18  N   UNL A   1      39.860  30.252  29.616  1.00  0.00    -0.354 N 
ATOM     19  C   UNL A   1      43.811  28.576  30.230  1.00  0.00     0.074 A 
ATOM     20  C   UNL A   1      43.902  27.226  29.725  1.00  0.00     0.031 C 
ATOM     21  C   UNL A   1      37.829  30.331  28.685  1.00  0.00     0.029 A 
ATOM     22  C   UNL A   1      38.715  31.017  29.614  1.00  0.00     0.049 A 
ATOM     23  H   UNL A   1      40.688  30.517  30.078  1.00  0.00     0.167 HD
ATOM     24  C   UNL A   1      44.848  29.278  30.731  1.00  0.00     0.037 A 
ATOM     25  C   UNL A   1      38.424  32.147  30.286  1.00  0.00     0.037 A 
ATOM     26  C   UNL A   1      44.726  30.611  31.252  1.00  0.00     0.049 A 
ATOM     27  C   UNL A   1      39.542  32.826  31.026  1.00  0.00     0.074 A 
ATOM     28  C   UNL A   1      45.710  31.413  31.799  1.00  0.00     0.029 A 
ATOM     29  N   UNL A   1      43.539  31.329  31.307  1.00  0.00    -0.354 N 
ATOM     30  N   UNL A   1      40.789  32.437  31.156  1.00  0.00    -0.248 NA
ATOM     31  C   UNL A   1      39.248  34.122  31.649  1.00  0.00     0.031 C 
ATOM     32  C   UNL A   1      45.104  32.590  32.245  1.00  0.00     0.029 A 
ATOM     33  C   UNL A   1      43.756  32.550  31.920  1.00  0.00     0.049 A 
ATOM     34  H   UNL A   1      42.672  31.016  30.961  1.00  0.00     0.167 HD
ATOM     35  C   UNL A   1      41.442  33.463  31.818  1.00  0.00     0.074 A 
ATOM     36  C   UNL A   1      40.450  34.489  32.074  1.00  0.00     0.031 C 
ATOM     37  C   UNL A   1      42.750  33.553  32.162  1.00  0.00     0.037 A 
BRANCH  24  38
ATOM     38  C   UNL A   1      46.189  28.619  30.739  1.00  0.00     0.064 A 
ATOM     39  C   UNL A   1      47.041  28.728  29.632  1.00  0.00     0.173 A 
ATOM     40  C   UNL A   1      46.612  27.837  31.825  1.00  0.00     0.173 A 
ATOM     41  F   UNL A   1      46.685  29.475  28.576  1.00  0.00    -0.203 F 
ATOM     42  C   UNL A   1      48.262  28.060  29.603  1.00  0.00     0.198 A 
ATOM     43  C   UNL A   1      47.843  27.188  31.801  1.00  0.00     0.198 A 
ATOM     44  F   UNL A   1      45.842  27.724  32.918  1.00  0.00    -0.203 F 
ATOM     45  F   UNL A   1      49.049  28.156  28.523  1.00  0.00    -0.200 F 
ATOM     46  C   UNL A   1      48.662  27.291  30.686  1.00  0.00     0.200 A 
ATOM     47  F   UNL A   1      48.241  26.469  32.859  1.00  0.00    -0.200 F 
ATOM     48  F   UNL A   1      49.839  26.652  30.657  1.00  0.00    -0.200 F 
ENDBRANCH  24  38
BRANCH  25  49
ATOM     49  C   UNL A   1      37.054  32.724  30.233  1.00  0.00     0.064 A 
ATOM     50  C   UNL A   1      36.119  32.458  31.246  1.00  0.00     0.173 A 
ATOM     51  C   UNL A   1      36.647  33.551  29.178  1.00  0.00     0.173 A 
ATOM     52  F   UNL A   1      36.457  31.677  32.284  1.00  0.00    -0.203 F 
ATOM     53  C   UNL A   1      34.832  32.994  31.203  1.00  0.00     0.198 A 
ATOM     54  C   UNL A   1      35.365  34.104  29.146  1.00  0.00     0.198 A 
ATOM     55  F   UNL A   1      37.507  33.851  28.194  1.00  0.00    -0.203 F 
ATOM     56  F   UNL A   1      33.957  32.719  32.181  1.00  0.00    -0.200 F 
ATOM     57  C   UNL A   1      34.458  33.822  30.155  1.00  0.00     0.200 A 
ATOM     58  F   UNL A   1      35.017  34.922  28.143  1.00  0.00    -0.200 F 
ATOM     59  F   UNL A   1      33.229  34.355  30.123  1.00  0.00    -0.200 F 
ENDBRANCH  25  49
BRANCH  37  60
ATOM     60  C   UNL A   1      43.198  34.811  32.841  1.00  0.00     0.064 A 
ATOM     61  C   UNL A   1      43.152  34.915  34.241  1.00  0.00     0.173 A 
ATOM     62  C   UNL A   1      43.572  35.943  32.106  1.00  0.00     0.173 A 
ATOM     63  F   UNL A   1      42.789  33.860  34.986  1.00  0.00    -0.203 F 
ATOM     64  C   UNL A   1      43.438  36.118  34.877  1.00  0.00     0.198 A 
ATOM     65  C   UNL A   1      43.891  37.135  32.748  1.00  0.00     0.198 A 
ATOM     66  F   UNL A   1      43.643  35.887  30.768  1.00  0.00    -0.203 F 
ATOM     67  F   UNL A   1      43.336  36.210  36.209  1.00  0.00    -0.200 F 
ATOM     68  C   UNL A   1      43.810  37.226  34.130  1.00  0.00     0.200 A 
ATOM     69  F   UNL A   1      44.276  38.199  32.028  1.00  0.00    -0.200 F 
ATOM     70  F   UNL A   1      44.089  38.384  34.744  1.00  0.00    -0.200 F 
ENDBRANCH  37  60
ENDBRANCH  11  12
ENDBRANCH   4   6
ENDBRANCH   3   4
ENDBRANCH   2   3
ENDBRANCH   1   2
BRANCH   1  71
ATOM     71  O   UNL A   1      35.580  21.785  26.422  1.00  0.00    -0.462 OA
BRANCH  71  72
ATOM     72  C   UNL A   1      34.369  22.397  26.262  1.00  0.00     0.312 C 
ATOM     73  O   UNL A   1      33.775  22.997  27.144  1.00  0.00    -0.252 OA
BRANCH  72  74
ATOM     74  C   UNL A   1      33.892  22.197  24.840  1.00  0.00     0.147 C 
ATOM     75  C   UNL A   1      33.196  23.427  24.222  1.00  0.00     0.129 C 
ATOM     76  C   UNL A   1      32.771  21.165  24.835  1.00  0.00     0.157 C 
ATOM     77  C   UNL A   1      31.781  22.876  23.945  1.00  0.00     0.155 C 
ATOM     78  C   UNL A   1      32.430  20.777  23.423  1.00  0.00     0.004 C 
ATOM     79  O   UNL A   1      31.626  22.019  25.110  1.00  0.00    -0.365 OA
ATOM     80  C   UNL A   1      31.775  21.816  22.892  1.00  0.00     0.004 C 
BRANCH  75  81
ATOM     81  C   UNL A   1      33.886  23.923  22.940  1.00  0.00     0.233 C 
ATOM     82  O   UNL A   1      34.805  23.313  22.392  1.00  0.00    -0.274 OA
ATOM     83  N   UNL A   1      33.371  25.027  22.321  1.00  0.00    -0.302 N 
ATOM     84  H   UNL A   1      33.411  25.094  21.339  1.00  0.00     0.172 HD
BRANCH  83  85
ATOM     85  C   UNL A   1      32.807  26.035  23.035  1.00  0.00     0.189 A 
ATOM     86  N   UNL A   1      33.418  26.770  23.921  1.00  0.00    -0.220 NA
ATOM     87  S   UNL A   1      31.156  26.332  22.785  1.00  0.00    -0.105 S 
ATOM     88  C   UNL A   1      32.496  27.561  24.561  1.00  0.00     0.084 A 
ATOM     89  C   UNL A   1      31.191  27.412  24.133  1.00  0.00     0.097 A 
BRANCH  88  90
ATOM     90  C   UNL A   1      32.930  28.465  25.602  1.00  0.00     0.001 A 
ATOM     91  C   UNL A   1      32.119  29.558  25.937  1.00  0.00     0.013 A 
ATOM     92  C   UNL A   1      34.184  28.313  26.204  1.00  0.00     0.013 A 
ATOM     93  C   UNL A   1      32.547  30.478  26.893  1.00  0.00     0.040 A 
ATOM     94  C   UNL A   1      34.616  29.245  27.150  1.00  0.00     0.040 A 
ATOM     95  C   UNL A   1      33.792  30.314  27.487  1.00  0.00     0.123 A 
ATOM     96  F   UNL A   1      34.214  31.213  28.386  1.00  0.00    -0.207 F 
ENDBRANCH  88  90
ENDBRANCH  83  85
ENDBRANCH  75  81
ENDBRANCH  72  74
ENDBRANCH  71  72
ENDBRANCH   1  71
TORSDOF 14
ENDMDL
MODEL 3
REMARK VINA RESULT:     -12.1      3.438      8.568
REMARK SMILES O=C(OCCOC(=O)[C@@H]1[C@@H](C(=O)Nc2nc(-c3ccc(F)cc3)cs2)[C@H]2C=C[C@@H]1O2)c1ccc(-c2c3nc(c(-c4c(F)c(F)c(F)c(F)c4F)c4ccc([nH]4)c(-c4c(F)c(F)c(F)c(F)c4F)c4nc(c(-c5c(F)c(F)c(F)c(F)c5F)c5ccc2[nH]5)C=C4)C=C3)cc1
REMARK SMILES IDX 5 1 4 2 3 3 2 4 1 5 31 6 32 7 93 8 33 9 92 10 34 11 35 12
REMARK SMILES IDX 36 13 86 14 37 15 91 16 85 17 87 18 38 19 90 20 84 21 83 22
REMARK SMILES IDX 39 24 71 25 51 26 70 27 52 28 55 29 69 30 88 31 53 32 54 33
REMARK SMILES IDX 68 35 89 36 56 37 40 38 41 39 49 40 42 41 43 42 47 43 50 44
REMARK SMILES IDX 44 45 45 46 48 47 46 48 72 49 73 50 81 51 74 52 75 53 79 54
REMARK SMILES IDX 82 55 76 56 77 57 80 58 78 59 57 60 58 61 66 62 59 63 60 64
REMARK SMILES IDX 64 65 67 66 61 67 62 68 65 69 63 70 6 71 7 72 8 73 9 74
REMARK SMILES IDX 10 75 29 76 26 77 28 78 30 79 27 80 11 81 12 82 13 83 14 85
REMARK SMILES IDX 15 86 25 87 16 88 24 89 17 90 18 91 23 92 19 93 22 94 20 95
REMARK SMILES IDX 21 96
REMARK H PARENT 87 23 55 34 13 84
REMARK Flexibility Score: inf
ROOT
ATOM      1  C   UNL A   1      36.121  21.091  25.208  1.00  0.00     0.274 C 
ENDROOT
BRANCH   1   2
ATOM      2  C   UNL A   1      37.430  21.737  24.742  1.00  0.00     0.275 C 
BRANCH   2   3
ATOM      3  O   UNL A   1      37.882  22.825  25.573  1.00  0.00    -0.458 OA
BRANCH   3   4
ATOM      4  C   UNL A   1      39.019  22.955  26.300  1.00  0.00     0.338 C 
ATOM      5  O   UNL A   1      39.640  21.938  26.608  1.00  0.00    -0.246 OA
BRANCH   4   6
ATOM      6  C   UNL A   1      39.500  24.256  26.874  1.00  0.00     0.060 A 
ATOM      7  C   UNL A   1      40.223  25.238  26.190  1.00  0.00     0.016 A 
ATOM      8  C   UNL A   1      39.148  24.518  28.213  1.00  0.00     0.016 A 
ATOM      9  C   UNL A   1      40.489  26.482  26.770  1.00  0.00     0.010 A 
ATOM     10  C   UNL A   1      39.418  25.759  28.802  1.00  0.00     0.010 A 
ATOM     11  C   UNL A   1      40.085  26.754  28.076  1.00  0.00    -0.014 A 
BRANCH  11  12
ATOM     12  C   UNL A   1      40.523  28.007  28.731  1.00  0.00     0.031 A 
ATOM     13  C   UNL A   1      41.928  28.069  29.238  1.00  0.00     0.074 A 
ATOM     14  C   UNL A   1      39.719  29.085  28.818  1.00  0.00     0.049 A 
ATOM     15  N   UNL A   1      42.546  29.063  29.815  1.00  0.00    -0.248 NA
ATOM     16  C   UNL A   1      42.769  26.881  29.008  1.00  0.00     0.031 C 
ATOM     17  C   UNL A   1      38.402  29.201  28.207  1.00  0.00     0.029 A 
ATOM     18  N   UNL A   1      39.868  30.274  29.487  1.00  0.00    -0.354 N 
ATOM     19  C   UNL A   1      43.861  28.649  29.948  1.00  0.00     0.074 A 
ATOM     20  C   UNL A   1      43.940  27.287  29.474  1.00  0.00     0.031 C 
ATOM     21  C   UNL A   1      37.793  30.311  28.655  1.00  0.00     0.029 A 
ATOM     22  C   UNL A   1      38.717  31.029  29.522  1.00  0.00     0.049 A 
ATOM     23  H   UNL A   1      40.715  30.558  29.901  1.00  0.00     0.167 HD
ATOM     24  C   UNL A   1      44.914  29.373  30.380  1.00  0.00     0.037 A 
ATOM     25  C   UNL A   1      38.448  32.173  30.178  1.00  0.00     0.037 A 
ATOM     26  C   UNL A   1      44.805  30.718  30.872  1.00  0.00     0.049 A 
ATOM     27  C   UNL A   1      39.595  32.881  30.845  1.00  0.00     0.074 A 
ATOM     28  C   UNL A   1      45.806  31.542  31.348  1.00  0.00     0.029 A 
ATOM     29  N   UNL A   1      43.615  31.427  30.966  1.00  0.00    -0.354 N 
ATOM     30  N   UNL A   1      40.850  32.507  30.923  1.00  0.00    -0.248 NA
ATOM     31  C   UNL A   1      39.319  34.191  31.447  1.00  0.00     0.031 C 
ATOM     32  C   UNL A   1      45.212  32.725  31.793  1.00  0.00     0.029 A 
ATOM     33  C   UNL A   1      43.850  32.665  31.536  1.00  0.00     0.049 A 
ATOM     34  H   UNL A   1      42.735  31.097  30.672  1.00  0.00     0.167 HD
ATOM     35  C   UNL A   1      41.525  33.555  31.525  1.00  0.00     0.074 A 
ATOM     36  C   UNL A   1      40.537  34.579  31.803  1.00  0.00     0.031 C 
ATOM     37  C   UNL A   1      42.847  33.666  31.802  1.00  0.00     0.037 A 
BRANCH  24  38
ATOM     38  C   UNL A   1      46.261  28.725  30.338  1.00  0.00     0.064 A 
ATOM     39  C   UNL A   1      46.738  28.004  31.440  1.00  0.00     0.173 A 
ATOM     40  C   UNL A   1      47.100  28.859  29.220  1.00  0.00     0.173 A 
ATOM     41  F   UNL A   1      45.966  27.839  32.524  1.00  0.00    -0.203 F 
ATOM     42  C   UNL A   1      48.018  27.457  31.435  1.00  0.00     0.198 A 
ATOM     43  C   UNL A   1      48.371  28.292  29.210  1.00  0.00     0.198 A 
ATOM     44  F   UNL A   1      46.677  29.518  28.131  1.00  0.00    -0.203 F 
ATOM     45  F   UNL A   1      48.464  26.795  32.510  1.00  0.00    -0.200 F 
ATOM     46  C   UNL A   1      48.833  27.601  30.321  1.00  0.00     0.200 A 
ATOM     47  F   UNL A   1      49.147  28.407  28.124  1.00  0.00    -0.200 F 
ATOM     48  F   UNL A   1      50.063  27.070  30.317  1.00  0.00    -0.200 F 
ENDBRANCH  24  38
BRANCH  25  49
ATOM     49  C   UNL A   1      37.071  32.737  30.178  1.00  0.00     0.064 A 
ATOM     50  C   UNL A   1      36.625  33.551  29.124  1.00  0.00     0.173 A 
ATOM     51  C   UNL A   1      36.173  32.479  31.221  1.00  0.00     0.173 A 
ATOM     52  F   UNL A   1      37.441  33.826  28.095  1.00  0.00    -0.203 F 
ATOM     53  C   UNL A   1      35.336  34.084  29.118  1.00  0.00     0.198 A 
ATOM     54  C   UNL A   1      34.877  32.997  31.205  1.00  0.00     0.198 A 
ATOM     55  F   UNL A   1      36.544  31.693  32.243  1.00  0.00    -0.203 F 
ATOM     56  F   UNL A   1      34.937  34.863  28.102  1.00  0.00    -0.200 F 
ATOM     57  C   UNL A   1      34.461  33.802  30.156  1.00  0.00     0.200 A 
ATOM     58  F   UNL A   1      34.028  32.701  32.198  1.00  0.00    -0.200 F 
ATOM     59  F   UNL A   1      33.215  34.296  30.141  1.00  0.00    -0.200 F 
ENDBRANCH  25  49
BRANCH  37  60
ATOM     60  C   UNL A   1      43.315  34.945  32.425  1.00  0.00     0.064 A 
ATOM     61  C   UNL A   1      43.716  36.021  31.617  1.00  0.00     0.173 A 
ATOM     62  C   UNL A   1      43.465  35.068  33.813  1.00  0.00     0.173 A 
ATOM     63  F   UNL A   1      43.601  35.945  30.283  1.00  0.00    -0.203 F 
ATOM     64  C   UNL A   1      44.277  37.163  32.178  1.00  0.00     0.198 A 
ATOM     65  C   UNL A   1      43.994  36.226  34.371  1.00  0.00     0.198 A 
ATOM     66  F   UNL A   1      43.083  34.070  34.624  1.00  0.00    -0.203 F 
ATOM     67  F   UNL A   1      44.701  38.156  31.384  1.00  0.00    -0.200 F 
ATOM     68  C   UNL A   1      44.413  37.266  33.553  1.00  0.00     0.200 A 
ATOM     69  F   UNL A   1      44.102  36.336  35.703  1.00  0.00    -0.200 F 
ATOM     70  F   UNL A   1      44.950  38.369  34.093  1.00  0.00    -0.200 F 
ENDBRANCH  37  60
ENDBRANCH  11  12
ENDBRANCH   4   6
ENDBRANCH   3   4
ENDBRANCH   2   3
ENDBRANCH   1   2
BRANCH   1  71
ATOM     71  O   UNL A   1      35.572  21.795  26.332  1.00  0.00    -0.462 OA
BRANCH  71  72
ATOM     72  C   UNL A   1      34.336  22.353  26.175  1.00  0.00     0.312 C 
ATOM     73  O   UNL A   1      33.715  22.921  27.061  1.00  0.00    -0.252 OA
BRANCH  72  74
ATOM     74  C   UNL A   1      33.868  22.141  24.752  1.00  0.00     0.147 C 
ATOM     75  C   UNL A   1      33.071  23.322  24.160  1.00  0.00     0.129 C 
ATOM     76  C   UNL A   1      32.834  21.022  24.733  1.00  0.00     0.157 C 
ATOM     77  C   UNL A   1      31.704  22.664  23.878  1.00  0.00     0.155 C 
ATOM     78  C   UNL A   1      32.517  20.634  23.316  1.00  0.00     0.004 C 
ATOM     79  O   UNL A   1      31.625  21.776  25.028  1.00  0.00    -0.365 OA
ATOM     80  C   UNL A   1      31.777  21.626  22.806  1.00  0.00     0.004 C 
BRANCH  75  81
ATOM     81  C   UNL A   1      33.712  23.894  22.884  1.00  0.00     0.233 C 
ATOM     82  O   UNL A   1      34.625  23.331  22.278  1.00  0.00    -0.274 OA
ATOM     83  N   UNL A   1      33.158  25.017  22.336  1.00  0.00    -0.302 N 
ATOM     84  H   UNL A   1      33.166  25.133  21.358  1.00  0.00     0.172 HD
BRANCH  83  85
ATOM     85  C   UNL A   1      32.596  25.977  23.116  1.00  0.00     0.189 A 
ATOM     86  N   UNL A   1      33.239  26.747  23.949  1.00  0.00    -0.220 NA
ATOM     87  S   UNL A   1      30.912  26.156  23.033  1.00  0.00    -0.105 S 
ATOM     88  C   UNL A   1      32.330  27.466  24.686  1.00  0.00     0.084 A 
ATOM     89  C   UNL A   1      31.003  27.226  24.386  1.00  0.00     0.097 A 
BRANCH  88  90
ATOM     90  C   UNL A   1      32.800  28.390  25.693  1.00  0.00     0.001 A 
ATOM     91  C   UNL A   1      32.057  29.550  25.952  1.00  0.00     0.013 A 
ATOM     92  C   UNL A   1      34.027  28.187  26.335  1.00  0.00     0.013 A 
ATOM     93  C   UNL A   1      32.523  30.487  26.873  1.00  0.00     0.040 A 
ATOM     94  C   UNL A   1      34.499  29.135  27.245  1.00  0.00     0.040 A 
ATOM     95  C   UNL A   1      33.741  30.272  27.508  1.00  0.00     0.123 A 
ATOM     96  F   UNL A   1      34.201  31.185  28.372  1.00  0.00    -0.207 F 
ENDBRANCH  88  90
ENDBRANCH  83  85
ENDBRANCH  75  81
ENDBRANCH  72  74
ENDBRANCH  71  72
ENDBRANCH   1  71
TORSDOF 14
ENDMDL
