MODEL 1
REMARK VINA RESULT:     -12.2      0.000      0.000
REMARK SMILES Cc1nc2cc(C(=O)OCCOC(=O)c3ccc(-c4c5nc(c(-c6c(F)c(F)c(F)c(F)c6F)c6ccc([nH]6)c(-c6c(F)c(F)c(F)c(F)c6F)c6nc(c(-c7c(F)c(F)c(F)c(F)c7F)c7ccc4[nH]7)C=C6)C=C5)cc3)ccc2n1CCC[NH+]1CCOCC1
REMARK SMILES IDX 10 1 9 2 7 3 8 4 6 5 1 6 2 7 3 8 81 9 4 10 80 11 5 12 79 13
REMARK SMILES IDX 78 14 82 15 83 16 84 17 85 18 86 19 90 20 87 22 89 23 88 24
REMARK SMILES IDX 11 25 12 26 13 27 14 28 15 29 16 30 77 31 17 32 76 33 18 34
REMARK SMILES IDX 19 35 20 36 70 37 21 38 75 39 69 40 71 41 22 42 74 43 68 44
REMARK SMILES IDX 67 45 23 47 55 48 35 49 54 50 36 51 39 52 53 53 72 54 37 55
REMARK SMILES IDX 38 56 52 58 73 59 40 60 24 61 25 62 33 63 26 64 27 65 31 66
REMARK SMILES IDX 34 67 28 68 29 69 32 70 30 71 56 72 57 73 65 74 58 75 59 76
REMARK SMILES IDX 63 77 66 78 60 79 61 80 64 81 62 82 41 83 42 84 50 85 43 86
REMARK SMILES IDX 44 87 48 88 51 89 45 90 46 91 49 92 47 93
REMARK H PARENT 85 21 71 46 39 57
REMARK Flexibility Score: inf
ROOT
ATOM      1  C   UNL A   1      42.240  19.583  26.770  1.00  0.00     0.275 C 
ENDROOT
BRANCH   1   2
ATOM      2  O   UNL A   1      41.198  20.386  26.152  1.00  0.00    -0.458 OA
BRANCH   2   3
ATOM      3  C   UNL A   1      40.463  21.139  27.006  1.00  0.00     0.338 C 
ATOM      4  O   UNL A   1      40.779  21.430  28.151  1.00  0.00    -0.246 OA
BRANCH   3   5
ATOM      5  C   UNL A   1      39.295  21.779  26.337  1.00  0.00     0.062 A 
ATOM      6  C   UNL A   1      33.730  20.767  24.646  1.00  0.00     0.088 C 
ATOM      7  C   UNL A   1      35.139  21.229  24.709  1.00  0.00     0.106 A 
ATOM      8  N   UNL A   1      36.162  20.426  24.860  1.00  0.00    -0.233 NA
ATOM      9  N   UNL A   1      35.610  22.520  24.577  1.00  0.00    -0.328 N 
ATOM     10  C   UNL A   1      37.196  21.228  25.247  1.00  0.00     0.090 A 
ATOM     11  C   UNL A   1      36.863  22.566  25.168  1.00  0.00     0.068 A 
ATOM     12  C   UNL A   1      38.449  20.869  25.733  1.00  0.00     0.046 A 
ATOM     13  C   UNL A   1      37.768  23.556  25.602  1.00  0.00     0.029 A 
ATOM     14  C   UNL A   1      38.964  23.128  26.254  1.00  0.00     0.018 A 
BRANCH   9  15
ATOM     15  C   UNL A   1      35.003  23.543  23.750  1.00  0.00     0.130 C 
BRANCH  15  16
ATOM     16  C   UNL A   1      34.580  24.783  24.565  1.00  0.00     0.083 C 
BRANCH  16  17
ATOM     17  C   UNL A   1      33.063  24.971  24.768  1.00  0.00     0.264 C 
BRANCH  17  18
ATOM     18  N   UNL A   1      32.708  25.121  26.188  1.00  0.00    -0.331 N 
ATOM     19  C   UNL A   1      32.367  23.840  26.848  1.00  0.00     0.291 C 
ATOM     20  C   UNL A   1      31.567  26.042  26.388  1.00  0.00     0.291 C 
ATOM     21  H   UNL A   1      33.552  25.504  26.613  1.00  0.00     0.348 HD
ATOM     22  C   UNL A   1      31.003  23.264  26.449  1.00  0.00     0.221 C 
ATOM     23  C   UNL A   1      30.213  25.438  25.981  1.00  0.00     0.221 C 
ATOM     24  O   UNL A   1      29.955  24.212  26.675  1.00  0.00    -0.370 OA
ENDBRANCH  17  18
ENDBRANCH  16  17
ENDBRANCH  15  16
ENDBRANCH   9  15
ENDBRANCH   3   5
ENDBRANCH   2   3
ENDBRANCH   1   2
BRANCH   1  25
ATOM     25  C   UNL A   1      42.930  18.668  25.747  1.00  0.00     0.275 C 
BRANCH  25  26
ATOM     26  O   UNL A   1      43.368  19.463  24.631  1.00  0.00    -0.458 OA
BRANCH  26  27
ATOM     27  C   UNL A   1      44.700  19.727  24.570  1.00  0.00     0.338 C 
ATOM     28  O   UNL A   1      45.561  19.021  24.092  1.00  0.00    -0.246 OA
BRANCH  27  29
ATOM     29  C   UNL A   1      44.866  21.173  24.861  1.00  0.00     0.060 A 
ATOM     30  C   UNL A   1      45.860  21.703  25.692  1.00  0.00     0.016 A 
ATOM     31  C   UNL A   1      43.837  21.993  24.442  1.00  0.00     0.016 A 
ATOM     32  C   UNL A   1      45.636  22.925  26.359  1.00  0.00     0.010 A 
ATOM     33  C   UNL A   1      43.696  23.238  25.040  1.00  0.00     0.010 A 
ATOM     34  C   UNL A   1      44.436  23.616  26.175  1.00  0.00    -0.014 A 
BRANCH  34  35
ATOM     35  C   UNL A   1      44.066  24.883  26.898  1.00  0.00     0.031 A 
ATOM     36  C   UNL A   1      45.132  25.842  26.555  1.00  0.00     0.074 A 
ATOM     37  C   UNL A   1      42.999  25.327  27.649  1.00  0.00     0.049 A 
ATOM     38  N   UNL A   1      46.278  25.864  27.152  1.00  0.00    -0.248 NA
ATOM     39  C   UNL A   1      45.118  26.562  25.271  1.00  0.00     0.031 C 
ATOM     40  C   UNL A   1      41.707  24.694  27.954  1.00  0.00     0.029 A 
ATOM     41  N   UNL A   1      42.844  26.545  28.327  1.00  0.00    -0.354 N 
ATOM     42  C   UNL A   1      46.991  26.851  26.502  1.00  0.00     0.074 A 
ATOM     43  C   UNL A   1      46.390  26.969  25.205  1.00  0.00     0.031 C 
ATOM     44  C   UNL A   1      40.832  25.586  28.496  1.00  0.00     0.029 A 
ATOM     45  C   UNL A   1      41.529  26.825  28.785  1.00  0.00     0.049 A 
ATOM     46  H   UNL A   1      43.596  27.164  28.476  1.00  0.00     0.167 HD
ATOM     47  C   UNL A   1      47.668  27.760  27.256  1.00  0.00     0.037 A 
ATOM     48  C   UNL A   1      41.075  27.925  29.474  1.00  0.00     0.037 A 
ATOM     49  C   UNL A   1      47.660  27.338  28.641  1.00  0.00     0.049 A 
ATOM     50  C   UNL A   1      42.246  28.493  30.167  1.00  0.00     0.074 A 
ATOM     51  C   UNL A   1      48.247  26.353  29.405  1.00  0.00     0.029 A 
ATOM     52  N   UNL A   1      46.515  27.718  29.288  1.00  0.00    -0.354 N 
ATOM     53  N   UNL A   1      42.843  27.906  31.163  1.00  0.00    -0.248 NA
ATOM     54  C   UNL A   1      42.992  29.546  29.494  1.00  0.00     0.031 C 
ATOM     55  C   UNL A   1      47.381  26.136  30.520  1.00  0.00     0.029 A 
ATOM     56  C   UNL A   1      46.332  27.048  30.459  1.00  0.00     0.049 A 
ATOM     57  H   UNL A   1      45.893  28.400  28.946  1.00  0.00     0.167 HD
ATOM     58  C   UNL A   1      44.175  28.160  30.922  1.00  0.00     0.074 A 
ATOM     59  C   UNL A   1      44.203  29.284  29.987  1.00  0.00     0.031 C 
ATOM     60  C   UNL A   1      45.107  27.207  31.200  1.00  0.00     0.037 A 
BRANCH  47  61
ATOM     61  C   UNL A   1      47.809  29.233  26.931  1.00  0.00     0.064 A 
ATOM     62  C   UNL A   1      49.080  29.823  27.091  1.00  0.00     0.173 A 
ATOM     63  C   UNL A   1      46.739  30.142  26.772  1.00  0.00     0.173 A 
ATOM     64  F   UNL A   1      50.168  29.060  27.274  1.00  0.00    -0.203 F 
ATOM     65  C   UNL A   1      49.252  31.207  27.156  1.00  0.00     0.198 A 
ATOM     66  C   UNL A   1      46.923  31.522  26.791  1.00  0.00     0.198 A 
ATOM     67  F   UNL A   1      45.462  29.760  26.701  1.00  0.00    -0.203 F 
ATOM     68  F   UNL A   1      50.462  31.715  27.425  1.00  0.00    -0.200 F 
ATOM     69  C   UNL A   1      48.172  32.056  27.010  1.00  0.00     0.200 A 
ATOM     70  F   UNL A   1      45.854  32.326  26.679  1.00  0.00    -0.200 F 
ATOM     71  F   UNL A   1      48.324  33.381  27.121  1.00  0.00    -0.200 F 
ENDBRANCH  47  61
BRANCH  48  72
ATOM     72  C   UNL A   1      39.811  28.743  29.416  1.00  0.00     0.064 A 
ATOM     73  C   UNL A   1      39.270  29.213  28.188  1.00  0.00     0.173 A 
ATOM     74  C   UNL A   1      38.919  28.746  30.499  1.00  0.00     0.173 A 
ATOM     75  F   UNL A   1      40.018  29.222  27.074  1.00  0.00    -0.203 F 
ATOM     76  C   UNL A   1      37.923  29.595  28.053  1.00  0.00     0.198 A 
ATOM     77  C   UNL A   1      37.573  29.121  30.361  1.00  0.00     0.198 A 
ATOM     78  F   UNL A   1      39.308  28.278  31.692  1.00  0.00    -0.203 F 
ATOM     79  F   UNL A   1      37.435  29.955  26.854  1.00  0.00    -0.200 F 
ATOM     80  C   UNL A   1      37.070  29.527  29.137  1.00  0.00     0.200 A 
ATOM     81  F   UNL A   1      36.745  29.009  31.411  1.00  0.00    -0.200 F 
ATOM     82  F   UNL A   1      35.764  29.803  28.999  1.00  0.00    -0.200 F 
ENDBRANCH  48  72
BRANCH  60  83
ATOM     83  C   UNL A   1      44.809  26.194  32.254  1.00  0.00     0.064 A 
ATOM     84  C   UNL A   1      44.313  24.905  32.016  1.00  0.00     0.173 A 
ATOM     85  C   UNL A   1      45.231  26.510  33.552  1.00  0.00     0.173 A 
ATOM     86  F   UNL A   1      43.931  24.525  30.788  1.00  0.00    -0.203 F 
ATOM     87  C   UNL A   1      44.270  23.963  33.046  1.00  0.00     0.198 A 
ATOM     88  C   UNL A   1      45.221  25.561  34.563  1.00  0.00     0.198 A 
ATOM     89  F   UNL A   1      45.728  27.729  33.816  1.00  0.00    -0.203 F 
ATOM     90  F   UNL A   1      43.813  22.724  32.807  1.00  0.00    -0.200 F 
ATOM     91  C   UNL A   1      44.744  24.286  34.309  1.00  0.00     0.200 A 
ATOM     92  F   UNL A   1      45.720  25.870  35.767  1.00  0.00    -0.200 F 
ATOM     93  F   UNL A   1      44.768  23.361  35.279  1.00  0.00    -0.200 F 
ENDBRANCH  60  83
ENDBRANCH  34  35
ENDBRANCH  27  29
ENDBRANCH  26  27
ENDBRANCH  25  26
ENDBRANCH   1  25
TORSDOF 15
ENDMDL
MODEL 2
REMARK VINA RESULT:     -12.2      0.789      1.428
REMARK SMILES Cc1nc2cc(C(=O)OCCOC(=O)c3ccc(-c4c5nc(c(-c6c(F)c(F)c(F)c(F)c6F)c6ccc([nH]6)c(-c6c(F)c(F)c(F)c(F)c6F)c6nc(c(-c7c(F)c(F)c(F)c(F)c7F)c7ccc4[nH]7)C=C6)C=C5)cc3)ccc2n1CCC[NH+]1CCOCC1
REMARK SMILES IDX 10 1 9 2 7 3 8 4 6 5 1 6 2 7 3 8 81 9 4 10 80 11 5 12 79 13
REMARK SMILES IDX 78 14 82 15 83 16 84 17 85 18 86 19 90 20 87 22 89 23 88 24
REMARK SMILES IDX 11 25 12 26 13 27 14 28 15 29 16 30 77 31 17 32 76 33 18 34
REMARK SMILES IDX 19 35 20 36 70 37 21 38 75 39 69 40 71 41 22 42 74 43 68 44
REMARK SMILES IDX 67 45 23 47 55 48 35 49 54 50 36 51 39 52 53 53 72 54 37 55
REMARK SMILES IDX 38 56 52 58 73 59 40 60 24 61 25 62 33 63 26 64 27 65 31 66
REMARK SMILES IDX 34 67 28 68 29 69 32 70 30 71 56 72 57 73 65 74 58 75 59 76
REMARK SMILES IDX 63 77 66 78 60 79 61 80 64 81 62 82 41 83 42 84 50 85 43 86
REMARK SMILES IDX 44 87 48 88 51 89 45 90 46 91 49 92 47 93
REMARK H PARENT 85 21 71 46 39 57
REMARK Flexibility Score: inf
ROOT
ATOM      1  C   UNL A   1      42.642  19.868  26.395  1.00  0.00     0.275 C 
ENDROOT
BRANCH   1   2
ATOM      2  O   UNL A   1      41.455  20.507  25.853  1.00  0.00    -0.458 OA
BRANCH   2   3
ATOM      3  C   UNL A   1      40.549  20.922  26.772  1.00  0.00     0.338 C 
ATOM      4  O   UNL A   1      40.736  20.983  27.979  1.00  0.00    -0.246 OA
BRANCH   3   5
ATOM      5  C   UNL A   1      39.335  21.517  26.144  1.00  0.00     0.062 A 
ATOM      6  C   UNL A   1      33.724  20.328  24.745  1.00  0.00     0.088 C 
ATOM      7  C   UNL A   1      35.122  20.825  24.729  1.00  0.00     0.106 A 
ATOM      8  N   UNL A   1      36.171  20.051  24.851  1.00  0.00    -0.233 NA
ATOM      9  N   UNL A   1      35.554  22.123  24.544  1.00  0.00    -0.328 N 
ATOM     10  C   UNL A   1      37.202  20.888  25.169  1.00  0.00     0.090 A 
ATOM     11  C   UNL A   1      36.831  22.215  25.074  1.00  0.00     0.068 A 
ATOM     12  C   UNL A   1      38.485  20.572  25.603  1.00  0.00     0.046 A 
ATOM     13  C   UNL A   1      37.731  23.237  25.440  1.00  0.00     0.029 A 
ATOM     14  C   UNL A   1      38.967  22.855  26.045  1.00  0.00     0.018 A 
BRANCH   9  15
ATOM     15  C   UNL A   1      34.883  23.111  23.723  1.00  0.00     0.130 C 
BRANCH  15  16
ATOM     16  C   UNL A   1      34.644  24.437  24.474  1.00  0.00     0.083 C 
BRANCH  16  17
ATOM     17  C   UNL A   1      33.169  24.801  24.743  1.00  0.00     0.264 C 
BRANCH  17  18
ATOM     18  N   UNL A   1      32.912  25.053  26.170  1.00  0.00    -0.331 N 
ATOM     19  C   UNL A   1      32.902  23.821  26.992  1.00  0.00     0.291 C 
ATOM     20  C   UNL A   1      31.626  25.749  26.395  1.00  0.00     0.291 C 
ATOM     21  H   UNL A   1      33.691  25.644  26.460  1.00  0.00     0.348 HD
ATOM     22  C   UNL A   1      31.659  22.943  26.805  1.00  0.00     0.221 C 
ATOM     23  C   UNL A   1      30.397  24.845  26.202  1.00  0.00     0.221 C 
ATOM     24  O   UNL A   1      30.460  23.686  27.042  1.00  0.00    -0.370 OA
ENDBRANCH  17  18
ENDBRANCH  16  17
ENDBRANCH  15  16
ENDBRANCH   9  15
ENDBRANCH   3   5
ENDBRANCH   2   3
ENDBRANCH   1   2
BRANCH   1  25
ATOM     25  C   UNL A   1      43.332  18.978  25.351  1.00  0.00     0.275 C 
BRANCH  25  26
ATOM     26  O   UNL A   1      43.849  19.810  24.296  1.00  0.00    -0.458 OA
BRANCH  26  27
ATOM     27  C   UNL A   1      45.153  20.173  24.405  1.00  0.00     0.338 C 
ATOM     28  O   UNL A   1      46.115  19.570  23.982  1.00  0.00    -0.246 OA
BRANCH  27  29
ATOM     29  C   UNL A   1      45.171  21.601  24.810  1.00  0.00     0.060 A 
ATOM     30  C   UNL A   1      45.952  22.119  25.849  1.00  0.00     0.016 A 
ATOM     31  C   UNL A   1      44.193  22.397  24.248  1.00  0.00     0.016 A 
ATOM     32  C   UNL A   1      45.529  23.278  26.533  1.00  0.00     0.010 A 
ATOM     33  C   UNL A   1      43.863  23.588  24.881  1.00  0.00     0.010 A 
ATOM     34  C   UNL A   1      44.346  23.920  26.159  1.00  0.00    -0.014 A 
BRANCH  34  35
ATOM     35  C   UNL A   1      43.767  25.114  26.870  1.00  0.00     0.031 A 
ATOM     36  C   UNL A   1      44.638  26.242  26.493  1.00  0.00     0.074 A 
ATOM     37  C   UNL A   1      42.650  25.372  27.636  1.00  0.00     0.049 A 
ATOM     38  N   UNL A   1      45.770  26.479  27.067  1.00  0.00    -0.248 NA
ATOM     39  C   UNL A   1      44.473  26.925  25.200  1.00  0.00     0.031 C 
ATOM     40  C   UNL A   1      41.498  24.523  27.975  1.00  0.00     0.029 A 
ATOM     41  N   UNL A   1      42.290  26.555  28.299  1.00  0.00    -0.354 N 
ATOM     42  C   UNL A   1      46.283  27.567  26.390  1.00  0.00     0.074 A 
ATOM     43  C   UNL A   1      45.649  27.552  25.103  1.00  0.00     0.031 C 
ATOM     44  C   UNL A   1      40.486  25.253  28.522  1.00  0.00     0.029 A 
ATOM     45  C   UNL A   1      40.954  26.602  28.779  1.00  0.00     0.049 A 
ATOM     46  H   UNL A   1      42.921  27.300  28.425  1.00  0.00     0.167 HD
ATOM     47  C   UNL A   1      46.799  28.595  27.117  1.00  0.00     0.037 A 
ATOM     48  C   UNL A   1      40.322  27.614  29.461  1.00  0.00     0.037 A 
ATOM     49  C   UNL A   1      46.890  28.203  28.507  1.00  0.00     0.049 A 
ATOM     50  C   UNL A   1      41.383  28.396  30.123  1.00  0.00     0.074 A 
ATOM     51  C   UNL A   1      47.657  27.353  29.274  1.00  0.00     0.029 A 
ATOM     52  N   UNL A   1      45.706  28.383  29.172  1.00  0.00    -0.354 N 
ATOM     53  N   UNL A   1      42.093  27.943  31.115  1.00  0.00    -0.248 NA
ATOM     54  C   UNL A   1      41.916  29.553  29.420  1.00  0.00     0.031 C 
ATOM     55  C   UNL A   1      46.863  27.004  30.408  1.00  0.00     0.029 A 
ATOM     56  C   UNL A   1      45.667  27.712  30.355  1.00  0.00     0.049 A 
ATOM     57  H   UNL A   1      44.966  28.937  28.831  1.00  0.00     0.167 HD
ATOM     58  C   UNL A   1      43.353  28.427  30.844  1.00  0.00     0.074 A 
ATOM     59  C   UNL A   1      43.163  29.522  29.893  1.00  0.00     0.031 C 
ATOM     60  C   UNL A   1      44.445  27.662  31.117  1.00  0.00     0.037 A 
BRANCH  47  61
ATOM     61  C   UNL A   1      46.667  30.064  26.768  1.00  0.00     0.064 A 
ATOM     62  C   UNL A   1      47.822  30.869  26.863  1.00  0.00     0.173 A 
ATOM     63  C   UNL A   1      45.450  30.770  26.647  1.00  0.00     0.173 A 
ATOM     64  F   UNL A   1      49.034  30.310  27.005  1.00  0.00    -0.203 F 
ATOM     65  C   UNL A   1      47.754  32.263  26.903  1.00  0.00     0.198 A 
ATOM     66  C   UNL A   1      45.391  32.162  26.641  1.00  0.00     0.198 A 
ATOM     67  F   UNL A   1      44.257  30.172  26.639  1.00  0.00    -0.203 F 
ATOM     68  F   UNL A   1      48.867  32.978  27.111  1.00  0.00    -0.200 F 
ATOM     69  C   UNL A   1      46.537  32.908  26.796  1.00  0.00     0.200 A 
ATOM     70  F   UNL A   1      44.196  32.766  26.567  1.00  0.00    -0.200 F 
ATOM     71  F   UNL A   1      46.460  34.242  26.884  1.00  0.00    -0.200 F 
ENDBRANCH  47  61
BRANCH  48  72
ATOM     72  C   UNL A   1      38.930  28.191  29.416  1.00  0.00     0.064 A 
ATOM     73  C   UNL A   1      38.154  28.391  30.590  1.00  0.00     0.173 A 
ATOM     74  C   UNL A   1      38.496  28.903  28.287  1.00  0.00     0.173 A 
ATOM     75  F   UNL A   1      38.495  27.790  31.741  1.00  0.00    -0.203 F 
ATOM     76  C   UNL A   1      37.069  29.285  30.636  1.00  0.00     0.198 A 
ATOM     77  C   UNL A   1      37.417  29.801  28.336  1.00  0.00     0.198 A 
ATOM     78  F   UNL A   1      39.182  28.828  27.139  1.00  0.00    -0.203 F 
ATOM     79  F   UNL A   1      36.416  29.503  31.789  1.00  0.00    -0.200 F 
ATOM     80  C   UNL A   1      36.716  30.007  29.512  1.00  0.00     0.200 A 
ATOM     81  F   UNL A   1      37.113  30.527  27.250  1.00  0.00    -0.200 F 
ATOM     82  F   UNL A   1      35.741  30.927  29.568  1.00  0.00    -0.200 F 
ENDBRANCH  48  72
BRANCH  60  83
ATOM     83  C   UNL A   1      44.352  26.631  32.191  1.00  0.00     0.064 A 
ATOM     84  C   UNL A   1      44.166  25.258  31.977  1.00  0.00     0.173 A 
ATOM     85  C   UNL A   1      44.653  27.062  33.491  1.00  0.00     0.173 A 
ATOM     86  F   UNL A   1      43.915  24.776  30.752  1.00  0.00    -0.203 F 
ATOM     87  C   UNL A   1      44.305  24.353  33.032  1.00  0.00     0.198 A 
ATOM     88  C   UNL A   1      44.827  26.156  34.526  1.00  0.00     0.198 A 
ATOM     89  F   UNL A   1      44.855  28.367  33.732  1.00  0.00    -0.203 F 
ATOM     90  F   UNL A   1      44.146  23.038  32.816  1.00  0.00    -0.200 F 
ATOM     91  C   UNL A   1      44.657  24.802  34.297  1.00  0.00     0.200 A 
ATOM     92  F   UNL A   1      45.208  26.596  35.734  1.00  0.00    -0.200 F 
ATOM     93  F   UNL A   1      44.859  23.927  35.292  1.00  0.00    -0.200 F 
ENDBRANCH  60  83
ENDBRANCH  34  35
ENDBRANCH  27  29
ENDBRANCH  26  27
ENDBRANCH  25  26
ENDBRANCH   1  25
TORSDOF 15
ENDMDL
MODEL 3
REMARK VINA RESULT:     -12.0      1.736      2.837
REMARK SMILES Cc1nc2cc(C(=O)OCCOC(=O)c3ccc(-c4c5nc(c(-c6c(F)c(F)c(F)c(F)c6F)c6ccc([nH]6)c(-c6c(F)c(F)c(F)c(F)c6F)c6nc(c(-c7c(F)c(F)c(F)c(F)c7F)c7ccc4[nH]7)C=C6)C=C5)cc3)ccc2n1CCC[NH+]1CCOCC1
REMARK SMILES IDX 10 1 9 2 7 3 8 4 6 5 1 6 2 7 3 8 81 9 4 10 80 11 5 12 79 13
REMARK SMILES IDX 78 14 82 15 83 16 84 17 85 18 86 19 90 20 87 22 89 23 88 24
REMARK SMILES IDX 11 25 12 26 13 27 14 28 15 29 16 30 77 31 17 32 76 33 18 34
REMARK SMILES IDX 19 35 20 36 70 37 21 38 75 39 69 40 71 41 22 42 74 43 68 44
REMARK SMILES IDX 67 45 23 47 55 48 35 49 54 50 36 51 39 52 53 53 72 54 37 55
REMARK SMILES IDX 38 56 52 58 73 59 40 60 24 61 25 62 33 63 26 64 27 65 31 66
REMARK SMILES IDX 34 67 28 68 29 69 32 70 30 71 56 72 57 73 65 74 58 75 59 76
REMARK SMILES IDX 63 77 66 78 60 79 61 80 64 81 62 82 41 83 42 84 50 85 43 86
REMARK SMILES IDX 44 87 48 88 51 89 45 90 46 91 49 92 47 93
REMARK H PARENT 85 21 71 46 39 57
REMARK Flexibility Score: inf
ROOT
ATOM      1  C   UNL A   1      42.675  18.995  26.210  1.00  0.00     0.275 C 
ENDROOT
BRANCH   1   2
ATOM      2  O   UNL A   1      41.487  19.504  25.546  1.00  0.00    -0.458 OA
BRANCH   2   3
ATOM      3  C   UNL A   1      40.777  20.420  26.249  1.00  0.00     0.338 C 
ATOM      4  O   UNL A   1      41.241  21.208  27.062  1.00  0.00    -0.246 OA
BRANCH   3   5
ATOM      5  C   UNL A   1      39.368  20.531  25.778  1.00  0.00     0.062 A 
ATOM      6  C   UNL A   1      35.176  24.460  24.423  1.00  0.00     0.088 C 
ATOM      7  C   UNL A   1      35.902  23.267  24.922  1.00  0.00     0.106 A 
ATOM      8  N   UNL A   1      36.913  23.324  25.752  1.00  0.00    -0.233 NA
ATOM      9  N   UNL A   1      35.630  21.940  24.654  1.00  0.00    -0.328 N 
ATOM     10  C   UNL A   1      37.524  22.107  25.661  1.00  0.00     0.090 A 
ATOM     11  C   UNL A   1      36.789  21.221  24.899  1.00  0.00     0.068 A 
ATOM     12  C   UNL A   1      38.754  21.703  26.172  1.00  0.00     0.046 A 
ATOM     13  C   UNL A   1      37.289  19.933  24.617  1.00  0.00     0.029 A 
ATOM     14  C   UNL A   1      38.627  19.634  25.015  1.00  0.00     0.018 A 
BRANCH   9  15
ATOM     15  C   UNL A   1      34.307  21.398  24.413  1.00  0.00     0.130 C 
BRANCH  15  16
ATOM     16  C   UNL A   1      33.756  20.628  25.630  1.00  0.00     0.083 C 
BRANCH  16  17
ATOM     17  C   UNL A   1      33.943  19.097  25.600  1.00  0.00     0.264 C 
BRANCH  17  18
ATOM     18  N   UNL A   1      32.729  18.399  25.147  1.00  0.00    -0.331 N 
ATOM     19  C   UNL A   1      32.648  16.996  25.614  1.00  0.00     0.291 C 
ATOM     20  C   UNL A   1      32.605  18.387  23.673  1.00  0.00     0.291 C 
ATOM     21  H   UNL A   1      31.968  18.936  25.564  1.00  0.00     0.348 HD
ATOM     22  C   UNL A   1      33.605  16.035  24.900  1.00  0.00     0.221 C 
ATOM     23  C   UNL A   1      33.575  17.412  22.984  1.00  0.00     0.221 C 
ATOM     24  O   UNL A   1      33.422  16.078  23.482  1.00  0.00    -0.370 OA
ENDBRANCH  17  18
ENDBRANCH  16  17
ENDBRANCH  15  16
ENDBRANCH   9  15
ENDBRANCH   3   5
ENDBRANCH   2   3
ENDBRANCH   1   2
BRANCH   1  25
ATOM     25  C   UNL A   1      43.761  18.597  25.200  1.00  0.00     0.275 C 
BRANCH  25  26
ATOM     26  O   UNL A   1      44.106  19.748  24.407  1.00  0.00    -0.458 OA
BRANCH  26  27
ATOM     27  C   UNL A   1      45.341  20.271  24.619  1.00  0.00     0.338 C 
ATOM     28  O   UNL A   1      46.406  19.740  24.392  1.00  0.00    -0.246 OA
BRANCH  27  29
ATOM     29  C   UNL A   1      45.160  21.728  24.835  1.00  0.00     0.060 A 
ATOM     30  C   UNL A   1      46.083  22.552  25.489  1.00  0.00     0.016 A 
ATOM     31  C   UNL A   1      43.904  22.227  24.549  1.00  0.00     0.016 A 
ATOM     32  C   UNL A   1      45.639  23.721  26.143  1.00  0.00     0.010 A 
ATOM     33  C   UNL A   1      43.524  23.434  25.121  1.00  0.00     0.010 A 
ATOM     34  C   UNL A   1      44.286  24.067  26.118  1.00  0.00    -0.014 A 
BRANCH  34  35
ATOM     35  C   UNL A   1      43.698  25.246  26.847  1.00  0.00     0.031 A 
ATOM     36  C   UNL A   1      44.555  26.388  26.478  1.00  0.00     0.074 A 
ATOM     37  C   UNL A   1      42.584  25.484  27.623  1.00  0.00     0.049 A 
ATOM     38  N   UNL A   1      45.689  26.630  27.048  1.00  0.00    -0.248 NA
ATOM     39  C   UNL A   1      44.375  27.084  25.194  1.00  0.00     0.031 C 
ATOM     40  C   UNL A   1      41.443  24.618  27.959  1.00  0.00     0.029 A 
ATOM     41  N   UNL A   1      42.216  26.654  28.302  1.00  0.00    -0.354 N 
ATOM     42  C   UNL A   1      46.186  27.731  26.380  1.00  0.00     0.074 A 
ATOM     43  C   UNL A   1      45.544  27.724  25.097  1.00  0.00     0.031 C 
ATOM     44  C   UNL A   1      40.427  25.331  28.520  1.00  0.00     0.029 A 
ATOM     45  C   UNL A   1      40.882  26.682  28.790  1.00  0.00     0.049 A 
ATOM     46  H   UNL A   1      42.839  27.405  28.432  1.00  0.00     0.167 HD
ATOM     47  C   UNL A   1      46.695  28.757  27.115  1.00  0.00     0.037 A 
ATOM     48  C   UNL A   1      40.243  27.679  29.488  1.00  0.00     0.037 A 
ATOM     49  C   UNL A   1      46.799  28.349  28.501  1.00  0.00     0.049 A 
ATOM     50  C   UNL A   1      41.300  28.465  30.151  1.00  0.00     0.074 A 
ATOM     51  C   UNL A   1      47.580  27.499  29.254  1.00  0.00     0.029 A 
ATOM     52  N   UNL A   1      45.618  28.509  29.174  1.00  0.00    -0.354 N 
ATOM     53  N   UNL A   1      42.021  28.008  31.134  1.00  0.00    -0.248 NA
ATOM     54  C   UNL A   1      41.817  29.636  29.460  1.00  0.00     0.031 C 
ATOM     55  C   UNL A   1      46.796  27.128  30.388  1.00  0.00     0.029 A 
ATOM     56  C   UNL A   1      45.592  27.824  30.350  1.00  0.00     0.049 A 
ATOM     57  H   UNL A   1      44.869  29.059  28.845  1.00  0.00     0.167 HD
ATOM     58  C   UNL A   1      43.274  28.509  30.862  1.00  0.00     0.074 A 
ATOM     59  C   UNL A   1      43.066  29.612  29.925  1.00  0.00     0.031 C 
ATOM     60  C   UNL A   1      44.376  27.753  31.119  1.00  0.00     0.037 A 
BRANCH  47  61
ATOM     61  C   UNL A   1      46.546  30.228  26.784  1.00  0.00     0.064 A 
ATOM     62  C   UNL A   1      47.695  31.042  26.873  1.00  0.00     0.173 A 
ATOM     63  C   UNL A   1      45.321  30.924  26.688  1.00  0.00     0.173 A 
ATOM     64  F   UNL A   1      48.913  30.492  26.993  1.00  0.00    -0.203 F 
ATOM     65  C   UNL A   1      47.614  32.434  26.930  1.00  0.00     0.198 A 
ATOM     66  C   UNL A   1      45.250  32.315  26.697  1.00  0.00     0.198 A 
ATOM     67  F   UNL A   1      44.133  30.315  26.688  1.00  0.00    -0.203 F 
ATOM     68  F   UNL A   1      48.724  33.157  27.130  1.00  0.00    -0.200 F 
ATOM     69  C   UNL A   1      46.391  33.070  26.845  1.00  0.00     0.200 A 
ATOM     70  F   UNL A   1      44.048  32.909  26.646  1.00  0.00    -0.200 F 
ATOM     71  F   UNL A   1      46.303  34.402  26.949  1.00  0.00    -0.200 F 
ENDBRANCH  47  61
BRANCH  48  72
ATOM     72  C   UNL A   1      38.845  28.242  29.457  1.00  0.00     0.064 A 
ATOM     73  C   UNL A   1      38.090  28.459  30.642  1.00  0.00     0.173 A 
ATOM     74  C   UNL A   1      38.383  28.926  28.322  1.00  0.00     0.173 A 
ATOM     75  F   UNL A   1      38.459  27.886  31.798  1.00  0.00    -0.203 F 
ATOM     76  C   UNL A   1      36.997  29.344  30.690  1.00  0.00     0.198 A 
ATOM     77  C   UNL A   1      37.296  29.814  28.374  1.00  0.00     0.198 A 
ATOM     78  F   UNL A   1      39.047  28.832  27.163  1.00  0.00    -0.203 F 
ATOM     79  F   UNL A   1      36.365  29.580  31.851  1.00  0.00    -0.200 F 
ATOM     80  C   UNL A   1      36.616  30.038  29.558  1.00  0.00     0.200 A 
ATOM     81  F   UNL A   1      36.963  30.514  27.279  1.00  0.00    -0.200 F 
ATOM     82  F   UNL A   1      35.633  30.950  29.614  1.00  0.00    -0.200 F 
ENDBRANCH  48  72
BRANCH  60  83
ATOM     83  C   UNL A   1      44.300  26.708  32.182  1.00  0.00     0.064 A 
ATOM     84  C   UNL A   1      44.194  25.329  31.951  1.00  0.00     0.173 A 
ATOM     85  C   UNL A   1      44.533  27.142  33.494  1.00  0.00     0.173 A 
ATOM     86  F   UNL A   1      44.012  24.846  30.715  1.00  0.00    -0.203 F 
ATOM     87  C   UNL A   1      44.345  24.423  33.003  1.00  0.00     0.198 A 
ATOM     88  C   UNL A   1      44.719  26.238  34.529  1.00  0.00     0.198 A 
ATOM     89  F   UNL A   1      44.657  28.453  33.752  1.00  0.00    -0.203 F 
ATOM     90  F   UNL A   1      44.263  23.104  32.773  1.00  0.00    -0.200 F 
ATOM     91  C   UNL A   1      44.628  24.878  34.283  1.00  0.00     0.200 A 
ATOM     92  F   UNL A   1      45.034  26.686  35.752  1.00  0.00    -0.200 F 
ATOM     93  F   UNL A   1      44.842  24.007  35.278  1.00  0.00    -0.200 F 
ENDBRANCH  60  83
ENDBRANCH  34  35
ENDBRANCH  27  29
ENDBRANCH  26  27
ENDBRANCH  25  26
ENDBRANCH   1  25
TORSDOF 15
ENDMDL
