MODEL 1
REMARK VINA RESULT:     -10.6      0.000      0.000
REMARK SMILES CC(C)(O)CC[C@@H](C(=O)OCCOC(=O)c1ccc(-c2c3nc(c(-c4c(F)c(F)c(F)c(F)c4F)c4ccc([nH]4)c(-c4c(F)c(F)c(F)c(F)c4F)c4nc(c(-c5c(F)c(F)c(F)c(F)c5F)c5ccc2[nH]5)C=C4)C=C3)cc1)[C@@H]1CCS(=O)(=O)C1
REMARK SMILES IDX 11 1 10 2 8 3 9 4 7 5 6 6 5 7 2 8 1 9 3 10 4 11 79 13 80 14
REMARK SMILES IDX 85 15 81 16 82 17 83 18 84 19 12 20 13 21 14 22 15 23 16 24
REMARK SMILES IDX 17 25 78 26 18 27 77 28 19 29 20 30 21 31 71 32 22 33 76 34
REMARK SMILES IDX 70 35 72 36 23 37 75 38 69 39 68 40 24 42 56 43 36 44 55 45
REMARK SMILES IDX 37 46 40 47 54 48 73 49 38 50 39 51 53 53 74 54 41 55 25 56
REMARK SMILES IDX 26 57 34 58 27 59 28 60 32 61 35 62 29 63 30 64 33 65 31 66
REMARK SMILES IDX 57 67 58 68 66 69 59 70 60 71 64 72 67 73 61 74 62 75 65 76
REMARK SMILES IDX 63 77 42 78 43 79 51 80 44 81 45 82 49 83 52 84 46 85 47 86
REMARK SMILES IDX 50 87 48 88
REMARK H PARENT 4 12 72 41 40 52
REMARK Flexibility Score: inf
ROOT
ATOM      1  C   UNL A   1      47.028  23.290  39.402  1.00  0.00     0.274 C 
ENDROOT
BRANCH   1   2
ATOM      2  O   UNL A   1      47.874  22.167  39.727  1.00  0.00    -0.462 OA
BRANCH   2   3
ATOM      3  C   UNL A   1      48.349  21.384  38.717  1.00  0.00     0.309 C 
ATOM      4  O   UNL A   1      49.064  21.783  37.809  1.00  0.00    -0.252 OA
BRANCH   3   5
ATOM      5  C   UNL A   1      47.929  19.897  38.895  1.00  0.00     0.103 C 
BRANCH   5   6
ATOM      6  C   UNL A   1      46.706  19.528  38.018  1.00  0.00     0.018 C 
BRANCH   6   7
ATOM      7  C   UNL A   1      46.069  20.566  37.077  1.00  0.00     0.035 C 
BRANCH   7   8
ATOM      8  C   UNL A   1      45.918  20.257  35.584  1.00  0.00     0.059 C 
ATOM      9  C   UNL A   1      45.399  18.860  35.258  1.00  0.00     0.042 C 
ATOM     10  C   UNL A   1      47.297  20.425  34.929  1.00  0.00     0.042 C 
BRANCH   8  11
ATOM     11  O   UNL A   1      45.015  21.214  35.038  1.00  0.00    -0.390 OA
ATOM     12  H   UNL A   1      45.517  21.918  34.598  1.00  0.00     0.211 HD
ENDBRANCH   8  11
ENDBRANCH   7   8
ENDBRANCH   6   7
ENDBRANCH   5   6
BRANCH   5  13
ATOM     13  C   UNL A   1      47.764  19.431  40.455  1.00  0.00     0.019 C 
ATOM     14  C   UNL A   1      48.522  17.704  40.859  1.00  0.00     0.021 C 
ATOM     15  C   UNL A   1      45.959  19.682  41.028  1.00  0.00     0.141 C 
ATOM     16  C   UNL A   1      47.140  16.350  41.419  1.00  0.00     0.137 C 
ATOM     17  S   UNL A   1      44.971  17.736  41.557  1.00  0.00     0.150 S 
ATOM     18  O   UNL A   1      43.951  17.626  40.506  1.00  0.00    -0.229 OA
ATOM     19  O   UNL A   1      44.306  17.978  42.837  1.00  0.00    -0.229 OA
ENDBRANCH   5  13
ENDBRANCH   3   5
ENDBRANCH   2   3
ENDBRANCH   1   2
BRANCH   1  20
ATOM     20  C   UNL A   1      47.837  24.592  39.548  1.00  0.00     0.275 C 
BRANCH  20  21
ATOM     21  O   UNL A   1      47.323  25.585  38.639  1.00  0.00    -0.458 OA
BRANCH  21  22
ATOM     22  C   UNL A   1      47.854  25.609  37.398  1.00  0.00     0.338 C 
ATOM     23  O   UNL A   1      48.853  25.044  36.991  1.00  0.00    -0.246 OA
BRANCH  22  24
ATOM     24  C   UNL A   1      46.791  26.034  36.481  1.00  0.00     0.060 A 
ATOM     25  C   UNL A   1      47.052  27.581  35.780  1.00  0.00     0.016 A 
ATOM     26  C   UNL A   1      45.371  25.290  36.098  1.00  0.00     0.016 A 
ATOM     27  C   UNL A   1      45.680  28.423  34.627  1.00  0.00     0.010 A 
ATOM     28  C   UNL A   1      44.164  25.976  35.095  1.00  0.00     0.010 A 
ATOM     29  C   UNL A   1      44.209  27.523  34.352  1.00  0.00    -0.014 A 
BRANCH  29  30
ATOM     30  C   UNL A   1      43.027  28.052  33.609  1.00  0.00     0.031 A 
ATOM     31  C   UNL A   1      42.882  27.791  32.121  1.00  0.00     0.074 A 
ATOM     32  C   UNL A   1      42.105  28.815  34.234  1.00  0.00     0.049 A 
ATOM     33  N   UNL A   1      41.978  28.235  31.281  1.00  0.00    -0.248 NA
ATOM     34  C   UNL A   1      43.871  26.901  31.486  1.00  0.00     0.031 C 
ATOM     35  C   UNL A   1      42.093  29.154  35.653  1.00  0.00     0.029 A 
ATOM     36  N   UNL A   1      41.016  29.502  33.742  1.00  0.00    -0.354 N 
ATOM     37  C   UNL A   1      42.280  27.666  30.047  1.00  0.00     0.074 A 
ATOM     38  C   UNL A   1      43.486  26.897  30.221  1.00  0.00     0.031 C 
ATOM     39  C   UNL A   1      41.116  30.031  35.913  1.00  0.00     0.029 A 
ATOM     40  C   UNL A   1      40.420  30.323  34.675  1.00  0.00     0.049 A 
ATOM     41  H   UNL A   1      40.696  29.415  32.815  1.00  0.00     0.167 HD
ATOM     42  C   UNL A   1      41.603  27.749  28.877  1.00  0.00     0.037 A 
ATOM     43  C   UNL A   1      39.440  31.237  34.559  1.00  0.00     0.037 A 
ATOM     44  C   UNL A   1      40.421  28.550  28.689  1.00  0.00     0.049 A 
ATOM     45  C   UNL A   1      38.765  31.390  33.231  1.00  0.00     0.074 A 
ATOM     46  C   UNL A   1      39.653  28.703  27.549  1.00  0.00     0.029 A 
ATOM     47  N   UNL A   1      39.851  29.348  29.669  1.00  0.00    -0.354 N 
ATOM     48  N   UNL A   1      39.026  30.785  32.098  1.00  0.00    -0.248 NA
ATOM     49  C   UNL A   1      37.632  32.320  33.174  1.00  0.00     0.031 C 
ATOM     50  C   UNL A   1      38.655  29.644  27.820  1.00  0.00     0.029 A 
ATOM     51  C   UNL A   1      38.756  30.020  29.150  1.00  0.00     0.049 A 
ATOM     52  H   UNL A   1      40.176  29.428  30.594  1.00  0.00     0.167 HD
ATOM     53  C   UNL A   1      38.066  31.230  31.203  1.00  0.00     0.074 A 
ATOM     54  C   UNL A   1      37.201  32.132  31.936  1.00  0.00     0.031 C 
ATOM     55  C   UNL A   1      37.912  30.921  29.893  1.00  0.00     0.037 A 
BRANCH  42  56
ATOM     56  C   UNL A   1      42.122  26.956  27.707  1.00  0.00     0.064 A 
ATOM     57  C   UNL A   1      43.092  27.480  26.837  1.00  0.00     0.173 A 
ATOM     58  C   UNL A   1      41.681  25.644  27.473  1.00  0.00     0.173 A 
ATOM     59  F   UNL A   1      43.539  28.736  27.002  1.00  0.00    -0.203 F 
ATOM     60  C   UNL A   1      43.583  26.733  25.769  1.00  0.00     0.198 A 
ATOM     61  C   UNL A   1      42.197  24.888  26.423  1.00  0.00     0.198 A 
ATOM     62  F   UNL A   1      40.755  25.089  28.271  1.00  0.00    -0.203 F 
ATOM     63  F   UNL A   1      44.473  27.275  24.926  1.00  0.00    -0.200 F 
ATOM     64  C   UNL A   1      43.143  25.435  25.568  1.00  0.00     0.200 A 
ATOM     65  F   UNL A   1      41.779  23.628  26.237  1.00  0.00    -0.200 F 
ATOM     66  F   UNL A   1      43.622  24.712  24.547  1.00  0.00    -0.200 F 
ENDBRANCH  42  56
BRANCH  43  67
ATOM     67  C   UNL A   1      39.025  32.052  35.735  1.00  0.00     0.064 A 
ATOM     68  C   UNL A   1      39.487  33.365  35.906  1.00  0.00     0.173 A 
ATOM     69  C   UNL A   1      38.173  31.532  36.722  1.00  0.00     0.173 A 
ATOM     70  F   UNL A   1      40.309  33.908  34.996  1.00  0.00    -0.203 F 
ATOM     71  C   UNL A   1      39.152  34.107  37.038  1.00  0.00     0.198 A 
ATOM     72  C   UNL A   1      37.808  32.289  37.834  1.00  0.00     0.198 A 
ATOM     73  F   UNL A   1      37.688  30.287  36.604  1.00  0.00    -0.203 F 
ATOM     74  F   UNL A   1      39.667  35.333  37.206  1.00  0.00    -0.200 F 
ATOM     75  C   UNL A   1      38.312  33.570  38.000  1.00  0.00     0.200 A 
ATOM     76  F   UNL A   1      36.977  31.775  38.752  1.00  0.00    -0.200 F 
ATOM     77  F   UNL A   1      37.995  34.283  39.089  1.00  0.00    -0.200 F 
ENDBRANCH  43  67
BRANCH  55  78
ATOM     78  C   UNL A   1      36.743  31.542  29.189  1.00  0.00     0.064 A 
ATOM     79  C   UNL A   1      36.713  32.908  28.869  1.00  0.00     0.173 A 
ATOM     80  C   UNL A   1      35.630  30.761  28.842  1.00  0.00     0.173 A 
ATOM     81  F   UNL A   1      37.747  33.700  29.192  1.00  0.00    -0.203 F 
ATOM     82  C   UNL A   1      35.588  33.480  28.283  1.00  0.00     0.198 A 
ATOM     83  C   UNL A   1      34.527  31.327  28.213  1.00  0.00     0.198 A 
ATOM     84  F   UNL A   1      35.611  29.447  29.116  1.00  0.00    -0.203 F 
ATOM     85  F   UNL A   1      35.547  34.801  28.070  1.00  0.00    -0.200 F 
ATOM     86  C   UNL A   1      34.499  32.688  27.951  1.00  0.00     0.200 A 
ATOM     87  F   UNL A   1      33.484  30.557  27.872  1.00  0.00    -0.200 F 
ATOM     88  F   UNL A   1      33.416  33.241  27.388  1.00  0.00    -0.200 F 
ENDBRANCH  55  78
ENDBRANCH  29  30
ENDBRANCH  22  24
ENDBRANCH  21  22
ENDBRANCH  20  21
ENDBRANCH   1  20
TORSDOF 16
ENDMDL
MODEL 2
REMARK VINA RESULT:     -10.6      6.522     12.118
REMARK SMILES CC(C)(O)CC[C@@H](C(=O)OCCOC(=O)c1ccc(-c2c3nc(c(-c4c(F)c(F)c(F)c(F)c4F)c4ccc([nH]4)c(-c4c(F)c(F)c(F)c(F)c4F)c4nc(c(-c5c(F)c(F)c(F)c(F)c5F)c5ccc2[nH]5)C=C4)C=C3)cc1)[C@@H]1CCS(=O)(=O)C1
REMARK SMILES IDX 11 1 10 2 8 3 9 4 7 5 6 6 5 7 2 8 1 9 3 10 4 11 79 13 80 14
REMARK SMILES IDX 85 15 81 16 82 17 83 18 84 19 12 20 13 21 14 22 15 23 16 24
REMARK SMILES IDX 17 25 78 26 18 27 77 28 19 29 20 30 21 31 71 32 22 33 76 34
REMARK SMILES IDX 70 35 72 36 23 37 75 38 69 39 68 40 24 42 56 43 36 44 55 45
REMARK SMILES IDX 37 46 40 47 54 48 73 49 38 50 39 51 53 53 74 54 41 55 25 56
REMARK SMILES IDX 26 57 34 58 27 59 28 60 32 61 35 62 29 63 30 64 33 65 31 66
REMARK SMILES IDX 57 67 58 68 66 69 59 70 60 71 64 72 67 73 61 74 62 75 65 76
REMARK SMILES IDX 63 77 42 78 43 79 51 80 44 81 45 82 49 83 52 84 46 85 47 86
REMARK SMILES IDX 50 87 48 88
REMARK H PARENT 4 12 72 41 40 52
REMARK Flexibility Score: inf
ROOT
ATOM      1  C   UNL A   1      31.591  27.921  25.669  1.00  0.00     0.274 C 
ENDROOT
BRANCH   1   2
ATOM      2  O   UNL A   1      31.452  26.796  24.775  1.00  0.00    -0.462 OA
BRANCH   2   3
ATOM      3  C   UNL A   1      32.574  26.201  24.283  1.00  0.00     0.309 C 
ATOM      4  O   UNL A   1      33.043  26.415  23.174  1.00  0.00    -0.252 OA
BRANCH   3   5
ATOM      5  C   UNL A   1      33.237  25.262  25.332  1.00  0.00     0.103 C 
BRANCH   5   6
ATOM      6  C   UNL A   1      34.651  24.804  24.894  1.00  0.00     0.018 C 
BRANCH   6   7
ATOM      7  C   UNL A   1      35.666  24.284  25.927  1.00  0.00     0.035 C 
BRANCH   7   8
ATOM      8  C   UNL A   1      36.763  23.303  25.499  1.00  0.00     0.059 C 
ATOM      9  C   UNL A   1      38.180  23.692  25.912  1.00  0.00     0.042 C 
ATOM     10  C   UNL A   1      36.721  23.192  23.969  1.00  0.00     0.042 C 
BRANCH   8  11
ATOM     11  O   UNL A   1      36.454  22.038  26.075  1.00  0.00    -0.390 OA
ATOM     12  H   UNL A   1      36.675  21.333  25.446  1.00  0.00     0.211 HD
ENDBRANCH   8  11
ENDBRANCH   7   8
ENDBRANCH   6   7
ENDBRANCH   5   6
BRANCH   5  13
ATOM     13  C   UNL A   1      32.283  24.024  25.817  1.00  0.00     0.019 C 
ATOM     14  C   UNL A   1      32.620  23.412  27.615  1.00  0.00     0.021 C 
ATOM     15  C   UNL A   1      32.253  22.657  24.483  1.00  0.00     0.141 C 
ATOM     16  C   UNL A   1      33.299  21.516  27.686  1.00  0.00     0.137 C 
ATOM     17  S   UNL A   1      33.142  20.737  25.234  1.00  0.00     0.150 S 
ATOM     18  O   UNL A   1      34.352  20.628  24.410  1.00  0.00    -0.229 OA
ATOM     19  O   UNL A   1      32.199  19.693  24.830  1.00  0.00    -0.229 OA
ENDBRANCH   5  13
ENDBRANCH   3   5
ENDBRANCH   2   3
ENDBRANCH   1   2
BRANCH   1  20
ATOM     20  C   UNL A   1      31.584  29.223  24.847  1.00  0.00     0.275 C 
BRANCH  20  21
ATOM     21  O   UNL A   1      32.706  30.041  25.228  1.00  0.00    -0.458 OA
BRANCH  21  22
ATOM     22  C   UNL A   1      32.527  30.874  26.275  1.00  0.00     0.338 C 
ATOM     23  O   UNL A   1      31.500  31.415  26.645  1.00  0.00    -0.246 OA
BRANCH  22  24
ATOM     24  C   UNL A   1      33.651  30.664  27.193  1.00  0.00     0.060 A 
ATOM     25  C   UNL A   1      34.541  32.092  27.544  1.00  0.00     0.016 A 
ATOM     26  C   UNL A   1      34.222  29.268  27.857  1.00  0.00     0.016 A 
ATOM     27  C   UNL A   1      36.187  32.024  28.642  1.00  0.00     0.010 A 
ATOM     28  C   UNL A   1      35.634  29.167  28.821  1.00  0.00     0.010 A 
ATOM     29  C   UNL A   1      36.684  30.459  29.237  1.00  0.00    -0.014 A 
BRANCH  29  30
ATOM     30  C   UNL A   1      37.957  30.207  29.976  1.00  0.00     0.031 A 
ATOM     31  C   UNL A   1      38.965  29.208  29.438  1.00  0.00     0.074 A 
ATOM     32  C   UNL A   1      38.201  30.815  31.156  1.00  0.00     0.049 A 
ATOM     33  N   UNL A   1      40.086  28.785  29.973  1.00  0.00    -0.248 NA
ATOM     34  C   UNL A   1      38.696  28.613  28.117  1.00  0.00     0.031 C 
ATOM     35  C   UNL A   1      37.343  31.799  31.806  1.00  0.00     0.029 A 
ATOM     36  N   UNL A   1      39.226  30.652  32.062  1.00  0.00    -0.354 N 
ATOM     37  C   UNL A   1      40.648  27.905  29.053  1.00  0.00     0.074 A 
ATOM     38  C   UNL A   1      39.723  27.797  27.953  1.00  0.00     0.031 C 
ATOM     39  C   UNL A   1      37.817  32.099  33.021  1.00  0.00     0.029 A 
ATOM     40  C   UNL A   1      39.024  31.327  33.246  1.00  0.00     0.049 A 
ATOM     41  H   UNL A   1      40.025  30.106  31.881  1.00  0.00     0.167 HD
ATOM     42  C   UNL A   1      41.840  27.263  29.100  1.00  0.00     0.037 A 
ATOM     43  C   UNL A   1      39.707  31.318  34.405  1.00  0.00     0.037 A 
ATOM     44  C   UNL A   1      42.747  27.336  30.215  1.00  0.00     0.049 A 
ATOM     45  C   UNL A   1      40.974  30.523  34.476  1.00  0.00     0.074 A 
ATOM     46  C   UNL A   1      43.982  26.732  30.367  1.00  0.00     0.029 A 
ATOM     47  N   UNL A   1      42.501  28.047  31.381  1.00  0.00    -0.354 N 
ATOM     48  N   UNL A   1      41.519  29.756  33.563  1.00  0.00    -0.248 NA
ATOM     49  C   UNL A   1      41.744  30.623  35.720  1.00  0.00     0.031 C 
ATOM     50  C   UNL A   1      44.455  27.024  31.650  1.00  0.00     0.029 A 
ATOM     51  C   UNL A   1      43.551  27.872  32.269  1.00  0.00     0.049 A 
ATOM     52  H   UNL A   1      41.700  28.592  31.553  1.00  0.00     0.167 HD
ATOM     53  C   UNL A   1      42.715  29.315  34.106  1.00  0.00     0.074 A 
ATOM     54  C   UNL A   1      42.827  29.925  35.415  1.00  0.00     0.031 C 
ATOM     55  C   UNL A   1      43.639  28.480  33.571  1.00  0.00     0.037 A 
BRANCH  42  56
ATOM     56  C   UNL A   1      42.234  26.425  27.913  1.00  0.00     0.064 A 
ATOM     57  C   UNL A   1      41.726  25.129  27.729  1.00  0.00     0.173 A 
ATOM     58  C   UNL A   1      43.093  26.932  26.926  1.00  0.00     0.173 A 
ATOM     59  F   UNL A   1      40.913  24.585  28.649  1.00  0.00    -0.203 F 
ATOM     60  C   UNL A   1      42.078  24.367  26.617  1.00  0.00     0.198 A 
ATOM     61  C   UNL A   1      43.419  26.180  25.799  1.00  0.00     0.198 A 
ATOM     62  F   UNL A   1      43.610  28.165  27.047  1.00  0.00    -0.203 F 
ATOM     63  F   UNL A   1      41.617  23.114  26.491  1.00  0.00    -0.200 F 
ATOM     64  C   UNL A   1      42.916  24.896  25.649  1.00  0.00     0.200 A 
ATOM     65  F   UNL A   1      44.220  26.697  24.857  1.00  0.00    -0.200 F 
ATOM     66  F   UNL A   1      43.248  24.167  24.574  1.00  0.00    -0.200 F 
ENDBRANCH  42  56
BRANCH  43  67
ATOM     67  C   UNL A   1      39.222  32.104  35.574  1.00  0.00     0.064 A 
ATOM     68  C   UNL A   1      39.579  33.450  35.740  1.00  0.00     0.173 A 
ATOM     69  C   UNL A   1      38.406  31.524  36.558  1.00  0.00     0.173 A 
ATOM     70  F   UNL A   1      40.362  34.051  34.833  1.00  0.00    -0.203 F 
ATOM     71  C   UNL A   1      39.180  34.169  36.866  1.00  0.00     0.198 A 
ATOM     72  C   UNL A   1      37.976  32.256  37.664  1.00  0.00     0.198 A 
ATOM     73  F   UNL A   1      38.020  30.245  36.444  1.00  0.00    -0.203 F 
ATOM     74  F   UNL A   1      39.597  35.432  37.031  1.00  0.00    -0.200 F 
ATOM     75  C   UNL A   1      38.377  33.573  37.826  1.00  0.00     0.200 A 
ATOM     76  F   UNL A   1      37.182  31.684  38.579  1.00  0.00    -0.200 F 
ATOM     77  F   UNL A   1      37.999  34.264  38.909  1.00  0.00    -0.200 F 
ENDBRANCH  43  67
BRANCH  55  78
ATOM     78  C   UNL A   1      44.862  28.214  34.398  1.00  0.00     0.064 A 
ATOM     79  C   UNL A   1      44.909  27.170  35.334  1.00  0.00     0.173 A 
ATOM     80  C   UNL A   1      45.999  29.026  34.260  1.00  0.00     0.173 A 
ATOM     81  F   UNL A   1      43.843  26.375  35.513  1.00  0.00    -0.203 F 
ATOM     82  C   UNL A   1      46.026  26.987  36.143  1.00  0.00     0.198 A 
ATOM     83  C   UNL A   1      47.131  28.809  35.037  1.00  0.00     0.198 A 
ATOM     84  F   UNL A   1      46.010  30.032  33.372  1.00  0.00    -0.203 F 
ATOM     85  F   UNL A   1      46.013  26.041  37.092  1.00  0.00    -0.200 F 
ATOM     86  C   UNL A   1      47.137  27.802  35.990  1.00  0.00     0.200 A 
ATOM     87  F   UNL A   1      48.212  29.583  34.873  1.00  0.00    -0.200 F 
ATOM     88  F   UNL A   1      48.211  27.625  36.772  1.00  0.00    -0.200 F 
ENDBRANCH  55  78
ENDBRANCH  29  30
ENDBRANCH  22  24
ENDBRANCH  21  22
ENDBRANCH  20  21
ENDBRANCH   1  20
TORSDOF 16
ENDMDL
MODEL 3
REMARK VINA RESULT:     -10.6      7.610     14.739
REMARK SMILES CC(C)(O)CC[C@@H](C(=O)OCCOC(=O)c1ccc(-c2c3nc(c(-c4c(F)c(F)c(F)c(F)c4F)c4ccc([nH]4)c(-c4c(F)c(F)c(F)c(F)c4F)c4nc(c(-c5c(F)c(F)c(F)c(F)c5F)c5ccc2[nH]5)C=C4)C=C3)cc1)[C@@H]1CCS(=O)(=O)C1
REMARK SMILES IDX 11 1 10 2 8 3 9 4 7 5 6 6 5 7 2 8 1 9 3 10 4 11 79 13 80 14
REMARK SMILES IDX 85 15 81 16 82 17 83 18 84 19 12 20 13 21 14 22 15 23 16 24
REMARK SMILES IDX 17 25 78 26 18 27 77 28 19 29 20 30 21 31 71 32 22 33 76 34
REMARK SMILES IDX 70 35 72 36 23 37 75 38 69 39 68 40 24 42 56 43 36 44 55 45
REMARK SMILES IDX 37 46 40 47 54 48 73 49 38 50 39 51 53 53 74 54 41 55 25 56
REMARK SMILES IDX 26 57 34 58 27 59 28 60 32 61 35 62 29 63 30 64 33 65 31 66
REMARK SMILES IDX 57 67 58 68 66 69 59 70 60 71 64 72 67 73 61 74 62 75 65 76
REMARK SMILES IDX 63 77 42 78 43 79 51 80 44 81 45 82 49 83 52 84 46 85 47 86
REMARK SMILES IDX 50 87 48 88
REMARK H PARENT 4 12 72 41 40 52
REMARK Flexibility Score: inf
ROOT
ATOM      1  C   UNL A   1      31.785  29.882  25.886  1.00  0.00     0.274 C 
ENDROOT
BRANCH   1   2
ATOM      2  O   UNL A   1      31.429  28.503  25.648  1.00  0.00    -0.462 OA
BRANCH   2   3
ATOM      3  C   UNL A   1      31.634  27.973  24.410  1.00  0.00     0.309 C 
ATOM      4  O   UNL A   1      31.731  28.628  23.382  1.00  0.00    -0.252 OA
BRANCH   3   5
ATOM      5  C   UNL A   1      31.804  26.427  24.466  1.00  0.00     0.103 C 
BRANCH   5   6
ATOM      6  C   UNL A   1      31.375  25.843  25.835  1.00  0.00     0.018 C 
BRANCH   6   7
ATOM      7  C   UNL A   1      30.304  24.740  25.921  1.00  0.00     0.035 C 
BRANCH   7   8
ATOM      8  C   UNL A   1      30.637  23.397  26.578  1.00  0.00     0.059 C 
ATOM      9  C   UNL A   1      31.163  22.322  25.631  1.00  0.00     0.042 C 
ATOM     10  C   UNL A   1      29.356  22.870  27.241  1.00  0.00     0.042 C 
BRANCH   8  11
ATOM     11  O   UNL A   1      31.621  23.641  27.578  1.00  0.00    -0.390 OA
ATOM     12  H   UNL A   1      32.397  23.083  27.413  1.00  0.00     0.211 HD
ENDBRANCH   8  11
ENDBRANCH   7   8
ENDBRANCH   6   7
ENDBRANCH   5   6
BRANCH   5  13
ATOM     13  C   UNL A   1      33.272  25.898  23.975  1.00  0.00     0.019 C 
ATOM     14  C   UNL A   1      33.218  24.400  22.761  1.00  0.00     0.021 C 
ATOM     15  C   UNL A   1      34.431  25.687  25.478  1.00  0.00     0.141 C 
ATOM     16  C   UNL A   1      34.055  22.736  23.527  1.00  0.00     0.137 C 
ATOM     17  S   UNL A   1      35.046  23.546  25.765  1.00  0.00     0.150 S 
ATOM     18  O   UNL A   1      34.384  23.214  27.033  1.00  0.00    -0.229 OA
ATOM     19  O   UNL A   1      36.492  23.587  25.982  1.00  0.00    -0.229 OA
ENDBRANCH   5  13
ENDBRANCH   3   5
ENDBRANCH   2   3
ENDBRANCH   1   2
BRANCH   1  20
ATOM     20  C   UNL A   1      33.286  29.968  26.215  1.00  0.00     0.275 C 
BRANCH  20  21
ATOM     21  O   UNL A   1      33.461  30.127  27.636  1.00  0.00    -0.458 OA
BRANCH  21  22
ATOM     22  C   UNL A   1      34.298  31.105  28.042  1.00  0.00     0.338 C 
ATOM     23  O   UNL A   1      34.019  32.194  28.513  1.00  0.00    -0.246 OA
BRANCH  22  24
ATOM     24  C   UNL A   1      35.606  30.485  28.278  1.00  0.00     0.060 A 
ATOM     25  C   UNL A   1      35.841  29.949  29.894  1.00  0.00     0.016 A 
ATOM     26  C   UNL A   1      36.888  30.307  27.258  1.00  0.00     0.016 A 
ATOM     27  C   UNL A   1      37.584  29.215  30.482  1.00  0.00     0.010 A 
ATOM     28  C   UNL A   1      38.407  29.667  27.722  1.00  0.00     0.010 A 
ATOM     29  C   UNL A   1      38.856  29.132  29.290  1.00  0.00    -0.014 A 
BRANCH  29  30
ATOM     30  C   UNL A   1      40.260  28.719  29.587  1.00  0.00     0.031 A 
ATOM     31  C   UNL A   1      41.208  29.683  30.276  1.00  0.00     0.074 A 
ATOM     32  C   UNL A   1      40.721  27.512  29.196  1.00  0.00     0.049 A 
ATOM     33  N   UNL A   1      42.486  29.548  30.543  1.00  0.00    -0.248 NA
ATOM     34  C   UNL A   1      40.654  30.965  30.745  1.00  0.00     0.031 C 
ATOM     35  C   UNL A   1      39.943  26.473  28.531  1.00  0.00     0.029 A 
ATOM     36  N   UNL A   1      41.985  26.967  29.247  1.00  0.00    -0.354 N 
ATOM     37  C   UNL A   1      42.867  30.703  31.219  1.00  0.00     0.074 A 
ATOM     38  C   UNL A   1      41.711  31.564  31.268  1.00  0.00     0.031 C 
ATOM     39  C   UNL A   1      40.737  25.459  28.167  1.00  0.00     0.029 A 
ATOM     40  C   UNL A   1      42.094  25.769  28.575  1.00  0.00     0.049 A 
ATOM     41  H   UNL A   1      42.738  27.392  29.719  1.00  0.00     0.167 HD
ATOM     42  C   UNL A   1      44.062  31.015  31.776  1.00  0.00     0.037 A 
ATOM     43  C   UNL A   1      43.161  25.005  28.283  1.00  0.00     0.037 A 
ATOM     44  C   UNL A   1      45.229  30.177  31.693  1.00  0.00     0.049 A 
ATOM     45  C   UNL A   1      44.497  25.415  28.823  1.00  0.00     0.074 A 
ATOM     46  C   UNL A   1      46.488  30.392  32.224  1.00  0.00     0.029 A 
ATOM     47  N   UNL A   1      45.280  28.968  31.014  1.00  0.00    -0.354 N 
ATOM     48  N   UNL A   1      44.814  26.479  29.521  1.00  0.00    -0.248 NA
ATOM     49  C   UNL A   1      45.616  24.500  28.573  1.00  0.00     0.031 C 
ATOM     50  C   UNL A   1      47.318  29.345  31.813  1.00  0.00     0.029 A 
ATOM     51  C   UNL A   1      46.558  28.440  31.090  1.00  0.00     0.049 A 
ATOM     52  H   UNL A   1      44.521  28.549  30.547  1.00  0.00     0.167 HD
ATOM     53  C   UNL A   1      46.158  26.342  29.828  1.00  0.00     0.074 A 
ATOM     54  C   UNL A   1      46.586  25.077  29.265  1.00  0.00     0.031 C 
ATOM     55  C   UNL A   1      46.967  27.184  30.514  1.00  0.00     0.037 A 
BRANCH  42  56
ATOM     56  C   UNL A   1      44.169  32.317  32.525  1.00  0.00     0.064 A 
ATOM     57  C   UNL A   1      43.885  32.400  33.898  1.00  0.00     0.173 A 
ATOM     58  C   UNL A   1      44.600  33.486  31.879  1.00  0.00     0.173 A 
ATOM     59  F   UNL A   1      43.453  31.317  34.564  1.00  0.00    -0.203 F 
ATOM     60  C   UNL A   1      44.007  33.603  34.588  1.00  0.00     0.198 A 
ATOM     61  C   UNL A   1      44.751  34.681  32.579  1.00  0.00     0.198 A 
ATOM     62  F   UNL A   1      44.886  33.469  30.568  1.00  0.00    -0.203 F 
ATOM     63  F   UNL A   1      43.683  33.665  35.888  1.00  0.00    -0.200 F 
ATOM     64  C   UNL A   1      44.448  34.741  33.931  1.00  0.00     0.200 A 
ATOM     65  F   UNL A   1      45.190  35.778  31.945  1.00  0.00    -0.200 F 
ATOM     66  F   UNL A   1      44.575  35.897  34.597  1.00  0.00    -0.200 F 
ENDBRANCH  42  56
BRANCH  43  67
ATOM     67  C   UNL A   1      43.005  23.769  27.466  1.00  0.00     0.064 A 
ATOM     68  C   UNL A   1      42.571  22.568  28.045  1.00  0.00     0.173 A 
ATOM     69  C   UNL A   1      43.301  23.756  26.094  1.00  0.00     0.173 A 
ATOM     70  F   UNL A   1      42.281  22.523  29.354  1.00  0.00    -0.203 F 
ATOM     71  C   UNL A   1      42.486  21.394  27.298  1.00  0.00     0.198 A 
ATOM     72  C   UNL A   1      43.179  22.591  25.339  1.00  0.00     0.198 A 
ATOM     73  F   UNL A   1      43.706  24.879  25.483  1.00  0.00    -0.203 F 
ATOM     74  F   UNL A   1      42.136  20.247  27.896  1.00  0.00    -0.200 F 
ATOM     75  C   UNL A   1      42.787  21.407  25.945  1.00  0.00     0.200 A 
ATOM     76  F   UNL A   1      43.449  22.610  24.026  1.00  0.00    -0.200 F 
ATOM     77  F   UNL A   1      42.709  20.277  25.229  1.00  0.00    -0.200 F 
ENDBRANCH  43  67
BRANCH  55  78
ATOM     78  C   UNL A   1      48.385  26.738  30.717  1.00  0.00     0.064 A 
ATOM     79  C   UNL A   1      49.412  27.121  29.840  1.00  0.00     0.173 A 
ATOM     80  C   UNL A   1      48.717  25.905  31.795  1.00  0.00     0.173 A 
ATOM     81  F   UNL A   1      49.143  27.906  28.786  1.00  0.00    -0.203 F 
ATOM     82  C   UNL A   1      50.706  26.637  30.003  1.00  0.00     0.198 A 
ATOM     83  C   UNL A   1      50.021  25.462  31.982  1.00  0.00     0.198 A 
ATOM     84  F   UNL A   1      47.774  25.517  32.668  1.00  0.00    -0.203 F 
ATOM     85  F   UNL A   1      51.649  26.943  29.102  1.00  0.00    -0.200 F 
ATOM     86  C   UNL A   1      51.011  25.813  31.075  1.00  0.00     0.200 A 
ATOM     87  F   UNL A   1      50.319  24.683  33.031  1.00  0.00    -0.200 F 
ATOM     88  F   UNL A   1      52.257  25.346  31.229  1.00  0.00    -0.200 F 
ENDBRANCH  55  78
ENDBRANCH  29  30
ENDBRANCH  22  24
ENDBRANCH  21  22
ENDBRANCH  20  21
ENDBRANCH   1  20
TORSDOF 16
ENDMDL
