MODEL 1
REMARK VINA RESULT:     -12.8      0.000      0.000
REMARK SMILES C[C@@H](C(=O)OCCOC(=O)c1ccc(-c2c3nc(c(-c4c(F)c(F)c(F)c(F)c4F)c4ccc([nH]4)c(-c4c(F)c(F)c(F)c(F)c4F)c4nc(c(-c5c(F)c(F)c(F)c(F)c5F)c5ccc2[nH]5)C=C4)C=C3)cc1)c1ccc(NC2CCCC2)cc1F
REMARK SMILES IDX 6 1 5 2 3 3 4 4 2 5 1 6 74 7 75 8 85 9 76 10 84 11 86 12
REMARK SMILES IDX 77 13 78 14 79 16 80 17 83 18 81 19 82 20 7 21 8 22 9 23
REMARK SMILES IDX 10 24 11 25 12 26 73 27 13 28 72 29 14 30 15 31 16 32 66 33
REMARK SMILES IDX 17 34 71 35 65 36 67 37 18 38 70 39 64 40 63 41 19 43 51 44
REMARK SMILES IDX 31 45 50 46 32 47 35 48 49 49 68 50 33 51 34 52 48 54 69 55
REMARK SMILES IDX 36 56 20 57 21 58 29 59 22 60 23 61 27 62 30 63 24 64 25 65
REMARK SMILES IDX 28 66 26 67 52 68 53 69 61 70 54 71 55 72 59 73 62 74 56 75
REMARK SMILES IDX 57 76 60 77 58 78 37 79 38 80 46 81 39 82 40 83 44 84 47 85
REMARK SMILES IDX 41 86 42 87 45 88 43 89
REMARK H PARENT 78 15 67 42 35 53
REMARK Flexibility Score: inf
ROOT
ATOM      1  C   UNL A   1      31.470  28.185  26.189  1.00  0.00     0.274 C 
ENDROOT
BRANCH   1   2
ATOM      2  O   UNL A   1      32.380  27.218  25.630  1.00  0.00    -0.462 OA
BRANCH   2   3
ATOM      3  C   UNL A   1      32.291  25.955  26.141  1.00  0.00     0.313 C 
ATOM      4  O   UNL A   1      31.392  25.569  26.878  1.00  0.00    -0.252 OA
BRANCH   3   5
ATOM      5  C   UNL A   1      33.442  25.064  25.665  1.00  0.00     0.129 C 
ATOM      6  C   UNL A   1      33.741  25.337  24.182  1.00  0.00     0.025 C 
BRANCH   5   7
ATOM      7  C   UNL A   1      33.274  23.573  25.916  1.00  0.00     0.002 A 
ATOM      8  C   UNL A   1      34.048  22.922  26.890  1.00  0.00     0.010 A 
ATOM      9  C   UNL A   1      32.392  22.775  25.201  1.00  0.00     0.129 A 
ATOM     10  C   UNL A   1      34.028  21.518  27.034  1.00  0.00     0.026 A 
ATOM     11  C   UNL A   1      32.386  21.389  25.348  1.00  0.00     0.065 A 
ATOM     12  F   UNL A   1      31.526  23.312  24.334  1.00  0.00    -0.207 F 
ATOM     13  C   UNL A   1      33.271  20.717  26.189  1.00  0.00     0.037 A 
BRANCH  13  14
ATOM     14  N   UNL A   1      33.283  19.343  26.130  1.00  0.00    -0.382 N 
ATOM     15  H   UNL A   1      33.415  18.903  27.000  1.00  0.00     0.160 HD
BRANCH  14  16
ATOM     16  C   UNL A   1      33.136  18.425  25.017  1.00  0.00     0.079 C 
ATOM     17  C   UNL A   1      34.392  18.098  24.223  1.00  0.00     0.025 C 
ATOM     18  C   UNL A   1      32.502  17.097  25.425  1.00  0.00     0.025 C 
ATOM     19  C   UNL A   1      34.042  16.769  23.567  1.00  0.00     0.002 C 
ATOM     20  C   UNL A   1      33.229  16.027  24.620  1.00  0.00     0.002 C 
ENDBRANCH  14  16
ENDBRANCH  13  14
ENDBRANCH   5   7
ENDBRANCH   3   5
ENDBRANCH   2   3
ENDBRANCH   1   2
BRANCH   1  21
ATOM     21  C   UNL A   1      31.552  29.468  25.358  1.00  0.00     0.275 C 
BRANCH  21  22
ATOM     22  O   UNL A   1      32.843  30.058  25.598  1.00  0.00    -0.458 OA
BRANCH  22  23
ATOM     23  C   UNL A   1      32.983  30.874  26.670  1.00  0.00     0.338 C 
ATOM     24  O   UNL A   1      32.136  31.608  27.144  1.00  0.00    -0.246 OA
BRANCH  23  25
ATOM     25  C   UNL A   1      34.347  30.690  27.240  1.00  0.00     0.060 A 
ATOM     26  C   UNL A   1      34.863  29.413  27.417  1.00  0.00     0.016 A 
ATOM     27  C   UNL A   1      35.095  31.779  27.698  1.00  0.00     0.016 A 
ATOM     28  C   UNL A   1      36.045  29.222  28.133  1.00  0.00     0.010 A 
ATOM     29  C   UNL A   1      36.335  31.574  28.342  1.00  0.00     0.010 A 
ATOM     30  C   UNL A   1      36.812  30.281  28.629  1.00  0.00    -0.014 A 
BRANCH  30  31
ATOM     31  C   UNL A   1      38.010  30.021  29.514  1.00  0.00     0.031 A 
ATOM     32  C   UNL A   1      39.222  29.296  28.964  1.00  0.00     0.074 A 
ATOM     33  C   UNL A   1      38.121  30.495  30.778  1.00  0.00     0.049 A 
ATOM     34  N   UNL A   1      40.199  28.703  29.609  1.00  0.00    -0.248 NA
ATOM     35  C   UNL A   1      39.346  29.214  27.501  1.00  0.00     0.031 C 
ATOM     36  C   UNL A   1      37.130  31.302  31.490  1.00  0.00     0.029 A 
ATOM     37  N   UNL A   1      39.157  30.397  31.687  1.00  0.00    -0.354 N 
ATOM     38  C   UNL A   1      40.967  28.067  28.641  1.00  0.00     0.074 A 
ATOM     39  C   UNL A   1      40.375  28.391  27.360  1.00  0.00     0.031 C 
ATOM     40  C   UNL A   1      37.650  31.731  32.648  1.00  0.00     0.029 A 
ATOM     41  C   UNL A   1      38.935  31.079  32.862  1.00  0.00     0.049 A 
ATOM     42  H   UNL A   1      39.980  29.887  31.510  1.00  0.00     0.167 HD
ATOM     43  C   UNL A   1      42.051  27.269  28.808  1.00  0.00     0.037 A 
ATOM     44  C   UNL A   1      39.627  31.120  34.019  1.00  0.00     0.037 A 
ATOM     45  C   UNL A   1      42.731  27.061  30.061  1.00  0.00     0.049 A 
ATOM     46  C   UNL A   1      40.828  30.234  34.199  1.00  0.00     0.074 A 
ATOM     47  C   UNL A   1      43.821  26.251  30.332  1.00  0.00     0.029 A 
ATOM     48  N   UNL A   1      42.420  27.715  31.241  1.00  0.00    -0.354 N 
ATOM     49  N   UNL A   1      41.416  29.452  33.329  1.00  0.00    -0.248 NA
ATOM     50  C   UNL A   1      41.421  30.187  35.545  1.00  0.00     0.031 C 
ATOM     51  C   UNL A   1      44.163  26.407  31.680  1.00  0.00     0.029 A 
ATOM     52  C   UNL A   1      43.305  27.337  32.240  1.00  0.00     0.049 A 
ATOM     53  H   UNL A   1      41.680  28.354  31.356  1.00  0.00     0.167 HD
ATOM     54  C   UNL A   1      42.429  28.805  34.024  1.00  0.00     0.074 A 
ATOM     55  C   UNL A   1      42.408  29.319  35.377  1.00  0.00     0.031 C 
ATOM     56  C   UNL A   1      43.283  27.851  33.582  1.00  0.00     0.037 A 
BRANCH  43  57
ATOM     57  C   UNL A   1      42.540  26.500  27.616  1.00  0.00     0.064 A 
ATOM     58  C   UNL A   1      43.558  26.969  26.778  1.00  0.00     0.173 A 
ATOM     59  C   UNL A   1      41.994  25.234  27.341  1.00  0.00     0.173 A 
ATOM     60  F   UNL A   1      44.104  28.176  26.990  1.00  0.00    -0.203 F 
ATOM     61  C   UNL A   1      43.998  26.211  25.693  1.00  0.00     0.198 A 
ATOM     62  C   UNL A   1      42.455  24.467  26.275  1.00  0.00     0.198 A 
ATOM     63  F   UNL A   1      41.023  24.733  28.119  1.00  0.00    -0.203 F 
ATOM     64  F   UNL A   1      44.944  26.697  24.879  1.00  0.00    -0.200 F 
ATOM     65  C   UNL A   1      43.452  24.959  25.448  1.00  0.00     0.200 A 
ATOM     66  F   UNL A   1      41.936  23.251  26.051  1.00  0.00    -0.200 F 
ATOM     67  F   UNL A   1      43.883  24.229  24.410  1.00  0.00    -0.200 F 
ENDBRANCH  43  57
BRANCH  44  68
ATOM     68  C   UNL A   1      39.138  31.954  35.155  1.00  0.00     0.064 A 
ATOM     69  C   UNL A   1      38.369  31.394  36.183  1.00  0.00     0.173 A 
ATOM     70  C   UNL A   1      39.423  33.326  35.230  1.00  0.00     0.173 A 
ATOM     71  F   UNL A   1      38.029  30.097  36.136  1.00  0.00    -0.203 F 
ATOM     72  C   UNL A   1      37.908  32.174  37.244  1.00  0.00     0.198 A 
ATOM     73  C   UNL A   1      38.998  34.095  36.310  1.00  0.00     0.198 A 
ATOM     74  F   UNL A   1      40.138  33.918  34.261  1.00  0.00    -0.203 F 
ATOM     75  F   UNL A   1      37.136  31.623  38.191  1.00  0.00    -0.200 F 
ATOM     76  C   UNL A   1      38.235  33.519  37.313  1.00  0.00     0.200 A 
ATOM     77  F   UNL A   1      39.331  35.391  36.377  1.00  0.00    -0.200 F 
ATOM     78  F   UNL A   1      37.808  34.264  38.342  1.00  0.00    -0.200 F 
ENDBRANCH  44  68
BRANCH  56  79
ATOM     79  C   UNL A   1      44.277  27.310  34.566  1.00  0.00     0.064 A 
ATOM     80  C   UNL A   1      44.004  26.160  35.321  1.00  0.00     0.173 A 
ATOM     81  C   UNL A   1      45.520  27.933  34.740  1.00  0.00     0.173 A 
ATOM     82  F   UNL A   1      42.820  25.541  35.203  1.00  0.00    -0.203 F 
ATOM     83  C   UNL A   1      44.934  25.664  36.231  1.00  0.00     0.198 A 
ATOM     84  C   UNL A   1      46.457  27.423  35.635  1.00  0.00     0.198 A 
ATOM     85  F   UNL A   1      45.829  29.035  34.039  1.00  0.00    -0.203 F 
ATOM     86  F   UNL A   1      44.636  24.589  36.973  1.00  0.00    -0.200 F 
ATOM     87  C   UNL A   1      46.161  26.293  36.384  1.00  0.00     0.200 A 
ATOM     88  F   UNL A   1      47.644  28.028  35.778  1.00  0.00    -0.200 F 
ATOM     89  F   UNL A   1      47.055  25.815  37.260  1.00  0.00    -0.200 F 
ENDBRANCH  56  79
ENDBRANCH  30  31
ENDBRANCH  23  25
ENDBRANCH  22  23
ENDBRANCH  21  22
ENDBRANCH   1  21
TORSDOF 14
ENDMDL
MODEL 2
REMARK VINA RESULT:     -12.6      0.597      1.796
REMARK SMILES C[C@@H](C(=O)OCCOC(=O)c1ccc(-c2c3nc(c(-c4c(F)c(F)c(F)c(F)c4F)c4ccc([nH]4)c(-c4c(F)c(F)c(F)c(F)c4F)c4nc(c(-c5c(F)c(F)c(F)c(F)c5F)c5ccc2[nH]5)C=C4)C=C3)cc1)c1ccc(NC2CCCC2)cc1F
REMARK SMILES IDX 6 1 5 2 3 3 4 4 2 5 1 6 74 7 75 8 85 9 76 10 84 11 86 12
REMARK SMILES IDX 77 13 78 14 79 16 80 17 83 18 81 19 82 20 7 21 8 22 9 23
REMARK SMILES IDX 10 24 11 25 12 26 73 27 13 28 72 29 14 30 15 31 16 32 66 33
REMARK SMILES IDX 17 34 71 35 65 36 67 37 18 38 70 39 64 40 63 41 19 43 51 44
REMARK SMILES IDX 31 45 50 46 32 47 35 48 49 49 68 50 33 51 34 52 48 54 69 55
REMARK SMILES IDX 36 56 20 57 21 58 29 59 22 60 23 61 27 62 30 63 24 64 25 65
REMARK SMILES IDX 28 66 26 67 52 68 53 69 61 70 54 71 55 72 59 73 62 74 56 75
REMARK SMILES IDX 57 76 60 77 58 78 37 79 38 80 46 81 39 82 40 83 44 84 47 85
REMARK SMILES IDX 41 86 42 87 45 88 43 89
REMARK H PARENT 78 15 67 42 35 53
REMARK Flexibility Score: inf
ROOT
ATOM      1  C   UNL A   1      31.755  28.057  26.566  1.00  0.00     0.274 C 
ENDROOT
BRANCH   1   2
ATOM      2  O   UNL A   1      32.039  26.981  25.650  1.00  0.00    -0.462 OA
BRANCH   2   3
ATOM      3  C   UNL A   1      32.182  25.746  26.212  1.00  0.00     0.313 C 
ATOM      4  O   UNL A   1      31.342  25.206  26.921  1.00  0.00    -0.252 OA
BRANCH   3   5
ATOM      5  C   UNL A   1      33.518  25.098  25.834  1.00  0.00     0.129 C 
ATOM      6  C   UNL A   1      34.080  25.754  24.562  1.00  0.00     0.025 C 
BRANCH   5   7
ATOM      7  C   UNL A   1      33.505  23.583  25.697  1.00  0.00     0.002 A 
ATOM      8  C   UNL A   1      32.568  22.951  24.863  1.00  0.00     0.010 A 
ATOM      9  C   UNL A   1      34.372  22.748  26.387  1.00  0.00     0.129 A 
ATOM     10  C   UNL A   1      32.429  21.546  24.840  1.00  0.00     0.026 A 
ATOM     11  C   UNL A   1      34.221  21.363  26.360  1.00  0.00     0.065 A 
ATOM     12  F   UNL A   1      35.377  23.249  27.114  1.00  0.00    -0.207 F 
ATOM     13  C   UNL A   1      33.186  20.731  25.671  1.00  0.00     0.037 A 
BRANCH  13  14
ATOM     14  N   UNL A   1      33.041  19.376  25.849  1.00  0.00    -0.382 N 
ATOM     15  H   UNL A   1      32.972  19.098  26.791  1.00  0.00     0.160 HD
BRANCH  14  16
ATOM     16  C   UNL A   1      32.971  18.281  24.901  1.00  0.00     0.079 C 
ATOM     17  C   UNL A   1      34.260  17.902  24.190  1.00  0.00     0.025 C 
ATOM     18  C   UNL A   1      32.402  17.003  25.514  1.00  0.00     0.025 C 
ATOM     19  C   UNL A   1      33.999  16.465  23.757  1.00  0.00     0.002 C 
ATOM     20  C   UNL A   1      33.204  15.859  24.907  1.00  0.00     0.002 C 
ENDBRANCH  14  16
ENDBRANCH  13  14
ENDBRANCH   5   7
ENDBRANCH   3   5
ENDBRANCH   2   3
ENDBRANCH   1   2
BRANCH   1  21
ATOM     21  C   UNL A   1      31.647  29.359  25.770  1.00  0.00     0.275 C 
BRANCH  21  22
ATOM     22  O   UNL A   1      32.935  30.002  25.815  1.00  0.00    -0.458 OA
BRANCH  22  23
ATOM     23  C   UNL A   1      33.154  30.927  26.779  1.00  0.00     0.338 C 
ATOM     24  O   UNL A   1      32.365  31.761  27.184  1.00  0.00    -0.246 OA
BRANCH  23  25
ATOM     25  C   UNL A   1      34.522  30.729  27.335  1.00  0.00     0.060 A 
ATOM     26  C   UNL A   1      35.006  29.446  27.557  1.00  0.00     0.016 A 
ATOM     27  C   UNL A   1      35.308  31.814  27.734  1.00  0.00     0.016 A 
ATOM     28  C   UNL A   1      36.194  29.252  28.262  1.00  0.00     0.010 A 
ATOM     29  C   UNL A   1      36.552  31.602  28.366  1.00  0.00     0.010 A 
ATOM     30  C   UNL A   1      36.998  30.309  28.700  1.00  0.00    -0.014 A 
BRANCH  30  31
ATOM     31  C   UNL A   1      38.204  30.053  29.576  1.00  0.00     0.031 A 
ATOM     32  C   UNL A   1      39.398  29.296  29.029  1.00  0.00     0.074 A 
ATOM     33  C   UNL A   1      38.339  30.556  30.826  1.00  0.00     0.049 A 
ATOM     34  N   UNL A   1      40.374  28.704  29.675  1.00  0.00    -0.248 NA
ATOM     35  C   UNL A   1      39.501  29.177  27.567  1.00  0.00     0.031 C 
ATOM     36  C   UNL A   1      37.370  31.395  31.530  1.00  0.00     0.029 A 
ATOM     37  N   UNL A   1      39.385  30.465  31.724  1.00  0.00    -0.354 N 
ATOM     38  C   UNL A   1      41.120  28.033  28.713  1.00  0.00     0.074 A 
ATOM     39  C   UNL A   1      40.516  28.334  27.433  1.00  0.00     0.031 C 
ATOM     40  C   UNL A   1      37.911  31.845  32.671  1.00  0.00     0.029 A 
ATOM     41  C   UNL A   1      39.189  31.178  32.884  1.00  0.00     0.049 A 
ATOM     42  H   UNL A   1      40.198  29.937  31.549  1.00  0.00     0.167 HD
ATOM     43  C   UNL A   1      42.194  27.223  28.886  1.00  0.00     0.037 A 
ATOM     44  C   UNL A   1      39.896  31.237  34.032  1.00  0.00     0.037 A 
ATOM     45  C   UNL A   1      42.887  27.035  30.135  1.00  0.00     0.049 A 
ATOM     46  C   UNL A   1      41.087  30.338  34.217  1.00  0.00     0.074 A 
ATOM     47  C   UNL A   1      43.969  26.216  30.412  1.00  0.00     0.029 A 
ATOM     48  N   UNL A   1      42.602  27.723  31.303  1.00  0.00    -0.354 N 
ATOM     49  N   UNL A   1      41.651  29.525  33.360  1.00  0.00    -0.248 NA
ATOM     50  C   UNL A   1      41.696  30.315  35.556  1.00  0.00     0.031 C 
ATOM     51  C   UNL A   1      44.331  26.400  31.752  1.00  0.00     0.029 A 
ATOM     52  C   UNL A   1      43.494  27.357  32.299  1.00  0.00     0.049 A 
ATOM     53  H   UNL A   1      41.873  28.376  31.411  1.00  0.00     0.167 HD
ATOM     54  C   UNL A   1      42.664  28.881  34.058  1.00  0.00     0.074 A 
ATOM     55  C   UNL A   1      42.668  29.428  35.397  1.00  0.00     0.031 C 
ATOM     56  C   UNL A   1      43.497  27.903  33.629  1.00  0.00     0.037 A 
BRANCH  43  57
ATOM     57  C   UNL A   1      42.656  26.418  27.707  1.00  0.00     0.064 A 
ATOM     58  C   UNL A   1      42.106  25.173  27.378  1.00  0.00     0.173 A 
ATOM     59  C   UNL A   1      43.650  26.941  26.862  1.00  0.00     0.173 A 
ATOM     60  F   UNL A   1      41.163  24.625  28.158  1.00  0.00    -0.203 F 
ATOM     61  C   UNL A   1      42.550  24.469  26.260  1.00  0.00     0.198 A 
ATOM     62  C   UNL A   1      44.071  26.249  25.730  1.00  0.00     0.198 A 
ATOM     63  F   UNL A   1      44.202  28.134  27.127  1.00  0.00    -0.203 F 
ATOM     64  F   UNL A   1      42.041  23.260  25.986  1.00  0.00    -0.200 F 
ATOM     65  C   UNL A   1      43.525  25.011  25.434  1.00  0.00     0.200 A 
ATOM     66  F   UNL A   1      45.001  26.783  24.927  1.00  0.00    -0.200 F 
ATOM     67  F   UNL A   1      43.943  24.335  24.354  1.00  0.00    -0.200 F 
ENDBRANCH  43  57
BRANCH  44  68
ATOM     68  C   UNL A   1      39.435  32.106  35.152  1.00  0.00     0.064 A 
ATOM     69  C   UNL A   1      39.869  33.433  35.262  1.00  0.00     0.173 A 
ATOM     70  C   UNL A   1      38.561  31.624  36.138  1.00  0.00     0.173 A 
ATOM     71  F   UNL A   1      40.741  33.929  34.372  1.00  0.00    -0.203 F 
ATOM     72  C   UNL A   1      39.441  34.246  36.312  1.00  0.00     0.198 A 
ATOM     73  C   UNL A   1      38.101  32.448  37.163  1.00  0.00     0.198 A 
ATOM     74  F   UNL A   1      38.131  30.354  36.093  1.00  0.00    -0.203 F 
ATOM     75  F   UNL A   1      39.906  35.498  36.419  1.00  0.00    -0.200 F 
ATOM     76  C   UNL A   1      38.547  33.757  37.252  1.00  0.00     0.200 A 
ATOM     77  F   UNL A   1      37.226  31.972  38.058  1.00  0.00    -0.200 F 
ATOM     78  F   UNL A   1      38.122  34.543  38.250  1.00  0.00    -0.200 F 
ENDBRANCH  44  68
BRANCH  56  79
ATOM     79  C   UNL A   1      44.496  27.372  34.612  1.00  0.00     0.064 A 
ATOM     80  C   UNL A   1      44.213  26.248  35.404  1.00  0.00     0.173 A 
ATOM     81  C   UNL A   1      45.753  27.976  34.751  1.00  0.00     0.173 A 
ATOM     82  F   UNL A   1      43.017  25.649  35.321  1.00  0.00    -0.203 F 
ATOM     83  C   UNL A   1      45.148  25.761  36.314  1.00  0.00     0.198 A 
ATOM     84  C   UNL A   1      46.694  27.473  35.646  1.00  0.00     0.198 A 
ATOM     85  F   UNL A   1      46.072  29.051  34.014  1.00  0.00    -0.203 F 
ATOM     86  F   UNL A   1      44.842  24.713  37.091  1.00  0.00    -0.200 F 
ATOM     87  C   UNL A   1      46.389  26.371  36.431  1.00  0.00     0.200 A 
ATOM     88  F   UNL A   1      47.894  28.059  35.754  1.00  0.00    -0.200 F 
ATOM     89  F   UNL A   1      47.287  25.901  37.307  1.00  0.00    -0.200 F 
ENDBRANCH  56  79
ENDBRANCH  30  31
ENDBRANCH  23  25
ENDBRANCH  22  23
ENDBRANCH  21  22
ENDBRANCH   1  21
TORSDOF 14
ENDMDL
MODEL 3
REMARK VINA RESULT:     -12.3      2.300      4.259
REMARK SMILES C[C@@H](C(=O)OCCOC(=O)c1ccc(-c2c3nc(c(-c4c(F)c(F)c(F)c(F)c4F)c4ccc([nH]4)c(-c4c(F)c(F)c(F)c(F)c4F)c4nc(c(-c5c(F)c(F)c(F)c(F)c5F)c5ccc2[nH]5)C=C4)C=C3)cc1)c1ccc(NC2CCCC2)cc1F
REMARK SMILES IDX 6 1 5 2 3 3 4 4 2 5 1 6 74 7 75 8 85 9 76 10 84 11 86 12
REMARK SMILES IDX 77 13 78 14 79 16 80 17 83 18 81 19 82 20 7 21 8 22 9 23
REMARK SMILES IDX 10 24 11 25 12 26 73 27 13 28 72 29 14 30 15 31 16 32 66 33
REMARK SMILES IDX 17 34 71 35 65 36 67 37 18 38 70 39 64 40 63 41 19 43 51 44
REMARK SMILES IDX 31 45 50 46 32 47 35 48 49 49 68 50 33 51 34 52 48 54 69 55
REMARK SMILES IDX 36 56 20 57 21 58 29 59 22 60 23 61 27 62 30 63 24 64 25 65
REMARK SMILES IDX 28 66 26 67 52 68 53 69 61 70 54 71 55 72 59 73 62 74 56 75
REMARK SMILES IDX 57 76 60 77 58 78 37 79 38 80 46 81 39 82 40 83 44 84 47 85
REMARK SMILES IDX 41 86 42 87 45 88 43 89
REMARK H PARENT 78 15 67 42 35 53
REMARK Flexibility Score: inf
ROOT
ATOM      1  C   UNL A   1      32.360  27.271  26.527  1.00  0.00     0.274 C 
ENDROOT
BRANCH   1   2
ATOM      2  O   UNL A   1      31.329  26.306  26.809  1.00  0.00    -0.462 OA
BRANCH   2   3
ATOM      3  C   UNL A   1      31.538  25.052  26.310  1.00  0.00     0.313 C 
ATOM      4  O   UNL A   1      32.352  24.255  26.759  1.00  0.00    -0.252 OA
BRANCH   3   5
ATOM      5  C   UNL A   1      30.613  24.748  25.128  1.00  0.00     0.129 C 
ATOM      6  C   UNL A   1      31.029  23.427  24.461  1.00  0.00     0.025 C 
BRANCH   5   7
ATOM      7  C   UNL A   1      30.474  25.853  24.092  1.00  0.00     0.002 A 
ATOM      8  C   UNL A   1      31.544  26.168  23.238  1.00  0.00     0.010 A 
ATOM      9  C   UNL A   1      29.327  26.620  23.945  1.00  0.00     0.129 A 
ATOM     10  C   UNL A   1      31.500  27.289  22.381  1.00  0.00     0.026 A 
ATOM     11  C   UNL A   1      29.298  27.728  23.100  1.00  0.00     0.065 A 
ATOM     12  F   UNL A   1      28.212  26.328  24.625  1.00  0.00    -0.207 F 
ATOM     13  C   UNL A   1      30.411  28.152  22.375  1.00  0.00     0.037 A 
BRANCH  13  14
ATOM     14  N   UNL A   1      30.313  29.347  21.704  1.00  0.00    -0.382 N 
ATOM     15  H   UNL A   1      30.789  29.366  20.843  1.00  0.00     0.160 HD
BRANCH  14  16
ATOM     16  C   UNL A   1      29.634  30.586  22.034  1.00  0.00     0.079 C 
ATOM     17  C   UNL A   1      28.406  30.940  21.211  1.00  0.00     0.025 C 
ATOM     18  C   UNL A   1      29.230  30.664  23.505  1.00  0.00     0.025 C 
ATOM     19  C   UNL A   1      27.653  31.900  22.122  1.00  0.00     0.002 C 
ATOM     20  C   UNL A   1      27.865  31.343  23.523  1.00  0.00     0.002 C 
ENDBRANCH  14  16
ENDBRANCH  13  14
ENDBRANCH   5   7
ENDBRANCH   3   5
ENDBRANCH   2   3
ENDBRANCH   1   2
BRANCH   1  21
ATOM     21  C   UNL A   1      31.709  28.647  26.367  1.00  0.00     0.275 C 
BRANCH  21  22
ATOM     22  O   UNL A   1      32.733  29.563  25.935  1.00  0.00    -0.458 OA
BRANCH  22  23
ATOM     23  C   UNL A   1      32.969  30.662  26.691  1.00  0.00     0.338 C 
ATOM     24  O   UNL A   1      32.192  31.572  26.918  1.00  0.00    -0.246 OA
BRANCH  23  25
ATOM     25  C   UNL A   1      34.336  30.562  27.275  1.00  0.00     0.060 A 
ATOM     26  C   UNL A   1      35.007  29.346  27.273  1.00  0.00     0.016 A 
ATOM     27  C   UNL A   1      34.931  31.649  27.919  1.00  0.00     0.016 A 
ATOM     28  C   UNL A   1      36.192  29.194  27.993  1.00  0.00     0.010 A 
ATOM     29  C   UNL A   1      36.176  31.502  28.569  1.00  0.00     0.010 A 
ATOM     30  C   UNL A   1      36.809  30.248  28.672  1.00  0.00    -0.014 A 
BRANCH  30  31
ATOM     31  C   UNL A   1      38.017  30.004  29.549  1.00  0.00     0.031 A 
ATOM     32  C   UNL A   1      39.233  29.292  28.992  1.00  0.00     0.074 A 
ATOM     33  C   UNL A   1      38.132  30.482  30.812  1.00  0.00     0.049 A 
ATOM     34  N   UNL A   1      40.222  28.712  29.631  1.00  0.00    -0.248 NA
ATOM     35  C   UNL A   1      39.348  29.210  27.528  1.00  0.00     0.031 C 
ATOM     36  C   UNL A   1      37.136  31.278  31.529  1.00  0.00     0.029 A 
ATOM     37  N   UNL A   1      39.175  30.397  31.713  1.00  0.00    -0.354 N 
ATOM     38  C   UNL A   1      40.990  28.083  28.658  1.00  0.00     0.074 A 
ATOM     39  C   UNL A   1      40.385  28.398  27.381  1.00  0.00     0.031 C 
ATOM     40  C   UNL A   1      37.658  31.715  32.683  1.00  0.00     0.029 A 
ATOM     41  C   UNL A   1      38.953  31.079  32.888  1.00  0.00     0.049 A 
ATOM     42  H   UNL A   1      40.002  29.896  31.531  1.00  0.00     0.167 HD
ATOM     43  C   UNL A   1      42.084  27.298  28.818  1.00  0.00     0.037 A 
ATOM     44  C   UNL A   1      39.652  31.130  34.041  1.00  0.00     0.037 A 
ATOM     45  C   UNL A   1      42.775  27.100  30.068  1.00  0.00     0.049 A 
ATOM     46  C   UNL A   1      40.865  30.258  34.213  1.00  0.00     0.074 A 
ATOM     47  C   UNL A   1      43.877  26.304  30.332  1.00  0.00     0.029 A 
ATOM     48  N   UNL A   1      42.465  27.752  31.249  1.00  0.00    -0.354 N 
ATOM     49  N   UNL A   1      41.455  29.481  33.341  1.00  0.00    -0.248 NA
ATOM     50  C   UNL A   1      41.467  30.220  35.555  1.00  0.00     0.031 C 
ATOM     51  C   UNL A   1      44.227  26.466  31.678  1.00  0.00     0.029 A 
ATOM     52  C   UNL A   1      43.362  27.387  32.242  1.00  0.00     0.049 A 
ATOM     53  H   UNL A   1      41.719  28.383  31.368  1.00  0.00     0.167 HD
ATOM     54  C   UNL A   1      42.481  28.848  34.030  1.00  0.00     0.074 A 
ATOM     55  C   UNL A   1      42.463  29.363  35.382  1.00  0.00     0.031 C 
ATOM     56  C   UNL A   1      43.343  27.902  33.584  1.00  0.00     0.037 A 
BRANCH  43  57
ATOM     57  C   UNL A   1      42.574  26.533  27.624  1.00  0.00     0.064 A 
ATOM     58  C   UNL A   1      43.590  27.007  26.785  1.00  0.00     0.173 A 
ATOM     59  C   UNL A   1      42.032  25.265  27.348  1.00  0.00     0.173 A 
ATOM     60  F   UNL A   1      44.131  28.216  26.999  1.00  0.00    -0.203 F 
ATOM     61  C   UNL A   1      44.030  26.253  25.699  1.00  0.00     0.198 A 
ATOM     62  C   UNL A   1      42.494  24.502  26.280  1.00  0.00     0.198 A 
ATOM     63  F   UNL A   1      41.065  24.760  28.127  1.00  0.00    -0.203 F 
ATOM     64  F   UNL A   1      44.973  26.744  24.884  1.00  0.00    -0.200 F 
ATOM     65  C   UNL A   1      43.488  24.999  25.453  1.00  0.00     0.200 A 
ATOM     66  F   UNL A   1      41.980  23.285  26.056  1.00  0.00    -0.200 F 
ATOM     67  F   UNL A   1      43.920  24.272  24.413  1.00  0.00    -0.200 F 
ENDBRANCH  43  57
BRANCH  44  68
ATOM     68  C   UNL A   1      39.162  31.959  35.179  1.00  0.00     0.064 A 
ATOM     69  C   UNL A   1      38.429  31.387  36.226  1.00  0.00     0.173 A 
ATOM     70  C   UNL A   1      39.408  33.340  35.236  1.00  0.00     0.173 A 
ATOM     71  F   UNL A   1      38.127  30.081  36.197  1.00  0.00    -0.203 F 
ATOM     72  C   UNL A   1      37.966  32.163  37.289  1.00  0.00     0.198 A 
ATOM     73  C   UNL A   1      38.981  34.107  36.317  1.00  0.00     0.198 A 
ATOM     74  F   UNL A   1      40.087  33.943  34.248  1.00  0.00    -0.203 F 
ATOM     75  F   UNL A   1      37.230  31.599  38.256  1.00  0.00    -0.200 F 
ATOM     76  C   UNL A   1      38.255  33.518  37.340  1.00  0.00     0.200 A 
ATOM     77  F   UNL A   1      39.278  35.412  36.367  1.00  0.00    -0.200 F 
ATOM     78  F   UNL A   1      37.827  34.260  38.371  1.00  0.00    -0.200 F 
ENDBRANCH  44  68
BRANCH  56  79
ATOM     79  C   UNL A   1      44.350  27.375  34.561  1.00  0.00     0.064 A 
ATOM     80  C   UNL A   1      44.076  26.251  35.355  1.00  0.00     0.173 A 
ATOM     81  C   UNL A   1      45.606  27.983  34.690  1.00  0.00     0.173 A 
ATOM     82  F   UNL A   1      42.881  25.647  35.281  1.00  0.00    -0.203 F 
ATOM     83  C   UNL A   1      45.019  25.768  36.260  1.00  0.00     0.198 A 
ATOM     84  C   UNL A   1      46.555  27.484  35.580  1.00  0.00     0.198 A 
ATOM     85  F   UNL A   1      45.916  29.059  33.951  1.00  0.00    -0.203 F 
ATOM     86  F   UNL A   1      44.721  24.719  37.039  1.00  0.00    -0.200 F 
ATOM     87  C   UNL A   1      46.258  26.381  36.368  1.00  0.00     0.200 A 
ATOM     88  F   UNL A   1      47.753  28.074  35.679  1.00  0.00    -0.200 F 
ATOM     89  F   UNL A   1      47.164  25.916  37.238  1.00  0.00    -0.200 F 
ENDBRANCH  56  79
ENDBRANCH  30  31
ENDBRANCH  23  25
ENDBRANCH  22  23
ENDBRANCH  21  22
ENDBRANCH   1  21
TORSDOF 14
ENDMDL
