MODEL 1
REMARK VINA RESULT:     -13.2      0.000      0.000
REMARK SMILES Cn1cc(NC(=O)N2Cc3nc[nH]c3C[C@@H]2C(=O)OCCOC(=O)c2ccc(-c3c4nc(c(-c5c(F)c(F)c(F)c(F)c5F)c5ccc([nH]5)c(-c5c(F)c(F)c(F)c(F)c5F)c5nc(c(-c6c(F)c(F)c(F)c(F)c6F)c6ccc3[nH]6)C=C5)C=C4)cc2)cn1
REMARK SMILES IDX 20 1 19 2 17 3 18 4 16 5 8 6 9 7 10 8 15 9 11 10 14 11 12 12
REMARK SMILES IDX 13 13 6 15 5 16 7 18 4 19 1 20 2 21 3 22 89 23 88 24 21 25
REMARK SMILES IDX 22 26 23 27 24 28 25 29 26 30 87 31 27 32 86 33 28 34 29 35
REMARK SMILES IDX 30 36 80 37 31 38 85 39 79 40 81 41 32 42 84 43 78 44 77 45
REMARK SMILES IDX 33 47 65 48 45 49 64 50 46 51 49 52 63 53 82 54 47 55 48 56
REMARK SMILES IDX 62 58 83 59 50 60 34 61 35 62 43 63 36 64 37 65 41 66 44 67
REMARK SMILES IDX 38 68 39 69 42 70 40 71 66 72 67 73 75 74 68 75 69 76 73 77
REMARK SMILES IDX 76 78 70 79 71 80 74 81 72 82 51 83 52 84 60 85 53 86 54 87
REMARK SMILES IDX 58 88 61 89 55 90 56 91 59 92 57 93
REMARK H PARENT 13 14 5 17 81 46 49 57
REMARK Flexibility Score: inf
ROOT
ATOM      1  C   UNL A   1      34.032  29.061  26.976  1.00  0.00     0.274 C 
ENDROOT
BRANCH   1   2
ATOM      2  O   UNL A   1      34.442  27.779  26.455  1.00  0.00    -0.461 OA
BRANCH   2   3
ATOM      3  C   UNL A   1      33.848  27.325  25.302  1.00  0.00     0.329 C 
ATOM      4  O   UNL A   1      34.205  26.315  24.706  1.00  0.00    -0.250 OA
BRANCH   3   5
ATOM      5  C   UNL A   1      32.597  28.185  24.972  1.00  0.00     0.203 C 
ATOM      6  N   UNL A   1      31.280  27.478  25.239  1.00  0.00    -0.304 N 
ATOM      7  C   UNL A   1      30.305  27.188  24.178  1.00  0.00     0.180 C 
ATOM      8  C   UNL A   1      30.340  28.282  23.179  1.00  0.00     0.081 A 
ATOM      9  C   UNL A   1      32.783  28.732  23.519  1.00  0.00     0.093 C 
ATOM     10  N   UNL A   1      29.281  28.775  22.467  1.00  0.00    -0.240 NA
ATOM     11  C   UNL A   1      31.479  28.987  22.891  1.00  0.00     0.042 A 
ATOM     12  C   UNL A   1      29.784  29.757  21.745  1.00  0.00     0.197 A 
ATOM     13  N   UNL A   1      31.129  29.916  21.962  1.00  0.00    -0.348 N 
ATOM     14  H   UNL A   1      31.722  30.573  21.532  1.00  0.00     0.167 HD
BRANCH   6  15
ATOM     15  C   UNL A   1      30.946  26.983  26.470  1.00  0.00     0.323 C 
ATOM     16  N   UNL A   1      30.783  25.645  26.640  1.00  0.00    -0.305 N 
ATOM     17  H   UNL A   1      30.171  25.380  27.365  1.00  0.00     0.171 HD
ATOM     18  O   UNL A   1      30.853  27.716  27.457  1.00  0.00    -0.248 OA
BRANCH  16  19
ATOM     19  C   UNL A   1      31.361  24.605  25.938  1.00  0.00     0.081 A 
ATOM     20  C   UNL A   1      33.641  21.853  25.643  1.00  0.00     0.173 C 
ATOM     21  N   UNL A   1      32.705  22.939  25.482  1.00  0.00    -0.274 N 
ATOM     22  C   UNL A   1      32.540  24.006  26.314  1.00  0.00     0.134 A 
ATOM     23  N   UNL A   1      31.826  22.917  24.466  1.00  0.00    -0.180 NA
ATOM     24  C   UNL A   1      31.019  23.950  24.736  1.00  0.00     0.161 A 
ENDBRANCH  16  19
ENDBRANCH   6  15
ENDBRANCH   3   5
ENDBRANCH   2   3
ENDBRANCH   1   2
BRANCH   1  25
ATOM     25  C   UNL A   1      35.235  29.966  27.249  1.00  0.00     0.275 C 
BRANCH  25  26
ATOM     26  O   UNL A   1      35.792  29.770  28.557  1.00  0.00    -0.458 OA
BRANCH  26  27
ATOM     27  C   UNL A   1      37.078  30.164  28.648  1.00  0.00     0.338 C 
ATOM     28  O   UNL A   1      37.489  31.234  29.067  1.00  0.00    -0.246 OA
BRANCH  27  29
ATOM     29  C   UNL A   1      37.981  29.255  27.938  1.00  0.00     0.060 A 
ATOM     30  C   UNL A   1      38.040  27.967  28.457  1.00  0.00     0.016 A 
ATOM     31  C   UNL A   1      39.005  29.758  27.137  1.00  0.00     0.016 A 
ATOM     32  C   UNL A   1      39.240  27.290  28.428  1.00  0.00     0.010 A 
ATOM     33  C   UNL A   1      40.180  29.028  27.028  1.00  0.00     0.010 A 
ATOM     34  C   UNL A   1      40.344  27.866  27.794  1.00  0.00    -0.014 A 
BRANCH  34  35
ATOM     35  C   UNL A   1      41.644  27.203  27.980  1.00  0.00     0.031 A 
ATOM     36  C   UNL A   1      42.338  27.465  29.284  1.00  0.00     0.074 A 
ATOM     37  C   UNL A   1      42.144  26.338  27.071  1.00  0.00     0.049 A 
ATOM     38  N   UNL A   1      43.592  27.722  29.511  1.00  0.00    -0.248 NA
ATOM     39  C   UNL A   1      41.487  27.540  30.486  1.00  0.00     0.031 C 
ATOM     40  C   UNL A   1      41.504  25.860  25.840  1.00  0.00     0.029 A 
ATOM     41  N   UNL A   1      43.267  25.563  27.148  1.00  0.00    -0.354 N 
ATOM     42  C   UNL A   1      43.708  27.832  30.897  1.00  0.00     0.074 A 
ATOM     43  C   UNL A   1      42.371  27.857  31.428  1.00  0.00     0.031 C 
ATOM     44  C   UNL A   1      42.065  24.688  25.480  1.00  0.00     0.029 A 
ATOM     45  C   UNL A   1      43.173  24.413  26.375  1.00  0.00     0.049 A 
ATOM     46  H   UNL A   1      44.055  25.795  27.690  1.00  0.00     0.167 HD
ATOM     47  C   UNL A   1      44.883  27.676  31.563  1.00  0.00     0.037 A 
ATOM     48  C   UNL A   1      43.858  23.259  26.549  1.00  0.00     0.037 A 
ATOM     49  C   UNL A   1      46.029  27.950  30.749  1.00  0.00     0.049 A 
ATOM     50  C   UNL A   1      45.053  23.548  27.375  1.00  0.00     0.074 A 
ATOM     51  C   UNL A   1      46.510  29.061  30.082  1.00  0.00     0.029 A 
ATOM     52  N   UNL A   1      46.802  26.906  30.311  1.00  0.00    -0.354 N 
ATOM     53  N   UNL A   1      46.080  24.239  26.968  1.00  0.00    -0.248 NA
ATOM     54  C   UNL A   1      44.937  23.387  28.817  1.00  0.00     0.031 C 
ATOM     55  C   UNL A   1      47.201  28.549  28.945  1.00  0.00     0.029 A 
ATOM     56  C   UNL A   1      47.095  27.160  28.998  1.00  0.00     0.049 A 
ATOM     57  H   UNL A   1      47.088  26.125  30.838  1.00  0.00     0.167 HD
ATOM     58  C   UNL A   1      46.500  24.936  28.091  1.00  0.00     0.074 A 
ATOM     59  C   UNL A   1      45.837  24.288  29.217  1.00  0.00     0.031 C 
ATOM     60  C   UNL A   1      47.120  26.145  27.976  1.00  0.00     0.037 A 
BRANCH  47  61
ATOM     61  C   UNL A   1      44.970  26.956  32.887  1.00  0.00     0.064 A 
ATOM     62  C   UNL A   1      44.537  25.622  32.999  1.00  0.00     0.173 A 
ATOM     63  C   UNL A   1      45.204  27.625  34.111  1.00  0.00     0.173 A 
ATOM     64  F   UNL A   1      44.237  24.908  31.903  1.00  0.00    -0.203 F 
ATOM     65  C   UNL A   1      44.318  25.021  34.243  1.00  0.00     0.198 A 
ATOM     66  C   UNL A   1      45.045  27.005  35.347  1.00  0.00     0.198 A 
ATOM     67  F   UNL A   1      45.487  28.933  34.161  1.00  0.00    -0.203 F 
ATOM     68  F   UNL A   1      43.797  23.788  34.303  1.00  0.00    -0.200 F 
ATOM     69  C   UNL A   1      44.575  25.711  35.414  1.00  0.00     0.200 A 
ATOM     70  F   UNL A   1      45.276  27.701  36.469  1.00  0.00    -0.200 F 
ATOM     71  F   UNL A   1      44.319  25.155  36.605  1.00  0.00    -0.200 F 
ENDBRANCH  47  61
BRANCH  48  72
ATOM     72  C   UNL A   1      43.347  21.887  26.326  1.00  0.00     0.064 A 
ATOM     73  C   UNL A   1      43.986  21.006  25.441  1.00  0.00     0.173 A 
ATOM     74  C   UNL A   1      42.348  21.329  27.153  1.00  0.00     0.173 A 
ATOM     75  F   UNL A   1      44.989  21.443  24.667  1.00  0.00    -0.203 F 
ATOM     76  C   UNL A   1      43.642  19.651  25.383  1.00  0.00     0.198 A 
ATOM     77  C   UNL A   1      41.994  19.983  27.080  1.00  0.00     0.198 A 
ATOM     78  F   UNL A   1      41.757  22.056  28.110  1.00  0.00    -0.203 F 
ATOM     79  F   UNL A   1      44.310  18.829  24.562  1.00  0.00    -0.200 F 
ATOM     80  C   UNL A   1      42.647  19.142  26.202  1.00  0.00     0.200 A 
ATOM     81  F   UNL A   1      41.054  19.498  27.904  1.00  0.00    -0.200 F 
ATOM     82  F   UNL A   1      42.347  17.836  26.173  1.00  0.00    -0.200 F 
ENDBRANCH  48  72
BRANCH  60  83
ATOM     83  C   UNL A   1      47.584  26.562  26.612  1.00  0.00     0.064 A 
ATOM     84  C   UNL A   1      48.841  26.218  26.089  1.00  0.00     0.173 A 
ATOM     85  C   UNL A   1      46.680  27.206  25.758  1.00  0.00     0.173 A 
ATOM     86  F   UNL A   1      49.712  25.500  26.809  1.00  0.00    -0.203 F 
ATOM     87  C   UNL A   1      49.197  26.556  24.785  1.00  0.00     0.198 A 
ATOM     88  C   UNL A   1      47.025  27.511  24.444  1.00  0.00     0.198 A 
ATOM     89  F   UNL A   1      45.441  27.498  26.186  1.00  0.00    -0.203 F 
ATOM     90  F   UNL A   1      50.408  26.227  24.313  1.00  0.00    -0.200 F 
ATOM     91  C   UNL A   1      48.286  27.197  23.963  1.00  0.00     0.200 A 
ATOM     92  F   UNL A   1      46.123  28.083  23.634  1.00  0.00    -0.200 F 
ATOM     93  F   UNL A   1      48.613  27.486  22.695  1.00  0.00    -0.200 F 
ENDBRANCH  60  83
ENDBRANCH  34  35
ENDBRANCH  27  29
ENDBRANCH  26  27
ENDBRANCH  25  26
ENDBRANCH   1  25
TORSDOF 13
ENDMDL
MODEL 2
REMARK VINA RESULT:     -13.0      1.222      2.366
REMARK SMILES Cn1cc(NC(=O)N2Cc3nc[nH]c3C[C@@H]2C(=O)OCCOC(=O)c2ccc(-c3c4nc(c(-c5c(F)c(F)c(F)c(F)c5F)c5ccc([nH]5)c(-c5c(F)c(F)c(F)c(F)c5F)c5nc(c(-c6c(F)c(F)c(F)c(F)c6F)c6ccc3[nH]6)C=C5)C=C4)cc2)cn1
REMARK SMILES IDX 20 1 19 2 17 3 18 4 16 5 8 6 9 7 10 8 15 9 11 10 14 11 12 12
REMARK SMILES IDX 13 13 6 15 5 16 7 18 4 19 1 20 2 21 3 22 89 23 88 24 21 25
REMARK SMILES IDX 22 26 23 27 24 28 25 29 26 30 87 31 27 32 86 33 28 34 29 35
REMARK SMILES IDX 30 36 80 37 31 38 85 39 79 40 81 41 32 42 84 43 78 44 77 45
REMARK SMILES IDX 33 47 65 48 45 49 64 50 46 51 49 52 63 53 82 54 47 55 48 56
REMARK SMILES IDX 62 58 83 59 50 60 34 61 35 62 43 63 36 64 37 65 41 66 44 67
REMARK SMILES IDX 38 68 39 69 42 70 40 71 66 72 67 73 75 74 68 75 69 76 73 77
REMARK SMILES IDX 76 78 70 79 71 80 74 81 72 82 51 83 52 84 60 85 53 86 54 87
REMARK SMILES IDX 58 88 61 89 55 90 56 91 59 92 57 93
REMARK H PARENT 13 14 5 17 81 46 49 57
REMARK Flexibility Score: inf
ROOT
ATOM      1  C   UNL A   1      34.170  30.375  27.202  1.00  0.00     0.274 C 
ENDROOT
BRANCH   1   2
ATOM      2  O   UNL A   1      33.676  30.082  25.878  1.00  0.00    -0.461 OA
BRANCH   2   3
ATOM      3  C   UNL A   1      32.379  29.643  25.751  1.00  0.00     0.329 C 
ATOM      4  O   UNL A   1      31.402  30.380  25.820  1.00  0.00    -0.250 OA
BRANCH   3   5
ATOM      5  C   UNL A   1      32.360  28.138  25.365  1.00  0.00     0.203 C 
ATOM      6  N   UNL A   1      31.488  27.825  24.163  1.00  0.00    -0.304 N 
ATOM      7  C   UNL A   1      30.316  26.942  24.240  1.00  0.00     0.180 C 
ATOM      8  C   UNL A   1      30.584  25.870  25.229  1.00  0.00     0.081 A 
ATOM      9  C   UNL A   1      32.029  27.333  26.664  1.00  0.00     0.093 C 
ATOM     10  N   UNL A   1      30.154  24.573  25.167  1.00  0.00    -0.240 NA
ATOM     11  C   UNL A   1      31.377  26.059  26.330  1.00  0.00     0.042 A 
ATOM     12  C   UNL A   1      30.670  23.993  26.233  1.00  0.00     0.197 A 
ATOM     13  N   UNL A   1      31.417  24.866  26.981  1.00  0.00    -0.348 N 
ATOM     14  H   UNL A   1      31.888  24.668  27.823  1.00  0.00     0.167 HD
BRANCH   6  15
ATOM     15  C   UNL A   1      31.679  28.410  22.941  1.00  0.00     0.323 C 
ATOM     16  N   UNL A   1      32.538  27.851  22.049  1.00  0.00    -0.305 N 
ATOM     17  H   UNL A   1      32.949  28.474  21.407  1.00  0.00     0.171 HD
ATOM     18  O   UNL A   1      31.037  29.403  22.594  1.00  0.00    -0.248 OA
BRANCH  16  19
ATOM     19  C   UNL A   1      32.911  26.527  21.918  1.00  0.00     0.081 A 
ATOM     20  C   UNL A   1      34.110  23.420  23.249  1.00  0.00     0.173 C 
ATOM     21  N   UNL A   1      33.686  24.554  22.464  1.00  0.00    -0.274 N 
ATOM     22  C   UNL A   1      33.653  25.857  22.863  1.00  0.00     0.134 A 
ATOM     23  N   UNL A   1      33.192  24.364  21.229  1.00  0.00    -0.180 NA
ATOM     24  C   UNL A   1      32.739  25.577  20.889  1.00  0.00     0.161 A 
ENDBRANCH  16  19
ENDBRANCH   6  15
ENDBRANCH   3   5
ENDBRANCH   2   3
ENDBRANCH   1   2
BRANCH   1  25
ATOM     25  C   UNL A   1      35.325  29.448  27.587  1.00  0.00     0.275 C 
BRANCH  25  26
ATOM     26  O   UNL A   1      35.971  29.842  28.807  1.00  0.00    -0.458 OA
BRANCH  26  27
ATOM     27  C   UNL A   1      37.230  30.286  28.619  1.00  0.00     0.338 C 
ATOM     28  O   UNL A   1      37.638  31.424  28.781  1.00  0.00    -0.246 OA
BRANCH  27  29
ATOM     29  C   UNL A   1      38.062  29.296  27.930  1.00  0.00     0.060 A 
ATOM     30  C   UNL A   1      38.128  28.054  28.552  1.00  0.00     0.016 A 
ATOM     31  C   UNL A   1      39.041  29.703  27.024  1.00  0.00     0.016 A 
ATOM     32  C   UNL A   1      39.307  27.345  28.502  1.00  0.00     0.010 A 
ATOM     33  C   UNL A   1      40.189  28.934  26.901  1.00  0.00     0.010 A 
ATOM     34  C   UNL A   1      40.379  27.835  27.750  1.00  0.00    -0.014 A 
BRANCH  34  35
ATOM     35  C   UNL A   1      41.674  27.154  27.906  1.00  0.00     0.031 A 
ATOM     36  C   UNL A   1      42.413  27.426  29.183  1.00  0.00     0.074 A 
ATOM     37  C   UNL A   1      42.131  26.266  26.997  1.00  0.00     0.049 A 
ATOM     38  N   UNL A   1      43.678  27.666  29.367  1.00  0.00    -0.248 NA
ATOM     39  C   UNL A   1      41.602  27.534  30.410  1.00  0.00     0.031 C 
ATOM     40  C   UNL A   1      41.445  25.779  25.795  1.00  0.00     0.029 A 
ATOM     41  N   UNL A   1      43.243  25.475  27.051  1.00  0.00    -0.354 N 
ATOM     42  C   UNL A   1      43.839  27.796  30.746  1.00  0.00     0.074 A 
ATOM     43  C   UNL A   1      42.520  27.851  31.318  1.00  0.00     0.031 C 
ATOM     44  C   UNL A   1      41.975  24.593  25.437  1.00  0.00     0.029 A 
ATOM     45  C   UNL A   1      43.107  24.314  26.301  1.00  0.00     0.049 A 
ATOM     46  H   UNL A   1      44.052  25.702  27.563  1.00  0.00     0.167 HD
ATOM     47  C   UNL A   1      45.032  27.632  31.377  1.00  0.00     0.037 A 
ATOM     48  C   UNL A   1      43.779  23.152  26.472  1.00  0.00     0.037 A 
ATOM     49  C   UNL A   1      46.156  27.875  30.523  1.00  0.00     0.049 A 
ATOM     50  C   UNL A   1      45.003  23.435  27.255  1.00  0.00     0.074 A 
ATOM     51  C   UNL A   1      46.633  28.966  29.822  1.00  0.00     0.029 A 
ATOM     52  N   UNL A   1      46.897  26.811  30.079  1.00  0.00    -0.354 N 
ATOM     53  N   UNL A   1      46.028  24.103  26.805  1.00  0.00    -0.248 NA
ATOM     54  C   UNL A   1      44.931  23.299  28.702  1.00  0.00     0.031 C 
ATOM     55  C   UNL A   1      47.279  28.425  28.673  1.00  0.00     0.029 A 
ATOM     56  C   UNL A   1      47.153  27.039  28.753  1.00  0.00     0.049 A 
ATOM     57  H   UNL A   1      47.188  26.034  30.609  1.00  0.00     0.167 HD
ATOM     58  C   UNL A   1      46.494  24.810  27.902  1.00  0.00     0.074 A 
ATOM     59  C   UNL A   1      45.857  24.192  29.058  1.00  0.00     0.031 C 
ATOM     60  C   UNL A   1      47.130  26.007  27.748  1.00  0.00     0.037 A 
BRANCH  47  61
ATOM     61  C   UNL A   1      45.149  26.932  32.710  1.00  0.00     0.064 A 
ATOM     62  C   UNL A   1      44.737  25.594  32.847  1.00  0.00     0.173 A 
ATOM     63  C   UNL A   1      45.393  27.622  33.921  1.00  0.00     0.173 A 
ATOM     64  F   UNL A   1      44.432  24.860  31.766  1.00  0.00    -0.203 F 
ATOM     65  C   UNL A   1      44.547  25.007  34.102  1.00  0.00     0.198 A 
ATOM     66  C   UNL A   1      45.261  27.017  35.167  1.00  0.00     0.198 A 
ATOM     67  F   UNL A   1      45.657  28.934  33.948  1.00  0.00    -0.203 F 
ATOM     68  F   UNL A   1      44.044  23.768  34.188  1.00  0.00    -0.200 F 
ATOM     69  C   UNL A   1      44.811  25.718  35.260  1.00  0.00     0.200 A 
ATOM     70  F   UNL A   1      45.499  27.732  36.275  1.00  0.00    -0.200 F 
ATOM     71  F   UNL A   1      44.581  25.174  36.462  1.00  0.00    -0.200 F 
ENDBRANCH  47  61
BRANCH  48  72
ATOM     72  C   UNL A   1      43.239  21.785  26.288  1.00  0.00     0.064 A 
ATOM     73  C   UNL A   1      43.821  20.888  25.380  1.00  0.00     0.173 A 
ATOM     74  C   UNL A   1      42.276  21.247  27.170  1.00  0.00     0.173 A 
ATOM     75  F   UNL A   1      44.788  21.304  24.552  1.00  0.00    -0.203 F 
ATOM     76  C   UNL A   1      43.457  19.537  25.352  1.00  0.00     0.198 A 
ATOM     77  C   UNL A   1      41.902  19.906  27.128  1.00  0.00     0.198 A 
ATOM     78  F   UNL A   1      41.744  21.991  28.149  1.00  0.00    -0.203 F 
ATOM     79  F   UNL A   1      44.072  18.699  24.506  1.00  0.00    -0.200 F 
ATOM     80  C   UNL A   1      42.498  19.048  26.225  1.00  0.00     0.200 A 
ATOM     81  F   UNL A   1      40.999  19.441  28.003  1.00  0.00    -0.200 F 
ATOM     82  F   UNL A   1      42.180  17.747  26.224  1.00  0.00    -0.200 F 
ENDBRANCH  48  72
BRANCH  60  83
ATOM     83  C   UNL A   1      47.556  26.395  26.363  1.00  0.00     0.064 A 
ATOM     84  C   UNL A   1      46.740  27.125  25.484  1.00  0.00     0.173 A 
ATOM     85  C   UNL A   1      48.875  26.144  25.965  1.00  0.00     0.173 A 
ATOM     86  F   UNL A   1      45.506  27.501  25.843  1.00  0.00    -0.203 F 
ATOM     87  C   UNL A   1      47.207  27.535  24.237  1.00  0.00     0.198 A 
ATOM     88  C   UNL A   1      49.351  26.586  24.735  1.00  0.00     0.198 A 
ATOM     89  F   UNL A   1      49.718  25.509  26.795  1.00  0.00    -0.203 F 
ATOM     90  F   UNL A   1      46.404  28.220  23.411  1.00  0.00    -0.200 F 
ATOM     91  C   UNL A   1      48.515  27.270  23.867  1.00  0.00     0.200 A 
ATOM     92  F   UNL A   1      50.632  26.375  24.401  1.00  0.00    -0.200 F 
ATOM     93  F   UNL A   1      48.978  27.699  22.684  1.00  0.00    -0.200 F 
ENDBRANCH  60  83
ENDBRANCH  34  35
ENDBRANCH  27  29
ENDBRANCH  26  27
ENDBRANCH  25  26
ENDBRANCH   1  25
TORSDOF 13
ENDMDL
MODEL 3
REMARK VINA RESULT:     -12.9      1.078      2.974
REMARK SMILES Cn1cc(NC(=O)N2Cc3nc[nH]c3C[C@@H]2C(=O)OCCOC(=O)c2ccc(-c3c4nc(c(-c5c(F)c(F)c(F)c(F)c5F)c5ccc([nH]5)c(-c5c(F)c(F)c(F)c(F)c5F)c5nc(c(-c6c(F)c(F)c(F)c(F)c6F)c6ccc3[nH]6)C=C5)C=C4)cc2)cn1
REMARK SMILES IDX 20 1 19 2 17 3 18 4 16 5 8 6 9 7 10 8 15 9 11 10 14 11 12 12
REMARK SMILES IDX 13 13 6 15 5 16 7 18 4 19 1 20 2 21 3 22 89 23 88 24 21 25
REMARK SMILES IDX 22 26 23 27 24 28 25 29 26 30 87 31 27 32 86 33 28 34 29 35
REMARK SMILES IDX 30 36 80 37 31 38 85 39 79 40 81 41 32 42 84 43 78 44 77 45
REMARK SMILES IDX 33 47 65 48 45 49 64 50 46 51 49 52 63 53 82 54 47 55 48 56
REMARK SMILES IDX 62 58 83 59 50 60 34 61 35 62 43 63 36 64 37 65 41 66 44 67
REMARK SMILES IDX 38 68 39 69 42 70 40 71 66 72 67 73 75 74 68 75 69 76 73 77
REMARK SMILES IDX 76 78 70 79 71 80 74 81 72 82 51 83 52 84 60 85 53 86 54 87
REMARK SMILES IDX 58 88 61 89 55 90 56 91 59 92 57 93
REMARK H PARENT 13 14 5 17 81 46 49 57
REMARK Flexibility Score: inf
ROOT
ATOM      1  C   UNL A   1      34.575  29.046  26.616  1.00  0.00     0.274 C 
ENDROOT
BRANCH   1   2
ATOM      2  O   UNL A   1      33.177  29.062  26.258  1.00  0.00    -0.461 OA
BRANCH   2   3
ATOM      3  C   UNL A   1      32.599  27.884  25.847  1.00  0.00     0.329 C 
ATOM      4  O   UNL A   1      31.412  27.620  26.000  1.00  0.00    -0.250 OA
BRANCH   3   5
ATOM      5  C   UNL A   1      33.626  27.037  25.045  1.00  0.00     0.203 C 
ATOM      6  N   UNL A   1      33.435  27.104  23.541  1.00  0.00    -0.304 N 
ATOM      7  C   UNL A   1      33.112  25.924  22.727  1.00  0.00     0.180 C 
ATOM      8  C   UNL A   1      33.783  24.738  23.311  1.00  0.00     0.081 A 
ATOM      9  C   UNL A   1      33.616  25.599  25.660  1.00  0.00     0.093 C 
ATOM     10  N   UNL A   1      34.304  23.673  22.628  1.00  0.00    -0.240 NA
ATOM     11  C   UNL A   1      34.015  24.604  24.654  1.00  0.00     0.042 A 
ATOM     12  C   UNL A   1      34.828  22.898  23.556  1.00  0.00     0.197 A 
ATOM     13  N   UNL A   1      34.666  23.421  24.813  1.00  0.00    -0.348 N 
ATOM     14  H   UNL A   1      34.962  23.019  25.662  1.00  0.00     0.167 HD
BRANCH   6  15
ATOM     15  C   UNL A   1      33.464  28.283  22.847  1.00  0.00     0.323 C 
ATOM     16  N   UNL A   1      32.330  28.755  22.265  1.00  0.00    -0.305 N 
ATOM     17  H   UNL A   1      32.465  29.328  21.476  1.00  0.00     0.171 HD
ATOM     18  O   UNL A   1      34.484  28.974  22.790  1.00  0.00    -0.248 OA
BRANCH  16  19
ATOM     19  C   UNL A   1      31.015  28.541  22.630  1.00  0.00     0.081 A 
ATOM     20  C   UNL A   1      27.635  29.639  23.108  1.00  0.00     0.173 C 
ATOM     21  N   UNL A   1      28.915  28.975  23.069  1.00  0.00    -0.274 N 
ATOM     22  C   UNL A   1      30.134  29.562  22.903  1.00  0.00     0.134 A 
ATOM     23  N   UNL A   1      28.974  27.634  23.122  1.00  0.00    -0.180 NA
ATOM     24  C   UNL A   1      30.263  27.373  22.875  1.00  0.00     0.161 A 
ENDBRANCH  16  19
ENDBRANCH   6  15
ENDBRANCH   3   5
ENDBRANCH   2   3
ENDBRANCH   1   2
BRANCH   1  25
ATOM     25  C   UNL A   1      34.843  29.890  27.865  1.00  0.00     0.275 C 
BRANCH  25  26
ATOM     26  O   UNL A   1      36.107  30.567  27.818  1.00  0.00    -0.458 OA
BRANCH  26  27
ATOM     27  C   UNL A   1      37.038  30.006  28.615  1.00  0.00     0.338 C 
ATOM     28  O   UNL A   1      37.258  30.272  29.785  1.00  0.00    -0.246 OA
BRANCH  27  29
ATOM     29  C   UNL A   1      37.980  29.179  27.858  1.00  0.00     0.060 A 
ATOM     30  C   UNL A   1      38.033  27.846  28.249  1.00  0.00     0.016 A 
ATOM     31  C   UNL A   1      39.030  29.767  27.154  1.00  0.00     0.016 A 
ATOM     32  C   UNL A   1      39.241  27.185  28.205  1.00  0.00     0.010 A 
ATOM     33  C   UNL A   1      40.217  29.060  27.024  1.00  0.00     0.010 A 
ATOM     34  C   UNL A   1      40.363  27.829  27.679  1.00  0.00    -0.014 A 
BRANCH  34  35
ATOM     35  C   UNL A   1      41.663  27.162  27.854  1.00  0.00     0.031 A 
ATOM     36  C   UNL A   1      42.389  27.455  29.133  1.00  0.00     0.074 A 
ATOM     37  C   UNL A   1      42.135  26.266  26.959  1.00  0.00     0.049 A 
ATOM     38  N   UNL A   1      43.650  27.708  29.325  1.00  0.00    -0.248 NA
ATOM     39  C   UNL A   1      41.566  27.571  30.352  1.00  0.00     0.031 C 
ATOM     40  C   UNL A   1      41.464  25.759  25.757  1.00  0.00     0.029 A 
ATOM     41  N   UNL A   1      43.253  25.485  27.033  1.00  0.00    -0.354 N 
ATOM     42  C   UNL A   1      43.798  27.857  30.704  1.00  0.00     0.074 A 
ATOM     43  C   UNL A   1      42.474  27.908  31.264  1.00  0.00     0.031 C 
ATOM     44  C   UNL A   1      42.007  24.573  25.419  1.00  0.00     0.029 A 
ATOM     45  C   UNL A   1      43.133  24.314  26.295  1.00  0.00     0.049 A 
ATOM     46  H   UNL A   1      44.056  25.726  27.549  1.00  0.00     0.167 HD
ATOM     47  C   UNL A   1      44.987  27.711  31.347  1.00  0.00     0.037 A 
ATOM     48  C   UNL A   1      43.814  23.160  26.487  1.00  0.00     0.037 A 
ATOM     49  C   UNL A   1      46.116  27.952  30.499  1.00  0.00     0.049 A 
ATOM     50  C   UNL A   1      45.029  23.463  27.277  1.00  0.00     0.074 A 
ATOM     51  C   UNL A   1      46.590  29.039  29.790  1.00  0.00     0.029 A 
ATOM     52  N   UNL A   1      46.870  26.889  30.074  1.00  0.00    -0.354 N 
ATOM     53  N   UNL A   1      46.052  24.134  26.827  1.00  0.00    -0.248 NA
ATOM     54  C   UNL A   1      44.945  23.345  28.725  1.00  0.00     0.031 C 
ATOM     55  C   UNL A   1      47.250  28.489  28.653  1.00  0.00     0.029 A 
ATOM     56  C   UNL A   1      47.135  27.103  28.748  1.00  0.00     0.049 A 
ATOM     57  H   UNL A   1      47.163  26.122  30.617  1.00  0.00     0.167 HD
ATOM     58  C   UNL A   1      46.503  24.859  27.920  1.00  0.00     0.074 A 
ATOM     59  C   UNL A   1      45.861  24.249  29.078  1.00  0.00     0.031 C 
ATOM     60  C   UNL A   1      47.129  26.060  27.756  1.00  0.00     0.037 A 
BRANCH  47  61
ATOM     61  C   UNL A   1      45.099  27.028  32.689  1.00  0.00     0.064 A 
ATOM     62  C   UNL A   1      44.668  25.698  32.847  1.00  0.00     0.173 A 
ATOM     63  C   UNL A   1      45.356  27.731  33.889  1.00  0.00     0.173 A 
ATOM     64  F   UNL A   1      44.349  24.953  31.777  1.00  0.00    -0.203 F 
ATOM     65  C   UNL A   1      44.474  25.132  34.110  1.00  0.00     0.198 A 
ATOM     66  C   UNL A   1      45.220  27.146  35.145  1.00  0.00     0.198 A 
ATOM     67  F   UNL A   1      45.639  29.040  33.897  1.00  0.00    -0.203 F 
ATOM     68  F   UNL A   1      43.954  23.901  34.215  1.00  0.00    -0.200 F 
ATOM     69  C   UNL A   1      44.752  25.854  35.257  1.00  0.00     0.200 A 
ATOM     70  F   UNL A   1      45.471  27.873  36.242  1.00  0.00    -0.200 F 
ATOM     71  F   UNL A   1      44.518  25.331  36.468  1.00  0.00    -0.200 F 
ENDBRANCH  47  61
BRANCH  48  72
ATOM     72  C   UNL A   1      43.287  21.787  26.315  1.00  0.00     0.064 A 
ATOM     73  C   UNL A   1      43.885  20.883  25.424  1.00  0.00     0.173 A 
ATOM     74  C   UNL A   1      42.321  21.252  27.195  1.00  0.00     0.173 A 
ATOM     75  F   UNL A   1      44.857  21.297  24.599  1.00  0.00    -0.203 F 
ATOM     76  C   UNL A   1      43.533  19.529  25.409  1.00  0.00     0.198 A 
ATOM     77  C   UNL A   1      41.958  19.907  27.166  1.00  0.00     0.198 A 
ATOM     78  F   UNL A   1      41.773  22.003  28.160  1.00  0.00    -0.203 F 
ATOM     79  F   UNL A   1      44.162  18.686  24.580  1.00  0.00    -0.200 F 
ATOM     80  C   UNL A   1      42.570  19.043  26.280  1.00  0.00     0.200 A 
ATOM     81  F   UNL A   1      41.050  19.445  28.039  1.00  0.00    -0.200 F 
ATOM     82  F   UNL A   1      42.262  17.739  26.292  1.00  0.00    -0.200 F 
ENDBRANCH  48  72
BRANCH  60  83
ATOM     83  C   UNL A   1      47.564  26.434  26.370  1.00  0.00     0.064 A 
ATOM     84  C   UNL A   1      46.757  27.163  25.482  1.00  0.00     0.173 A 
ATOM     85  C   UNL A   1      48.883  26.171  25.980  1.00  0.00     0.173 A 
ATOM     86  F   UNL A   1      45.524  27.551  25.833  1.00  0.00    -0.203 F 
ATOM     87  C   UNL A   1      47.233  27.561  24.234  1.00  0.00     0.198 A 
ATOM     88  C   UNL A   1      49.368  26.600  24.748  1.00  0.00     0.198 A 
ATOM     89  F   UNL A   1      49.718  25.535  26.818  1.00  0.00    -0.203 F 
ATOM     90  F   UNL A   1      46.438  28.245  23.399  1.00  0.00    -0.200 F 
ATOM     91  C   UNL A   1      48.540  27.283  23.871  1.00  0.00     0.200 A 
ATOM     92  F   UNL A   1      50.649  26.377  24.421  1.00  0.00    -0.200 F 
ATOM     93  F   UNL A   1      49.011  27.701  22.688  1.00  0.00    -0.200 F 
ENDBRANCH  60  83
ENDBRANCH  34  35
ENDBRANCH  27  29
ENDBRANCH  26  27
ENDBRANCH  25  26
ENDBRANCH   1  25
TORSDOF 13
ENDMDL
