MODEL 1
REMARK VINA RESULT:     -11.9      0.000      0.000
REMARK SMILES CC(C)C[C@H](C(=O)OCCOC(=O)c1ccc(-c2c3nc(c(-c4c(F)c(F)c(F)c(F)c4F)c4ccc([nH]4)c(-c4c(F)c(F)c(F)c(F)c4F)c4nc(c(-c5c(F)c(F)c(F)c(F)c5F)c5ccc2[nH]5)C=C4)C=C3)cc1)[C@@H]1CCO[C@]2(CCOC2)C1
REMARK SMILES IDX 9 1 8 2 6 3 7 4 5 5 4 6 2 7 1 8 3 9 77 10 78 11 86 12 79 13
REMARK SMILES IDX 81 14 80 15 82 16 85 17 83 18 84 19 10 20 11 21 12 22 13 23
REMARK SMILES IDX 14 24 15 25 76 26 16 27 75 28 17 29 18 30 19 31 69 32 20 33
REMARK SMILES IDX 74 34 68 35 70 36 21 37 73 38 67 39 66 40 22 42 54 43 34 44
REMARK SMILES IDX 53 45 35 46 38 47 52 48 71 49 36 50 37 51 51 53 72 54 39 55
REMARK SMILES IDX 23 56 24 57 32 58 25 59 26 60 30 61 33 62 27 63 28 64 31 65
REMARK SMILES IDX 29 66 55 67 56 68 64 69 57 70 58 71 62 72 65 73 59 74 60 75
REMARK SMILES IDX 63 76 61 77 40 78 41 79 49 80 42 81 43 82 47 83 50 84 44 85
REMARK SMILES IDX 45 86 48 87 46 88
REMARK H PARENT 70 41 38 52
REMARK Flexibility Score: inf
ROOT
ATOM      1  C   UNL A   1      31.763  28.929  27.399  1.00  0.00     0.274 C 
ENDROOT
BRANCH   1   2
ATOM      2  O   UNL A   1      32.457  27.913  26.632  1.00  0.00    -0.462 OA
BRANCH   2   3
ATOM      3  C   UNL A   1      31.741  26.904  26.093  1.00  0.00     0.309 C 
ATOM      4  O   UNL A   1      31.007  26.163  26.739  1.00  0.00    -0.252 OA
BRANCH   3   5
ATOM      5  C   UNL A   1      31.853  26.807  24.564  1.00  0.00     0.103 C 
BRANCH   5   6
ATOM      6  C   UNL A   1      31.003  27.925  23.921  1.00  0.00     0.018 C 
BRANCH   6   7
ATOM      7  C   UNL A   1      29.739  27.498  23.144  1.00  0.00    -0.017 C 
ATOM      8  C   UNL A   1      28.879  26.498  23.918  1.00  0.00     0.007 C 
ATOM      9  C   UNL A   1      28.897  28.735  22.809  1.00  0.00     0.007 C 
ENDBRANCH   6   7
ENDBRANCH   5   6
BRANCH   5  10
ATOM     10  C   UNL A   1      33.237  26.565  23.892  1.00  0.00     0.008 C 
ATOM     11  C   UNL A   1      33.281  26.863  22.398  1.00  0.00     0.033 C 
ATOM     12  C   UNL A   1      34.017  25.273  24.170  1.00  0.00     0.042 C 
ATOM     13  C   UNL A   1      32.882  25.685  21.533  1.00  0.00     0.161 C 
ATOM     14  C   UNL A   1      33.728  24.089  23.231  1.00  0.00     0.094 C 
ATOM     15  O   UNL A   1      33.467  24.442  21.874  1.00  0.00    -0.372 OA
ATOM     16  C   UNL A   1      32.728  23.120  23.855  1.00  0.00     0.066 C 
ATOM     17  C   UNL A   1      34.935  23.135  23.160  1.00  0.00     0.195 C 
ATOM     18  C   UNL A   1      33.557  22.192  24.732  1.00  0.00     0.163 C 
ATOM     19  O   UNL A   1      34.925  22.341  24.346  1.00  0.00    -0.378 OA
ENDBRANCH   5  10
ENDBRANCH   3   5
ENDBRANCH   2   3
ENDBRANCH   1   2
BRANCH   1  20
ATOM     20  C   UNL A   1      31.757  30.256  26.644  1.00  0.00     0.275 C 
BRANCH  20  21
ATOM     21  O   UNL A   1      33.115  30.687  26.508  1.00  0.00    -0.458 OA
BRANCH  21  22
ATOM     22  C   UNL A   1      33.517  31.704  27.303  1.00  0.00     0.338 C 
ATOM     23  O   UNL A   1      32.934  32.742  27.551  1.00  0.00    -0.246 OA
BRANCH  22  24
ATOM     24  C   UNL A   1      34.829  31.331  27.860  1.00  0.00     0.060 A 
ATOM     25  C   UNL A   1      35.815  32.308  28.017  1.00  0.00     0.016 A 
ATOM     26  C   UNL A   1      35.081  30.011  28.223  1.00  0.00     0.016 A 
ATOM     27  C   UNL A   1      37.065  31.972  28.521  1.00  0.00     0.010 A 
ATOM     28  C   UNL A   1      36.299  29.695  28.827  1.00  0.00     0.010 A 
ATOM     29  C   UNL A   1      37.294  30.676  28.994  1.00  0.00    -0.014 A 
BRANCH  29  30
ATOM     30  C   UNL A   1      38.528  30.361  29.753  1.00  0.00     0.031 A 
ATOM     31  C   UNL A   1      39.546  29.420  29.184  1.00  0.00     0.074 A 
ATOM     32  C   UNL A   1      38.679  30.869  30.992  1.00  0.00     0.049 A 
ATOM     33  N   UNL A   1      40.552  28.832  29.777  1.00  0.00    -0.248 NA
ATOM     34  C   UNL A   1      39.399  29.078  27.761  1.00  0.00     0.031 C 
ATOM     35  C   UNL A   1      37.761  31.811  31.640  1.00  0.00     0.029 A 
ATOM     36  N   UNL A   1      39.647  30.651  31.940  1.00  0.00    -0.354 N 
ATOM     37  C   UNL A   1      41.126  28.009  28.819  1.00  0.00     0.074 A 
ATOM     38  C   UNL A   1      40.358  28.175  27.602  1.00  0.00     0.031 C 
ATOM     39  C   UNL A   1      38.215  32.099  32.866  1.00  0.00     0.029 A 
ATOM     40  C   UNL A   1      39.404  31.300  33.126  1.00  0.00     0.049 A 
ATOM     41  H   UNL A   1      40.438  30.085  31.784  1.00  0.00     0.167 HD
ATOM     42  C   UNL A   1      42.194  27.187  28.955  1.00  0.00     0.037 A 
ATOM     43  C   UNL A   1      40.036  31.219  34.311  1.00  0.00     0.037 A 
ATOM     44  C   UNL A   1      42.962  27.064  30.168  1.00  0.00     0.049 A 
ATOM     45  C   UNL A   1      41.203  30.284  34.440  1.00  0.00     0.074 A 
ATOM     46  C   UNL A   1      44.080  26.285  30.410  1.00  0.00     0.029 A 
ATOM     47  N   UNL A   1      42.688  27.746  31.347  1.00  0.00    -0.354 N 
ATOM     48  N   UNL A   1      41.730  29.493  33.537  1.00  0.00    -0.248 NA
ATOM     49  C   UNL A   1      41.854  30.218  35.754  1.00  0.00     0.031 C 
ATOM     50  C   UNL A   1      44.459  26.466  31.744  1.00  0.00     0.029 A 
ATOM     51  C   UNL A   1      43.608  27.395  32.322  1.00  0.00     0.049 A 
ATOM     52  H   UNL A   1      41.951  28.385  31.471  1.00  0.00     0.167 HD
ATOM     53  C   UNL A   1      42.783  28.847  34.164  1.00  0.00     0.074 A 
ATOM     54  C   UNL A   1      42.832  29.353  35.522  1.00  0.00     0.031 C 
ATOM     55  C   UNL A   1      43.633  27.917  33.665  1.00  0.00     0.037 A 
BRANCH  42  56
ATOM     56  C   UNL A   1      42.570  26.331  27.780  1.00  0.00     0.064 A 
ATOM     57  C   UNL A   1      43.550  26.724  26.856  1.00  0.00     0.173 A 
ATOM     58  C   UNL A   1      41.958  25.081  27.592  1.00  0.00     0.173 A 
ATOM     59  F   UNL A   1      44.156  27.914  26.980  1.00  0.00    -0.203 F 
ATOM     60  C   UNL A   1      43.884  25.910  25.775  1.00  0.00     0.198 A 
ATOM     61  C   UNL A   1      42.315  24.258  26.527  1.00  0.00     0.198 A 
ATOM     62  F   UNL A   1      41.018  24.654  28.448  1.00  0.00    -0.203 F 
ATOM     63  F   UNL A   1      44.790  26.327  24.879  1.00  0.00    -0.200 F 
ATOM     64  C   UNL A   1      43.271  24.676  25.615  1.00  0.00     0.200 A 
ATOM     65  F   UNL A   1      41.730  23.061  26.383  1.00  0.00    -0.200 F 
ATOM     66  F   UNL A   1      43.598  23.893  24.579  1.00  0.00    -0.200 F 
ENDBRANCH  42  56
BRANCH  43  67
ATOM     67  C   UNL A   1      39.557  32.028  35.462  1.00  0.00     0.064 A 
ATOM     68  C   UNL A   1      38.619  31.508  36.362  1.00  0.00     0.173 A 
ATOM     69  C   UNL A   1      40.048  33.320  35.705  1.00  0.00     0.173 A 
ATOM     70  F   UNL A   1      38.104  30.286  36.161  1.00  0.00    -0.203 F 
ATOM     71  C   UNL A   1      38.184  32.251  37.458  1.00  0.00     0.198 A 
ATOM     72  C   UNL A   1      39.635  34.051  36.816  1.00  0.00     0.198 A 
ATOM     73  F   UNL A   1      40.952  33.863  34.876  1.00  0.00    -0.203 F 
ATOM     74  F   UNL A   1      37.260  31.743  38.284  1.00  0.00    -0.200 F 
ATOM     75  C   UNL A   1      38.699  33.518  37.690  1.00  0.00     0.200 A 
ATOM     76  F   UNL A   1      40.150  35.267  37.046  1.00  0.00    -0.200 F 
ATOM     77  F   UNL A   1      38.292  34.226  38.751  1.00  0.00    -0.200 F 
ENDBRANCH  43  67
BRANCH  55  78
ATOM     78  C   UNL A   1      44.707  27.421  34.586  1.00  0.00     0.064 A 
ATOM     79  C   UNL A   1      45.938  28.082  34.702  1.00  0.00     0.173 A 
ATOM     80  C   UNL A   1      44.490  26.282  35.375  1.00  0.00     0.173 A 
ATOM     81  F   UNL A   1      46.198  29.163  33.952  1.00  0.00    -0.203 F 
ATOM     82  C   UNL A   1      46.925  27.604  35.560  1.00  0.00     0.198 A 
ATOM     83  C   UNL A   1      45.468  25.825  36.252  1.00  0.00     0.198 A 
ATOM     84  F   UNL A   1      43.327  25.619  35.300  1.00  0.00    -0.203 F 
ATOM     85  F   UNL A   1      48.112  28.221  35.620  1.00  0.00    -0.200 F 
ATOM     86  C   UNL A   1      46.687  26.481  36.338  1.00  0.00     0.200 A 
ATOM     87  F   UNL A   1      45.233  24.745  37.010  1.00  0.00    -0.200 F 
ATOM     88  F   UNL A   1      47.637  26.024  37.165  1.00  0.00    -0.200 F 
ENDBRANCH  55  78
ENDBRANCH  29  30
ENDBRANCH  22  24
ENDBRANCH  21  22
ENDBRANCH  20  21
ENDBRANCH   1  20
TORSDOF 14
ENDMDL
MODEL 2
REMARK VINA RESULT:     -11.8      4.234      9.555
REMARK SMILES CC(C)C[C@H](C(=O)OCCOC(=O)c1ccc(-c2c3nc(c(-c4c(F)c(F)c(F)c(F)c4F)c4ccc([nH]4)c(-c4c(F)c(F)c(F)c(F)c4F)c4nc(c(-c5c(F)c(F)c(F)c(F)c5F)c5ccc2[nH]5)C=C4)C=C3)cc1)[C@@H]1CCO[C@]2(CCOC2)C1
REMARK SMILES IDX 9 1 8 2 6 3 7 4 5 5 4 6 2 7 1 8 3 9 77 10 78 11 86 12 79 13
REMARK SMILES IDX 81 14 80 15 82 16 85 17 83 18 84 19 10 20 11 21 12 22 13 23
REMARK SMILES IDX 14 24 15 25 76 26 16 27 75 28 17 29 18 30 19 31 69 32 20 33
REMARK SMILES IDX 74 34 68 35 70 36 21 37 73 38 67 39 66 40 22 42 54 43 34 44
REMARK SMILES IDX 53 45 35 46 38 47 52 48 71 49 36 50 37 51 51 53 72 54 39 55
REMARK SMILES IDX 23 56 24 57 32 58 25 59 26 60 30 61 33 62 27 63 28 64 31 65
REMARK SMILES IDX 29 66 55 67 56 68 64 69 57 70 58 71 62 72 65 73 59 74 60 75
REMARK SMILES IDX 63 76 61 77 40 78 41 79 49 80 42 81 43 82 47 83 50 84 44 85
REMARK SMILES IDX 45 86 48 87 46 88
REMARK H PARENT 70 41 38 52
REMARK Flexibility Score: inf
ROOT
ATOM      1  C   UNL A   1      35.142  21.142  25.487  1.00  0.00     0.274 C 
ENDROOT
BRANCH   1   2
ATOM      2  O   UNL A   1      35.175  22.516  25.950  1.00  0.00    -0.462 OA
BRANCH   2   3
ATOM      3  C   UNL A   1      34.197  22.948  26.772  1.00  0.00     0.309 C 
ATOM      4  O   UNL A   1      34.094  22.615  27.948  1.00  0.00    -0.252 OA
BRANCH   3   5
ATOM      5  C   UNL A   1      33.251  23.975  26.131  1.00  0.00     0.103 C 
BRANCH   5   6
ATOM      6  C   UNL A   1      31.910  23.978  26.897  1.00  0.00     0.018 C 
BRANCH   6   7
ATOM      7  C   UNL A   1      30.680  23.385  26.177  1.00  0.00    -0.017 C 
ATOM      8  C   UNL A   1      31.034  22.196  25.283  1.00  0.00     0.007 C 
ATOM      9  C   UNL A   1      29.637  22.946  27.213  1.00  0.00     0.007 C 
ENDBRANCH   6   7
ENDBRANCH   5   6
BRANCH   5  10
ATOM     10  C   UNL A   1      33.780  25.383  25.727  1.00  0.00     0.008 C 
ATOM     11  C   UNL A   1      33.072  26.549  26.407  1.00  0.00     0.033 C 
ATOM     12  C   UNL A   1      34.010  25.728  24.249  1.00  0.00     0.042 C 
ATOM     13  C   UNL A   1      31.838  27.024  25.668  1.00  0.00     0.161 C 
ATOM     14  C   UNL A   1      32.811  26.330  23.496  1.00  0.00     0.094 C 
ATOM     15  O   UNL A   1      31.982  27.194  24.271  1.00  0.00    -0.372 OA
ATOM     16  C   UNL A   1      32.070  25.263  22.695  1.00  0.00     0.066 C 
ATOM     17  C   UNL A   1      33.281  27.198  22.314  1.00  0.00     0.195 C 
ATOM     18  C   UNL A   1      32.816  25.159  21.373  1.00  0.00     0.163 C 
ATOM     19  O   UNL A   1      33.647  26.316  21.253  1.00  0.00    -0.378 OA
ENDBRANCH   5  10
ENDBRANCH   3   5
ENDBRANCH   2   3
ENDBRANCH   1   2
BRANCH   1  20
ATOM     20  C   UNL A   1      36.525  20.708  25.007  1.00  0.00     0.275 C 
BRANCH  20  21
ATOM     21  O   UNL A   1      37.448  21.754  25.329  1.00  0.00    -0.458 OA
BRANCH  21  22
ATOM     22  C   UNL A   1      38.649  21.379  25.823  1.00  0.00     0.338 C 
ATOM     23  O   UNL A   1      39.166  20.279  25.792  1.00  0.00    -0.246 OA
BRANCH  22  24
ATOM     24  C   UNL A   1      39.269  22.576  26.419  1.00  0.00     0.060 A 
ATOM     25  C   UNL A   1      40.349  22.431  27.294  1.00  0.00     0.016 A 
ATOM     26  C   UNL A   1      38.776  23.841  26.112  1.00  0.00     0.016 A 
ATOM     27  C   UNL A   1      40.933  23.545  27.881  1.00  0.00     0.010 A 
ATOM     28  C   UNL A   1      39.430  24.965  26.620  1.00  0.00     0.010 A 
ATOM     29  C   UNL A   1      40.522  24.825  27.497  1.00  0.00    -0.014 A 
BRANCH  29  30
ATOM     30  C   UNL A   1      41.289  26.021  27.923  1.00  0.00     0.031 A 
ATOM     31  C   UNL A   1      40.618  27.109  28.703  1.00  0.00     0.074 A 
ATOM     32  C   UNL A   1      42.571  26.147  27.529  1.00  0.00     0.049 A 
ATOM     33  N   UNL A   1      41.034  28.323  28.955  1.00  0.00    -0.248 NA
ATOM     34  C   UNL A   1      39.291  26.798  29.257  1.00  0.00     0.031 C 
ATOM     35  C   UNL A   1      43.332  25.141  26.783  1.00  0.00     0.029 A 
ATOM     36  N   UNL A   1      43.459  27.183  27.680  1.00  0.00    -0.354 N 
ATOM     37  C   UNL A   1      40.002  28.940  29.648  1.00  0.00     0.074 A 
ATOM     38  C   UNL A   1      38.939  27.965  29.780  1.00  0.00     0.031 C 
ATOM     39  C   UNL A   1      44.570  25.600  26.555  1.00  0.00     0.029 A 
ATOM     40  C   UNL A   1      44.664  26.962  27.060  1.00  0.00     0.049 A 
ATOM     41  H   UNL A   1      43.252  28.002  28.185  1.00  0.00     0.167 HD
ATOM     42  C   UNL A   1      39.954  30.208  30.120  1.00  0.00     0.037 A 
ATOM     43  C   UNL A   1      45.711  27.785  26.869  1.00  0.00     0.037 A 
ATOM     44  C   UNL A   1      41.038  31.149  30.004  1.00  0.00     0.049 A 
ATOM     45  C   UNL A   1      45.622  29.192  27.383  1.00  0.00     0.074 A 
ATOM     46  C   UNL A   1      41.110  32.450  30.472  1.00  0.00     0.029 A 
ATOM     47  N   UNL A   1      42.249  30.884  29.375  1.00  0.00    -0.354 N 
ATOM     48  N   UNL A   1      44.636  29.776  28.020  1.00  0.00    -0.248 NA
ATOM     49  C   UNL A   1      46.782  30.058  27.142  1.00  0.00     0.031 C 
ATOM     50  C   UNL A   1      42.346  32.984  30.091  1.00  0.00     0.029 A 
ATOM     51  C   UNL A   1      43.066  32.001  29.430  1.00  0.00     0.049 A 
ATOM     52  H   UNL A   1      42.490  30.029  28.953  1.00  0.00     0.167 HD
ATOM     53  C   UNL A   1      45.059  31.072  28.270  1.00  0.00     0.074 A 
ATOM     54  C   UNL A   1      46.401  31.182  27.732  1.00  0.00     0.031 C 
ATOM     55  C   UNL A   1      44.399  32.081  28.888  1.00  0.00     0.037 A 
BRANCH  42  56
ATOM     56  C   UNL A   1      38.678  30.663  30.768  1.00  0.00     0.064 A 
ATOM     57  C   UNL A   1      37.578  31.105  30.017  1.00  0.00     0.173 A 
ATOM     58  C   UNL A   1      38.545  30.629  32.166  1.00  0.00     0.173 A 
ATOM     59  F   UNL A   1      37.655  31.171  28.681  1.00  0.00    -0.203 F 
ATOM     60  C   UNL A   1      36.403  31.519  30.643  1.00  0.00     0.198 A 
ATOM     61  C   UNL A   1      37.360  31.017  32.785  1.00  0.00     0.198 A 
ATOM     62  F   UNL A   1      39.564  30.212  32.931  1.00  0.00    -0.203 F 
ATOM     63  F   UNL A   1      35.382  31.982  29.908  1.00  0.00    -0.200 F 
ATOM     64  C   UNL A   1      36.293  31.469  32.025  1.00  0.00     0.200 A 
ATOM     65  F   UNL A   1      37.252  30.955  34.120  1.00  0.00    -0.200 F 
ATOM     66  F   UNL A   1      35.160  31.862  32.623  1.00  0.00    -0.200 F 
ENDBRANCH  42  56
BRANCH  43  67
ATOM     67  C   UNL A   1      46.912  27.299  26.140  1.00  0.00     0.064 A 
ATOM     68  C   UNL A   1      47.058  27.530  24.766  1.00  0.00     0.173 A 
ATOM     69  C   UNL A   1      47.948  26.623  26.802  1.00  0.00     0.173 A 
ATOM     70  F   UNL A   1      46.084  28.152  24.085  1.00  0.00    -0.203 F 
ATOM     71  C   UNL A   1      48.192  27.099  24.080  1.00  0.00     0.198 A 
ATOM     72  C   UNL A   1      49.095  26.219  26.122  1.00  0.00     0.198 A 
ATOM     73  F   UNL A   1      47.860  26.380  28.118  1.00  0.00    -0.203 F 
ATOM     74  F   UNL A   1      48.291  27.304  22.760  1.00  0.00    -0.200 F 
ATOM     75  C   UNL A   1      49.213  26.453  24.760  1.00  0.00     0.200 A 
ATOM     76  F   UNL A   1      50.087  25.611  26.786  1.00  0.00    -0.200 F 
ATOM     77  F   UNL A   1      50.310  26.052  24.103  1.00  0.00    -0.200 F 
ENDBRANCH  43  67
BRANCH  55  78
ATOM     78  C   UNL A   1      45.138  33.376  29.042  1.00  0.00     0.064 A 
ATOM     79  C   UNL A   1      45.971  33.620  30.144  1.00  0.00     0.173 A 
ATOM     80  C   UNL A   1      45.026  34.375  28.065  1.00  0.00     0.173 A 
ATOM     81  F   UNL A   1      46.093  32.701  31.114  1.00  0.00    -0.203 F 
ATOM     82  C   UNL A   1      46.647  34.829  30.273  1.00  0.00     0.198 A 
ATOM     83  C   UNL A   1      45.725  35.572  28.183  1.00  0.00     0.198 A 
ATOM     84  F   UNL A   1      44.243  34.187  26.992  1.00  0.00    -0.203 F 
ATOM     85  F   UNL A   1      47.398  35.062  31.357  1.00  0.00    -0.200 F 
ATOM     86  C   UNL A   1      46.528  35.801  29.291  1.00  0.00     0.200 A 
ATOM     87  F   UNL A   1      45.617  36.506  27.229  1.00  0.00    -0.200 F 
ATOM     88  F   UNL A   1      47.181  36.964  29.415  1.00  0.00    -0.200 F 
ENDBRANCH  55  78
ENDBRANCH  29  30
ENDBRANCH  22  24
ENDBRANCH  21  22
ENDBRANCH  20  21
ENDBRANCH   1  20
TORSDOF 14
ENDMDL
MODEL 3
REMARK VINA RESULT:     -11.7      1.012      1.868
REMARK SMILES CC(C)C[C@H](C(=O)OCCOC(=O)c1ccc(-c2c3nc(c(-c4c(F)c(F)c(F)c(F)c4F)c4ccc([nH]4)c(-c4c(F)c(F)c(F)c(F)c4F)c4nc(c(-c5c(F)c(F)c(F)c(F)c5F)c5ccc2[nH]5)C=C4)C=C3)cc1)[C@@H]1CCO[C@]2(CCOC2)C1
REMARK SMILES IDX 9 1 8 2 6 3 7 4 5 5 4 6 2 7 1 8 3 9 77 10 78 11 86 12 79 13
REMARK SMILES IDX 81 14 80 15 82 16 85 17 83 18 84 19 10 20 11 21 12 22 13 23
REMARK SMILES IDX 14 24 15 25 76 26 16 27 75 28 17 29 18 30 19 31 69 32 20 33
REMARK SMILES IDX 74 34 68 35 70 36 21 37 73 38 67 39 66 40 22 42 54 43 34 44
REMARK SMILES IDX 53 45 35 46 38 47 52 48 71 49 36 50 37 51 51 53 72 54 39 55
REMARK SMILES IDX 23 56 24 57 32 58 25 59 26 60 30 61 33 62 27 63 28 64 31 65
REMARK SMILES IDX 29 66 55 67 56 68 64 69 57 70 58 71 62 72 65 73 59 74 60 75
REMARK SMILES IDX 63 76 61 77 40 78 41 79 49 80 42 81 43 82 47 83 50 84 44 85
REMARK SMILES IDX 45 86 48 87 46 88
REMARK H PARENT 70 41 38 52
REMARK Flexibility Score: inf
ROOT
ATOM      1  C   UNL A   1      31.638  28.326  27.401  1.00  0.00     0.274 C 
ENDROOT
BRANCH   1   2
ATOM      2  O   UNL A   1      32.427  27.340  26.687  1.00  0.00    -0.462 OA
BRANCH   2   3
ATOM      3  C   UNL A   1      31.791  26.319  26.076  1.00  0.00     0.309 C 
ATOM      4  O   UNL A   1      30.593  26.317  25.812  1.00  0.00    -0.252 OA
BRANCH   3   5
ATOM      5  C   UNL A   1      32.720  25.170  25.652  1.00  0.00     0.103 C 
BRANCH   5   6
ATOM      6  C   UNL A   1      31.863  23.962  25.211  1.00  0.00     0.018 C 
BRANCH   6   7
ATOM      7  C   UNL A   1      31.632  22.840  26.247  1.00  0.00    -0.017 C 
ATOM      8  C   UNL A   1      32.639  22.880  27.397  1.00  0.00     0.007 C 
ATOM      9  C   UNL A   1      30.212  22.948  26.816  1.00  0.00     0.007 C 
ENDBRANCH   6   7
ENDBRANCH   5   6
BRANCH   5  10
ATOM     10  C   UNL A   1      33.963  25.455  24.760  1.00  0.00     0.008 C 
ATOM     11  C   UNL A   1      33.640  25.874  23.331  1.00  0.00     0.033 C 
ATOM     12  C   UNL A   1      35.143  24.473  24.740  1.00  0.00     0.042 C 
ATOM     13  C   UNL A   1      33.476  24.708  22.379  1.00  0.00     0.161 C 
ATOM     14  C   UNL A   1      35.070  23.343  23.698  1.00  0.00     0.094 C 
ATOM     15  O   UNL A   1      34.470  23.703  22.456  1.00  0.00    -0.372 OA
ATOM     16  C   UNL A   1      34.551  22.050  24.321  1.00  0.00     0.066 C 
ATOM     17  C   UNL A   1      36.479  22.848  23.321  1.00  0.00     0.195 C 
ATOM     18  C   UNL A   1      35.772  21.376  24.931  1.00  0.00     0.163 C 
ATOM     19  O   UNL A   1      36.932  21.999  24.375  1.00  0.00    -0.378 OA
ENDBRANCH   5  10
ENDBRANCH   3   5
ENDBRANCH   2   3
ENDBRANCH   1   2
BRANCH   1  20
ATOM     20  C   UNL A   1      31.655  29.660  26.660  1.00  0.00     0.275 C 
BRANCH  20  21
ATOM     21  O   UNL A   1      33.023  30.048  26.490  1.00  0.00    -0.458 OA
BRANCH  21  22
ATOM     22  C   UNL A   1      33.427  31.167  27.133  1.00  0.00     0.338 C 
ATOM     23  O   UNL A   1      32.826  32.216  27.269  1.00  0.00    -0.246 OA
BRANCH  22  24
ATOM     24  C   UNL A   1      34.766  30.895  27.683  1.00  0.00     0.060 A 
ATOM     25  C   UNL A   1      35.618  31.961  27.984  1.00  0.00     0.016 A 
ATOM     26  C   UNL A   1      35.178  29.582  27.897  1.00  0.00     0.016 A 
ATOM     27  C   UNL A   1      36.891  31.724  28.484  1.00  0.00     0.010 A 
ATOM     28  C   UNL A   1      36.416  29.350  28.497  1.00  0.00     0.010 A 
ATOM     29  C   UNL A   1      37.276  30.419  28.808  1.00  0.00    -0.014 A 
BRANCH  29  30
ATOM     30  C   UNL A   1      38.527  30.170  29.563  1.00  0.00     0.031 A 
ATOM     31  C   UNL A   1      39.577  29.258  29.006  1.00  0.00     0.074 A 
ATOM     32  C   UNL A   1      38.668  30.712  30.789  1.00  0.00     0.049 A 
ATOM     33  N   UNL A   1      40.610  28.724  29.603  1.00  0.00    -0.248 NA
ATOM     34  C   UNL A   1      39.433  28.878  27.592  1.00  0.00     0.031 C 
ATOM     35  C   UNL A   1      37.719  31.631  31.424  1.00  0.00     0.029 A 
ATOM     36  N   UNL A   1      39.651  30.554  31.733  1.00  0.00    -0.354 N 
ATOM     37  C   UNL A   1      41.210  27.903  28.658  1.00  0.00     0.074 A 
ATOM     38  C   UNL A   1      40.425  28.010  27.445  1.00  0.00     0.031 C 
ATOM     39  C   UNL A   1      38.171  31.965  32.640  1.00  0.00     0.029 A 
ATOM     40  C   UNL A   1      39.393  31.219  32.906  1.00  0.00     0.049 A 
ATOM     41  H   UNL A   1      40.463  30.017  31.583  1.00  0.00     0.167 HD
ATOM     42  C   UNL A   1      42.310  27.127  28.804  1.00  0.00     0.037 A 
ATOM     43  C   UNL A   1      40.037  31.191  34.087  1.00  0.00     0.037 A 
ATOM     44  C   UNL A   1      43.092  27.062  30.012  1.00  0.00     0.049 A 
ATOM     45  C   UNL A   1      41.241  30.306  34.226  1.00  0.00     0.074 A 
ATOM     46  C   UNL A   1      44.243  26.334  30.261  1.00  0.00     0.029 A 
ATOM     47  N   UNL A   1      42.801  27.759  31.178  1.00  0.00    -0.354 N 
ATOM     48  N   UNL A   1      41.791  29.516  33.336  1.00  0.00    -0.248 NA
ATOM     49  C   UNL A   1      41.904  30.296  35.535  1.00  0.00     0.031 C 
ATOM     50  C   UNL A   1      44.624  26.559  31.587  1.00  0.00     0.029 A 
ATOM     51  C   UNL A   1      43.742  27.467  32.152  1.00  0.00     0.049 A 
ATOM     52  H   UNL A   1      42.040  28.372  31.294  1.00  0.00     0.167 HD
ATOM     53  C   UNL A   1      42.875  28.926  33.969  1.00  0.00     0.074 A 
ATOM     54  C   UNL A   1      42.914  29.465  35.314  1.00  0.00     0.031 C 
ATOM     55  C   UNL A   1      43.757  28.020  33.483  1.00  0.00     0.037 A 
BRANCH  42  56
ATOM     56  C   UNL A   1      42.711  26.260  27.645  1.00  0.00     0.064 A 
ATOM     57  C   UNL A   1      43.692  26.656  26.724  1.00  0.00     0.173 A 
ATOM     58  C   UNL A   1      42.121  24.998  27.470  1.00  0.00     0.173 A 
ATOM     59  F   UNL A   1      44.277  27.857  26.835  1.00  0.00    -0.203 F 
ATOM     60  C   UNL A   1      44.049  25.831  25.658  1.00  0.00     0.198 A 
ATOM     61  C   UNL A   1      42.500  24.166  26.420  1.00  0.00     0.198 A 
ATOM     62  F   UNL A   1      41.180  24.568  28.324  1.00  0.00    -0.203 F 
ATOM     63  F   UNL A   1      44.956  26.251  24.763  1.00  0.00    -0.200 F 
ATOM     64  C   UNL A   1      43.458  24.586  25.511  1.00  0.00     0.200 A 
ATOM     65  F   UNL A   1      41.937  22.957  26.288  1.00  0.00    -0.200 F 
ATOM     66  F   UNL A   1      43.807  23.793  24.489  1.00  0.00    -0.200 F 
ENDBRANCH  42  56
BRANCH  43  67
ATOM     67  C   UNL A   1      39.535  32.006  35.224  1.00  0.00     0.064 A 
ATOM     68  C   UNL A   1      39.896  33.353  35.353  1.00  0.00     0.173 A 
ATOM     69  C   UNL A   1      38.664  31.469  36.184  1.00  0.00     0.173 A 
ATOM     70  F   UNL A   1      40.744  33.907  34.474  1.00  0.00    -0.203 F 
ATOM     71  C   UNL A   1      39.410  34.130  36.403  1.00  0.00     0.198 A 
ATOM     72  C   UNL A   1      38.155  32.254  37.215  1.00  0.00     0.198 A 
ATOM     73  F   UNL A   1      38.283  30.185  36.103  1.00  0.00    -0.203 F 
ATOM     74  F   UNL A   1      39.798  35.407  36.523  1.00  0.00    -0.200 F 
ATOM     75  C   UNL A   1      38.533  33.584  37.327  1.00  0.00     0.200 A 
ATOM     76  F   UNL A   1      37.293  31.726  38.095  1.00  0.00    -0.200 F 
ATOM     77  F   UNL A   1      38.054  34.335  38.327  1.00  0.00    -0.200 F 
ENDBRANCH  43  67
BRANCH  55  78
ATOM     78  C   UNL A   1      44.857  27.588  34.405  1.00  0.00     0.064 A 
ATOM     79  C   UNL A   1      46.066  28.294  34.489  1.00  0.00     0.173 A 
ATOM     80  C   UNL A   1      44.689  26.465  35.228  1.00  0.00     0.173 A 
ATOM     81  F   UNL A   1      46.279  29.362  33.705  1.00  0.00    -0.203 F 
ATOM     82  C   UNL A   1      47.077  27.876  35.348  1.00  0.00     0.198 A 
ATOM     83  C   UNL A   1      45.692  26.067  36.106  1.00  0.00     0.198 A 
ATOM     84  F   UNL A   1      43.549  25.760  35.185  1.00  0.00    -0.203 F 
ATOM     85  F   UNL A   1      48.243  28.535  35.378  1.00  0.00    -0.200 F 
ATOM     86  C   UNL A   1      46.887  26.767  36.160  1.00  0.00     0.200 A 
ATOM     87  F   UNL A   1      45.503  25.002  36.897  1.00  0.00    -0.200 F 
ATOM     88  F   UNL A   1      47.861  26.368  36.988  1.00  0.00    -0.200 F 
ENDBRANCH  55  78
ENDBRANCH  29  30
ENDBRANCH  22  24
ENDBRANCH  21  22
ENDBRANCH  20  21
ENDBRANCH   1  20
TORSDOF 14
ENDMDL
