MODEL 1
REMARK VINA RESULT:     -11.4      0.000      0.000
REMARK SMILES CC(C)[C@H]([NH2+]Cc1ccc(O)cn1)C(=O)OCCOC(=O)c1ccc(-c2c3nc(c(-c4c(F)c(F)c(F)c(F)c4F)c4ccc([nH]4)c(-c4c(F)c(F)c(F)c(F)c4F)c4nc(c(-c5c(F)c(F)c(F)c(F)c5F)c5ccc2[nH]5)C=C4)C=C3)cc1
REMARK SMILES IDX 17 1 16 2 14 3 15 4 4 5 2 6 1 7 3 8 5 9 6 12 7 13 8 14 13 15
REMARK SMILES IDX 9 16 12 17 10 18 11 19 18 21 19 22 20 23 21 24 22 25 23 26
REMARK SMILES IDX 84 27 24 28 83 29 25 30 26 31 27 32 77 33 28 34 82 35 76 36
REMARK SMILES IDX 78 37 29 38 81 39 75 40 74 41 30 43 62 44 42 45 61 46 43 47
REMARK SMILES IDX 46 48 60 49 79 50 44 51 45 52 59 54 80 55 47 56 31 57 32 58
REMARK SMILES IDX 40 59 33 60 34 61 38 62 41 63 35 64 36 65 39 66 37 67 63 68
REMARK SMILES IDX 64 69 72 70 65 71 66 72 70 73 73 74 67 75 68 76 71 77 69 78
REMARK SMILES IDX 48 79 49 80 57 81 50 82 51 83 55 84 58 85 52 86 53 87 56 88
REMARK SMILES IDX 54 89
REMARK H PARENT 5 10 5 11 11 20 78 42 46 53
REMARK Flexibility Score: inf
ROOT
ATOM      1  C   UNL A   1      36.087  20.329  25.011  1.00  0.00     0.274 C 
ENDROOT
BRANCH   1   2
ATOM      2  O   UNL A   1      35.663  21.221  26.058  1.00  0.00    -0.458 OA
BRANCH   2   3
ATOM      3  C   UNL A   1      34.314  21.350  26.222  1.00  0.00     0.365 C 
ATOM      4  O   UNL A   1      33.726  21.209  27.289  1.00  0.00    -0.245 OA
BRANCH   3   5
ATOM      5  C   UNL A   1      33.582  21.636  24.892  1.00  0.00     0.296 C 
BRANCH   5   6
ATOM      6  C   UNL A   1      33.460  23.159  24.572  1.00  0.00     0.053 C 
ATOM      7  C   UNL A   1      33.937  24.109  25.675  1.00  0.00     0.014 C 
ATOM      8  C   UNL A   1      34.228  23.476  23.278  1.00  0.00     0.014 C 
ENDBRANCH   5   6
BRANCH   5   9
ATOM      9  N   UNL A   1      32.362  20.800  24.777  1.00  0.00    -0.329 N 
ATOM     10  H   UNL A   1      31.571  21.426  24.630  1.00  0.00     0.347 HD
ATOM     11  H   UNL A   1      32.322  20.262  25.641  1.00  0.00     0.347 HD
BRANCH   9  12
ATOM     12  C   UNL A   1      32.351  19.810  23.704  1.00  0.00     0.318 C 
BRANCH  12  13
ATOM     13  C   UNL A   1      32.809  18.435  24.159  1.00  0.00     0.095 A 
ATOM     14  C   UNL A   1      33.634  17.664  23.338  1.00  0.00     0.033 A 
ATOM     15  N   UNL A   1      32.313  17.970  25.337  1.00  0.00    -0.251 NA
ATOM     16  C   UNL A   1      33.949  16.361  23.722  1.00  0.00     0.050 A 
ATOM     17  C   UNL A   1      32.650  16.706  25.691  1.00  0.00     0.157 A 
ATOM     18  C   UNL A   1      33.441  15.874  24.916  1.00  0.00     0.133 A 
BRANCH  18  19
ATOM     19  O   UNL A   1      33.689  14.603  25.335  1.00  0.00    -0.506 OA
ATOM     20  H   UNL A   1      33.167  14.222  26.013  1.00  0.00     0.293 HD
ENDBRANCH  18  19
ENDBRANCH  12  13
ENDBRANCH   9  12
ENDBRANCH   5   9
ENDBRANCH   3   5
ENDBRANCH   2   3
ENDBRANCH   1   2
BRANCH   1  21
ATOM     21  C   UNL A   1      37.610  20.160  24.967  1.00  0.00     0.275 C 
BRANCH  21  22
ATOM     22  O   UNL A   1      38.290  21.353  25.400  1.00  0.00    -0.458 OA
BRANCH  22  23
ATOM     23  C   UNL A   1      39.396  21.135  26.151  1.00  0.00     0.338 C 
ATOM     24  O   UNL A   1      39.992  20.084  26.301  1.00  0.00    -0.246 OA
BRANCH  23  25
ATOM     25  C   UNL A   1      39.884  22.411  26.701  1.00  0.00     0.060 A 
ATOM     26  C   UNL A   1      39.363  23.592  26.165  1.00  0.00     0.016 A 
ATOM     27  C   UNL A   1      40.897  22.454  27.661  1.00  0.00     0.016 A 
ATOM     28  C   UNL A   1      39.849  24.825  26.589  1.00  0.00     0.010 A 
ATOM     29  C   UNL A   1      41.398  23.693  28.075  1.00  0.00     0.010 A 
ATOM     30  C   UNL A   1      40.885  24.885  27.531  1.00  0.00    -0.014 A 
BRANCH  30  31
ATOM     31  C   UNL A   1      41.481  26.200  27.867  1.00  0.00     0.031 A 
ATOM     32  C   UNL A   1      42.876  26.522  27.413  1.00  0.00     0.074 A 
ATOM     33  C   UNL A   1      40.757  27.119  28.528  1.00  0.00     0.049 A 
ATOM     34  N   UNL A   1      43.579  27.611  27.596  1.00  0.00    -0.248 NA
ATOM     35  C   UNL A   1      43.571  25.478  26.645  1.00  0.00     0.031 C 
ATOM     36  C   UNL A   1      39.381  26.938  28.985  1.00  0.00     0.029 A 
ATOM     37  N   UNL A   1      41.079  28.395  28.922  1.00  0.00    -0.354 N 
ATOM     38  C   UNL A   1      44.798  27.382  26.975  1.00  0.00     0.074 A 
ATOM     39  C   UNL A   1      44.749  26.042  26.427  1.00  0.00     0.031 C 
ATOM     40  C   UNL A   1      38.972  28.063  29.595  1.00  0.00     0.029 A 
ATOM     41  C   UNL A   1      40.067  29.032  29.596  1.00  0.00     0.049 A 
ATOM     42  H   UNL A   1      41.952  28.811  28.740  1.00  0.00     0.167 HD
ATOM     43  C   UNL A   1      45.860  28.217  26.865  1.00  0.00     0.037 A 
ATOM     44  C   UNL A   1      40.035  30.255  30.158  1.00  0.00     0.037 A 
ATOM     45  C   UNL A   1      45.907  29.551  27.407  1.00  0.00     0.049 A 
ATOM     46  C   UNL A   1      41.245  31.145  30.061  1.00  0.00     0.074 A 
ATOM     47  C   UNL A   1      46.938  30.472  27.348  1.00  0.00     0.029 A 
ATOM     48  N   UNL A   1      44.874  30.152  28.110  1.00  0.00    -0.354 N 
ATOM     49  N   UNL A   1      42.391  30.924  29.467  1.00  0.00    -0.248 NA
ATOM     50  C   UNL A   1      41.150  32.460  30.711  1.00  0.00     0.031 C 
ATOM     51  C   UNL A   1      46.541  31.619  28.046  1.00  0.00     0.029 A 
ATOM     52  C   UNL A   1      45.248  31.428  28.504  1.00  0.00     0.049 A 
ATOM     53  H   UNL A   1      44.003  29.734  28.303  1.00  0.00     0.167 HD
ATOM     54  C   UNL A   1      43.147  32.073  29.654  1.00  0.00     0.074 A 
ATOM     55  C   UNL A   1      42.322  32.999  30.400  1.00  0.00     0.031 C 
ATOM     56  C   UNL A   1      44.413  32.337  29.245  1.00  0.00     0.037 A 
BRANCH  43  57
ATOM     57  C   UNL A   1      47.071  27.698  26.151  1.00  0.00     0.064 A 
ATOM     58  C   UNL A   1      48.148  27.127  26.846  1.00  0.00     0.173 A 
ATOM     59  C   UNL A   1      47.144  27.748  24.751  1.00  0.00     0.173 A 
ATOM     60  F   UNL A   1      48.131  27.069  28.186  1.00  0.00    -0.203 F 
ATOM     61  C   UNL A   1      49.265  26.648  26.165  1.00  0.00     0.198 A 
ATOM     62  C   UNL A   1      48.251  27.245  24.072  1.00  0.00     0.198 A 
ATOM     63  F   UNL A   1      46.138  28.280  24.039  1.00  0.00    -0.203 F 
ATOM     64  F   UNL A   1      50.301  26.145  26.851  1.00  0.00    -0.200 F 
ATOM     65  C   UNL A   1      49.313  26.702  24.780  1.00  0.00     0.200 A 
ATOM     66  F   UNL A   1      48.292  27.289  22.733  1.00  0.00    -0.200 F 
ATOM     67  F   UNL A   1      50.387  26.237  24.127  1.00  0.00    -0.200 F 
ENDBRANCH  43  57
BRANCH  44  68
ATOM     68  C   UNL A   1      38.811  30.712  30.866  1.00  0.00     0.064 A 
ATOM     69  C   UNL A   1      37.743  31.287  30.165  1.00  0.00     0.173 A 
ATOM     70  C   UNL A   1      38.691  30.591  32.258  1.00  0.00     0.173 A 
ATOM     71  F   UNL A   1      37.823  31.448  28.836  1.00  0.00    -0.203 F 
ATOM     72  C   UNL A   1      36.607  31.739  30.832  1.00  0.00     0.198 A 
ATOM     73  C   UNL A   1      37.544  31.019  32.921  1.00  0.00     0.198 A 
ATOM     74  F   UNL A   1      39.689  30.051  32.973  1.00  0.00    -0.203 F 
ATOM     75  F   UNL A   1      35.617  32.325  30.144  1.00  0.00    -0.200 F 
ATOM     76  C   UNL A   1      36.505  31.599  32.208  1.00  0.00     0.200 A 
ATOM     77  F   UNL A   1      37.446  30.875  34.249  1.00  0.00    -0.200 F 
ATOM     78  F   UNL A   1      35.411  32.031  32.849  1.00  0.00    -0.200 F 
ENDBRANCH  44  68
BRANCH  56  79
ATOM     79  C   UNL A   1      44.968  33.692  29.574  1.00  0.00     0.064 A 
ATOM     80  C   UNL A   1      45.697  33.922  30.750  1.00  0.00     0.173 A 
ATOM     81  C   UNL A   1      44.782  34.769  28.694  1.00  0.00     0.173 A 
ATOM     82  F   UNL A   1      45.888  32.929  31.631  1.00  0.00    -0.203 F 
ATOM     83  C   UNL A   1      46.196  35.188  31.046  1.00  0.00     0.198 A 
ATOM     84  C   UNL A   1      45.304  36.026  28.980  1.00  0.00     0.198 A 
ATOM     85  F   UNL A   1      44.096  34.599  27.553  1.00  0.00    -0.203 F 
ATOM     86  F   UNL A   1      46.847  35.397  32.198  1.00  0.00    -0.200 F 
ATOM     87  C   UNL A   1      46.003  36.238  30.160  1.00  0.00     0.200 A 
ATOM     88  F   UNL A   1      45.126  37.037  28.118  1.00  0.00    -0.200 F 
ATOM     89  F   UNL A   1      46.483  37.455  30.447  1.00  0.00    -0.200 F 
ENDBRANCH  56  79
ENDBRANCH  30  31
ENDBRANCH  23  25
ENDBRANCH  22  23
ENDBRANCH  21  22
ENDBRANCH   1  21
TORSDOF 16
ENDMDL
MODEL 2
REMARK VINA RESULT:     -11.3      0.548      1.417
REMARK SMILES CC(C)[C@H]([NH2+]Cc1ccc(O)cn1)C(=O)OCCOC(=O)c1ccc(-c2c3nc(c(-c4c(F)c(F)c(F)c(F)c4F)c4ccc([nH]4)c(-c4c(F)c(F)c(F)c(F)c4F)c4nc(c(-c5c(F)c(F)c(F)c(F)c5F)c5ccc2[nH]5)C=C4)C=C3)cc1
REMARK SMILES IDX 17 1 16 2 14 3 15 4 4 5 2 6 1 7 3 8 5 9 6 12 7 13 8 14 13 15
REMARK SMILES IDX 9 16 12 17 10 18 11 19 18 21 19 22 20 23 21 24 22 25 23 26
REMARK SMILES IDX 84 27 24 28 83 29 25 30 26 31 27 32 77 33 28 34 82 35 76 36
REMARK SMILES IDX 78 37 29 38 81 39 75 40 74 41 30 43 62 44 42 45 61 46 43 47
REMARK SMILES IDX 46 48 60 49 79 50 44 51 45 52 59 54 80 55 47 56 31 57 32 58
REMARK SMILES IDX 40 59 33 60 34 61 38 62 41 63 35 64 36 65 39 66 37 67 63 68
REMARK SMILES IDX 64 69 72 70 65 71 66 72 70 73 73 74 67 75 68 76 71 77 69 78
REMARK SMILES IDX 48 79 49 80 57 81 50 82 51 83 55 84 58 85 52 86 53 87 56 88
REMARK SMILES IDX 54 89
REMARK H PARENT 5 10 5 11 11 20 78 42 46 53
REMARK Flexibility Score: inf
ROOT
ATOM      1  C   UNL A   1      36.068  20.104  25.011  1.00  0.00     0.274 C 
ENDROOT
BRANCH   1   2
ATOM      2  O   UNL A   1      35.357  21.195  25.626  1.00  0.00    -0.458 OA
BRANCH   2   3
ATOM      3  C   UNL A   1      34.518  21.895  24.810  1.00  0.00     0.365 C 
ATOM      4  O   UNL A   1      34.834  22.359  23.718  1.00  0.00    -0.245 OA
BRANCH   3   5
ATOM      5  C   UNL A   1      33.120  22.101  25.434  1.00  0.00     0.296 C 
BRANCH   5   6
ATOM      6  C   UNL A   1      33.134  23.041  26.679  1.00  0.00     0.053 C 
ATOM      7  C   UNL A   1      32.023  24.094  26.729  1.00  0.00     0.014 C 
ATOM      8  C   UNL A   1      33.074  22.195  27.963  1.00  0.00     0.014 C 
ENDBRANCH   5   6
BRANCH   5   9
ATOM      9  N   UNL A   1      32.401  20.808  25.544  1.00  0.00    -0.329 N 
ATOM     10  H   UNL A   1      31.441  21.010  25.818  1.00  0.00     0.347 HD
ATOM     11  H   UNL A   1      32.931  20.263  26.224  1.00  0.00     0.347 HD
BRANCH   9  12
ATOM     12  C   UNL A   1      32.356  19.984  24.340  1.00  0.00     0.318 C 
BRANCH  12  13
ATOM     13  C   UNL A   1      32.785  18.547  24.586  1.00  0.00     0.095 A 
ATOM     14  C   UNL A   1      33.403  17.816  23.569  1.00  0.00     0.033 A 
ATOM     15  N   UNL A   1      32.462  17.997  25.787  1.00  0.00    -0.251 NA
ATOM     16  C   UNL A   1      33.684  16.466  23.777  1.00  0.00     0.050 A 
ATOM     17  C   UNL A   1      32.763  16.687  25.964  1.00  0.00     0.157 A 
ATOM     18  C   UNL A   1      33.351  15.893  24.994  1.00  0.00     0.133 A 
BRANCH  18  19
ATOM     19  O   UNL A   1      33.575  14.575  25.250  1.00  0.00    -0.506 OA
ATOM     20  H   UNL A   1      33.787  14.295  26.118  1.00  0.00     0.293 HD
ENDBRANCH  18  19
ENDBRANCH  12  13
ENDBRANCH   9  12
ENDBRANCH   5   9
ENDBRANCH   3   5
ENDBRANCH   2   3
ENDBRANCH   1   2
BRANCH   1  21
ATOM     21  C   UNL A   1      37.561  20.402  24.838  1.00  0.00     0.275 C 
BRANCH  21  22
ATOM     22  O   UNL A   1      38.014  21.407  25.765  1.00  0.00    -0.458 OA
BRANCH  22  23
ATOM     23  C   UNL A   1      39.284  21.243  26.203  1.00  0.00     0.338 C 
ATOM     24  O   UNL A   1      39.981  20.249  26.096  1.00  0.00    -0.246 OA
BRANCH  23  25
ATOM     25  C   UNL A   1      39.790  22.512  26.753  1.00  0.00     0.060 A 
ATOM     26  C   UNL A   1      39.275  23.700  26.226  1.00  0.00     0.016 A 
ATOM     27  C   UNL A   1      40.813  22.542  27.704  1.00  0.00     0.016 A 
ATOM     28  C   UNL A   1      39.776  24.927  26.649  1.00  0.00     0.010 A 
ATOM     29  C   UNL A   1      41.329  23.776  28.116  1.00  0.00     0.010 A 
ATOM     30  C   UNL A   1      40.823  24.973  27.581  1.00  0.00    -0.014 A 
BRANCH  30  31
ATOM     31  C   UNL A   1      41.434  26.282  27.916  1.00  0.00     0.031 A 
ATOM     32  C   UNL A   1      42.831  26.588  27.458  1.00  0.00     0.074 A 
ATOM     33  C   UNL A   1      40.722  27.209  28.579  1.00  0.00     0.049 A 
ATOM     34  N   UNL A   1      43.547  27.669  27.639  1.00  0.00    -0.248 NA
ATOM     35  C   UNL A   1      43.513  25.536  26.688  1.00  0.00     0.031 C 
ATOM     36  C   UNL A   1      39.345  27.044  29.039  1.00  0.00     0.029 A 
ATOM     37  N   UNL A   1      41.059  28.481  28.972  1.00  0.00    -0.354 N 
ATOM     38  C   UNL A   1      44.762  27.427  27.015  1.00  0.00     0.074 A 
ATOM     39  C   UNL A   1      44.697  26.087  26.467  1.00  0.00     0.031 C 
ATOM     40  C   UNL A   1      38.951  28.173  29.650  1.00  0.00     0.029 A 
ATOM     41  C   UNL A   1      40.056  29.130  29.648  1.00  0.00     0.049 A 
ATOM     42  H   UNL A   1      41.936  28.888  28.787  1.00  0.00     0.167 HD
ATOM     43  C   UNL A   1      45.832  28.250  26.903  1.00  0.00     0.037 A 
ATOM     44  C   UNL A   1      40.039  30.353  30.210  1.00  0.00     0.037 A 
ATOM     45  C   UNL A   1      45.896  29.583  27.444  1.00  0.00     0.049 A 
ATOM     46  C   UNL A   1      41.259  31.230  30.110  1.00  0.00     0.074 A 
ATOM     47  C   UNL A   1      46.937  30.492  27.382  1.00  0.00     0.029 A 
ATOM     48  N   UNL A   1      44.871  30.196  28.150  1.00  0.00    -0.354 N 
ATOM     49  N   UNL A   1      42.401  30.995  29.513  1.00  0.00    -0.248 NA
ATOM     50  C   UNL A   1      41.181  32.546  30.760  1.00  0.00     0.031 C 
ATOM     51  C   UNL A   1      46.555  31.643  28.082  1.00  0.00     0.029 A 
ATOM     52  C   UNL A   1      45.261  31.467  28.543  1.00  0.00     0.049 A 
ATOM     53  H   UNL A   1      43.996  29.788  28.345  1.00  0.00     0.167 HD
ATOM     54  C   UNL A   1      43.170  32.136  29.698  1.00  0.00     0.074 A 
ATOM     55  C   UNL A   1      42.357  33.072  30.446  1.00  0.00     0.031 C 
ATOM     56  C   UNL A   1      44.438  32.386  29.286  1.00  0.00     0.037 A 
BRANCH  43  57
ATOM     57  C   UNL A   1      47.036  27.717  26.185  1.00  0.00     0.064 A 
ATOM     58  C   UNL A   1      47.145  27.774  24.787  1.00  0.00     0.173 A 
ATOM     59  C   UNL A   1      48.105  27.165  26.906  1.00  0.00     0.173 A 
ATOM     60  F   UNL A   1      46.143  28.280  24.053  1.00  0.00    -0.203 F 
ATOM     61  C   UNL A   1      48.271  27.275  24.137  1.00  0.00     0.198 A 
ATOM     62  C   UNL A   1      49.240  26.690  26.255  1.00  0.00     0.198 A 
ATOM     63  F   UNL A   1      48.051  27.090  28.244  1.00  0.00    -0.203 F 
ATOM     64  F   UNL A   1      48.337  27.302  22.798  1.00  0.00    -0.200 F 
ATOM     65  C   UNL A   1      49.319  26.740  24.871  1.00  0.00     0.200 A 
ATOM     66  F   UNL A   1      50.257  26.181  26.965  1.00  0.00    -0.200 F 
ATOM     67  F   UNL A   1      50.404  26.264  24.243  1.00  0.00    -0.200 F 
ENDBRANCH  43  57
BRANCH  44  68
ATOM     68  C   UNL A   1      38.823  30.824  30.921  1.00  0.00     0.064 A 
ATOM     69  C   UNL A   1      37.774  31.440  30.227  1.00  0.00     0.173 A 
ATOM     70  C   UNL A   1      38.691  30.674  32.309  1.00  0.00     0.173 A 
ATOM     71  F   UNL A   1      37.866  31.630  28.902  1.00  0.00    -0.203 F 
ATOM     72  C   UNL A   1      36.644  31.905  30.897  1.00  0.00     0.198 A 
ATOM     73  C   UNL A   1      37.550  31.115  32.975  1.00  0.00     0.198 A 
ATOM     74  F   UNL A   1      39.671  30.094  33.018  1.00  0.00    -0.203 F 
ATOM     75  F   UNL A   1      35.673  32.531  30.218  1.00  0.00    -0.200 F 
ATOM     76  C   UNL A   1      36.530  31.736  32.269  1.00  0.00     0.200 A 
ATOM     77  F   UNL A   1      37.440  30.944  34.299  1.00  0.00    -0.200 F 
ATOM     78  F   UNL A   1      35.443  32.181  32.914  1.00  0.00    -0.200 F 
ENDBRANCH  44  68
BRANCH  56  79
ATOM     79  C   UNL A   1      45.009  33.735  29.613  1.00  0.00     0.064 A 
ATOM     80  C   UNL A   1      45.733  33.959  30.793  1.00  0.00     0.173 A 
ATOM     81  C   UNL A   1      44.844  34.810  28.728  1.00  0.00     0.173 A 
ATOM     82  F   UNL A   1      45.905  32.967  31.679  1.00  0.00    -0.203 F 
ATOM     83  C   UNL A   1      46.247  35.220  31.088  1.00  0.00     0.198 A 
ATOM     84  C   UNL A   1      45.381  36.062  29.013  1.00  0.00     0.198 A 
ATOM     85  F   UNL A   1      44.164  34.645  27.583  1.00  0.00    -0.203 F 
ATOM     86  F   UNL A   1      46.893  35.424  32.244  1.00  0.00    -0.200 F 
ATOM     87  C   UNL A   1      46.075  36.268  30.196  1.00  0.00     0.200 A 
ATOM     88  F   UNL A   1      45.222  37.071  28.146  1.00  0.00    -0.200 F 
ATOM     89  F   UNL A   1      46.569  37.480  30.482  1.00  0.00    -0.200 F 
ENDBRANCH  56  79
ENDBRANCH  30  31
ENDBRANCH  23  25
ENDBRANCH  22  23
ENDBRANCH  21  22
ENDBRANCH   1  21
TORSDOF 16
ENDMDL
MODEL 3
REMARK VINA RESULT:     -11.1      5.803     10.759
REMARK SMILES CC(C)[C@H]([NH2+]Cc1ccc(O)cn1)C(=O)OCCOC(=O)c1ccc(-c2c3nc(c(-c4c(F)c(F)c(F)c(F)c4F)c4ccc([nH]4)c(-c4c(F)c(F)c(F)c(F)c4F)c4nc(c(-c5c(F)c(F)c(F)c(F)c5F)c5ccc2[nH]5)C=C4)C=C3)cc1
REMARK SMILES IDX 17 1 16 2 14 3 15 4 4 5 2 6 1 7 3 8 5 9 6 12 7 13 8 14 13 15
REMARK SMILES IDX 9 16 12 17 10 18 11 19 18 21 19 22 20 23 21 24 22 25 23 26
REMARK SMILES IDX 84 27 24 28 83 29 25 30 26 31 27 32 77 33 28 34 82 35 76 36
REMARK SMILES IDX 78 37 29 38 81 39 75 40 74 41 30 43 62 44 42 45 61 46 43 47
REMARK SMILES IDX 46 48 60 49 79 50 44 51 45 52 59 54 80 55 47 56 31 57 32 58
REMARK SMILES IDX 40 59 33 60 34 61 38 62 41 63 35 64 36 65 39 66 37 67 63 68
REMARK SMILES IDX 64 69 72 70 65 71 66 72 70 73 73 74 67 75 68 76 71 77 69 78
REMARK SMILES IDX 48 79 49 80 57 81 50 82 51 83 55 84 58 85 52 86 53 87 56 88
REMARK SMILES IDX 54 89
REMARK H PARENT 5 10 5 11 11 20 78 42 46 53
REMARK Flexibility Score: inf
ROOT
ATOM      1  C   UNL A   1      31.393  29.956  25.234  1.00  0.00     0.274 C 
ENDROOT
BRANCH   1   2
ATOM      2  O   UNL A   1      32.517  29.378  24.544  1.00  0.00    -0.458 OA
BRANCH   2   3
ATOM      3  C   UNL A   1      32.216  28.549  23.504  1.00  0.00     0.365 C 
ATOM      4  O   UNL A   1      32.797  28.548  22.423  1.00  0.00    -0.245 OA
BRANCH   3   5
ATOM      5  C   UNL A   1      31.008  27.634  23.806  1.00  0.00     0.296 C 
BRANCH   5   6
ATOM      6  C   UNL A   1      31.421  26.209  24.289  1.00  0.00     0.053 C 
ATOM      7  C   UNL A   1      31.655  26.060  25.795  1.00  0.00     0.014 C 
ATOM      8  C   UNL A   1      30.359  25.188  23.848  1.00  0.00     0.014 C 
ENDBRANCH   5   6
BRANCH   5   9
ATOM      9  N   UNL A   1      29.991  27.739  22.731  1.00  0.00    -0.329 N 
ATOM     10  H   UNL A   1      29.821  26.800  22.374  1.00  0.00     0.347 HD
ATOM     11  H   UNL A   1      30.386  28.387  22.050  1.00  0.00     0.347 HD
BRANCH   9  12
ATOM     12  C   UNL A   1      28.703  28.312  23.108  1.00  0.00     0.318 C 
BRANCH  12  13
ATOM     13  C   UNL A   1      28.511  29.731  22.600  1.00  0.00     0.095 A 
ATOM     14  C   UNL A   1      28.294  30.775  23.501  1.00  0.00     0.033 A 
ATOM     15  N   UNL A   1      28.475  29.912  21.252  1.00  0.00    -0.251 NA
ATOM     16  C   UNL A   1      28.006  32.048  23.010  1.00  0.00     0.050 A 
ATOM     17  C   UNL A   1      28.209  31.164  20.806  1.00  0.00     0.157 A 
ATOM     18  C   UNL A   1      27.957  32.241  21.639  1.00  0.00     0.133 A 
BRANCH  18  19
ATOM     19  O   UNL A   1      27.656  33.453  21.096  1.00  0.00    -0.506 OA
ATOM     20  H   UNL A   1      27.722  33.582  20.170  1.00  0.00     0.293 HD
ENDBRANCH  18  19
ENDBRANCH  12  13
ENDBRANCH   9  12
ENDBRANCH   5   9
ENDBRANCH   3   5
ENDBRANCH   2   3
ENDBRANCH   1   2
BRANCH   1  21
ATOM     21  C   UNL A   1      31.818  30.989  26.282  1.00  0.00     0.275 C 
BRANCH  21  22
ATOM     22  O   UNL A   1      33.112  30.685  26.835  1.00  0.00    -0.458 OA
BRANCH  22  23
ATOM     23  C   UNL A   1      33.733  31.729  27.435  1.00  0.00     0.338 C 
ATOM     24  O   UNL A   1      33.288  32.848  27.618  1.00  0.00    -0.246 OA
BRANCH  23  25
ATOM     25  C   UNL A   1      35.034  31.295  27.970  1.00  0.00     0.060 A 
ATOM     26  C   UNL A   1      35.162  29.960  28.366  1.00  0.00     0.016 A 
ATOM     27  C   UNL A   1      36.084  32.196  28.163  1.00  0.00     0.016 A 
ATOM     28  C   UNL A   1      36.343  29.517  28.954  1.00  0.00     0.010 A 
ATOM     29  C   UNL A   1      37.264  31.754  28.771  1.00  0.00     0.010 A 
ATOM     30  C   UNL A   1      37.394  30.415  29.181  1.00  0.00    -0.014 A 
BRANCH  30  31
ATOM     31  C   UNL A   1      38.587  29.955  29.932  1.00  0.00     0.031 A 
ATOM     32  C   UNL A   1      38.812  30.436  31.337  1.00  0.00     0.074 A 
ATOM     33  C   UNL A   1      39.434  29.072  29.376  1.00  0.00     0.049 A 
ATOM     34  N   UNL A   1      39.785  30.153  32.166  1.00  0.00    -0.248 NA
ATOM     35  C   UNL A   1      37.803  31.356  31.883  1.00  0.00     0.031 C 
ATOM     36  C   UNL A   1      39.300  28.503  28.037  1.00  0.00     0.029 A 
ATOM     37  N   UNL A   1      40.573  28.491  29.877  1.00  0.00    -0.354 N 
ATOM     38  C   UNL A   1      39.511  30.863  33.326  1.00  0.00     0.074 A 
ATOM     39  C   UNL A   1      38.291  31.608  33.088  1.00  0.00     0.031 C 
ATOM     40  C   UNL A   1      40.315  27.651  27.821  1.00  0.00     0.029 A 
ATOM     41  C   UNL A   1      41.185  27.635  28.996  1.00  0.00     0.049 A 
ATOM     42  H   UNL A   1      40.919  28.672  30.781  1.00  0.00     0.167 HD
ATOM     43  C   UNL A   1      40.209  30.886  34.487  1.00  0.00     0.037 A 
ATOM     44  C   UNL A   1      42.324  26.929  29.122  1.00  0.00     0.037 A 
ATOM     45  C   UNL A   1      41.419  30.143  34.724  1.00  0.00     0.049 A 
ATOM     46  C   UNL A   1      43.105  27.008  30.406  1.00  0.00     0.074 A 
ATOM     47  C   UNL A   1      42.199  30.102  35.868  1.00  0.00     0.029 A 
ATOM     48  N   UNL A   1      42.027  29.309  33.797  1.00  0.00    -0.354 N 
ATOM     49  N   UNL A   1      42.836  27.677  31.500  1.00  0.00    -0.248 NA
ATOM     50  C   UNL A   1      44.349  26.227  30.471  1.00  0.00     0.031 C 
ATOM     51  C   UNL A   1      43.297  29.270  35.619  1.00  0.00     0.029 A 
ATOM     52  C   UNL A   1      43.180  28.760  34.337  1.00  0.00     0.049 A 
ATOM     53  H   UNL A   1      41.689  29.134  32.889  1.00  0.00     0.167 HD
ATOM     54  C   UNL A   1      43.861  27.385  32.389  1.00  0.00     0.074 A 
ATOM     55  C   UNL A   1      44.749  26.461  31.714  1.00  0.00     0.031 C 
ATOM     56  C   UNL A   1      44.052  27.842  33.651  1.00  0.00     0.037 A 
BRANCH  43  57
ATOM     57  C   UNL A   1      39.690  31.767  35.583  1.00  0.00     0.064 A 
ATOM     58  C   UNL A   1      40.184  33.065  35.781  1.00  0.00     0.173 A 
ATOM     59  C   UNL A   1      38.667  31.316  36.431  1.00  0.00     0.173 A 
ATOM     60  F   UNL A   1      41.172  33.537  35.005  1.00  0.00    -0.203 F 
ATOM     61  C   UNL A   1      39.689  33.871  36.803  1.00  0.00     0.198 A 
ATOM     62  C   UNL A   1      38.157  32.134  37.436  1.00  0.00     0.198 A 
ATOM     63  F   UNL A   1      38.158  30.085  36.280  1.00  0.00    -0.203 F 
ATOM     64  F   UNL A   1      40.204  35.093  37.001  1.00  0.00    -0.200 F 
ATOM     65  C   UNL A   1      38.672  33.407  37.625  1.00  0.00     0.200 A 
ATOM     66  F   UNL A   1      37.168  31.688  38.224  1.00  0.00    -0.200 F 
ATOM     67  F   UNL A   1      38.195  34.185  38.607  1.00  0.00    -0.200 F 
ENDBRANCH  43  57
BRANCH  44  68
ATOM     68  C   UNL A   1      42.798  26.082  27.996  1.00  0.00     0.064 A 
ATOM     69  C   UNL A   1      43.681  26.588  27.034  1.00  0.00     0.173 A 
ATOM     70  C   UNL A   1      42.368  24.755  27.857  1.00  0.00     0.173 A 
ATOM     71  F   UNL A   1      44.098  27.861  27.111  1.00  0.00    -0.203 F 
ATOM     72  C   UNL A   1      44.105  25.803  25.964  1.00  0.00     0.198 A 
ATOM     73  C   UNL A   1      42.812  23.962  26.801  1.00  0.00     0.198 A 
ATOM     74  F   UNL A   1      41.518  24.226  28.750  1.00  0.00    -0.203 F 
ATOM     75  F   UNL A   1      44.915  26.324  25.032  1.00  0.00    -0.200 F 
ATOM     76  C   UNL A   1      43.675  24.489  25.852  1.00  0.00     0.200 A 
ATOM     77  F   UNL A   1      42.402  22.691  26.701  1.00  0.00    -0.200 F 
ATOM     78  F   UNL A   1      44.085  23.733  24.824  1.00  0.00    -0.200 F 
ENDBRANCH  44  68
BRANCH  56  79
ATOM     79  C   UNL A   1      45.252  27.326  34.390  1.00  0.00     0.064 A 
ATOM     80  C   UNL A   1      45.203  26.136  35.131  1.00  0.00     0.173 A 
ATOM     81  C   UNL A   1      46.469  28.021  34.342  1.00  0.00     0.173 A 
ATOM     82  F   UNL A   1      44.057  25.443  35.220  1.00  0.00    -0.203 F 
ATOM     83  C   UNL A   1      46.321  25.676  35.821  1.00  0.00     0.198 A 
ATOM     84  C   UNL A   1      47.593  27.546  35.011  1.00  0.00     0.198 A 
ATOM     85  F   UNL A   1      46.569  29.162  33.643  1.00  0.00    -0.203 F 
ATOM     86  F   UNL A   1      46.239  24.564  36.562  1.00  0.00    -0.200 F 
ATOM     87  C   UNL A   1      47.516  26.378  35.757  1.00  0.00     0.200 A 
ATOM     88  F   UNL A   1      48.749  28.220  34.941  1.00  0.00    -0.200 F 
ATOM     89  F   UNL A   1      48.591  25.935  36.422  1.00  0.00    -0.200 F 
ENDBRANCH  56  79
ENDBRANCH  30  31
ENDBRANCH  23  25
ENDBRANCH  22  23
ENDBRANCH  21  22
ENDBRANCH   1  21
TORSDOF 16
ENDMDL
