MODEL 1
REMARK VINA RESULT:     -11.7      0.000      0.000
REMARK SMILES CC[C@H](C)Oc1ccc(NC(=O)/C=C/C(=O)OCCOC(=O)c2ccc(-c3c4nc(c(-c5c(F)c(F)c(F)c(F)c5F)c5ccc([nH]5)c(-c5c(F)c(F)c(F)c(F)c5F)c5nc(c(-c6c(F)c(F)c(F)c(F)c6F)c6ccc3[nH]6)C=C5)C=C4)cc2)cc1
REMARK SMILES IDX 17 1 15 2 16 3 14 4 13 5 11 6 10 7 12 9 9 10 6 11 7 12 87 13
REMARK SMILES IDX 8 14 86 15 5 16 3 17 4 18 2 19 1 20 18 21 19 22 20 23 21 24
REMARK SMILES IDX 22 25 23 26 24 27 85 28 25 29 84 30 26 31 27 32 28 33 78 34
REMARK SMILES IDX 29 35 83 36 77 37 79 38 30 39 82 40 76 41 75 42 31 44 63 45
REMARK SMILES IDX 43 46 62 47 44 48 47 49 61 50 80 51 45 52 46 53 60 55 81 56
REMARK SMILES IDX 48 57 32 58 33 59 41 60 34 61 35 62 39 63 42 64 36 65 37 66
REMARK SMILES IDX 40 67 38 68 64 69 65 70 73 71 66 72 67 73 71 74 74 75 68 76
REMARK SMILES IDX 69 77 72 78 70 79 49 80 50 81 58 82 51 83 52 84 56 85 59 86
REMARK SMILES IDX 53 87 54 88 57 89 55 90
REMARK H PARENT 10 8 79 43 47 54
REMARK Flexibility Score: inf
ROOT
ATOM      1  O   UNL A   1      34.549  22.719  24.233  1.00  0.00    -0.459 OA
ENDROOT
BRANCH   1   2
ATOM      2  C   UNL A   1      33.785  23.586  23.528  1.00  0.00     0.331 C 
ATOM      3  O   UNL A   1      33.967  23.926  22.368  1.00  0.00    -0.247 OA
BRANCH   2   4
ATOM      4  C   UNL A   1      32.615  24.084  24.280  1.00  0.00     0.099 C 
ATOM      5  C   UNL A   1      32.722  24.735  25.448  1.00  0.00     0.079 C 
BRANCH   5   6
ATOM      6  C   UNL A   1      31.542  24.886  26.323  1.00  0.00     0.248 C 
ATOM      7  N   UNL A   1      30.563  25.808  26.058  1.00  0.00    -0.323 N 
ATOM      8  H   UNL A   1      29.786  25.727  26.658  1.00  0.00     0.170 HD
ATOM      9  O   UNL A   1      31.411  24.116  27.275  1.00  0.00    -0.270 OA
BRANCH   7  10
ATOM     10  C   UNL A   1      30.420  26.848  25.113  1.00  0.00     0.041 A 
ATOM     11  C   UNL A   1      30.282  28.965  23.250  1.00  0.00     0.119 A 
ATOM     12  C   UNL A   1      29.572  27.798  23.046  1.00  0.00     0.048 A 
ATOM     13  C   UNL A   1      31.077  29.092  24.380  1.00  0.00     0.048 A 
ATOM     14  C   UNL A   1      29.590  26.793  24.004  1.00  0.00     0.030 A 
ATOM     15  C   UNL A   1      31.170  28.022  25.291  1.00  0.00     0.030 A 
BRANCH  11  16
ATOM     16  O   UNL A   1      29.904  29.989  22.445  1.00  0.00    -0.491 OA
BRANCH  16  17
ATOM     17  C   UNL A   1      28.542  30.402  22.397  1.00  0.00     0.170 C 
ATOM     18  C   UNL A   1      28.175  31.196  23.638  1.00  0.00     0.053 C 
BRANCH  17  19
ATOM     19  C   UNL A   1      28.026  30.857  21.021  1.00  0.00     0.041 C 
ATOM     20  C   UNL A   1      27.967  32.358  20.825  1.00  0.00     0.008 C 
ENDBRANCH  17  19
ENDBRANCH  16  17
ENDBRANCH  11  16
ENDBRANCH   7  10
ENDBRANCH   5   6
ENDBRANCH   2   4
ENDBRANCH   1   2
BRANCH   1  21
ATOM     21  C   UNL A   1      35.948  22.683  23.880  1.00  0.00     0.275 C 
BRANCH  21  22
ATOM     22  C   UNL A   1      36.661  21.470  24.483  1.00  0.00     0.275 C 
BRANCH  22  23
ATOM     23  O   UNL A   1      37.239  21.754  25.777  1.00  0.00    -0.458 OA
BRANCH  23  24
ATOM     24  C   UNL A   1      38.552  21.457  25.900  1.00  0.00     0.338 C 
ATOM     25  O   UNL A   1      39.104  20.448  25.470  1.00  0.00    -0.246 OA
BRANCH  24  26
ATOM     26  C   UNL A   1      39.312  22.565  26.527  1.00  0.00     0.060 A 
ATOM     27  C   UNL A   1      38.995  23.852  26.096  1.00  0.00     0.016 A 
ATOM     28  C   UNL A   1      40.323  22.401  27.485  1.00  0.00     0.016 A 
ATOM     29  C   UNL A   1      39.604  24.965  26.672  1.00  0.00     0.010 A 
ATOM     30  C   UNL A   1      40.971  23.531  28.035  1.00  0.00     0.010 A 
ATOM     31  C   UNL A   1      40.593  24.828  27.654  1.00  0.00    -0.014 A 
BRANCH  31  32
ATOM     32  C   UNL A   1      41.245  26.078  28.145  1.00  0.00     0.031 A 
ATOM     33  C   UNL A   1      42.620  26.415  27.633  1.00  0.00     0.074 A 
ATOM     34  C   UNL A   1      40.582  26.980  28.896  1.00  0.00     0.049 A 
ATOM     35  N   UNL A   1      43.314  27.519  27.757  1.00  0.00    -0.248 NA
ATOM     36  C   UNL A   1      43.305  25.354  26.878  1.00  0.00     0.031 C 
ATOM     37  C   UNL A   1      39.230  26.808  29.419  1.00  0.00     0.029 A 
ATOM     38  N   UNL A   1      40.928  28.261  29.279  1.00  0.00    -0.354 N 
ATOM     39  C   UNL A   1      44.527  27.272  27.128  1.00  0.00     0.074 A 
ATOM     40  C   UNL A   1      44.458  25.933  26.583  1.00  0.00     0.031 C 
ATOM     41  C   UNL A   1      38.825  27.967  29.972  1.00  0.00     0.029 A 
ATOM     42  C   UNL A   1      39.888  28.967  29.846  1.00  0.00     0.049 A 
ATOM     43  H   UNL A   1      41.830  28.634  29.158  1.00  0.00     0.167 HD
ATOM     44  C   UNL A   1      45.621  28.068  27.054  1.00  0.00     0.037 A 
ATOM     45  C   UNL A   1      39.789  30.278  30.160  1.00  0.00     0.037 A 
ATOM     46  C   UNL A   1      45.712  29.386  27.625  1.00  0.00     0.049 A 
ATOM     47  C   UNL A   1      41.004  31.169  30.008  1.00  0.00     0.074 A 
ATOM     48  C   UNL A   1      46.811  30.223  27.700  1.00  0.00     0.029 A 
ATOM     49  N   UNL A   1      44.657  30.059  28.221  1.00  0.00    -0.354 N 
ATOM     50  N   UNL A   1      42.163  30.913  29.453  1.00  0.00    -0.248 NA
ATOM     51  C   UNL A   1      40.901  32.529  30.566  1.00  0.00     0.031 C 
ATOM     52  C   UNL A   1      46.434  31.382  28.386  1.00  0.00     0.029 A 
ATOM     53  C   UNL A   1      45.083  31.298  28.675  1.00  0.00     0.049 A 
ATOM     54  H   UNL A   1      43.740  29.709  28.309  1.00  0.00     0.167 HD
ATOM     55  C   UNL A   1      42.928  32.065  29.613  1.00  0.00     0.074 A 
ATOM     56  C   UNL A   1      42.076  33.049  30.245  1.00  0.00     0.031 C 
ATOM     57  C   UNL A   1      44.231  32.274  29.304  1.00  0.00     0.037 A 
BRANCH  44  58
ATOM     58  C   UNL A   1      46.850  27.474  26.431  1.00  0.00     0.064 A 
ATOM     59  C   UNL A   1      47.828  26.812  27.186  1.00  0.00     0.173 A 
ATOM     60  C   UNL A   1      47.053  27.590  25.046  1.00  0.00     0.173 A 
ATOM     61  F   UNL A   1      47.693  26.698  28.516  1.00  0.00    -0.203 F 
ATOM     62  C   UNL A   1      48.979  26.314  26.580  1.00  0.00     0.198 A 
ATOM     63  C   UNL A   1      48.188  27.062  24.441  1.00  0.00     0.198 A 
ATOM     64  F   UNL A   1      46.148  28.219  24.280  1.00  0.00    -0.203 F 
ATOM     65  F   UNL A   1      49.931  25.738  27.327  1.00  0.00    -0.200 F 
ATOM     66  C   UNL A   1      49.155  26.435  25.209  1.00  0.00     0.200 A 
ATOM     67  F   UNL A   1      48.350  27.173  23.115  1.00  0.00    -0.200 F 
ATOM     68  F   UNL A   1      50.265  25.956  24.629  1.00  0.00    -0.200 F 
ENDBRANCH  44  58
BRANCH  45  69
ATOM     69  C   UNL A   1      38.497  30.876  30.622  1.00  0.00     0.064 A 
ATOM     70  C   UNL A   1      38.185  30.934  31.992  1.00  0.00     0.173 A 
ATOM     71  C   UNL A   1      37.519  31.326  29.726  1.00  0.00     0.173 A 
ATOM     72  F   UNL A   1      39.068  30.494  32.901  1.00  0.00    -0.203 F 
ATOM     73  C   UNL A   1      36.941  31.381  32.439  1.00  0.00     0.198 A 
ATOM     74  C   UNL A   1      36.293  31.818  30.175  1.00  0.00     0.198 A 
ATOM     75  F   UNL A   1      37.746  31.283  28.405  1.00  0.00    -0.203 F 
ATOM     76  F   UNL A   1      36.647  31.344  33.746  1.00  0.00    -0.200 F 
ATOM     77  C   UNL A   1      35.997  31.829  31.529  1.00  0.00     0.200 A 
ATOM     78  F   UNL A   1      35.389  32.264  29.292  1.00  0.00    -0.200 F 
ATOM     79  F   UNL A   1      34.800  32.254  31.955  1.00  0.00    -0.200 F 
ENDBRANCH  45  69
BRANCH  57  80
ATOM     80  C   UNL A   1      44.833  33.610  29.656  1.00  0.00     0.064 A 
ATOM     81  C   UNL A   1      45.413  33.847  30.913  1.00  0.00     0.173 A 
ATOM     82  C   UNL A   1      44.880  34.647  28.711  1.00  0.00     0.173 A 
ATOM     83  F   UNL A   1      45.395  32.893  31.856  1.00  0.00    -0.203 F 
ATOM     84  C   UNL A   1      45.985  35.080  31.221  1.00  0.00     0.198 A 
ATOM     85  C   UNL A   1      45.483  35.866  29.011  1.00  0.00     0.198 A 
ATOM     86  F   UNL A   1      44.354  34.474  27.489  1.00  0.00    -0.203 F 
ATOM     87  F   UNL A   1      46.484  35.297  32.445  1.00  0.00    -0.200 F 
ATOM     88  C   UNL A   1      46.025  36.085  30.268  1.00  0.00     0.200 A 
ATOM     89  F   UNL A   1      45.539  36.831  28.082  1.00  0.00    -0.200 F 
ATOM     90  F   UNL A   1      46.583  37.268  30.563  1.00  0.00    -0.200 F 
ENDBRANCH  57  80
ENDBRANCH  31  32
ENDBRANCH  24  26
ENDBRANCH  23  24
ENDBRANCH  22  23
ENDBRANCH  21  22
ENDBRANCH   1  21
TORSDOF 16
ENDMDL
MODEL 2
REMARK VINA RESULT:     -11.7      4.321     10.008
REMARK SMILES CC[C@H](C)Oc1ccc(NC(=O)/C=C/C(=O)OCCOC(=O)c2ccc(-c3c4nc(c(-c5c(F)c(F)c(F)c(F)c5F)c5ccc([nH]5)c(-c5c(F)c(F)c(F)c(F)c5F)c5nc(c(-c6c(F)c(F)c(F)c(F)c6F)c6ccc3[nH]6)C=C5)C=C4)cc2)cc1
REMARK SMILES IDX 17 1 15 2 16 3 14 4 13 5 11 6 10 7 12 9 9 10 6 11 7 12 87 13
REMARK SMILES IDX 8 14 86 15 5 16 3 17 4 18 2 19 1 20 18 21 19 22 20 23 21 24
REMARK SMILES IDX 22 25 23 26 24 27 85 28 25 29 84 30 26 31 27 32 28 33 78 34
REMARK SMILES IDX 29 35 83 36 77 37 79 38 30 39 82 40 76 41 75 42 31 44 63 45
REMARK SMILES IDX 43 46 62 47 44 48 47 49 61 50 80 51 45 52 46 53 60 55 81 56
REMARK SMILES IDX 48 57 32 58 33 59 41 60 34 61 35 62 39 63 42 64 36 65 37 66
REMARK SMILES IDX 40 67 38 68 64 69 65 70 73 71 66 72 67 73 71 74 74 75 68 76
REMARK SMILES IDX 69 77 72 78 70 79 49 80 50 81 58 82 51 83 52 84 56 85 59 86
REMARK SMILES IDX 53 87 54 88 57 89 55 90
REMARK H PARENT 10 8 79 43 47 54
REMARK Flexibility Score: inf
ROOT
ATOM      1  O   UNL A   1      32.111  28.060  25.627  1.00  0.00    -0.459 OA
ENDROOT
BRANCH   1   2
ATOM      2  C   UNL A   1      31.531  26.843  25.510  1.00  0.00     0.331 C 
ATOM      3  O   UNL A   1      30.727  26.352  26.289  1.00  0.00    -0.247 OA
BRANCH   2   4
ATOM      4  C   UNL A   1      31.915  26.124  24.277  1.00  0.00     0.099 C 
ATOM      5  C   UNL A   1      33.158  25.673  24.055  1.00  0.00     0.079 C 
BRANCH   5   6
ATOM      6  C   UNL A   1      33.576  25.296  22.689  1.00  0.00     0.248 C 
ATOM      7  N   UNL A   1      33.525  23.997  22.254  1.00  0.00    -0.323 N 
ATOM      8  H   UNL A   1      33.729  23.905  21.295  1.00  0.00     0.170 HD
ATOM      9  O   UNL A   1      33.914  26.187  21.909  1.00  0.00    -0.270 OA
BRANCH   7  10
ATOM     10  C   UNL A   1      33.245  22.760  22.877  1.00  0.00     0.041 A 
ATOM     11  C   UNL A   1      32.641  20.234  23.985  1.00  0.00     0.119 A 
ATOM     12  C   UNL A   1      33.678  20.996  24.487  1.00  0.00     0.048 A 
ATOM     13  C   UNL A   1      31.895  20.715  22.919  1.00  0.00     0.048 A 
ATOM     14  C   UNL A   1      33.919  22.268  23.984  1.00  0.00     0.030 A 
ATOM     15  C   UNL A   1      32.219  21.961  22.346  1.00  0.00     0.030 A 
BRANCH  11  16
ATOM     16  O   UNL A   1      32.283  19.196  24.781  1.00  0.00    -0.491 OA
BRANCH  16  17
ATOM     17  C   UNL A   1      32.978  17.956  24.701  1.00  0.00     0.170 C 
ATOM     18  C   UNL A   1      32.689  17.097  25.920  1.00  0.00     0.053 C 
BRANCH  17  19
ATOM     19  C   UNL A   1      33.035  17.306  23.308  1.00  0.00     0.041 C 
ATOM     20  C   UNL A   1      34.368  16.680  22.950  1.00  0.00     0.008 C 
ENDBRANCH  17  19
ENDBRANCH  16  17
ENDBRANCH  11  16
ENDBRANCH   7  10
ENDBRANCH   5   6
ENDBRANCH   2   4
ENDBRANCH   1   2
BRANCH   1  21
ATOM     21  C   UNL A   1      31.348  29.172  25.110  1.00  0.00     0.275 C 
BRANCH  21  22
ATOM     22  C   UNL A   1      31.629  30.467  25.877  1.00  0.00     0.275 C 
BRANCH  22  23
ATOM     23  O   UNL A   1      32.770  30.352  26.758  1.00  0.00    -0.458 OA
BRANCH  23  24
ATOM     24  C   UNL A   1      33.264  31.524  27.215  1.00  0.00     0.338 C 
ATOM     25  O   UNL A   1      32.669  32.597  27.235  1.00  0.00    -0.246 OA
BRANCH  24  26
ATOM     26  C   UNL A   1      34.609  31.357  27.819  1.00  0.00     0.060 A 
ATOM     27  C   UNL A   1      34.912  30.087  28.307  1.00  0.00     0.016 A 
ATOM     28  C   UNL A   1      35.560  32.378  27.951  1.00  0.00     0.016 A 
ATOM     29  C   UNL A   1      36.172  29.809  28.832  1.00  0.00     0.010 A 
ATOM     30  C   UNL A   1      36.823  32.104  28.526  1.00  0.00     0.010 A 
ATOM     31  C   UNL A   1      37.150  30.805  28.943  1.00  0.00    -0.014 A 
BRANCH  31  32
ATOM     32  C   UNL A   1      38.437  30.427  29.599  1.00  0.00     0.031 A 
ATOM     33  C   UNL A   1      38.632  30.780  31.049  1.00  0.00     0.074 A 
ATOM     34  C   UNL A   1      39.349  29.646  28.983  1.00  0.00     0.049 A 
ATOM     35  N   UNL A   1      39.565  30.404  31.887  1.00  0.00    -0.248 NA
ATOM     36  C   UNL A   1      37.631  31.689  31.631  1.00  0.00     0.031 C 
ATOM     37  C   UNL A   1      39.266  29.188  27.600  1.00  0.00     0.029 A 
ATOM     38  N   UNL A   1      40.485  29.033  29.472  1.00  0.00    -0.354 N 
ATOM     39  C   UNL A   1      39.284  31.056  33.081  1.00  0.00     0.074 A 
ATOM     40  C   UNL A   1      38.068  31.814  32.874  1.00  0.00     0.031 C 
ATOM     41  C   UNL A   1      40.249  28.295  27.377  1.00  0.00     0.029 A 
ATOM     42  C   UNL A   1      41.036  28.117  28.600  1.00  0.00     0.049 A 
ATOM     43  H   UNL A   1      40.865  29.229  30.358  1.00  0.00     0.167 HD
ATOM     44  C   UNL A   1      40.000  31.065  34.231  1.00  0.00     0.037 A 
ATOM     45  C   UNL A   1      42.011  27.202  28.793  1.00  0.00     0.037 A 
ATOM     46  C   UNL A   1      41.229  30.345  34.433  1.00  0.00     0.049 A 
ATOM     47  C   UNL A   1      42.758  27.183  30.110  1.00  0.00     0.074 A 
ATOM     48  C   UNL A   1      42.084  30.380  35.520  1.00  0.00     0.029 A 
ATOM     49  N   UNL A   1      41.778  29.456  33.522  1.00  0.00    -0.354 N 
ATOM     50  N   UNL A   1      42.512  27.837  31.218  1.00  0.00    -0.248 NA
ATOM     51  C   UNL A   1      43.946  26.316  30.184  1.00  0.00     0.031 C 
ATOM     52  C   UNL A   1      43.177  29.550  35.246  1.00  0.00     0.029 A 
ATOM     53  C   UNL A   1      42.966  28.943  34.020  1.00  0.00     0.049 A 
ATOM     54  H   UNL A   1      41.382  29.222  32.651  1.00  0.00     0.167 HD
ATOM     55  C   UNL A   1      43.521  27.478  32.107  1.00  0.00     0.074 A 
ATOM     56  C   UNL A   1      44.336  26.488  31.438  1.00  0.00     0.031 C 
ATOM     57  C   UNL A   1      43.775  27.958  33.350  1.00  0.00     0.037 A 
BRANCH  44  58
ATOM     58  C   UNL A   1      39.525  31.985  35.317  1.00  0.00     0.064 A 
ATOM     59  C   UNL A   1      39.946  33.319  35.406  1.00  0.00     0.173 A 
ATOM     60  C   UNL A   1      38.640  31.507  36.297  1.00  0.00     0.173 A 
ATOM     61  F   UNL A   1      40.811  33.817  34.510  1.00  0.00    -0.203 F 
ATOM     62  C   UNL A   1      39.521  34.132  36.455  1.00  0.00     0.198 A 
ATOM     63  C   UNL A   1      38.193  32.331  37.323  1.00  0.00     0.198 A 
ATOM     64  F   UNL A   1      38.211  30.235  36.257  1.00  0.00    -0.203 F 
ATOM     65  F   UNL A   1      39.981  35.386  36.557  1.00  0.00    -0.200 F 
ATOM     66  C   UNL A   1      38.642  33.638  37.408  1.00  0.00     0.200 A 
ATOM     67  F   UNL A   1      37.337  31.853  38.237  1.00  0.00    -0.200 F 
ATOM     68  F   UNL A   1      38.236  34.422  38.418  1.00  0.00    -0.200 F 
ENDBRANCH  44  58
BRANCH  45  69
ATOM     69  C   UNL A   1      42.348  26.186  27.747  1.00  0.00     0.064 A 
ATOM     70  C   UNL A   1      43.368  26.434  26.810  1.00  0.00     0.173 A 
ATOM     71  C   UNL A   1      41.625  24.994  27.602  1.00  0.00     0.173 A 
ATOM     72  F   UNL A   1      44.079  27.569  26.877  1.00  0.00    -0.203 F 
ATOM     73  C   UNL A   1      43.621  25.554  25.757  1.00  0.00     0.198 A 
ATOM     74  C   UNL A   1      41.911  24.091  26.578  1.00  0.00     0.198 A 
ATOM     75  F   UNL A   1      40.629  24.704  28.452  1.00  0.00    -0.203 F 
ATOM     76  F   UNL A   1      44.543  25.862  24.835  1.00  0.00    -0.200 F 
ATOM     77  C   UNL A   1      42.896  24.379  25.646  1.00  0.00     0.200 A 
ATOM     78  F   UNL A   1      41.217  22.949  26.483  1.00  0.00    -0.200 F 
ATOM     79  F   UNL A   1      43.135  23.533  24.634  1.00  0.00    -0.200 F 
ENDBRANCH  45  69
BRANCH  57  80
ATOM     80  C   UNL A   1      44.992  27.438  34.071  1.00  0.00     0.064 A 
ATOM     81  C   UNL A   1      46.241  28.068  33.953  1.00  0.00     0.173 A 
ATOM     82  C   UNL A   1      44.898  26.333  34.930  1.00  0.00     0.173 A 
ATOM     83  F   UNL A   1      46.390  29.128  33.144  1.00  0.00    -0.203 F 
ATOM     84  C   UNL A   1      47.356  27.591  34.640  1.00  0.00     0.198 A 
ATOM     85  C   UNL A   1      46.006  25.879  35.642  1.00  0.00     0.198 A 
ATOM     86  F   UNL A   1      43.727  25.699  35.093  1.00  0.00    -0.203 F 
ATOM     87  F   UNL A   1      48.548  28.178  34.469  1.00  0.00    -0.200 F 
ATOM     88  C   UNL A   1      47.236  26.502  35.489  1.00  0.00     0.200 A 
ATOM     89  F   UNL A   1      45.885  24.839  36.478  1.00  0.00    -0.200 F 
ATOM     90  F   UNL A   1      48.307  26.048  36.155  1.00  0.00    -0.200 F 
ENDBRANCH  57  80
ENDBRANCH  31  32
ENDBRANCH  24  26
ENDBRANCH  23  24
ENDBRANCH  22  23
ENDBRANCH  21  22
ENDBRANCH   1  21
TORSDOF 16
ENDMDL
MODEL 3
REMARK VINA RESULT:     -11.5      4.182      9.814
REMARK SMILES CC[C@H](C)Oc1ccc(NC(=O)/C=C/C(=O)OCCOC(=O)c2ccc(-c3c4nc(c(-c5c(F)c(F)c(F)c(F)c5F)c5ccc([nH]5)c(-c5c(F)c(F)c(F)c(F)c5F)c5nc(c(-c6c(F)c(F)c(F)c(F)c6F)c6ccc3[nH]6)C=C5)C=C4)cc2)cc1
REMARK SMILES IDX 17 1 15 2 16 3 14 4 13 5 11 6 10 7 12 9 9 10 6 11 7 12 87 13
REMARK SMILES IDX 8 14 86 15 5 16 3 17 4 18 2 19 1 20 18 21 19 22 20 23 21 24
REMARK SMILES IDX 22 25 23 26 24 27 85 28 25 29 84 30 26 31 27 32 28 33 78 34
REMARK SMILES IDX 29 35 83 36 77 37 79 38 30 39 82 40 76 41 75 42 31 44 63 45
REMARK SMILES IDX 43 46 62 47 44 48 47 49 61 50 80 51 45 52 46 53 60 55 81 56
REMARK SMILES IDX 48 57 32 58 33 59 41 60 34 61 35 62 39 63 42 64 36 65 37 66
REMARK SMILES IDX 40 67 38 68 64 69 65 70 73 71 66 72 67 73 71 74 74 75 68 76
REMARK SMILES IDX 69 77 72 78 70 79 49 80 50 81 58 82 51 83 52 84 56 85 59 86
REMARK SMILES IDX 53 87 54 88 57 89 55 90
REMARK H PARENT 10 8 79 43 47 54
REMARK Flexibility Score: inf
ROOT
ATOM      1  O   UNL A   1      31.582  28.548  23.765  1.00  0.00    -0.459 OA
ENDROOT
BRANCH   1   2
ATOM      2  C   UNL A   1      30.962  27.355  23.605  1.00  0.00     0.331 C 
ATOM      3  O   UNL A   1      30.662  26.837  22.539  1.00  0.00    -0.247 OA
BRANCH   2   4
ATOM      4  C   UNL A   1      30.701  26.653  24.879  1.00  0.00     0.099 C 
ATOM      5  C   UNL A   1      30.988  25.357  25.069  1.00  0.00     0.079 C 
BRANCH   5   6
ATOM      6  C   UNL A   1      30.388  24.624  26.202  1.00  0.00     0.248 C 
ATOM      7  N   UNL A   1      30.942  23.465  26.683  1.00  0.00    -0.323 N 
ATOM      8  H   UNL A   1      30.504  23.143  27.504  1.00  0.00     0.170 HD
ATOM      9  O   UNL A   1      29.404  25.107  26.764  1.00  0.00    -0.270 OA
BRANCH   7  10
ATOM     10  C   UNL A   1      32.003  22.632  26.262  1.00  0.00     0.041 A 
ATOM     11  C   UNL A   1      34.140  20.924  25.568  1.00  0.00     0.119 A 
ATOM     12  C   UNL A   1      33.085  21.123  24.699  1.00  0.00     0.048 A 
ATOM     13  C   UNL A   1      34.143  21.566  26.797  1.00  0.00     0.048 A 
ATOM     14  C   UNL A   1      32.076  22.022  25.020  1.00  0.00     0.030 A 
ATOM     15  C   UNL A   1      33.060  22.392  27.156  1.00  0.00     0.030 A 
BRANCH  11  16
ATOM     16  O   UNL A   1      35.216  20.323  25.001  1.00  0.00    -0.491 OA
BRANCH  16  17
ATOM     17  C   UNL A   1      36.488  20.963  25.015  1.00  0.00     0.170 C 
ATOM     18  C   UNL A   1      37.607  19.937  24.988  1.00  0.00     0.053 C 
BRANCH  17  19
ATOM     19  C   UNL A   1      36.607  22.242  24.169  1.00  0.00     0.041 C 
ATOM     20  C   UNL A   1      36.698  23.528  24.965  1.00  0.00     0.008 C 
ENDBRANCH  17  19
ENDBRANCH  16  17
ENDBRANCH  11  16
ENDBRANCH   7  10
ENDBRANCH   5   6
ENDBRANCH   2   4
ENDBRANCH   1   2
BRANCH   1  21
ATOM     21  C   UNL A   1      32.267  28.736  25.021  1.00  0.00     0.275 C 
BRANCH  21  22
ATOM     22  C   UNL A   1      31.844  30.033  25.717  1.00  0.00     0.275 C 
BRANCH  22  23
ATOM     23  O   UNL A   1      32.466  30.194  27.012  1.00  0.00    -0.458 OA
BRANCH  23  24
ATOM     24  C   UNL A   1      33.059  31.391  27.221  1.00  0.00     0.338 C 
ATOM     25  O   UNL A   1      32.547  32.490  27.032  1.00  0.00    -0.246 OA
BRANCH  24  26
ATOM     26  C   UNL A   1      34.402  31.242  27.833  1.00  0.00     0.060 A 
ATOM     27  C   UNL A   1      34.736  29.965  28.282  1.00  0.00     0.016 A 
ATOM     28  C   UNL A   1      35.323  32.285  28.008  1.00  0.00     0.016 A 
ATOM     29  C   UNL A   1      35.999  29.706  28.811  1.00  0.00     0.010 A 
ATOM     30  C   UNL A   1      36.587  32.028  28.586  1.00  0.00     0.010 A 
ATOM     31  C   UNL A   1      36.948  30.725  28.965  1.00  0.00    -0.014 A 
BRANCH  31  32
ATOM     32  C   UNL A   1      38.238  30.362  29.621  1.00  0.00     0.031 A 
ATOM     33  C   UNL A   1      38.426  30.712  31.073  1.00  0.00     0.074 A 
ATOM     34  C   UNL A   1      39.161  29.596  29.003  1.00  0.00     0.049 A 
ATOM     35  N   UNL A   1      39.363  30.345  31.911  1.00  0.00    -0.248 NA
ATOM     36  C   UNL A   1      37.412  31.604  31.656  1.00  0.00     0.031 C 
ATOM     37  C   UNL A   1      39.088  29.142  27.618  1.00  0.00     0.029 A 
ATOM     38  N   UNL A   1      40.305  28.996  29.491  1.00  0.00    -0.354 N 
ATOM     39  C   UNL A   1      39.071  30.988  33.106  1.00  0.00     0.074 A 
ATOM     40  C   UNL A   1      37.846  31.730  32.900  1.00  0.00     0.031 C 
ATOM     41  C   UNL A   1      40.083  28.264  27.393  1.00  0.00     0.029 A 
ATOM     42  C   UNL A   1      40.870  28.092  28.616  1.00  0.00     0.049 A 
ATOM     43  H   UNL A   1      40.682  29.194  30.379  1.00  0.00     0.167 HD
ATOM     44  C   UNL A   1      39.785  31.002  34.257  1.00  0.00     0.037 A 
ATOM     45  C   UNL A   1      41.857  27.189  28.807  1.00  0.00     0.037 A 
ATOM     46  C   UNL A   1      41.024  30.298  34.459  1.00  0.00     0.049 A 
ATOM     47  C   UNL A   1      42.602  27.175  30.125  1.00  0.00     0.074 A 
ATOM     48  C   UNL A   1      41.877  30.340  35.547  1.00  0.00     0.029 A 
ATOM     49  N   UNL A   1      41.587  29.420  33.544  1.00  0.00    -0.354 N 
ATOM     50  N   UNL A   1      42.346  27.821  31.236  1.00  0.00    -0.248 NA
ATOM     51  C   UNL A   1      43.802  26.324  30.197  1.00  0.00     0.031 C 
ATOM     52  C   UNL A   1      42.981  29.527  35.272  1.00  0.00     0.029 A 
ATOM     53  C   UNL A   1      42.781  28.922  34.042  1.00  0.00     0.049 A 
ATOM     54  H   UNL A   1      41.195  29.185  32.672  1.00  0.00     0.167 HD
ATOM     55  C   UNL A   1      43.359  27.472  32.125  1.00  0.00     0.074 A 
ATOM     56  C   UNL A   1      44.188  26.496  31.453  1.00  0.00     0.031 C 
ATOM     57  C   UNL A   1      43.604  27.950  33.370  1.00  0.00     0.037 A 
BRANCH  44  58
ATOM     58  C   UNL A   1      39.297  31.911  35.346  1.00  0.00     0.064 A 
ATOM     59  C   UNL A   1      39.614  33.276  35.382  1.00  0.00     0.173 A 
ATOM     60  C   UNL A   1      38.505  31.392  36.384  1.00  0.00     0.173 A 
ATOM     61  F   UNL A   1      40.388  33.816  34.429  1.00  0.00    -0.203 F 
ATOM     62  C   UNL A   1      39.181  34.081  36.434  1.00  0.00     0.198 A 
ATOM     63  C   UNL A   1      38.048  32.205  37.414  1.00  0.00     0.198 A 
ATOM     64  F   UNL A   1      38.178  30.090  36.397  1.00  0.00    -0.203 F 
ATOM     65  F   UNL A   1      39.545  35.369  36.483  1.00  0.00    -0.200 F 
ATOM     66  C   UNL A   1      38.395  33.546  37.444  1.00  0.00     0.200 A 
ATOM     67  F   UNL A   1      37.282  31.687  38.384  1.00  0.00    -0.200 F 
ATOM     68  F   UNL A   1      37.982  34.322  38.457  1.00  0.00    -0.200 F 
ENDBRANCH  44  58
BRANCH  45  69
ATOM     69  C   UNL A   1      42.210  26.182  27.758  1.00  0.00     0.064 A 
ATOM     70  C   UNL A   1      43.255  26.430  26.849  1.00  0.00     0.173 A 
ATOM     71  C   UNL A   1      41.478  25.000  27.580  1.00  0.00     0.173 A 
ATOM     72  F   UNL A   1      43.977  27.556  26.948  1.00  0.00    -0.203 F 
ATOM     73  C   UNL A   1      43.525  25.560  25.792  1.00  0.00     0.198 A 
ATOM     74  C   UNL A   1      41.780  24.106  26.552  1.00  0.00     0.198 A 
ATOM     75  F   UNL A   1      40.459  24.711  28.401  1.00  0.00    -0.203 F 
ATOM     76  F   UNL A   1      44.473  25.869  24.897  1.00  0.00    -0.200 F 
ATOM     77  C   UNL A   1      42.791  24.394  25.649  1.00  0.00     0.200 A 
ATOM     78  F   UNL A   1      41.077  22.973  26.426  1.00  0.00    -0.200 F 
ATOM     79  F   UNL A   1      43.046  23.558  24.633  1.00  0.00    -0.200 F 
ENDBRANCH  45  69
BRANCH  57  80
ATOM     80  C   UNL A   1      44.826  27.444  34.090  1.00  0.00     0.064 A 
ATOM     81  C   UNL A   1      44.777  26.307  34.913  1.00  0.00     0.173 A 
ATOM     82  C   UNL A   1      46.072  28.067  33.915  1.00  0.00     0.173 A 
ATOM     83  F   UNL A   1      43.613  25.672  35.119  1.00  0.00    -0.203 F 
ATOM     84  C   UNL A   1      45.918  25.836  35.559  1.00  0.00     0.198 A 
ATOM     85  C   UNL A   1      47.217  27.573  34.535  1.00  0.00     0.198 A 
ATOM     86  F   UNL A   1      46.183  29.150  33.130  1.00  0.00    -0.203 F 
ATOM     87  F   UNL A   1      45.832  24.781  36.381  1.00  0.00    -0.200 F 
ATOM     88  C   UNL A   1      47.138  26.465  35.364  1.00  0.00     0.200 A 
ATOM     89  F   UNL A   1      48.400  28.170  34.330  1.00  0.00    -0.200 F 
ATOM     90  F   UNL A   1      48.236  26.005  35.980  1.00  0.00    -0.200 F 
ENDBRANCH  57  80
ENDBRANCH  31  32
ENDBRANCH  24  26
ENDBRANCH  23  24
ENDBRANCH  22  23
ENDBRANCH  21  22
ENDBRANCH   1  21
TORSDOF 16
ENDMDL
