MODEL 1
REMARK VINA RESULT:     -11.5      0.000      0.000
REMARK SMILES CC1(C)CCC[C@@H]1Nc1cccc(F)c1C(=O)OCCOC(=O)c1ccc(-c2c3nc(c(-c4c(F)c(F)c(F)c(F)c4F)c4ccc([nH]4)c(-c4c(F)c(F)c(F)c(F)c4F)c4nc(c(-c5c(F)c(F)c(F)c(F)c5F)c5ccc2[nH]5)C=C4)C=C3)cc1
REMARK SMILES IDX 19 1 18 2 16 3 17 4 15 5 9 6 10 7 11 8 13 9 12 10 14 11 8 12
REMARK SMILES IDX 7 14 1 15 2 16 3 17 4 18 5 19 6 20 20 21 21 22 22 23 23 24
REMARK SMILES IDX 24 25 25 26 86 27 26 28 85 29 27 30 28 31 29 32 79 33 30 34
REMARK SMILES IDX 84 35 78 36 80 37 31 38 83 39 77 40 76 41 32 43 64 44 44 45
REMARK SMILES IDX 63 46 45 47 48 48 62 49 81 50 46 51 47 52 61 54 82 55 49 56
REMARK SMILES IDX 33 57 34 58 42 59 35 60 36 61 40 62 43 63 37 64 38 65 41 66
REMARK SMILES IDX 39 67 65 68 66 69 74 70 67 71 68 72 72 73 75 74 69 75 70 76
REMARK SMILES IDX 73 77 71 78 50 79 51 80 59 81 52 82 53 83 57 84 60 85 54 86
REMARK SMILES IDX 55 87 58 88 56 89
REMARK H PARENT 8 13 80 42 48 53
REMARK Flexibility Score: inf
ROOT
ATOM      1  C   UNL A   1      33.059  35.395  28.666  1.00  0.00     0.275 C 
ENDROOT
BRANCH   1   2
ATOM      2  O   UNL A   1      33.419  34.037  28.987  1.00  0.00    -0.458 OA
BRANCH   2   3
ATOM      3  C   UNL A   1      33.247  33.121  28.001  1.00  0.00     0.343 C 
ATOM      4  O   UNL A   1      32.275  33.067  27.261  1.00  0.00    -0.246 OA
BRANCH   3   5
ATOM      5  C   UNL A   1      34.408  32.196  27.940  1.00  0.00     0.118 A 
ATOM      6  C   UNL A   1      34.234  30.816  27.693  1.00  0.00     0.052 A 
ATOM      7  C   UNL A   1      35.373  29.997  27.618  1.00  0.00     0.027 A 
ATOM      8  C   UNL A   1      36.651  30.507  27.852  1.00  0.00     0.005 A 
ATOM      9  C   UNL A   1      35.690  32.687  28.205  1.00  0.00     0.139 A 
ATOM     10  C   UNL A   1      36.807  31.853  28.160  1.00  0.00     0.040 A 
ATOM     11  F   UNL A   1      35.887  33.970  28.543  1.00  0.00    -0.206 F 
BRANCH   6  12
ATOM     12  N   UNL A   1      33.006  30.279  27.340  1.00  0.00    -0.381 N 
ATOM     13  H   UNL A   1      32.212  30.862  27.364  1.00  0.00     0.160 HD
BRANCH  12  14
ATOM     14  C   UNL A   1      32.836  28.890  26.934  1.00  0.00     0.084 C 
ATOM     15  C   UNL A   1      33.648  28.966  24.547  1.00  0.00     0.013 C 
ATOM     16  C   UNL A   1      32.416  28.822  25.448  1.00  0.00    -0.015 C 
ATOM     17  C   UNL A   1      31.301  29.843  25.120  1.00  0.00     0.013 C 
ATOM     18  C   UNL A   1      31.822  27.411  25.353  1.00  0.00     0.008 C 
ATOM     19  C   UNL A   1      31.003  27.282  26.629  1.00  0.00     0.003 C 
ATOM     20  C   UNL A   1      31.711  28.153  27.673  1.00  0.00     0.025 C 
ENDBRANCH  12  14
ENDBRANCH   6  12
ENDBRANCH   3   5
ENDBRANCH   2   3
ENDBRANCH   1   2
BRANCH   1  21
ATOM     21  C   UNL A   1      33.022  36.266  29.922  1.00  0.00     0.275 C 
BRANCH  21  22
ATOM     22  O   UNL A   1      32.372  35.591  31.019  1.00  0.00    -0.458 OA
BRANCH  22  23
ATOM     23  C   UNL A   1      32.792  35.960  32.253  1.00  0.00     0.338 C 
ATOM     24  O   UNL A   1      32.297  36.808  32.976  1.00  0.00    -0.246 OA
BRANCH  23  25
ATOM     25  C   UNL A   1      33.888  35.074  32.707  1.00  0.00     0.060 A 
ATOM     26  C   UNL A   1      35.173  35.613  32.698  1.00  0.00     0.016 A 
ATOM     27  C   UNL A   1      33.695  33.749  33.114  1.00  0.00     0.016 A 
ATOM     28  C   UNL A   1      36.249  34.858  33.171  1.00  0.00     0.010 A 
ATOM     29  C   UNL A   1      34.789  32.979  33.560  1.00  0.00     0.010 A 
ATOM     30  C   UNL A   1      36.075  33.535  33.626  1.00  0.00    -0.014 A 
BRANCH  30  31
ATOM     31  C   UNL A   1      37.282  32.782  34.095  1.00  0.00     0.031 A 
ATOM     32  C   UNL A   1      38.022  31.927  33.106  1.00  0.00     0.074 A 
ATOM     33  C   UNL A   1      37.843  32.996  35.306  1.00  0.00     0.049 A 
ATOM     34  N   UNL A   1      39.153  31.286  33.251  1.00  0.00    -0.248 NA
ATOM     35  C   UNL A   1      37.405  31.776  31.779  1.00  0.00     0.031 C 
ATOM     36  C   UNL A   1      37.298  33.874  36.331  1.00  0.00     0.029 A 
ATOM     37  N   UNL A   1      39.063  32.609  35.829  1.00  0.00    -0.354 N 
ATOM     38  C   UNL A   1      39.351  30.609  32.058  1.00  0.00     0.074 A 
ATOM     39  C   UNL A   1      38.274  30.985  31.169  1.00  0.00     0.031 C 
ATOM     40  C   UNL A   1      38.243  34.116  37.256  1.00  0.00     0.029 A 
ATOM     41  C   UNL A   1      39.419  33.293  36.976  1.00  0.00     0.049 A 
ATOM     42  H   UNL A   1      39.625  31.912  35.421  1.00  0.00     0.167 HD
ATOM     43  C   UNL A   1      40.301  29.694  31.762  1.00  0.00     0.037 A 
ATOM     44  C   UNL A   1      40.554  33.255  37.715  1.00  0.00     0.037 A 
ATOM     45  C   UNL A   1      41.347  29.285  32.658  1.00  0.00     0.049 A 
ATOM     46  C   UNL A   1      41.596  32.212  37.377  1.00  0.00     0.074 A 
ATOM     47  C   UNL A   1      42.264  28.262  32.499  1.00  0.00     0.029 A 
ATOM     48  N   UNL A   1      41.616  29.879  33.880  1.00  0.00    -0.354 N 
ATOM     49  N   UNL A   1      41.700  31.460  36.310  1.00  0.00    -0.248 NA
ATOM     50  C   UNL A   1      42.633  31.950  38.391  1.00  0.00     0.031 C 
ATOM     51  C   UNL A   1      43.055  28.200  33.649  1.00  0.00     0.029 A 
ATOM     52  C   UNL A   1      42.678  29.232  34.493  1.00  0.00     0.049 A 
ATOM     53  H   UNL A   1      41.128  30.646  34.257  1.00  0.00     0.167 HD
ATOM     54  C   UNL A   1      42.785  30.621  36.535  1.00  0.00     0.074 A 
ATOM     55  C   UNL A   1      43.349  30.994  37.813  1.00  0.00     0.031 C 
ATOM     56  C   UNL A   1      43.244  29.606  35.764  1.00  0.00     0.037 A 
BRANCH  43  57
ATOM     57  C   UNL A   1      40.145  28.959  30.468  1.00  0.00     0.064 A 
ATOM     58  C   UNL A   1      40.711  29.494  29.301  1.00  0.00     0.173 A 
ATOM     59  C   UNL A   1      39.465  27.738  30.375  1.00  0.00     0.173 A 
ATOM     60  F   UNL A   1      41.383  30.654  29.345  1.00  0.00    -0.203 F 
ATOM     61  C   UNL A   1      40.588  28.840  28.081  1.00  0.00     0.198 A 
ATOM     62  C   UNL A   1      39.370  27.071  29.157  1.00  0.00     0.198 A 
ATOM     63  F   UNL A   1      38.941  27.171  31.472  1.00  0.00    -0.203 F 
ATOM     64  F   UNL A   1      41.119  29.381  26.976  1.00  0.00    -0.200 F 
ATOM     65  C   UNL A   1      39.924  27.625  28.011  1.00  0.00     0.200 A 
ATOM     66  F   UNL A   1      38.762  25.878  29.095  1.00  0.00    -0.200 F 
ATOM     67  F   UNL A   1      39.829  26.982  26.840  1.00  0.00    -0.200 F 
ENDBRANCH  43  57
BRANCH  44  68
ATOM     68  C   UNL A   1      40.771  34.162  38.889  1.00  0.00     0.064 A 
ATOM     69  C   UNL A   1      41.414  35.402  38.768  1.00  0.00     0.173 A 
ATOM     70  C   UNL A   1      40.272  33.828  40.162  1.00  0.00     0.173 A 
ATOM     71  F   UNL A   1      41.870  35.811  37.575  1.00  0.00    -0.203 F 
ATOM     72  C   UNL A   1      41.592  36.244  39.866  1.00  0.00     0.198 A 
ATOM     73  C   UNL A   1      40.408  34.693  41.250  1.00  0.00     0.198 A 
ATOM     74  F   UNL A   1      39.600  32.680  40.340  1.00  0.00    -0.203 F 
ATOM     75  F   UNL A   1      42.250  37.402  39.717  1.00  0.00    -0.200 F 
ATOM     76  C   UNL A   1      41.082  35.895  41.104  1.00  0.00     0.200 A 
ATOM     77  F   UNL A   1      39.863  34.374  42.433  1.00  0.00    -0.200 F 
ATOM     78  F   UNL A   1      41.221  36.722  42.149  1.00  0.00    -0.200 F 
ENDBRANCH  44  68
BRANCH  56  79
ATOM     79  C   UNL A   1      44.407  28.796  36.259  1.00  0.00     0.064 A 
ATOM     80  C   UNL A   1      44.194  27.647  37.037  1.00  0.00     0.173 A 
ATOM     81  C   UNL A   1      45.730  29.232  36.083  1.00  0.00     0.173 A 
ATOM     82  F   UNL A   1      42.949  27.194  37.244  1.00  0.00    -0.203 F 
ATOM     83  C   UNL A   1      45.257  26.984  37.644  1.00  0.00     0.198 A 
ATOM     84  C   UNL A   1      46.793  28.551  36.670  1.00  0.00     0.198 A 
ATOM     85  F   UNL A   1      45.989  30.321  35.344  1.00  0.00    -0.203 F 
ATOM     86  F   UNL A   1      45.023  25.920  38.425  1.00  0.00    -0.200 F 
ATOM     87  C   UNL A   1      46.555  27.436  37.461  1.00  0.00     0.200 A 
ATOM     88  F   UNL A   1      48.049  28.978  36.480  1.00  0.00    -0.200 F 
ATOM     89  F   UNL A   1      47.576  26.802  38.054  1.00  0.00    -0.200 F 
ENDBRANCH  56  79
ENDBRANCH  30  31
ENDBRANCH  23  25
ENDBRANCH  22  23
ENDBRANCH  21  22
ENDBRANCH   1  21
TORSDOF 13
ENDMDL
MODEL 2
REMARK VINA RESULT:     -11.4      8.316     13.377
REMARK SMILES CC1(C)CCC[C@@H]1Nc1cccc(F)c1C(=O)OCCOC(=O)c1ccc(-c2c3nc(c(-c4c(F)c(F)c(F)c(F)c4F)c4ccc([nH]4)c(-c4c(F)c(F)c(F)c(F)c4F)c4nc(c(-c5c(F)c(F)c(F)c(F)c5F)c5ccc2[nH]5)C=C4)C=C3)cc1
REMARK SMILES IDX 19 1 18 2 16 3 17 4 15 5 9 6 10 7 11 8 13 9 12 10 14 11 8 12
REMARK SMILES IDX 7 14 1 15 2 16 3 17 4 18 5 19 6 20 20 21 21 22 22 23 23 24
REMARK SMILES IDX 24 25 25 26 86 27 26 28 85 29 27 30 28 31 29 32 79 33 30 34
REMARK SMILES IDX 84 35 78 36 80 37 31 38 83 39 77 40 76 41 32 43 64 44 44 45
REMARK SMILES IDX 63 46 45 47 48 48 62 49 81 50 46 51 47 52 61 54 82 55 49 56
REMARK SMILES IDX 33 57 34 58 42 59 35 60 36 61 40 62 43 63 37 64 38 65 41 66
REMARK SMILES IDX 39 67 65 68 66 69 74 70 67 71 68 72 72 73 75 74 69 75 70 76
REMARK SMILES IDX 73 77 71 78 50 79 51 80 59 81 52 82 53 83 57 84 60 85 54 86
REMARK SMILES IDX 55 87 58 88 56 89
REMARK H PARENT 8 13 80 42 48 53
REMARK Flexibility Score: inf
ROOT
ATOM      1  C   UNL A   1      42.310  19.625  26.607  1.00  0.00     0.275 C 
ENDROOT
BRANCH   1   2
ATOM      2  O   UNL A   1      41.704  20.864  26.191  1.00  0.00    -0.458 OA
BRANCH   2   3
ATOM      3  C   UNL A   1      40.356  20.945  26.317  1.00  0.00     0.343 C 
ATOM      4  O   UNL A   1      39.576  20.037  26.067  1.00  0.00    -0.246 OA
BRANCH   3   5
ATOM      5  C   UNL A   1      39.957  22.289  26.808  1.00  0.00     0.118 A 
ATOM      6  C   UNL A   1      38.880  22.994  26.225  1.00  0.00     0.052 A 
ATOM      7  C   UNL A   1      38.533  24.249  26.753  1.00  0.00     0.027 A 
ATOM      8  C   UNL A   1      39.271  24.833  27.783  1.00  0.00     0.005 A 
ATOM      9  C   UNL A   1      40.709  22.902  27.816  1.00  0.00     0.139 A 
ATOM     10  C   UNL A   1      40.371  24.163  28.305  1.00  0.00     0.040 A 
ATOM     11  F   UNL A   1      41.799  22.310  28.326  1.00  0.00    -0.206 F 
BRANCH   6  12
ATOM     12  N   UNL A   1      38.043  22.414  25.284  1.00  0.00    -0.381 N 
ATOM     13  H   UNL A   1      38.308  21.554  24.885  1.00  0.00     0.160 HD
BRANCH  12  14
ATOM     14  C   UNL A   1      36.790  23.023  24.858  1.00  0.00     0.084 C 
ATOM     15  C   UNL A   1      35.251  22.365  26.746  1.00  0.00     0.013 C 
ATOM     16  C   UNL A   1      35.601  22.126  25.273  1.00  0.00    -0.015 C 
ATOM     17  C   UNL A   1      35.864  20.637  24.945  1.00  0.00     0.013 C 
ATOM     18  C   UNL A   1      34.486  22.634  24.350  1.00  0.00     0.008 C 
ATOM     19  C   UNL A   1      35.185  22.809  23.009  1.00  0.00     0.003 C 
ATOM     20  C   UNL A   1      36.642  23.157  23.337  1.00  0.00     0.025 C 
ENDBRANCH  12  14
ENDBRANCH   6  12
ENDBRANCH   3   5
ENDBRANCH   2   3
ENDBRANCH   1   2
BRANCH   1  21
ATOM     21  C   UNL A   1      42.919  18.883  25.417  1.00  0.00     0.275 C 
BRANCH  21  22
ATOM     22  O   UNL A   1      44.361  18.951  25.428  1.00  0.00    -0.458 OA
BRANCH  22  23
ATOM     23  C   UNL A   1      44.917  19.555  24.351  1.00  0.00     0.338 C 
ATOM     24  O   UNL A   1      45.167  19.048  23.270  1.00  0.00    -0.246 OA
BRANCH  23  25
ATOM     25  C   UNL A   1      45.062  21.008  24.596  1.00  0.00     0.060 A 
ATOM     26  C   UNL A   1      45.645  21.384  25.805  1.00  0.00     0.016 A 
ATOM     27  C   UNL A   1      44.631  21.992  23.699  1.00  0.00     0.016 A 
ATOM     28  C   UNL A   1      45.871  22.734  26.080  1.00  0.00     0.010 A 
ATOM     29  C   UNL A   1      44.831  23.356  23.995  1.00  0.00     0.010 A 
ATOM     30  C   UNL A   1      45.485  23.743  25.174  1.00  0.00    -0.014 A 
BRANCH  30  31
ATOM     31  C   UNL A   1      45.738  25.171  25.553  1.00  0.00     0.031 A 
ATOM     32  C   UNL A   1      44.692  25.898  26.346  1.00  0.00     0.074 A 
ATOM     33  C   UNL A   1      46.942  25.761  25.383  1.00  0.00     0.049 A 
ATOM     34  N   UNL A   1      44.743  27.089  26.887  1.00  0.00    -0.248 NA
ATOM     35  C   UNL A   1      43.419  25.190  26.560  1.00  0.00     0.031 C 
ATOM     36  C   UNL A   1      48.085  25.144  24.724  1.00  0.00     0.029 A 
ATOM     37  N   UNL A   1      47.455  26.947  25.873  1.00  0.00    -0.354 N 
ATOM     38  C   UNL A   1      43.493  27.296  27.450  1.00  0.00     0.074 A 
ATOM     39  C   UNL A   1      42.735  26.077  27.265  1.00  0.00     0.031 C 
ATOM     40  C   UNL A   1      49.195  25.846  25.012  1.00  0.00     0.029 A 
ATOM     41  C   UNL A   1      48.829  27.051  25.755  1.00  0.00     0.049 A 
ATOM     42  H   UNL A   1      46.894  27.652  26.270  1.00  0.00     0.167 HD
ATOM     43  C   UNL A   1      42.998  28.427  27.998  1.00  0.00     0.037 A 
ATOM     44  C   UNL A   1      49.686  28.007  26.187  1.00  0.00     0.037 A 
ATOM     45  C   UNL A   1      43.734  29.653  28.143  1.00  0.00     0.049 A 
ATOM     46  C   UNL A   1      49.109  29.273  26.782  1.00  0.00     0.074 A 
ATOM     47  C   UNL A   1      43.271  30.891  28.552  1.00  0.00     0.029 A 
ATOM     48  N   UNL A   1      45.087  29.796  27.885  1.00  0.00    -0.354 N 
ATOM     49  N   UNL A   1      47.886  29.520  27.178  1.00  0.00    -0.248 NA
ATOM     50  C   UNL A   1      50.019  30.426  26.908  1.00  0.00     0.031 C 
ATOM     51  C   UNL A   1      44.332  31.797  28.490  1.00  0.00     0.029 A 
ATOM     52  C   UNL A   1      45.472  31.107  28.113  1.00  0.00     0.049 A 
ATOM     53  H   UNL A   1      45.686  29.074  27.586  1.00  0.00     0.167 HD
ATOM     54  C   UNL A   1      47.871  30.854  27.568  1.00  0.00     0.074 A 
ATOM     55  C   UNL A   1      49.219  31.353  27.421  1.00  0.00     0.031 C 
ATOM     56  C   UNL A   1      46.817  31.605  27.973  1.00  0.00     0.037 A 
BRANCH  43  57
ATOM     57  C   UNL A   1      41.539  28.430  28.329  1.00  0.00     0.064 A 
ATOM     58  C   UNL A   1      41.121  27.997  29.597  1.00  0.00     0.173 A 
ATOM     59  C   UNL A   1      40.564  28.867  27.424  1.00  0.00     0.173 A 
ATOM     60  F   UNL A   1      42.021  27.582  30.501  1.00  0.00    -0.203 F 
ATOM     61  C   UNL A   1      39.775  27.985  29.941  1.00  0.00     0.198 A 
ATOM     62  C   UNL A   1      39.219  28.884  27.785  1.00  0.00     0.198 A 
ATOM     63  F   UNL A   1      40.921  29.326  26.215  1.00  0.00    -0.203 F 
ATOM     64  F   UNL A   1      39.398  27.547  31.151  1.00  0.00    -0.200 F 
ATOM     65  C   UNL A   1      38.825  28.436  29.038  1.00  0.00     0.200 A 
ATOM     66  F   UNL A   1      38.304  29.355  26.926  1.00  0.00    -0.200 F 
ATOM     67  F   UNL A   1      37.531  28.451  29.381  1.00  0.00    -0.200 F 
ENDBRANCH  43  57
BRANCH  44  68
ATOM     68  C   UNL A   1      51.171  27.875  26.029  1.00  0.00     0.064 A 
ATOM     69  C   UNL A   1      51.990  27.367  27.048  1.00  0.00     0.173 A 
ATOM     70  C   UNL A   1      51.801  28.199  24.813  1.00  0.00     0.173 A 
ATOM     71  F   UNL A   1      51.453  26.987  28.217  1.00  0.00    -0.203 F 
ATOM     72  C   UNL A   1      53.368  27.231  26.881  1.00  0.00     0.198 A 
ATOM     73  C   UNL A   1      53.173  28.018  24.630  1.00  0.00     0.198 A 
ATOM     74  F   UNL A   1      51.072  28.642  23.777  1.00  0.00    -0.203 F 
ATOM     75  F   UNL A   1      54.121  26.782  27.893  1.00  0.00    -0.200 F 
ATOM     76  C   UNL A   1      53.959  27.548  25.669  1.00  0.00     0.200 A 
ATOM     77  F   UNL A   1      53.730  28.275  23.437  1.00  0.00    -0.200 F 
ATOM     78  F   UNL A   1      55.277  27.383  25.498  1.00  0.00    -0.200 F 
ENDBRANCH  44  68
BRANCH  56  79
ATOM     79  C   UNL A   1      47.046  33.056  28.282  1.00  0.00     0.064 A 
ATOM     80  C   UNL A   1      47.315  33.469  29.596  1.00  0.00     0.173 A 
ATOM     81  C   UNL A   1      46.860  34.049  27.308  1.00  0.00     0.173 A 
ATOM     82  F   UNL A   1      47.489  32.561  30.567  1.00  0.00    -0.203 F 
ATOM     83  C   UNL A   1      47.359  34.821  29.929  1.00  0.00     0.198 A 
ATOM     84  C   UNL A   1      46.932  35.400  27.639  1.00  0.00     0.198 A 
ATOM     85  F   UNL A   1      46.607  33.708  26.035  1.00  0.00    -0.203 F 
ATOM     86  F   UNL A   1      47.565  35.190  31.201  1.00  0.00    -0.200 F 
ATOM     87  C   UNL A   1      47.167  35.784  28.951  1.00  0.00     0.200 A 
ATOM     88  F   UNL A   1      46.763  36.332  26.690  1.00  0.00    -0.200 F 
ATOM     89  F   UNL A   1      47.202  37.085  29.274  1.00  0.00    -0.200 F 
ENDBRANCH  56  79
ENDBRANCH  30  31
ENDBRANCH  23  25
ENDBRANCH  22  23
ENDBRANCH  21  22
ENDBRANCH   1  21
TORSDOF 13
ENDMDL
MODEL 3
REMARK VINA RESULT:     -11.4      0.212      1.994
REMARK SMILES CC1(C)CCC[C@@H]1Nc1cccc(F)c1C(=O)OCCOC(=O)c1ccc(-c2c3nc(c(-c4c(F)c(F)c(F)c(F)c4F)c4ccc([nH]4)c(-c4c(F)c(F)c(F)c(F)c4F)c4nc(c(-c5c(F)c(F)c(F)c(F)c5F)c5ccc2[nH]5)C=C4)C=C3)cc1
REMARK SMILES IDX 19 1 18 2 16 3 17 4 15 5 9 6 10 7 11 8 13 9 12 10 14 11 8 12
REMARK SMILES IDX 7 14 1 15 2 16 3 17 4 18 5 19 6 20 20 21 21 22 22 23 23 24
REMARK SMILES IDX 24 25 25 26 86 27 26 28 85 29 27 30 28 31 29 32 79 33 30 34
REMARK SMILES IDX 84 35 78 36 80 37 31 38 83 39 77 40 76 41 32 43 64 44 44 45
REMARK SMILES IDX 63 46 45 47 48 48 62 49 81 50 46 51 47 52 61 54 82 55 49 56
REMARK SMILES IDX 33 57 34 58 42 59 35 60 36 61 40 62 43 63 37 64 38 65 41 66
REMARK SMILES IDX 39 67 65 68 66 69 74 70 67 71 68 72 72 73 75 74 69 75 70 76
REMARK SMILES IDX 73 77 71 78 50 79 51 80 59 81 52 82 53 83 57 84 60 85 54 86
REMARK SMILES IDX 55 87 58 88 56 89
REMARK H PARENT 8 13 80 42 48 53
REMARK Flexibility Score: inf
ROOT
ATOM      1  C   UNL A   1      33.153  35.343  28.650  1.00  0.00     0.275 C 
ENDROOT
BRANCH   1   2
ATOM      2  O   UNL A   1      33.561  33.999  28.969  1.00  0.00    -0.458 OA
BRANCH   2   3
ATOM      3  C   UNL A   1      33.376  33.068  27.999  1.00  0.00     0.343 C 
ATOM      4  O   UNL A   1      32.406  33.018  27.256  1.00  0.00    -0.246 OA
BRANCH   3   5
ATOM      5  C   UNL A   1      34.521  32.122  27.959  1.00  0.00     0.118 A 
ATOM      6  C   UNL A   1      34.323  30.740  27.744  1.00  0.00     0.052 A 
ATOM      7  C   UNL A   1      35.449  29.900  27.688  1.00  0.00     0.027 A 
ATOM      8  C   UNL A   1      36.735  30.393  27.910  1.00  0.00     0.005 A 
ATOM      9  C   UNL A   1      35.812  32.597  28.213  1.00  0.00     0.139 A 
ATOM     10  C   UNL A   1      36.914  31.743  28.187  1.00  0.00     0.040 A 
ATOM     11  F   UNL A   1      36.032  33.883  28.521  1.00  0.00    -0.206 F 
BRANCH   6  12
ATOM     12  N   UNL A   1      33.086  30.217  27.403  1.00  0.00    -0.381 N 
ATOM     13  H   UNL A   1      32.300  30.809  27.431  1.00  0.00     0.160 HD
BRANCH  12  14
ATOM     14  C   UNL A   1      32.896  28.828  27.006  1.00  0.00     0.084 C 
ATOM     15  C   UNL A   1      33.728  28.872  24.625  1.00  0.00     0.013 C 
ATOM     16  C   UNL A   1      32.487  28.756  25.517  1.00  0.00    -0.015 C 
ATOM     17  C   UNL A   1      31.393  29.793  25.173  1.00  0.00     0.013 C 
ATOM     18  C   UNL A   1      31.870  27.355  25.427  1.00  0.00     0.008 C 
ATOM     19  C   UNL A   1      31.038  27.248  26.697  1.00  0.00     0.003 C 
ATOM     20  C   UNL A   1      31.753  28.115  27.741  1.00  0.00     0.025 C 
ENDBRANCH  12  14
ENDBRANCH   6  12
ENDBRANCH   3   5
ENDBRANCH   2   3
ENDBRANCH   1   2
BRANCH   1  21
ATOM     21  C   UNL A   1      33.067  36.206  29.908  1.00  0.00     0.275 C 
BRANCH  21  22
ATOM     22  O   UNL A   1      32.444  35.496  31.000  1.00  0.00    -0.458 OA
BRANCH  22  23
ATOM     23  C   UNL A   1      32.854  35.867  32.236  1.00  0.00     0.338 C 
ATOM     24  O   UNL A   1      32.341  36.703  32.961  1.00  0.00    -0.246 OA
BRANCH  23  25
ATOM     25  C   UNL A   1      33.963  34.998  32.691  1.00  0.00     0.060 A 
ATOM     26  C   UNL A   1      35.222  35.588  32.786  1.00  0.00     0.016 A 
ATOM     27  C   UNL A   1      33.808  33.641  33.000  1.00  0.00     0.016 A 
ATOM     28  C   UNL A   1      36.305  34.848  33.266  1.00  0.00     0.010 A 
ATOM     29  C   UNL A   1      34.911  32.888  33.454  1.00  0.00     0.010 A 
ATOM     30  C   UNL A   1      36.166  33.491  33.625  1.00  0.00    -0.014 A 
BRANCH  30  31
ATOM     31  C   UNL A   1      37.380  32.758  34.108  1.00  0.00     0.031 A 
ATOM     32  C   UNL A   1      38.156  31.931  33.124  1.00  0.00     0.074 A 
ATOM     33  C   UNL A   1      37.913  32.969  35.332  1.00  0.00     0.049 A 
ATOM     34  N   UNL A   1      39.298  31.313  33.283  1.00  0.00    -0.248 NA
ATOM     35  C   UNL A   1      37.569  31.783  31.783  1.00  0.00     0.031 C 
ATOM     36  C   UNL A   1      37.329  33.823  36.357  1.00  0.00     0.029 A 
ATOM     37  N   UNL A   1      39.130  32.602  35.874  1.00  0.00    -0.354 N 
ATOM     38  C   UNL A   1      39.534  30.654  32.086  1.00  0.00     0.074 A 
ATOM     39  C   UNL A   1      38.466  31.018  31.181  1.00  0.00     0.031 C 
ATOM     40  C   UNL A   1      38.251  34.073  37.303  1.00  0.00     0.029 A 
ATOM     41  C   UNL A   1      39.450  33.279  37.036  1.00  0.00     0.049 A 
ATOM     42  H   UNL A   1      39.715  31.921  35.469  1.00  0.00     0.167 HD
ATOM     43  C   UNL A   1      40.509  29.763  31.798  1.00  0.00     0.037 A 
ATOM     44  C   UNL A   1      40.570  33.256  37.796  1.00  0.00     0.037 A 
ATOM     45  C   UNL A   1      41.546  29.366  32.710  1.00  0.00     0.049 A 
ATOM     46  C   UNL A   1      41.641  32.239  37.466  1.00  0.00     0.074 A 
ATOM     47  C   UNL A   1      42.488  28.364  32.557  1.00  0.00     0.029 A 
ATOM     48  N   UNL A   1      41.779  29.950  33.944  1.00  0.00    -0.354 N 
ATOM     49  N   UNL A   1      41.782  31.504  36.393  1.00  0.00    -0.248 NA
ATOM     50  C   UNL A   1      42.663  31.987  38.498  1.00  0.00     0.031 C 
ATOM     51  C   UNL A   1      43.257  28.305  33.721  1.00  0.00     0.029 A 
ATOM     52  C   UNL A   1      42.842  29.319  34.569  1.00  0.00     0.049 A 
ATOM     53  H   UNL A   1      41.266  30.702  34.320  1.00  0.00     0.167 HD
ATOM     54  C   UNL A   1      42.880  30.685  36.630  1.00  0.00     0.074 A 
ATOM     55  C   UNL A   1      43.411  31.054  37.923  1.00  0.00     0.031 C 
ATOM     56  C   UNL A   1      43.376  29.689  35.855  1.00  0.00     0.037 A 
BRANCH  43  57
ATOM     57  C   UNL A   1      40.393  29.040  30.493  1.00  0.00     0.064 A 
ATOM     58  C   UNL A   1      39.693  27.826  30.439  1.00  0.00     0.173 A 
ATOM     59  C   UNL A   1      40.947  29.538  29.307  1.00  0.00     0.173 A 
ATOM     60  F   UNL A   1      39.134  27.317  31.548  1.00  0.00    -0.203 F 
ATOM     61  C   UNL A   1      39.565  27.126  29.246  1.00  0.00     0.198 A 
ATOM     62  C   UNL A   1      40.790  28.849  28.107  1.00  0.00     0.198 A 
ATOM     63  F   UNL A   1      41.593  30.714  29.304  1.00  0.00    -0.203 F 
ATOM     64  F   UNL A   1      38.908  25.957  29.224  1.00  0.00    -0.200 F 
ATOM     65  C   UNL A   1      40.106  27.641  28.079  1.00  0.00     0.200 A 
ATOM     66  F   UNL A   1      41.280  29.366  26.973  1.00  0.00    -0.200 F 
ATOM     67  F   UNL A   1      39.958  26.980  26.924  1.00  0.00    -0.200 F 
ENDBRANCH  43  57
BRANCH  44  68
ATOM     68  C   UNL A   1      40.745  34.153  38.985  1.00  0.00     0.064 A 
ATOM     69  C   UNL A   1      40.341  33.774  40.273  1.00  0.00     0.173 A 
ATOM     70  C   UNL A   1      41.389  35.398  38.864  1.00  0.00     0.173 A 
ATOM     71  F   UNL A   1      39.767  32.578  40.476  1.00  0.00    -0.203 F 
ATOM     72  C   UNL A   1      40.527  34.610  41.375  1.00  0.00     0.198 A 
ATOM     73  C   UNL A   1      41.618  36.214  39.974  1.00  0.00     0.198 A 
ATOM     74  F   UNL A   1      41.848  35.802  37.670  1.00  0.00    -0.203 F 
ATOM     75  F   UNL A   1      40.089  34.229  42.582  1.00  0.00    -0.200 F 
ATOM     76  C   UNL A   1      41.174  35.825  41.227  1.00  0.00     0.200 A 
ATOM     77  F   UNL A   1      42.294  37.364  39.833  1.00  0.00    -0.200 F 
ATOM     78  F   UNL A   1      41.385  36.610  42.292  1.00  0.00    -0.200 F 
ENDBRANCH  44  68
BRANCH  56  79
ATOM     79  C   UNL A   1      44.546  28.898  36.363  1.00  0.00     0.064 A 
ATOM     80  C   UNL A   1      45.858  29.314  36.091  1.00  0.00     0.173 A 
ATOM     81  C   UNL A   1      44.370  27.657  36.996  1.00  0.00     0.173 A 
ATOM     82  F   UNL A   1      46.081  30.486  35.478  1.00  0.00    -0.203 F 
ATOM     83  C   UNL A   1      46.948  28.506  36.406  1.00  0.00     0.198 A 
ATOM     84  C   UNL A   1      45.463  26.864  37.334  1.00  0.00     0.198 A 
ATOM     85  F   UNL A   1      43.137  27.215  37.285  1.00  0.00    -0.203 F 
ATOM     86  F   UNL A   1      48.188  28.903  36.089  1.00  0.00    -0.200 F 
ATOM     87  C   UNL A   1      46.749  27.282  37.026  1.00  0.00     0.200 A 
ATOM     88  F   UNL A   1      45.273  25.688  37.948  1.00  0.00    -0.200 F 
ATOM     89  F   UNL A   1      47.798  26.501  37.321  1.00  0.00    -0.200 F 
ENDBRANCH  56  79
ENDBRANCH  30  31
ENDBRANCH  23  25
ENDBRANCH  22  23
ENDBRANCH  21  22
ENDBRANCH   1  21
TORSDOF 13
ENDMDL
