MODEL 1
REMARK VINA RESULT:     -12.9      0.000      0.000
REMARK SMILES O=C(OCCOC(=O)[C@@H]1[C@@H](C(=O)Nc2cccc(C(F)(F)F)c2)[C@@H]2C=C[C@H]1O2)c1ccc(-c2c3nc(c(-c4c(F)c(F)c(F)c(F)c4F)c4ccc([nH]4)c(-c4c(F)c(F)c(F)c(F)c4F)c4nc(c(-c5c(F)c(F)c(F)c(F)c5F)c5ccc2[nH]5)C=C4)C=C3)cc1
REMARK SMILES IDX 5 1 4 2 3 3 2 4 1 5 29 6 30 7 91 8 31 9 90 10 32 11 33 12
REMARK SMILES IDX 34 13 84 14 35 15 89 16 83 17 85 18 36 19 88 20 82 21 81 22
REMARK SMILES IDX 37 24 69 25 49 26 68 27 50 28 53 29 67 30 86 31 51 32 52 33
REMARK SMILES IDX 66 35 87 36 54 37 38 38 39 39 47 40 40 41 41 42 45 43 48 44
REMARK SMILES IDX 42 45 43 46 46 47 44 48 70 49 71 50 79 51 72 52 73 53 77 54
REMARK SMILES IDX 80 55 74 56 75 57 78 58 76 59 55 60 56 61 64 62 57 63 58 64
REMARK SMILES IDX 62 65 65 66 59 67 60 68 63 69 61 70 6 71 7 72 8 73 9 74
REMARK SMILES IDX 10 75 27 76 24 77 26 78 28 79 25 80 11 81 12 82 13 83 14 85
REMARK SMILES IDX 15 86 23 87 16 88 18 89 17 90 19 91 20 92 21 93 22 94
REMARK H PARENT 85 23 53 34 13 84
REMARK Flexibility Score: inf
ROOT
ATOM      1  C   UNL A   1      35.760  20.142  25.001  1.00  0.00     0.274 C 
ENDROOT
BRANCH   1   2
ATOM      2  C   UNL A   1      37.263  20.379  24.824  1.00  0.00     0.275 C 
BRANCH   2   3
ATOM      3  O   UNL A   1      37.834  21.341  25.713  1.00  0.00    -0.458 OA
BRANCH   3   4
ATOM      4  C   UNL A   1      39.113  21.464  26.127  1.00  0.00     0.338 C 
ATOM      5  O   UNL A   1      39.822  20.461  26.127  1.00  0.00    -0.246 OA
BRANCH   4   6
ATOM      6  C   UNL A   1      39.686  22.722  26.711  1.00  0.00     0.060 A 
ATOM      7  C   UNL A   1      40.701  22.859  27.663  1.00  0.00     0.016 A 
ATOM      8  C   UNL A   1      39.141  23.900  26.192  1.00  0.00     0.016 A 
ATOM      9  C   UNL A   1      41.223  24.121  28.001  1.00  0.00     0.010 A 
ATOM     10  C   UNL A   1      39.719  25.142  26.447  1.00  0.00     0.010 A 
ATOM     11  C   UNL A   1      40.766  25.275  27.369  1.00  0.00    -0.014 A 
BRANCH  11  12
ATOM     12  C   UNL A   1      41.287  26.635  27.681  1.00  0.00     0.031 A 
ATOM     13  C   UNL A   1      42.732  26.940  27.375  1.00  0.00     0.074 A 
ATOM     14  C   UNL A   1      40.545  27.543  28.351  1.00  0.00     0.049 A 
ATOM     15  N   UNL A   1      43.459  27.968  27.729  1.00  0.00    -0.248 NA
ATOM     16  C   UNL A   1      43.478  25.907  26.636  1.00  0.00     0.031 C 
ATOM     17  C   UNL A   1      39.160  27.373  28.785  1.00  0.00     0.029 A 
ATOM     18  N   UNL A   1      40.886  28.783  28.838  1.00  0.00    -0.354 N 
ATOM     19  C   UNL A   1      44.736  27.680  27.266  1.00  0.00     0.074 A 
ATOM     20  C   UNL A   1      44.724  26.314  26.802  1.00  0.00     0.031 C 
ATOM     21  C   UNL A   1      38.785  28.439  29.513  1.00  0.00     0.029 A 
ATOM     22  C   UNL A   1      39.894  29.381  29.581  1.00  0.00     0.049 A 
ATOM     23  H   UNL A   1      41.760  29.205  28.671  1.00  0.00     0.167 HD
ATOM     24  C   UNL A   1      45.792  28.510  27.108  1.00  0.00     0.037 A 
ATOM     25  C   UNL A   1      39.882  30.562  30.231  1.00  0.00     0.037 A 
ATOM     26  C   UNL A   1      45.767  29.896  27.471  1.00  0.00     0.049 A 
ATOM     27  C   UNL A   1      41.068  31.480  30.081  1.00  0.00     0.074 A 
ATOM     28  C   UNL A   1      46.713  30.874  27.232  1.00  0.00     0.029 A 
ATOM     29  N   UNL A   1      44.716  30.502  28.142  1.00  0.00    -0.354 N 
ATOM     30  N   UNL A   1      42.213  31.260  29.483  1.00  0.00    -0.248 NA
ATOM     31  C   UNL A   1      40.932  32.835  30.635  1.00  0.00     0.031 C 
ATOM     32  C   UNL A   1      46.243  32.071  27.784  1.00  0.00     0.029 A 
ATOM     33  C   UNL A   1      44.989  31.843  28.332  1.00  0.00     0.049 A 
ATOM     34  H   UNL A   1      43.896  30.045  28.440  1.00  0.00     0.167 HD
ATOM     35  C   UNL A   1      42.898  32.469  29.514  1.00  0.00     0.074 A 
ATOM     36  C   UNL A   1      42.049  33.410  30.211  1.00  0.00     0.031 C 
ATOM     37  C   UNL A   1      44.109  32.776  28.988  1.00  0.00     0.037 A 
BRANCH  24  38
ATOM     38  C   UNL A   1      47.000  27.945  26.416  1.00  0.00     0.064 A 
ATOM     39  C   UNL A   1      47.052  27.853  25.013  1.00  0.00     0.173 A 
ATOM     40  C   UNL A   1      48.093  27.458  27.143  1.00  0.00     0.173 A 
ATOM     41  F   UNL A   1      46.030  28.301  24.267  1.00  0.00    -0.203 F 
ATOM     42  C   UNL A   1      48.115  27.226  24.371  1.00  0.00     0.198 A 
ATOM     43  C   UNL A   1      49.178  26.871  26.493  1.00  0.00     0.198 A 
ATOM     44  F   UNL A   1      48.106  27.535  28.481  1.00  0.00    -0.203 F 
ATOM     45  F   UNL A   1      48.089  27.064  23.041  1.00  0.00    -0.200 F 
ATOM     46  C   UNL A   1      49.179  26.739  25.111  1.00  0.00     0.200 A 
ATOM     47  F   UNL A   1      50.217  26.417  27.205  1.00  0.00    -0.200 F 
ATOM     48  F   UNL A   1      50.199  26.128  24.494  1.00  0.00    -0.200 F 
ENDBRANCH  24  38
BRANCH  25  49
ATOM     49  C   UNL A   1      38.677  30.999  30.986  1.00  0.00     0.064 A 
ATOM     50  C   UNL A   1      37.612  31.632  30.327  1.00  0.00     0.173 A 
ATOM     51  C   UNL A   1      38.577  30.836  32.374  1.00  0.00     0.173 A 
ATOM     52  F   UNL A   1      37.668  31.822  29.000  1.00  0.00    -0.203 F 
ATOM     53  C   UNL A   1      36.516  32.125  31.031  1.00  0.00     0.198 A 
ATOM     54  C   UNL A   1      37.471  31.315  33.077  1.00  0.00     0.198 A 
ATOM     55  F   UNL A   1      39.557  30.217  33.052  1.00  0.00    -0.203 F 
ATOM     56  F   UNL A   1      35.542  32.776  30.380  1.00  0.00    -0.200 F 
ATOM     57  C   UNL A   1      36.447  31.969  32.407  1.00  0.00     0.200 A 
ATOM     58  F   UNL A   1      37.403  31.157  34.406  1.00  0.00    -0.200 F 
ATOM     59  F   UNL A   1      35.401  32.459  33.087  1.00  0.00    -0.200 F 
ENDBRANCH  25  49
BRANCH  37  60
ATOM     60  C   UNL A   1      44.556  34.205  29.056  1.00  0.00     0.064 A 
ATOM     61  C   UNL A   1      45.362  34.681  30.099  1.00  0.00     0.173 A 
ATOM     62  C   UNL A   1      44.230  35.091  28.017  1.00  0.00     0.173 A 
ATOM     63  F   UNL A   1      45.687  33.876  31.122  1.00  0.00    -0.203 F 
ATOM     64  C   UNL A   1      45.813  35.997  30.108  1.00  0.00     0.198 A 
ATOM     65  C   UNL A   1      44.711  36.395  28.011  1.00  0.00     0.198 A 
ATOM     66  F   UNL A   1      43.466  34.681  26.994  1.00  0.00    -0.203 F 
ATOM     67  F   UNL A   1      46.548  36.444  31.135  1.00  0.00    -0.200 F 
ATOM     68  C   UNL A   1      45.497  36.849  29.058  1.00  0.00     0.200 A 
ATOM     69  F   UNL A   1      44.420  37.212  26.988  1.00  0.00    -0.200 F 
ATOM     70  F   UNL A   1      45.949  38.110  29.060  1.00  0.00    -0.200 F 
ENDBRANCH  37  60
ENDBRANCH  11  12
ENDBRANCH   4   6
ENDBRANCH   3   4
ENDBRANCH   2   3
ENDBRANCH   1   2
BRANCH   1  71
ATOM     71  O   UNL A   1      35.096  20.963  25.991  1.00  0.00    -0.462 OA
BRANCH  71  72
ATOM     72  C   UNL A   1      33.917  21.503  25.569  1.00  0.00     0.312 C 
ATOM     73  O   UNL A   1      33.145  20.926  24.815  1.00  0.00    -0.252 OA
BRANCH  72  74
ATOM     74  C   UNL A   1      33.683  22.942  25.986  1.00  0.00     0.147 C 
ATOM     75  C   UNL A   1      32.594  23.841  25.299  1.00  0.00     0.129 C 
ATOM     76  C   UNL A   1      34.970  23.733  25.683  1.00  0.00     0.157 C 
ATOM     77  C   UNL A   1      33.483  24.927  24.688  1.00  0.00     0.155 C 
ATOM     78  C   UNL A   1      35.321  23.697  24.224  1.00  0.00     0.004 C 
ATOM     79  O   UNL A   1      34.449  25.088  25.751  1.00  0.00    -0.365 OA
ATOM     80  C   UNL A   1      34.399  24.443  23.615  1.00  0.00     0.004 C 
BRANCH  75  81
ATOM     81  C   UNL A   1      31.563  24.290  26.361  1.00  0.00     0.231 C 
ATOM     82  O   UNL A   1      31.393  23.564  27.355  1.00  0.00    -0.274 OA
ATOM     83  N   UNL A   1      30.735  25.382  26.284  1.00  0.00    -0.326 N 
ATOM     84  H   UNL A   1      29.953  25.368  26.882  1.00  0.00     0.169 HD
BRANCH  83  85
ATOM     85  C   UNL A   1      30.854  26.511  25.471  1.00  0.00     0.041 A 
ATOM     86  C   UNL A   1      30.140  26.537  24.271  1.00  0.00     0.026 A 
ATOM     87  C   UNL A   1      31.549  27.641  25.910  1.00  0.00     0.039 A 
ATOM     88  C   UNL A   1      30.005  27.736  23.574  1.00  0.00     0.003 A 
ATOM     89  C   UNL A   1      31.348  28.870  25.257  1.00  0.00     0.058 A 
ATOM     90  C   UNL A   1      30.580  28.903  24.079  1.00  0.00     0.013 A 
BRANCH  89  91
ATOM     91  C   UNL A   1      31.780  30.166  25.902  1.00  0.00     0.416 C 
ATOM     92  F   UNL A   1      33.088  30.467  25.700  1.00  0.00    -0.166 F 
ATOM     93  F   UNL A   1      31.069  31.229  25.425  1.00  0.00    -0.166 F 
ATOM     94  F   UNL A   1      31.576  30.188  27.251  1.00  0.00    -0.166 F 
ENDBRANCH  89  91
ENDBRANCH  83  85
ENDBRANCH  75  81
ENDBRANCH  72  74
ENDBRANCH  71  72
ENDBRANCH   1  71
TORSDOF 14
ENDMDL
MODEL 2
REMARK VINA RESULT:     -12.8      4.492      9.876
REMARK SMILES O=C(OCCOC(=O)[C@@H]1[C@@H](C(=O)Nc2cccc(C(F)(F)F)c2)[C@@H]2C=C[C@H]1O2)c1ccc(-c2c3nc(c(-c4c(F)c(F)c(F)c(F)c4F)c4ccc([nH]4)c(-c4c(F)c(F)c(F)c(F)c4F)c4nc(c(-c5c(F)c(F)c(F)c(F)c5F)c5ccc2[nH]5)C=C4)C=C3)cc1
REMARK SMILES IDX 5 1 4 2 3 3 2 4 1 5 29 6 30 7 91 8 31 9 90 10 32 11 33 12
REMARK SMILES IDX 34 13 84 14 35 15 89 16 83 17 85 18 36 19 88 20 82 21 81 22
REMARK SMILES IDX 37 24 69 25 49 26 68 27 50 28 53 29 67 30 86 31 51 32 52 33
REMARK SMILES IDX 66 35 87 36 54 37 38 38 39 39 47 40 40 41 41 42 45 43 48 44
REMARK SMILES IDX 42 45 43 46 46 47 44 48 70 49 71 50 79 51 72 52 73 53 77 54
REMARK SMILES IDX 80 55 74 56 75 57 78 58 76 59 55 60 56 61 64 62 57 63 58 64
REMARK SMILES IDX 62 65 65 66 59 67 60 68 63 69 61 70 6 71 7 72 8 73 9 74
REMARK SMILES IDX 10 75 27 76 24 77 26 78 28 79 25 80 11 81 12 82 13 83 14 85
REMARK SMILES IDX 15 86 23 87 16 88 18 89 17 90 19 91 20 92 21 93 22 94
REMARK H PARENT 85 23 53 34 13 84
REMARK Flexibility Score: inf
ROOT
ATOM      1  C   UNL A   1      31.669  29.198  25.805  1.00  0.00     0.274 C 
ENDROOT
BRANCH   1   2
ATOM      2  C   UNL A   1      31.708  30.487  26.632  1.00  0.00     0.275 C 
BRANCH   2   3
ATOM      3  O   UNL A   1      32.890  31.274  26.472  1.00  0.00    -0.458 OA
BRANCH   3   4
ATOM      4  C   UNL A   1      33.572  31.984  27.395  1.00  0.00     0.338 C 
ATOM      5  O   UNL A   1      33.126  33.078  27.733  1.00  0.00    -0.246 OA
BRANCH   4   6
ATOM      6  C   UNL A   1      34.911  31.579  27.940  1.00  0.00     0.060 A 
ATOM      7  C   UNL A   1      36.041  32.373  28.154  1.00  0.00     0.016 A 
ATOM      8  C   UNL A   1      35.002  30.233  28.306  1.00  0.00     0.016 A 
ATOM      9  C   UNL A   1      37.180  31.866  28.809  1.00  0.00     0.010 A 
ATOM     10  C   UNL A   1      36.084  29.752  29.042  1.00  0.00     0.010 A 
ATOM     11  C   UNL A   1      37.200  30.560  29.296  1.00  0.00    -0.014 A 
BRANCH  11  12
ATOM     12  C   UNL A   1      38.373  29.974  30.002  1.00  0.00     0.031 A 
ATOM     13  C   UNL A   1      38.702  30.472  31.387  1.00  0.00     0.074 A 
ATOM     14  C   UNL A   1      39.217  29.119  29.387  1.00  0.00     0.049 A 
ATOM     15  N   UNL A   1      39.768  30.263  32.115  1.00  0.00    -0.248 NA
ATOM     16  C   UNL A   1      37.733  31.397  32.000  1.00  0.00     0.031 C 
ATOM     17  C   UNL A   1      39.080  28.601  28.027  1.00  0.00     0.029 A 
ATOM     18  N   UNL A   1      40.405  28.579  29.819  1.00  0.00    -0.354 N 
ATOM     19  C   UNL A   1      39.587  31.045  33.248  1.00  0.00     0.074 A 
ATOM     20  C   UNL A   1      38.431  31.875  33.013  1.00  0.00     0.031 C 
ATOM     21  C   UNL A   1      40.160  27.862  27.718  1.00  0.00     0.029 A 
ATOM     22  C   UNL A   1      41.058  27.834  28.864  1.00  0.00     0.049 A 
ATOM     23  H   UNL A   1      40.758  28.712  30.729  1.00  0.00     0.167 HD
ATOM     24  C   UNL A   1      40.234  30.988  34.435  1.00  0.00     0.037 A 
ATOM     25  C   UNL A   1      42.243  27.192  28.917  1.00  0.00     0.037 A 
ATOM     26  C   UNL A   1      41.314  30.085  34.701  1.00  0.00     0.049 A 
ATOM     27  C   UNL A   1      42.981  27.147  30.230  1.00  0.00     0.074 A 
ATOM     28  C   UNL A   1      41.955  29.826  35.897  1.00  0.00     0.029 A 
ATOM     29  N   UNL A   1      41.901  29.274  33.742  1.00  0.00    -0.354 N 
ATOM     30  N   UNL A   1      42.701  27.755  31.357  1.00  0.00    -0.248 NA
ATOM     31  C   UNL A   1      44.160  26.272  30.299  1.00  0.00     0.031 C 
ATOM     32  C   UNL A   1      42.951  28.874  35.654  1.00  0.00     0.029 A 
ATOM     33  C   UNL A   1      42.902  28.515  34.316  1.00  0.00     0.049 A 
ATOM     34  H   UNL A   1      41.643  29.244  32.792  1.00  0.00     0.167 HD
ATOM     35  C   UNL A   1      43.613  27.273  32.287  1.00  0.00     0.074 A 
ATOM     36  C   UNL A   1      44.470  26.341  31.586  1.00  0.00     0.031 C 
ATOM     37  C   UNL A   1      43.713  27.557  33.609  1.00  0.00     0.037 A 
BRANCH  24  38
ATOM     38  C   UNL A   1      39.697  31.851  35.541  1.00  0.00     0.064 A 
ATOM     39  C   UNL A   1      40.237  33.126  35.791  1.00  0.00     0.173 A 
ATOM     40  C   UNL A   1      38.673  31.400  36.382  1.00  0.00     0.173 A 
ATOM     41  F   UNL A   1      41.224  33.606  35.017  1.00  0.00    -0.203 F 
ATOM     42  C   UNL A   1      39.826  33.882  36.883  1.00  0.00     0.198 A 
ATOM     43  C   UNL A   1      38.231  32.181  37.450  1.00  0.00     0.198 A 
ATOM     44  F   UNL A   1      38.109  30.201  36.182  1.00  0.00    -0.203 F 
ATOM     45  F   UNL A   1      40.430  35.047  37.154  1.00  0.00    -0.200 F 
ATOM     46  C   UNL A   1      38.821  33.410  37.711  1.00  0.00     0.200 A 
ATOM     47  F   UNL A   1      37.245  31.735  38.240  1.00  0.00    -0.200 F 
ATOM     48  F   UNL A   1      38.429  34.134  38.768  1.00  0.00    -0.200 F 
ENDBRANCH  24  38
BRANCH  25  49
ATOM     49  C   UNL A   1      42.754  26.446  27.735  1.00  0.00     0.064 A 
ATOM     50  C   UNL A   1      42.389  25.108  27.522  1.00  0.00     0.173 A 
ATOM     51  C   UNL A   1      43.642  27.031  26.822  1.00  0.00     0.173 A 
ATOM     52  F   UNL A   1      41.551  24.502  28.376  1.00  0.00    -0.203 F 
ATOM     53  C   UNL A   1      42.927  24.371  26.471  1.00  0.00     0.198 A 
ATOM     54  C   UNL A   1      44.167  26.296  25.759  1.00  0.00     0.198 A 
ATOM     55  F   UNL A   1      44.008  28.314  26.966  1.00  0.00    -0.203 F 
ATOM     56  F   UNL A   1      42.603  23.078  26.328  1.00  0.00    -0.200 F 
ATOM     57  C   UNL A   1      43.818  24.964  25.591  1.00  0.00     0.200 A 
ATOM     58  F   UNL A   1      45.024  26.873  24.906  1.00  0.00    -0.200 F 
ATOM     59  F   UNL A   1      44.350  24.249  24.589  1.00  0.00    -0.200 F 
ENDBRANCH  25  49
BRANCH  37  60
ATOM     60  C   UNL A   1      44.720  26.789  34.412  1.00  0.00     0.064 A 
ATOM     61  C   UNL A   1      46.009  27.283  34.653  1.00  0.00     0.173 A 
ATOM     62  C   UNL A   1      44.357  25.572  35.012  1.00  0.00     0.173 A 
ATOM     63  F   UNL A   1      46.407  28.433  34.090  1.00  0.00    -0.203 F 
ATOM     64  C   UNL A   1      46.905  26.578  35.452  1.00  0.00     0.198 A 
ATOM     65  C   UNL A   1      45.242  24.888  35.837  1.00  0.00     0.198 A 
ATOM     66  F   UNL A   1      43.132  25.062  34.816  1.00  0.00    -0.203 F 
ATOM     67  F   UNL A   1      48.146  27.047  35.636  1.00  0.00    -0.200 F 
ATOM     68  C   UNL A   1      46.516  25.388  36.052  1.00  0.00     0.200 A 
ATOM     69  F   UNL A   1      44.859  23.749  36.431  1.00  0.00    -0.200 F 
ATOM     70  F   UNL A   1      47.374  24.722  36.837  1.00  0.00    -0.200 F 
ENDBRANCH  37  60
ENDBRANCH  11  12
ENDBRANCH   4   6
ENDBRANCH   3   4
ENDBRANCH   2   3
ENDBRANCH   1   2
BRANCH   1  71
ATOM     71  O   UNL A   1      31.268  27.998  26.508  1.00  0.00    -0.462 OA
BRANCH  71  72
ATOM     72  C   UNL A   1      32.119  26.945  26.347  1.00  0.00     0.312 C 
ATOM     73  O   UNL A   1      33.338  27.055  26.372  1.00  0.00    -0.252 OA
BRANCH  72  74
ATOM     74  C   UNL A   1      31.455  25.631  25.986  1.00  0.00     0.147 C 
ATOM     75  C   UNL A   1      32.278  24.307  25.792  1.00  0.00     0.129 C 
ATOM     76  C   UNL A   1      30.808  25.798  24.597  1.00  0.00     0.157 C 
ATOM     77  C   UNL A   1      31.989  24.021  24.316  1.00  0.00     0.155 C 
ATOM     78  C   UNL A   1      31.822  26.139  23.544  1.00  0.00     0.004 C 
ATOM     79  O   UNL A   1      30.596  24.401  24.255  1.00  0.00    -0.365 OA
ATOM     80  C   UNL A   1      32.546  25.032  23.371  1.00  0.00     0.004 C 
BRANCH  75  81
ATOM     81  C   UNL A   1      31.798  23.256  26.820  1.00  0.00     0.231 C 
ATOM     82  O   UNL A   1      30.717  23.455  27.399  1.00  0.00    -0.274 OA
ATOM     83  N   UNL A   1      32.490  22.146  27.235  1.00  0.00    -0.326 N 
ATOM     84  H   UNL A   1      32.189  21.749  28.085  1.00  0.00     0.169 HD
BRANCH  83  85
ATOM     85  C   UNL A   1      33.563  21.504  26.613  1.00  0.00     0.041 A 
ATOM     86  C   UNL A   1      33.288  20.412  25.788  1.00  0.00     0.026 A 
ATOM     87  C   UNL A   1      34.856  22.027  26.696  1.00  0.00     0.039 A 
ATOM     88  C   UNL A   1      34.278  19.924  24.937  1.00  0.00     0.003 A 
ATOM     89  C   UNL A   1      35.833  21.594  25.782  1.00  0.00     0.058 A 
ATOM     90  C   UNL A   1      35.535  20.530  24.912  1.00  0.00     0.013 A 
BRANCH  89  91
ATOM     91  C   UNL A   1      37.114  22.373  25.595  1.00  0.00     0.416 C 
ATOM     92  F   UNL A   1      37.168  23.517  26.324  1.00  0.00    -0.166 F 
ATOM     93  F   UNL A   1      38.208  21.641  25.957  1.00  0.00    -0.166 F 
ATOM     94  F   UNL A   1      37.344  22.724  24.298  1.00  0.00    -0.166 F 
ENDBRANCH  89  91
ENDBRANCH  83  85
ENDBRANCH  75  81
ENDBRANCH  72  74
ENDBRANCH  71  72
ENDBRANCH   1  71
TORSDOF 14
ENDMDL
MODEL 3
REMARK VINA RESULT:     -12.8      4.615     10.021
REMARK SMILES O=C(OCCOC(=O)[C@@H]1[C@@H](C(=O)Nc2cccc(C(F)(F)F)c2)[C@@H]2C=C[C@H]1O2)c1ccc(-c2c3nc(c(-c4c(F)c(F)c(F)c(F)c4F)c4ccc([nH]4)c(-c4c(F)c(F)c(F)c(F)c4F)c4nc(c(-c5c(F)c(F)c(F)c(F)c5F)c5ccc2[nH]5)C=C4)C=C3)cc1
REMARK SMILES IDX 5 1 4 2 3 3 2 4 1 5 29 6 30 7 91 8 31 9 90 10 32 11 33 12
REMARK SMILES IDX 34 13 84 14 35 15 89 16 83 17 85 18 36 19 88 20 82 21 81 22
REMARK SMILES IDX 37 24 69 25 49 26 68 27 50 28 53 29 67 30 86 31 51 32 52 33
REMARK SMILES IDX 66 35 87 36 54 37 38 38 39 39 47 40 40 41 41 42 45 43 48 44
REMARK SMILES IDX 42 45 43 46 46 47 44 48 70 49 71 50 79 51 72 52 73 53 77 54
REMARK SMILES IDX 80 55 74 56 75 57 78 58 76 59 55 60 56 61 64 62 57 63 58 64
REMARK SMILES IDX 62 65 65 66 59 67 60 68 63 69 61 70 6 71 7 72 8 73 9 74
REMARK SMILES IDX 10 75 27 76 24 77 26 78 28 79 25 80 11 81 12 82 13 83 14 85
REMARK SMILES IDX 15 86 23 87 16 88 18 89 17 90 19 91 20 92 21 93 22 94
REMARK H PARENT 85 23 53 34 13 84
REMARK Flexibility Score: inf
ROOT
ATOM      1  C   UNL A   1      31.965  30.847  26.540  1.00  0.00     0.274 C 
ENDROOT
BRANCH   1   2
ATOM      2  C   UNL A   1      31.482  32.261  26.877  1.00  0.00     0.275 C 
BRANCH   2   3
ATOM      3  O   UNL A   1      32.505  33.259  26.907  1.00  0.00    -0.458 OA
BRANCH   3   4
ATOM      4  C   UNL A   1      33.240  33.692  27.953  1.00  0.00     0.338 C 
ATOM      5  O   UNL A   1      32.888  34.720  28.526  1.00  0.00    -0.246 OA
BRANCH   4   6
ATOM      6  C   UNL A   1      34.537  33.067  28.379  1.00  0.00     0.060 A 
ATOM      7  C   UNL A   1      35.839  33.526  28.165  1.00  0.00     0.016 A 
ATOM      8  C   UNL A   1      34.394  31.887  29.116  1.00  0.00     0.016 A 
ATOM      9  C   UNL A   1      36.948  32.892  28.756  1.00  0.00     0.010 A 
ATOM     10  C   UNL A   1      35.474  31.313  29.784  1.00  0.00     0.010 A 
ATOM     11  C   UNL A   1      36.775  31.800  29.606  1.00  0.00    -0.014 A 
BRANCH  11  12
ATOM     12  C   UNL A   1      37.910  31.095  30.264  1.00  0.00     0.031 A 
ATOM     13  C   UNL A   1      38.321  31.530  31.648  1.00  0.00     0.074 A 
ATOM     14  C   UNL A   1      38.657  30.183  29.606  1.00  0.00     0.049 A 
ATOM     15  N   UNL A   1      39.384  31.209  32.340  1.00  0.00    -0.248 NA
ATOM     16  C   UNL A   1      37.456  32.522  32.309  1.00  0.00     0.031 C 
ATOM     17  C   UNL A   1      38.436  29.712  28.240  1.00  0.00     0.029 A 
ATOM     18  N   UNL A   1      39.803  29.529  29.992  1.00  0.00    -0.354 N 
ATOM     19  C   UNL A   1      39.305  31.977  33.494  1.00  0.00     0.074 A 
ATOM     20  C   UNL A   1      38.222  32.912  33.312  1.00  0.00     0.031 C 
ATOM     21  C   UNL A   1      39.436  28.888  27.884  1.00  0.00     0.029 A 
ATOM     22  C   UNL A   1      40.360  28.753  29.002  1.00  0.00     0.049 A 
ATOM     23  H   UNL A   1      40.191  29.609  30.893  1.00  0.00     0.167 HD
ATOM     24  C   UNL A   1      39.976  31.834  34.660  1.00  0.00     0.037 A 
ATOM     25  C   UNL A   1      41.483  28.007  29.006  1.00  0.00     0.037 A 
ATOM     26  C   UNL A   1      40.978  30.833  34.875  1.00  0.00     0.049 A 
ATOM     27  C   UNL A   1      42.251  27.865  30.295  1.00  0.00     0.074 A 
ATOM     28  C   UNL A   1      41.626  30.489  36.046  1.00  0.00     0.029 A 
ATOM     29  N   UNL A   1      41.463  29.995  33.882  1.00  0.00    -0.354 N 
ATOM     30  N   UNL A   1      42.057  28.468  31.443  1.00  0.00    -0.248 NA
ATOM     31  C   UNL A   1      43.348  26.887  30.311  1.00  0.00     0.031 C 
ATOM     32  C   UNL A   1      42.525  29.458  35.753  1.00  0.00     0.029 A 
ATOM     33  C   UNL A   1      42.408  29.136  34.410  1.00  0.00     0.049 A 
ATOM     34  H   UNL A   1      41.177  30.011  32.939  1.00  0.00     0.167 HD
ATOM     35  C   UNL A   1      42.948  27.885  32.335  1.00  0.00     0.074 A 
ATOM     36  C   UNL A   1      43.698  26.897  31.589  1.00  0.00     0.031 C 
ATOM     37  C   UNL A   1      43.110  28.127  33.659  1.00  0.00     0.037 A 
BRANCH  24  38
ATOM     38  C   UNL A   1      39.550  32.715  35.800  1.00  0.00     0.064 A 
ATOM     39  C   UNL A   1      40.212  33.929  36.063  1.00  0.00     0.173 A 
ATOM     40  C   UNL A   1      38.510  32.340  36.659  1.00  0.00     0.173 A 
ATOM     41  F   UNL A   1      41.219  34.335  35.273  1.00  0.00    -0.203 F 
ATOM     42  C   UNL A   1      39.900  34.692  37.183  1.00  0.00     0.198 A 
ATOM     43  C   UNL A   1      38.170  33.131  37.756  1.00  0.00     0.198 A 
ATOM     44  F   UNL A   1      37.833  31.202  36.447  1.00  0.00    -0.203 F 
ATOM     45  F   UNL A   1      40.616  35.790  37.463  1.00  0.00    -0.200 F 
ATOM     46  C   UNL A   1      38.877  34.294  38.027  1.00  0.00     0.200 A 
ATOM     47  F   UNL A   1      37.167  32.758  38.562  1.00  0.00    -0.200 F 
ATOM     48  F   UNL A   1      38.581  35.024  39.111  1.00  0.00    -0.200 F 
ENDBRANCH  24  38
BRANCH  25  49
ATOM     49  C   UNL A   1      41.892  27.246  27.794  1.00  0.00     0.064 A 
ATOM     50  C   UNL A   1      41.389  25.959  27.554  1.00  0.00     0.173 A 
ATOM     51  C   UNL A   1      42.818  27.763  26.877  1.00  0.00     0.173 A 
ATOM     52  F   UNL A   1      40.510  25.417  28.410  1.00  0.00    -0.203 F 
ATOM     53  C   UNL A   1      41.828  25.201  26.472  1.00  0.00     0.198 A 
ATOM     54  C   UNL A   1      43.244  27.009  25.784  1.00  0.00     0.198 A 
ATOM     55  F   UNL A   1      43.316  28.998  27.046  1.00  0.00    -0.203 F 
ATOM     56  F   UNL A   1      41.371  23.952  26.302  1.00  0.00    -0.200 F 
ATOM     57  C   UNL A   1      42.758  25.725  25.588  1.00  0.00     0.200 A 
ATOM     58  F   UNL A   1      44.139  27.521  24.927  1.00  0.00    -0.200 F 
ATOM     59  F   UNL A   1      43.194  24.988  24.557  1.00  0.00    -0.200 F 
ENDBRANCH  25  49
BRANCH  37  60
ATOM     60  C   UNL A   1      44.065  27.254  34.416  1.00  0.00     0.064 A 
ATOM     61  C   UNL A   1      45.390  27.641  34.660  1.00  0.00     0.173 A 
ATOM     62  C   UNL A   1      43.620  26.042  34.968  1.00  0.00     0.173 A 
ATOM     63  F   UNL A   1      45.865  28.783  34.141  1.00  0.00    -0.203 F 
ATOM     64  C   UNL A   1      46.239  26.839  35.416  1.00  0.00     0.198 A 
ATOM     65  C   UNL A   1      44.460  25.260  35.751  1.00  0.00     0.198 A 
ATOM     66  F   UNL A   1      42.358  25.631  34.767  1.00  0.00    -0.203 F 
ATOM     67  F   UNL A   1      47.513  27.208  35.603  1.00  0.00    -0.200 F 
ATOM     68  C   UNL A   1      45.770  25.656  35.971  1.00  0.00     0.200 A 
ATOM     69  F   UNL A   1      44.000  24.127  36.301  1.00  0.00    -0.200 F 
ATOM     70  F   UNL A   1      46.584  24.896  36.715  1.00  0.00    -0.200 F 
ENDBRANCH  37  60
ENDBRANCH  11  12
ENDBRANCH   4   6
ENDBRANCH   3   4
ENDBRANCH   2   3
ENDBRANCH   1   2
BRANCH   1  71
ATOM     71  O   UNL A   1      31.548  30.316  25.260  1.00  0.00    -0.462 OA
BRANCH  71  72
ATOM     72  C   UNL A   1      32.093  29.104  24.953  1.00  0.00     0.312 C 
ATOM     73  O   UNL A   1      33.257  28.961  24.602  1.00  0.00    -0.252 OA
BRANCH  72  74
ATOM     74  C   UNL A   1      31.117  27.945  24.935  1.00  0.00     0.147 C 
ATOM     75  C   UNL A   1      31.591  26.459  24.754  1.00  0.00     0.129 C 
ATOM     76  C   UNL A   1      30.197  28.125  23.711  1.00  0.00     0.157 C 
ATOM     77  C   UNL A   1      30.902  26.112  23.433  1.00  0.00     0.155 C 
ATOM     78  C   UNL A   1      30.971  28.134  22.424  1.00  0.00     0.004 C 
ATOM     79  O   UNL A   1      29.638  26.787  23.624  1.00  0.00    -0.365 OA
ATOM     80  C   UNL A   1      31.399  26.881  22.256  1.00  0.00     0.004 C 
BRANCH  75  81
ATOM     81  C   UNL A   1      31.180  25.640  26.000  1.00  0.00     0.231 C 
ATOM     82  O   UNL A   1      30.382  26.155  26.801  1.00  0.00    -0.274 OA
ATOM     83  N   UNL A   1      31.674  24.415  26.371  1.00  0.00    -0.326 N 
ATOM     84  H   UNL A   1      31.536  24.167  27.314  1.00  0.00     0.169 HD
BRANCH  83  85
ATOM     85  C   UNL A   1      32.347  23.473  25.590  1.00  0.00     0.041 A 
ATOM     86  C   UNL A   1      31.594  22.673  24.728  1.00  0.00     0.026 A 
ATOM     87  C   UNL A   1      33.743  23.433  25.561  1.00  0.00     0.039 A 
ATOM     88  C   UNL A   1      32.235  21.930  23.740  1.00  0.00     0.003 A 
ATOM     89  C   UNL A   1      34.391  22.751  24.514  1.00  0.00     0.058 A 
ATOM     90  C   UNL A   1      33.624  21.990  23.613  1.00  0.00     0.013 A 
BRANCH  89  91
ATOM     91  C   UNL A   1      35.858  22.978  24.237  1.00  0.00     0.416 C 
ATOM     92  F   UNL A   1      36.612  21.854  24.329  1.00  0.00    -0.166 F 
ATOM     93  F   UNL A   1      36.065  23.471  22.981  1.00  0.00    -0.166 F 
ATOM     94  F   UNL A   1      36.424  23.899  25.069  1.00  0.00    -0.166 F 
ENDBRANCH  89  91
ENDBRANCH  83  85
ENDBRANCH  75  81
ENDBRANCH  72  74
ENDBRANCH  71  72
ENDBRANCH   1  71
TORSDOF 14
ENDMDL
