MODEL 1
REMARK VINA RESULT:     -13.5      0.000      0.000
REMARK SMILES CC1(C)Cc2c(-c3ccccc3)c(-c3ccc(Cl)cc3)c(CC(=O)OCCOC(=O)c3ccc(-c4c5nc(c(-c6c(F)c(F)c(F)c(F)c6F)c6ccc([nH]6)c(-c6c(F)c(F)c(F)c(F)c6F)c6nc(c(-c7c(F)c(F)c(F)c(F)c7F)c7ccc4[nH]7)C=C6)C=C5)cc3)n2C1
REMARK SMILES IDX 26 1 25 2 23 3 24 4 22 5 21 6 1 7 2 8 3 9 4 10 95 11 5 12
REMARK SMILES IDX 94 13 6 14 13 15 7 16 8 17 12 18 9 19 11 20 10 21 14 22
REMARK SMILES IDX 15 23 20 24 16 25 19 26 17 27 18 28 27 29 28 30 29 31 30 32
REMARK SMILES IDX 31 33 32 34 93 35 33 36 92 37 34 38 35 39 36 40 86 41 37 42
REMARK SMILES IDX 91 43 85 44 87 45 38 46 90 47 84 48 83 49 39 51 71 52 51 53
REMARK SMILES IDX 70 54 52 55 55 56 69 57 88 58 53 59 54 60 68 62 89 63 56 64
REMARK SMILES IDX 40 65 41 66 49 67 42 68 43 69 47 70 50 71 44 72 45 73 48 74
REMARK SMILES IDX 46 75 72 76 73 77 81 78 74 79 75 80 79 81 82 82 76 83 77 84
REMARK SMILES IDX 80 85 78 86 57 87 58 88 66 89 59 90 60 91 64 92 67 93 61 94
REMARK SMILES IDX 62 95 65 96 63 97
REMARK H PARENT 87 50 55 61
REMARK Flexibility Score: inf
ROOT
ATOM      1  C   UNL A   1      35.622  22.551  25.544  1.00  0.00     0.274 C 
ENDROOT
BRANCH   1   2
ATOM      2  O   UNL A   1      35.082  22.969  26.808  1.00  0.00    -0.462 OA
BRANCH   2   3
ATOM      3  C   UNL A   1      33.928  22.388  27.208  1.00  0.00     0.311 C 
ATOM      4  O   UNL A   1      33.848  21.211  27.551  1.00  0.00    -0.252 OA
BRANCH   3   5
ATOM      5  C   UNL A   1      32.748  23.341  27.322  1.00  0.00     0.177 C 
BRANCH   5   6
ATOM      6  C   UNL A   1      32.281  24.118  26.110  1.00  0.00     0.037 A 
ATOM      7  C   UNL A   1      31.834  21.259  22.062  1.00  0.00     0.013 C 
ATOM      8  C   UNL A   1      32.374  22.448  22.852  1.00  0.00    -0.012 C 
ATOM      9  C   UNL A   1      33.807  22.782  22.397  1.00  0.00     0.013 C 
ATOM     10  C   UNL A   1      31.445  23.689  22.659  1.00  0.00     0.063 C 
ATOM     11  C   UNL A   1      32.361  22.177  24.382  1.00  0.00     0.129 C 
ATOM     12  C   UNL A   1      31.530  24.334  23.979  1.00  0.00     0.027 A 
ATOM     13  N   UNL A   1      32.035  23.490  24.925  1.00  0.00    -0.346 N 
ATOM     14  C   UNL A   1      31.360  25.563  24.536  1.00  0.00     0.011 A 
ATOM     15  C   UNL A   1      31.879  25.445  25.882  1.00  0.00     0.011 A 
BRANCH  14  16
ATOM     16  C   UNL A   1      30.946  26.758  23.811  1.00  0.00    -0.016 A 
ATOM     17  C   UNL A   1      29.602  27.133  23.794  1.00  0.00     0.009 A 
ATOM     18  C   UNL A   1      31.902  27.625  23.262  1.00  0.00     0.009 A 
ATOM     19  C   UNL A   1      29.229  28.378  23.277  1.00  0.00     0.001 A 
ATOM     20  C   UNL A   1      31.536  28.884  22.786  1.00  0.00     0.001 A 
ATOM     21  C   UNL A   1      30.197  29.261  22.795  1.00  0.00     0.000 A 
ENDBRANCH  14  16
BRANCH  15  22
ATOM     22  C   UNL A   1      32.286  26.626  26.620  1.00  0.00    -0.016 A 
ATOM     23  C   UNL A   1      31.346  27.539  27.117  1.00  0.00     0.010 A 
ATOM     24  C   UNL A   1      33.570  27.078  26.322  1.00  0.00     0.010 A 
ATOM     25  C   UNL A   1      31.697  28.898  27.233  1.00  0.00     0.021 A 
ATOM     26  C   UNL A   1      33.939  28.392  26.511  1.00  0.00     0.021 A 
ATOM     27  C   UNL A   1      32.999  29.309  26.918  1.00  0.00     0.041 A 
ATOM     28  Cl  UNL A   1      33.567  30.926  26.842  1.00  0.00    -0.084 Cl
ENDBRANCH  15  22
ENDBRANCH   5   6
ENDBRANCH   3   5
ENDBRANCH   2   3
ENDBRANCH   1   2
BRANCH   1  29
ATOM     29  C   UNL A   1      36.854  21.673  25.755  1.00  0.00     0.275 C 
BRANCH  29  30
ATOM     30  O   UNL A   1      38.162  22.174  25.390  1.00  0.00    -0.458 OA
BRANCH  30  31
ATOM     31  C   UNL A   1      39.258  21.940  26.144  1.00  0.00     0.338 C 
ATOM     32  O   UNL A   1      39.852  20.876  26.251  1.00  0.00    -0.246 OA
BRANCH  31  33
ATOM     33  C   UNL A   1      39.629  23.163  26.904  1.00  0.00     0.060 A 
ATOM     34  C   UNL A   1      38.880  24.336  26.743  1.00  0.00     0.016 A 
ATOM     35  C   UNL A   1      40.798  23.194  27.674  1.00  0.00     0.016 A 
ATOM     36  C   UNL A   1      39.379  25.550  27.229  1.00  0.00     0.010 A 
ATOM     37  C   UNL A   1      41.308  24.406  28.129  1.00  0.00     0.010 A 
ATOM     38  C   UNL A   1      40.640  25.603  27.852  1.00  0.00    -0.014 A 
BRANCH  38  39
ATOM     39  C   UNL A   1      41.049  26.819  28.585  1.00  0.00     0.031 A 
ATOM     40  C   UNL A   1      42.320  27.304  28.005  1.00  0.00     0.074 A 
ATOM     41  C   UNL A   1      40.348  27.511  29.517  1.00  0.00     0.049 A 
ATOM     42  N   UNL A   1      43.462  27.326  28.611  1.00  0.00    -0.248 NA
ATOM     43  C   UNL A   1      42.417  27.498  26.547  1.00  0.00     0.031 C 
ATOM     44  C   UNL A   1      39.127  27.105  30.178  1.00  0.00     0.029 A 
ATOM     45  N   UNL A   1      40.505  28.789  30.014  1.00  0.00    -0.354 N 
ATOM     46  C   UNL A   1      44.343  27.835  27.668  1.00  0.00     0.074 A 
ATOM     47  C   UNL A   1      43.736  27.611  26.389  1.00  0.00     0.031 C 
ATOM     48  C   UNL A   1      38.444  28.157  30.670  1.00  0.00     0.029 A 
ATOM     49  C   UNL A   1      39.306  29.309  30.566  1.00  0.00     0.049 A 
ATOM     50  H   UNL A   1      41.355  29.285  29.989  1.00  0.00     0.167 HD
ATOM     51  C   UNL A   1      45.208  28.811  28.054  1.00  0.00     0.037 A 
ATOM     52  C   UNL A   1      39.056  30.574  31.003  1.00  0.00     0.037 A 
ATOM     53  C   UNL A   1      45.381  28.773  29.491  1.00  0.00     0.049 A 
ATOM     54  C   UNL A   1      40.372  31.165  31.303  1.00  0.00     0.074 A 
ATOM     55  C   UNL A   1      45.874  27.873  30.414  1.00  0.00     0.029 A 
ATOM     56  N   UNL A   1      44.545  29.622  30.166  1.00  0.00    -0.354 N 
ATOM     57  N   UNL A   1      41.098  30.796  32.320  1.00  0.00    -0.248 NA
ATOM     58  C   UNL A   1      41.078  31.839  30.227  1.00  0.00     0.031 C 
ATOM     59  C   UNL A   1      45.156  28.111  31.625  1.00  0.00     0.029 A 
ATOM     60  C   UNL A   1      44.308  29.201  31.441  1.00  0.00     0.049 A 
ATOM     61  H   UNL A   1      44.160  30.439  29.776  1.00  0.00     0.167 HD
ATOM     62  C   UNL A   1      42.378  30.736  31.801  1.00  0.00     0.074 A 
ATOM     63  C   UNL A   1      42.329  31.539  30.578  1.00  0.00     0.031 C 
ATOM     64  C   UNL A   1      43.234  29.762  32.230  1.00  0.00     0.037 A 
BRANCH  51  65
ATOM     65  C   UNL A   1      45.378  30.111  27.273  1.00  0.00     0.064 A 
ATOM     66  C   UNL A   1      46.688  30.575  27.038  1.00  0.00     0.173 A 
ATOM     67  C   UNL A   1      44.359  31.065  27.024  1.00  0.00     0.173 A 
ATOM     68  F   UNL A   1      47.741  29.778  27.266  1.00  0.00    -0.203 F 
ATOM     69  C   UNL A   1      46.952  31.897  26.661  1.00  0.00     0.198 A 
ATOM     70  C   UNL A   1      44.624  32.366  26.604  1.00  0.00     0.198 A 
ATOM     71  F   UNL A   1      43.066  30.840  27.265  1.00  0.00    -0.203 F 
ATOM     72  F   UNL A   1      48.219  32.320  26.566  1.00  0.00    -0.200 F 
ATOM     73  C   UNL A   1      45.920  32.792  26.449  1.00  0.00     0.200 A 
ATOM     74  F   UNL A   1      43.603  33.221  26.437  1.00  0.00    -0.200 F 
ATOM     75  F   UNL A   1      46.171  34.071  26.144  1.00  0.00    -0.200 F 
ENDBRANCH  51  65
BRANCH  52  76
ATOM     76  C   UNL A   1      37.811  31.390  30.994  1.00  0.00     0.064 A 
ATOM     77  C   UNL A   1      37.066  31.597  32.173  1.00  0.00     0.173 A 
ATOM     78  C   UNL A   1      37.511  32.246  29.918  1.00  0.00     0.173 A 
ATOM     79  F   UNL A   1      37.293  30.842  33.259  1.00  0.00    -0.203 F 
ATOM     80  C   UNL A   1      36.137  32.638  32.289  1.00  0.00     0.198 A 
ATOM     81  C   UNL A   1      36.580  33.283  30.035  1.00  0.00     0.198 A 
ATOM     82  F   UNL A   1      38.189  32.158  28.766  1.00  0.00    -0.203 F 
ATOM     83  F   UNL A   1      35.514  32.853  33.457  1.00  0.00    -0.200 F 
ATOM     84  C   UNL A   1      35.911  33.494  31.227  1.00  0.00     0.200 A 
ATOM     85  F   UNL A   1      36.392  34.126  29.009  1.00  0.00    -0.200 F 
ATOM     86  F   UNL A   1      35.086  34.542  31.363  1.00  0.00    -0.200 F 
ENDBRANCH  52  76
BRANCH  64  87
ATOM     87  C   UNL A   1      42.965  29.152  33.576  1.00  0.00     0.064 A 
ATOM     88  C   UNL A   1      43.346  29.704  34.811  1.00  0.00     0.173 A 
ATOM     89  C   UNL A   1      42.216  27.967  33.600  1.00  0.00     0.173 A 
ATOM     90  F   UNL A   1      43.983  30.882  34.876  1.00  0.00    -0.203 F 
ATOM     91  C   UNL A   1      43.032  29.061  36.010  1.00  0.00     0.198 A 
ATOM     92  C   UNL A   1      41.869  27.352  34.797  1.00  0.00     0.198 A 
ATOM     93  F   UNL A   1      41.788  27.421  32.451  1.00  0.00    -0.203 F 
ATOM     94  F   UNL A   1      43.427  29.587  37.179  1.00  0.00    -0.200 F 
ATOM     95  C   UNL A   1      42.292  27.889  36.001  1.00  0.00     0.200 A 
ATOM     96  F   UNL A   1      41.112  26.247  34.780  1.00  0.00    -0.200 F 
ATOM     97  F   UNL A   1      41.966  27.286  37.153  1.00  0.00    -0.200 F 
ENDBRANCH  64  87
ENDBRANCH  38  39
ENDBRANCH  31  33
ENDBRANCH  30  31
ENDBRANCH  29  30
ENDBRANCH   1  29
TORSDOF 14
ENDMDL
MODEL 2
REMARK VINA RESULT:     -13.1      2.501      3.955
REMARK SMILES CC1(C)Cc2c(-c3ccccc3)c(-c3ccc(Cl)cc3)c(CC(=O)OCCOC(=O)c3ccc(-c4c5nc(c(-c6c(F)c(F)c(F)c(F)c6F)c6ccc([nH]6)c(-c6c(F)c(F)c(F)c(F)c6F)c6nc(c(-c7c(F)c(F)c(F)c(F)c7F)c7ccc4[nH]7)C=C6)C=C5)cc3)n2C1
REMARK SMILES IDX 26 1 25 2 23 3 24 4 22 5 21 6 1 7 2 8 3 9 4 10 95 11 5 12
REMARK SMILES IDX 94 13 6 14 13 15 7 16 8 17 12 18 9 19 11 20 10 21 14 22
REMARK SMILES IDX 15 23 20 24 16 25 19 26 17 27 18 28 27 29 28 30 29 31 30 32
REMARK SMILES IDX 31 33 32 34 93 35 33 36 92 37 34 38 35 39 36 40 86 41 37 42
REMARK SMILES IDX 91 43 85 44 87 45 38 46 90 47 84 48 83 49 39 51 71 52 51 53
REMARK SMILES IDX 70 54 52 55 55 56 69 57 88 58 53 59 54 60 68 62 89 63 56 64
REMARK SMILES IDX 40 65 41 66 49 67 42 68 43 69 47 70 50 71 44 72 45 73 48 74
REMARK SMILES IDX 46 75 72 76 73 77 81 78 74 79 75 80 79 81 82 82 76 83 77 84
REMARK SMILES IDX 80 85 78 86 57 87 58 88 66 89 59 90 60 91 64 92 67 93 61 94
REMARK SMILES IDX 62 95 65 96 63 97
REMARK H PARENT 87 50 55 61
REMARK Flexibility Score: inf
ROOT
ATOM      1  C   UNL A   1      36.998  24.253  26.114  1.00  0.00     0.274 C 
ENDROOT
BRANCH   1   2
ATOM      2  O   UNL A   1      36.098  23.358  25.441  1.00  0.00    -0.462 OA
BRANCH   2   3
ATOM      3  C   UNL A   1      35.247  22.643  26.214  1.00  0.00     0.311 C 
ATOM      4  O   UNL A   1      35.434  21.465  26.511  1.00  0.00    -0.252 OA
BRANCH   3   5
ATOM      5  C   UNL A   1      34.096  23.447  26.796  1.00  0.00     0.177 C 
BRANCH   5   6
ATOM      6  C   UNL A   1      33.069  24.075  25.878  1.00  0.00     0.037 A 
ATOM      7  C   UNL A   1      31.891  21.142  22.035  1.00  0.00     0.013 C 
ATOM      8  C   UNL A   1      32.389  22.435  22.674  1.00  0.00    -0.012 C 
ATOM      9  C   UNL A   1      33.455  23.095  21.780  1.00  0.00     0.013 C 
ATOM     10  C   UNL A   1      31.195  23.416  22.903  1.00  0.00     0.063 C 
ATOM     11  C   UNL A   1      32.976  22.188  24.092  1.00  0.00     0.129 C 
ATOM     12  C   UNL A   1      31.590  24.079  24.157  1.00  0.00     0.027 A 
ATOM     13  N   UNL A   1      32.572  23.392  24.807  1.00  0.00    -0.346 N 
ATOM     14  C   UNL A   1      31.350  25.239  24.826  1.00  0.00     0.011 A 
ATOM     15  C   UNL A   1      32.322  25.266  25.898  1.00  0.00     0.011 A 
BRANCH  14  16
ATOM     16  C   UNL A   1      30.448  26.292  24.375  1.00  0.00    -0.016 A 
ATOM     17  C   UNL A   1      30.954  27.398  23.689  1.00  0.00     0.009 A 
ATOM     18  C   UNL A   1      29.059  26.132  24.478  1.00  0.00     0.009 A 
ATOM     19  C   UNL A   1      30.080  28.303  23.080  1.00  0.00     0.001 A 
ATOM     20  C   UNL A   1      28.187  27.011  23.835  1.00  0.00     0.001 A 
ATOM     21  C   UNL A   1      28.700  28.097  23.133  1.00  0.00     0.000 A 
ENDBRANCH  14  16
BRANCH  15  22
ATOM     22  C   UNL A   1      32.682  26.518  26.535  1.00  0.00    -0.016 A 
ATOM     23  C   UNL A   1      31.748  27.263  27.267  1.00  0.00     0.010 A 
ATOM     24  C   UNL A   1      33.750  27.183  25.936  1.00  0.00     0.010 A 
ATOM     25  C   UNL A   1      31.868  28.665  27.319  1.00  0.00     0.021 A 
ATOM     26  C   UNL A   1      33.914  28.546  26.052  1.00  0.00     0.021 A 
ATOM     27  C   UNL A   1      32.957  29.292  26.698  1.00  0.00     0.041 A 
ATOM     28  Cl  UNL A   1      33.190  30.982  26.514  1.00  0.00    -0.084 Cl
ENDBRANCH  15  22
ENDBRANCH   5   6
ENDBRANCH   3   5
ENDBRANCH   2   3
ENDBRANCH   1   2
BRANCH   1  29
ATOM     29  C   UNL A   1      38.322  23.552  26.414  1.00  0.00     0.275 C 
BRANCH  29  30
ATOM     30  O   UNL A   1      39.093  23.944  27.574  1.00  0.00    -0.458 OA
BRANCH  30  31
ATOM     31  C   UNL A   1      40.315  24.509  27.468  1.00  0.00     0.338 C 
ATOM     32  O   UNL A   1      41.323  23.981  27.018  1.00  0.00    -0.246 OA
BRANCH  31  33
ATOM     33  C   UNL A   1      40.299  25.880  28.046  1.00  0.00     0.060 A 
ATOM     34  C   UNL A   1      41.211  26.220  29.054  1.00  0.00     0.016 A 
ATOM     35  C   UNL A   1      39.297  26.789  27.691  1.00  0.00     0.016 A 
ATOM     36  C   UNL A   1      41.025  27.395  29.790  1.00  0.00     0.010 A 
ATOM     37  C   UNL A   1      39.094  27.942  28.443  1.00  0.00     0.010 A 
ATOM     38  C   UNL A   1      39.913  28.222  29.542  1.00  0.00    -0.014 A 
BRANCH  38  39
ATOM     39  C   UNL A   1      39.854  29.575  30.132  1.00  0.00     0.031 A 
ATOM     40  C   UNL A   1      41.185  30.202  29.987  1.00  0.00     0.074 A 
ATOM     41  C   UNL A   1      38.765  30.244  30.585  1.00  0.00     0.049 A 
ATOM     42  N   UNL A   1      41.981  30.506  30.960  1.00  0.00    -0.248 NA
ATOM     43  C   UNL A   1      41.831  30.220  28.663  1.00  0.00     0.031 C 
ATOM     44  C   UNL A   1      37.437  29.714  30.807  1.00  0.00     0.029 A 
ATOM     45  N   UNL A   1      38.563  31.583  30.854  1.00  0.00    -0.354 N 
ATOM     46  C   UNL A   1      43.100  31.039  30.336  1.00  0.00     0.074 A 
ATOM     47  C   UNL A   1      43.082  30.546  28.990  1.00  0.00     0.031 C 
ATOM     48  C   UNL A   1      36.499  30.681  30.801  1.00  0.00     0.029 A 
ATOM     49  C   UNL A   1      37.192  31.946  30.810  1.00  0.00     0.049 A 
ATOM     50  H   UNL A   1      39.290  32.216  31.055  1.00  0.00     0.167 HD
ATOM     51  C   UNL A   1      43.621  32.196  30.825  1.00  0.00     0.037 A 
ATOM     52  C   UNL A   1      36.646  33.191  30.875  1.00  0.00     0.037 A 
ATOM     53  C   UNL A   1      43.212  32.375  32.202  1.00  0.00     0.049 A 
ATOM     54  C   UNL A   1      37.656  34.043  31.527  1.00  0.00     0.074 A 
ATOM     55  C   UNL A   1      43.396  31.705  33.394  1.00  0.00     0.029 A 
ATOM     56  N   UNL A   1      42.085  33.140  32.343  1.00  0.00    -0.354 N 
ATOM     57  N   UNL A   1      37.956  33.944  32.791  1.00  0.00    -0.248 NA
ATOM     58  C   UNL A   1      38.649  34.688  30.686  1.00  0.00     0.031 C 
ATOM     59  C   UNL A   1      42.234  31.964  34.181  1.00  0.00     0.029 A 
ATOM     60  C   UNL A   1      41.410  32.852  33.492  1.00  0.00     0.049 A 
ATOM     61  H   UNL A   1      41.796  33.818  31.690  1.00  0.00     0.167 HD
ATOM     62  C   UNL A   1      39.334  34.048  32.809  1.00  0.00     0.074 A 
ATOM     63  C   UNL A   1      39.683  34.665  31.529  1.00  0.00     0.031 C 
ATOM     64  C   UNL A   1      40.054  33.307  33.702  1.00  0.00     0.037 A 
BRANCH  51  65
ATOM     65  C   UNL A   1      43.938  33.394  29.933  1.00  0.00     0.064 A 
ATOM     66  C   UNL A   1      42.887  33.955  29.181  1.00  0.00     0.173 A 
ATOM     67  C   UNL A   1      45.234  33.811  29.541  1.00  0.00     0.173 A 
ATOM     68  F   UNL A   1      41.614  33.616  29.434  1.00  0.00    -0.203 F 
ATOM     69  C   UNL A   1      43.121  34.799  28.089  1.00  0.00     0.198 A 
ATOM     70  C   UNL A   1      45.461  34.687  28.482  1.00  0.00     0.198 A 
ATOM     71  F   UNL A   1      46.357  33.329  30.078  1.00  0.00    -0.203 F 
ATOM     72  F   UNL A   1      42.094  35.210  27.335  1.00  0.00    -0.200 F 
ATOM     73  C   UNL A   1      44.409  35.160  27.738  1.00  0.00     0.200 A 
ATOM     74  F   UNL A   1      46.723  34.995  28.146  1.00  0.00    -0.200 F 
ATOM     75  F   UNL A   1      44.640  35.919  26.660  1.00  0.00    -0.200 F 
ENDBRANCH  51  65
BRANCH  52  76
ATOM     76  C   UNL A   1      35.422  33.762  30.248  1.00  0.00     0.064 A 
ATOM     77  C   UNL A   1      34.410  34.353  31.031  1.00  0.00     0.173 A 
ATOM     78  C   UNL A   1      35.373  34.037  28.869  1.00  0.00     0.173 A 
ATOM     79  F   UNL A   1      34.384  34.165  32.359  1.00  0.00    -0.203 F 
ATOM     80  C   UNL A   1      33.457  35.219  30.480  1.00  0.00     0.198 A 
ATOM     81  C   UNL A   1      34.419  34.900  28.320  1.00  0.00     0.198 A 
ATOM     82  F   UNL A   1      36.312  33.556  28.043  1.00  0.00    -0.203 F 
ATOM     83  F   UNL A   1      32.565  35.828  31.276  1.00  0.00    -0.200 F 
ATOM     84  C   UNL A   1      33.477  35.509  29.128  1.00  0.00     0.200 A 
ATOM     85  F   UNL A   1      34.466  35.198  27.013  1.00  0.00    -0.200 F 
ATOM     86  F   UNL A   1      32.620  36.403  28.613  1.00  0.00    -0.200 F 
ENDBRANCH  52  76
BRANCH  64  87
ATOM     87  C   UNL A   1      39.344  32.838  34.940  1.00  0.00     0.064 A 
ATOM     88  C   UNL A   1      38.852  31.540  35.154  1.00  0.00     0.173 A 
ATOM     89  C   UNL A   1      39.222  33.758  35.991  1.00  0.00     0.173 A 
ATOM     90  F   UNL A   1      39.012  30.578  34.234  1.00  0.00    -0.203 F 
ATOM     91  C   UNL A   1      38.218  31.203  36.352  1.00  0.00     0.198 A 
ATOM     92  C   UNL A   1      38.629  33.407  37.197  1.00  0.00     0.198 A 
ATOM     93  F   UNL A   1      39.716  35.000  35.856  1.00  0.00    -0.203 F 
ATOM     94  F   UNL A   1      37.730  29.966  36.530  1.00  0.00    -0.200 F 
ATOM     95  C   UNL A   1      38.112  32.136  37.372  1.00  0.00     0.200 A 
ATOM     96  F   UNL A   1      38.575  34.300  38.195  1.00  0.00    -0.200 F 
ATOM     97  F   UNL A   1      37.528  31.804  38.533  1.00  0.00    -0.200 F 
ENDBRANCH  64  87
ENDBRANCH  38  39
ENDBRANCH  31  33
ENDBRANCH  30  31
ENDBRANCH  29  30
ENDBRANCH   1  29
TORSDOF 14
ENDMDL
MODEL 3
REMARK VINA RESULT:     -13.1      4.073      8.941
REMARK SMILES CC1(C)Cc2c(-c3ccccc3)c(-c3ccc(Cl)cc3)c(CC(=O)OCCOC(=O)c3ccc(-c4c5nc(c(-c6c(F)c(F)c(F)c(F)c6F)c6ccc([nH]6)c(-c6c(F)c(F)c(F)c(F)c6F)c6nc(c(-c7c(F)c(F)c(F)c(F)c7F)c7ccc4[nH]7)C=C6)C=C5)cc3)n2C1
REMARK SMILES IDX 26 1 25 2 23 3 24 4 22 5 21 6 1 7 2 8 3 9 4 10 95 11 5 12
REMARK SMILES IDX 94 13 6 14 13 15 7 16 8 17 12 18 9 19 11 20 10 21 14 22
REMARK SMILES IDX 15 23 20 24 16 25 19 26 17 27 18 28 27 29 28 30 29 31 30 32
REMARK SMILES IDX 31 33 32 34 93 35 33 36 92 37 34 38 35 39 36 40 86 41 37 42
REMARK SMILES IDX 91 43 85 44 87 45 38 46 90 47 84 48 83 49 39 51 71 52 51 53
REMARK SMILES IDX 70 54 52 55 55 56 69 57 88 58 53 59 54 60 68 62 89 63 56 64
REMARK SMILES IDX 40 65 41 66 49 67 42 68 43 69 47 70 50 71 44 72 45 73 48 74
REMARK SMILES IDX 46 75 72 76 73 77 81 78 74 79 75 80 79 81 82 82 76 83 77 84
REMARK SMILES IDX 80 85 78 86 57 87 58 88 66 89 59 90 60 91 64 92 67 93 61 94
REMARK SMILES IDX 62 95 65 96 63 97
REMARK H PARENT 87 50 55 61
REMARK Flexibility Score: inf
ROOT
ATOM      1  C   UNL A   1      34.010  31.298  27.386  1.00  0.00     0.274 C 
ENDROOT
BRANCH   1   2
ATOM      2  O   UNL A   1      32.701  30.709  27.320  1.00  0.00    -0.462 OA
BRANCH   2   3
ATOM      3  C   UNL A   1      32.635  29.375  27.103  1.00  0.00     0.311 C 
ATOM      4  O   UNL A   1      31.872  28.630  27.713  1.00  0.00    -0.252 OA
BRANCH   3   5
ATOM      5  C   UNL A   1      33.494  28.880  25.951  1.00  0.00     0.177 C 
BRANCH   5   6
ATOM      6  C   UNL A   1      32.950  27.846  24.988  1.00  0.00     0.037 A 
ATOM      7  C   UNL A   1      29.787  29.794  21.676  1.00  0.00     0.013 C 
ATOM      8  C   UNL A   1      30.193  28.826  22.784  1.00  0.00    -0.012 C 
ATOM      9  C   UNL A   1      28.980  28.500  23.676  1.00  0.00     0.013 C 
ATOM     10  C   UNL A   1      30.776  27.515  22.167  1.00  0.00     0.063 C 
ATOM     11  C   UNL A   1      31.345  29.399  23.657  1.00  0.00     0.129 C 
ATOM     12  C   UNL A   1      31.812  27.157  23.149  1.00  0.00     0.027 A 
ATOM     13  N   UNL A   1      32.121  28.205  23.967  1.00  0.00    -0.346 N 
ATOM     14  C   UNL A   1      32.491  26.057  23.573  1.00  0.00     0.011 A 
ATOM     15  C   UNL A   1      33.183  26.477  24.773  1.00  0.00     0.011 A 
BRANCH  14  16
ATOM     16  C   UNL A   1      32.335  24.717  23.022  1.00  0.00    -0.016 A 
ATOM     17  C   UNL A   1      33.355  24.156  22.250  1.00  0.00     0.009 A 
ATOM     18  C   UNL A   1      31.242  23.917  23.390  1.00  0.00     0.009 A 
ATOM     19  C   UNL A   1      33.300  22.805  21.892  1.00  0.00     0.001 A 
ATOM     20  C   UNL A   1      31.209  22.560  23.070  1.00  0.00     0.001 A 
ATOM     21  C   UNL A   1      32.240  22.004  22.320  1.00  0.00     0.000 A 
ENDBRANCH  14  16
BRANCH  15  22
ATOM     22  C   UNL A   1      33.633  25.498  25.744  1.00  0.00    -0.016 A 
ATOM     23  C   UNL A   1      34.851  24.823  25.595  1.00  0.00     0.010 A 
ATOM     24  C   UNL A   1      32.606  24.882  26.459  1.00  0.00     0.010 A 
ATOM     25  C   UNL A   1      34.985  23.516  26.103  1.00  0.00     0.021 A 
ATOM     26  C   UNL A   1      32.763  23.637  27.026  1.00  0.00     0.021 A 
ATOM     27  C   UNL A   1      33.925  22.934  26.811  1.00  0.00     0.041 A 
ATOM     28  Cl  UNL A   1      33.837  21.312  27.362  1.00  0.00    -0.084 Cl
ENDBRANCH  15  22
ENDBRANCH   5   6
ENDBRANCH   3   5
ENDBRANCH   2   3
ENDBRANCH   1   2
BRANCH   1  29
ATOM     29  C   UNL A   1      34.749  30.818  28.633  1.00  0.00     0.275 C 
BRANCH  29  30
ATOM     30  O   UNL A   1      36.078  30.260  28.508  1.00  0.00    -0.458 OA
BRANCH  30  31
ATOM     31  C   UNL A   1      37.191  31.008  28.674  1.00  0.00     0.338 C 
ATOM     32  O   UNL A   1      37.253  32.230  28.666  1.00  0.00    -0.246 OA
BRANCH  31  33
ATOM     33  C   UNL A   1      38.384  30.130  28.809  1.00  0.00     0.060 A 
ATOM     34  C   UNL A   1      39.622  30.688  29.152  1.00  0.00     0.016 A 
ATOM     35  C   UNL A   1      38.312  28.776  28.466  1.00  0.00     0.016 A 
ATOM     36  C   UNL A   1      40.789  29.928  29.010  1.00  0.00     0.010 A 
ATOM     37  C   UNL A   1      39.475  28.031  28.295  1.00  0.00     0.010 A 
ATOM     38  C   UNL A   1      40.727  28.619  28.498  1.00  0.00    -0.014 A 
BRANCH  38  39
ATOM     39  C   UNL A   1      41.908  27.736  28.587  1.00  0.00     0.031 A 
ATOM     40  C   UNL A   1      42.556  27.960  29.897  1.00  0.00     0.074 A 
ATOM     41  C   UNL A   1      42.287  26.755  27.732  1.00  0.00     0.049 A 
ATOM     42  N   UNL A   1      43.726  28.480  30.077  1.00  0.00    -0.248 NA
ATOM     43  C   UNL A   1      41.740  27.893  31.123  1.00  0.00     0.031 C 
ATOM     44  C   UNL A   1      41.754  26.483  26.414  1.00  0.00     0.029 A 
ATOM     45  N   UNL A   1      43.167  25.701  27.882  1.00  0.00    -0.354 N 
ATOM     46  C   UNL A   1      43.884  28.506  31.456  1.00  0.00     0.074 A 
ATOM     47  C   UNL A   1      42.564  28.449  32.012  1.00  0.00     0.031 C 
ATOM     48  C   UNL A   1      41.986  25.214  26.026  1.00  0.00     0.029 A 
ATOM     49  C   UNL A   1      42.904  24.639  26.980  1.00  0.00     0.049 A 
ATOM     50  H   UNL A   1      43.897  25.689  28.543  1.00  0.00     0.167 HD
ATOM     51  C   UNL A   1      45.061  28.068  31.978  1.00  0.00     0.037 A 
ATOM     52  C   UNL A   1      43.466  23.400  26.946  1.00  0.00     0.037 A 
ATOM     53  C   UNL A   1      46.099  28.133  30.971  1.00  0.00     0.049 A 
ATOM     54  C   UNL A   1      44.755  23.522  27.651  1.00  0.00     0.074 A 
ATOM     55  C   UNL A   1      46.714  29.124  30.234  1.00  0.00     0.029 A 
ATOM     56  N   UNL A   1      46.276  26.959  30.290  1.00  0.00    -0.354 N 
ATOM     57  N   UNL A   1      45.775  24.163  27.155  1.00  0.00    -0.248 NA
ATOM     58  C   UNL A   1      44.766  23.322  29.089  1.00  0.00     0.031 C 
ATOM     59  C   UNL A   1      47.103  28.520  29.000  1.00  0.00     0.029 A 
ATOM     60  C   UNL A   1      46.798  27.161  29.046  1.00  0.00     0.049 A 
ATOM     61  H   UNL A   1      46.051  26.073  30.655  1.00  0.00     0.167 HD
ATOM     62  C   UNL A   1      46.276  24.864  28.235  1.00  0.00     0.074 A 
ATOM     63  C   UNL A   1      45.730  24.186  29.412  1.00  0.00     0.031 C 
ATOM     64  C   UNL A   1      46.787  26.116  28.047  1.00  0.00     0.037 A 
BRANCH  51  65
ATOM     65  C   UNL A   1      45.125  27.049  33.113  1.00  0.00     0.064 A 
ATOM     66  C   UNL A   1      44.460  25.820  32.938  1.00  0.00     0.173 A 
ATOM     67  C   UNL A   1      45.520  27.323  34.447  1.00  0.00     0.173 A 
ATOM     68  F   UNL A   1      44.009  25.458  31.728  1.00  0.00    -0.203 F 
ATOM     69  C   UNL A   1      44.154  24.979  34.014  1.00  0.00     0.198 A 
ATOM     70  C   UNL A   1      45.253  26.462  35.509  1.00  0.00     0.198 A 
ATOM     71  F   UNL A   1      46.088  28.470  34.826  1.00  0.00    -0.203 F 
ATOM     72  F   UNL A   1      43.416  23.880  33.810  1.00  0.00    -0.200 F 
ATOM     73  C   UNL A   1      44.547  25.304  35.300  1.00  0.00     0.200 A 
ATOM     74  F   UNL A   1      45.620  26.820  36.749  1.00  0.00    -0.200 F 
ATOM     75  F   UNL A   1      44.206  24.532  36.338  1.00  0.00    -0.200 F 
ENDBRANCH  51  65
BRANCH  52  76
ATOM     76  C   UNL A   1      42.911  22.078  26.546  1.00  0.00     0.064 A 
ATOM     77  C   UNL A   1      43.524  21.305  25.539  1.00  0.00     0.173 A 
ATOM     78  C   UNL A   1      41.979  21.405  27.357  1.00  0.00     0.173 A 
ATOM     79  F   UNL A   1      44.440  21.853  24.726  1.00  0.00    -0.203 F 
ATOM     80  C   UNL A   1      43.275  19.933  25.403  1.00  0.00     0.198 A 
ATOM     81  C   UNL A   1      41.730  20.036  27.218  1.00  0.00     0.198 A 
ATOM     82  F   UNL A   1      41.370  22.039  28.369  1.00  0.00    -0.203 F 
ATOM     83  F   UNL A   1      43.945  19.218  24.487  1.00  0.00    -0.200 F 
ATOM     84  C   UNL A   1      42.394  19.296  26.257  1.00  0.00     0.200 A 
ATOM     85  F   UNL A   1      40.897  19.422  28.071  1.00  0.00    -0.200 F 
ATOM     86  F   UNL A   1      42.218  17.969  26.185  1.00  0.00    -0.200 F 
ENDBRANCH  52  76
BRANCH  64  87
ATOM     87  C   UNL A   1      47.268  26.465  26.668  1.00  0.00     0.064 A 
ATOM     88  C   UNL A   1      46.531  27.172  25.703  1.00  0.00     0.173 A 
ATOM     89  C   UNL A   1      48.585  26.110  26.344  1.00  0.00     0.173 A 
ATOM     90  F   UNL A   1      45.299  27.627  25.969  1.00  0.00    -0.203 F 
ATOM     91  C   UNL A   1      47.080  27.458  24.451  1.00  0.00     0.198 A 
ATOM     92  C   UNL A   1      49.143  26.434  25.113  1.00  0.00     0.198 A 
ATOM     93  F   UNL A   1      49.349  25.473  27.246  1.00  0.00    -0.203 F 
ATOM     94  F   UNL A   1      46.353  28.110  23.531  1.00  0.00    -0.200 F 
ATOM     95  C   UNL A   1      48.386  27.092  24.160  1.00  0.00     0.200 A 
ATOM     96  F   UNL A   1      50.420  26.119  24.860  1.00  0.00    -0.200 F 
ATOM     97  F   UNL A   1      48.922  27.391  22.969  1.00  0.00    -0.200 F 
ENDBRANCH  64  87
ENDBRANCH  38  39
ENDBRANCH  31  33
ENDBRANCH  30  31
ENDBRANCH  29  30
ENDBRANCH   1  29
TORSDOF 14
ENDMDL
