MODEL 1
REMARK VINA RESULT:     -13.2      0.000      0.000
REMARK SMILES CC(C)C(=O)Nc1ccc2c([C@H](C(=O)OCCOC(=O)c3ccc(-c4c5nc(c(-c6c(F)c(F)c(F)c(F)c6F)c6ccc([nH]6)c(-c6c(F)c(F)c(F)c(F)c6F)c6nc(c(-c7c(F)c(F)c(F)c(F)c7F)c7ccc4[nH]7)C=C6)C=C5)cc3)[NH+]3CC[NH+](CC(=O)N(C)C)CC3)c[nH]c2c1
REMARK SMILES IDX 16 1 15 2 13 3 14 4 12 5 11 6 7 7 8 8 99 9 9 10 98 11 10 12
REMARK SMILES IDX 97 13 96 14 6 16 4 17 5 18 2 20 1 21 3 22 84 23 85 24 95 25
REMARK SMILES IDX 86 27 94 28 87 29 88 31 89 32 90 33 91 34 92 35 93 36 17 37
REMARK SMILES IDX 18 38 19 39 20 40 21 41 22 42 83 43 23 44 82 45 24 46 25 47
REMARK SMILES IDX 26 48 76 49 27 50 81 51 75 52 77 53 28 54 80 55 74 56 73 57
REMARK SMILES IDX 29 59 61 60 41 61 60 62 42 63 45 64 59 65 78 66 43 67 44 68
REMARK SMILES IDX 58 70 79 71 46 72 30 73 31 74 39 75 32 76 33 77 37 78 40 79
REMARK SMILES IDX 34 80 35 81 38 82 36 83 62 84 63 85 71 86 64 87 65 88 69 89
REMARK SMILES IDX 72 90 66 91 67 92 70 93 68 94 47 95 48 96 56 97 49 98 50 99
REMARK SMILES IDX 54 100 57 101 51 102 52 103 55 104 53 105
REMARK H PARENT 97 15 6 19 84 26 87 30 77 58 45 69
REMARK Flexibility Score: inf
ROOT
ATOM      1  C   UNL A   1      31.855  28.207  27.604  1.00  0.00     0.274 C 
ENDROOT
BRANCH   1   2
ATOM      2  O   UNL A   1      30.981  27.090  27.333  1.00  0.00    -0.457 OA
BRANCH   2   3
ATOM      3  C   UNL A   1      31.453  26.213  26.399  1.00  0.00     0.370 C 
ATOM      4  O   UNL A   1      32.593  25.755  26.474  1.00  0.00    -0.245 OA
BRANCH   3   5
ATOM      5  C   UNL A   1      30.501  25.965  25.193  1.00  0.00     0.328 C 
BRANCH   5   6
ATOM      6  C   UNL A   1      30.811  26.859  23.972  1.00  0.00     0.046 A 
ATOM      7  C   UNL A   1      28.663  29.797  21.869  1.00  0.00     0.043 A 
ATOM      8  C   UNL A   1      27.893  28.946  22.643  1.00  0.00     0.027 A 
ATOM      9  C   UNL A   1      29.995  29.491  21.578  1.00  0.00     0.052 A 
ATOM     10  C   UNL A   1      28.493  27.947  23.398  1.00  0.00     0.013 A 
ATOM     11  C   UNL A   1      30.579  28.453  22.322  1.00  0.00     0.048 A 
ATOM     12  C   UNL A   1      29.879  27.725  23.286  1.00  0.00     0.009 A 
ATOM     13  N   UNL A   1      31.864  27.976  22.325  1.00  0.00    -0.361 N 
ATOM     14  C   UNL A   1      32.016  27.033  23.307  1.00  0.00     0.094 A 
ATOM     15  H   UNL A   1      32.575  28.268  21.710  1.00  0.00     0.166 HD
BRANCH   7  16
ATOM     16  N   UNL A   1      28.128  31.003  21.415  1.00  0.00    -0.326 N 
ATOM     17  C   UNL A   1      28.267  32.251  21.963  1.00  0.00     0.226 C 
ATOM     18  O   UNL A   1      27.575  33.160  21.487  1.00  0.00    -0.274 OA
ATOM     19  H   UNL A   1      27.582  30.951  20.598  1.00  0.00     0.169 HD
BRANCH  17  20
ATOM     20  C   UNL A   1      29.309  32.590  23.053  1.00  0.00     0.072 C 
ATOM     21  C   UNL A   1      29.453  34.070  23.394  1.00  0.00     0.018 C 
ATOM     22  C   UNL A   1      29.242  31.706  24.299  1.00  0.00     0.018 C 
ENDBRANCH  17  20
ENDBRANCH   7  16
ENDBRANCH   5   6
BRANCH   5  23
ATOM     23  N   UNL A   1      30.279  24.573  24.741  1.00  0.00    -0.310 N 
ATOM     24  C   UNL A   1      30.906  24.146  23.501  1.00  0.00     0.325 C 
ATOM     25  C   UNL A   1      30.233  23.499  25.729  1.00  0.00     0.325 C 
ATOM     26  H   UNL A   1      29.299  24.732  24.511  1.00  0.00     0.349 HD
ATOM     27  C   UNL A   1      32.275  23.547  23.732  1.00  0.00     0.325 C 
ATOM     28  C   UNL A   1      31.467  22.556  25.830  1.00  0.00     0.325 C 
ATOM     29  N   UNL A   1      32.349  22.435  24.674  1.00  0.00    -0.318 N 
ATOM     30  H   UNL A   1      33.263  22.513  25.119  1.00  0.00     0.348 HD
BRANCH  29  31
ATOM     31  C   UNL A   1      32.423  21.123  24.029  1.00  0.00     0.364 C 
BRANCH  31  32
ATOM     32  C   UNL A   1      33.578  20.259  24.545  1.00  0.00     0.277 C 
ATOM     33  O   UNL A   1      34.543  20.799  25.098  1.00  0.00    -0.268 OA
ATOM     34  N   UNL A   1      33.549  18.896  24.310  1.00  0.00    -0.344 N 
ATOM     35  C   UNL A   1      32.360  18.121  24.008  1.00  0.00     0.146 C 
ATOM     36  C   UNL A   1      34.782  18.148  24.479  1.00  0.00     0.146 C 
ENDBRANCH  31  32
ENDBRANCH  29  31
ENDBRANCH   5  23
ENDBRANCH   3   5
ENDBRANCH   2   3
ENDBRANCH   1   2
BRANCH   1  37
ATOM     37  C   UNL A   1      31.765  29.272  26.501  1.00  0.00     0.275 C 
BRANCH  37  38
ATOM     38  O   UNL A   1      33.008  29.954  26.243  1.00  0.00    -0.458 OA
BRANCH  38  39
ATOM     39  C   UNL A   1      33.268  31.054  26.987  1.00  0.00     0.338 C 
ATOM     40  O   UNL A   1      32.629  32.091  27.012  1.00  0.00    -0.246 OA
BRANCH  39  41
ATOM     41  C   UNL A   1      34.596  30.879  27.610  1.00  0.00     0.060 A 
ATOM     42  C   UNL A   1      34.944  29.589  27.979  1.00  0.00     0.016 A 
ATOM     43  C   UNL A   1      35.442  31.944  27.931  1.00  0.00     0.016 A 
ATOM     44  C   UNL A   1      36.055  29.393  28.801  1.00  0.00     0.010 A 
ATOM     45  C   UNL A   1      36.650  31.703  28.623  1.00  0.00     0.010 A 
ATOM     46  C   UNL A   1      36.972  30.421  29.098  1.00  0.00    -0.014 A 
BRANCH  46  47
ATOM     47  C   UNL A   1      38.237  30.096  29.858  1.00  0.00     0.031 A 
ATOM     48  C   UNL A   1      39.364  29.257  29.285  1.00  0.00     0.074 A 
ATOM     49  C   UNL A   1      38.424  30.619  31.092  1.00  0.00     0.049 A 
ATOM     50  N   UNL A   1      40.430  28.775  29.889  1.00  0.00    -0.248 NA
ATOM     51  C   UNL A   1      39.301  28.910  27.860  1.00  0.00     0.031 C 
ATOM     52  C   UNL A   1      37.480  31.490  31.796  1.00  0.00     0.029 A 
ATOM     53  N   UNL A   1      39.484  30.533  31.968  1.00  0.00    -0.354 N 
ATOM     54  C   UNL A   1      41.139  28.058  28.929  1.00  0.00     0.074 A 
ATOM     55  C   UNL A   1      40.393  28.172  27.694  1.00  0.00     0.031 C 
ATOM     56  C   UNL A   1      38.047  31.962  32.908  1.00  0.00     0.029 A 
ATOM     57  C   UNL A   1      39.302  31.259  33.121  1.00  0.00     0.049 A 
ATOM     58  H   UNL A   1      40.293  30.002  31.786  1.00  0.00     0.167 HD
ATOM     59  C   UNL A   1      42.290  27.350  29.065  1.00  0.00     0.037 A 
ATOM     60  C   UNL A   1      39.989  31.300  34.278  1.00  0.00     0.037 A 
ATOM     61  C   UNL A   1      43.044  27.233  30.291  1.00  0.00     0.049 A 
ATOM     62  C   UNL A   1      41.172  30.404  34.455  1.00  0.00     0.074 A 
ATOM     63  C   UNL A   1      44.191  26.493  30.535  1.00  0.00     0.029 A 
ATOM     64  N   UNL A   1      42.733  27.880  31.477  1.00  0.00    -0.354 N 
ATOM     65  N   UNL A   1      41.743  29.612  33.585  1.00  0.00    -0.248 NA
ATOM     66  C   UNL A   1      41.769  30.363  35.796  1.00  0.00     0.031 C 
ATOM     67  C   UNL A   1      44.543  26.652  31.882  1.00  0.00     0.029 A 
ATOM     68  C   UNL A   1      43.647  27.534  32.461  1.00  0.00     0.049 A 
ATOM     69  H   UNL A   1      41.974  28.494  31.602  1.00  0.00     0.167 HD
ATOM     70  C   UNL A   1      42.760  28.969  34.269  1.00  0.00     0.074 A 
ATOM     71  C   UNL A   1      42.746  29.484  35.623  1.00  0.00     0.031 C 
ATOM     72  C   UNL A   1      43.619  28.026  33.814  1.00  0.00     0.037 A 
BRANCH  59  73
ATOM     73  C   UNL A   1      42.789  26.574  27.877  1.00  0.00     0.064 A 
ATOM     74  C   UNL A   1      42.333  25.282  27.581  1.00  0.00     0.173 A 
ATOM     75  C   UNL A   1      43.683  27.175  26.975  1.00  0.00     0.173 A 
ATOM     76  F   UNL A   1      41.486  24.656  28.411  1.00  0.00    -0.203 F 
ATOM     77  C   UNL A   1      42.760  24.618  26.431  1.00  0.00     0.198 A 
ATOM     78  C   UNL A   1      44.089  26.519  25.816  1.00  0.00     0.198 A 
ATOM     79  F   UNL A   1      44.145  28.414  27.206  1.00  0.00    -0.203 F 
ATOM     80  F   UNL A   1      42.334  23.373  26.179  1.00  0.00    -0.200 F 
ATOM     81  C   UNL A   1      43.630  25.240  25.546  1.00  0.00     0.200 A 
ATOM     82  F   UNL A   1      44.919  27.128  24.957  1.00  0.00    -0.200 F 
ATOM     83  F   UNL A   1      44.029  24.604  24.435  1.00  0.00    -0.200 F 
ENDBRANCH  59  73
BRANCH  60  84
ATOM     84  C   UNL A   1      39.466  32.126  35.399  1.00  0.00     0.064 A 
ATOM     85  C   UNL A   1      38.573  31.600  36.339  1.00  0.00     0.173 A 
ATOM     86  C   UNL A   1      39.912  33.447  35.586  1.00  0.00     0.173 A 
ATOM     87  F   UNL A   1      38.087  30.360  36.182  1.00  0.00    -0.203 F 
ATOM     88  C   UNL A   1      38.168  32.353  37.440  1.00  0.00     0.198 A 
ATOM     89  C   UNL A   1      39.543  34.179  36.709  1.00  0.00     0.198 A 
ATOM     90  F   UNL A   1      40.759  34.002  34.706  1.00  0.00    -0.203 F 
ATOM     91  F   UNL A   1      37.298  31.838  38.317  1.00  0.00    -0.200 F 
ATOM     92  C   UNL A   1      38.670  33.632  37.635  1.00  0.00     0.200 A 
ATOM     93  F   UNL A   1      40.053  35.403  36.903  1.00  0.00    -0.200 F 
ATOM     94  F   UNL A   1      38.312  34.339  38.716  1.00  0.00    -0.200 F 
ENDBRANCH  60  84
BRANCH  72  95
ATOM     95  C   UNL A   1      44.627  27.508  34.792  1.00  0.00     0.064 A 
ATOM     96  C   UNL A   1      44.377  26.364  35.564  1.00  0.00     0.173 A 
ATOM     97  C   UNL A   1      45.846  28.175  34.978  1.00  0.00     0.173 A 
ATOM     98  F   UNL A   1      43.215  25.705  35.438  1.00  0.00    -0.203 F 
ATOM     99  C   UNL A   1      45.297  25.927  36.514  1.00  0.00     0.198 A 
ATOM    100  C   UNL A   1      46.776  27.721  35.910  1.00  0.00     0.198 A 
ATOM    101  F   UNL A   1      46.133  29.273  34.263  1.00  0.00    -0.203 F 
ATOM    102  F   UNL A   1      45.012  24.867  37.282  1.00  0.00    -0.200 F 
ATOM    103  C   UNL A   1      46.495  26.604  36.684  1.00  0.00     0.200 A 
ATOM    104  F   UNL A   1      47.936  28.373  36.070  1.00  0.00    -0.200 F 
ATOM    105  F   UNL A   1      47.375  26.189  37.606  1.00  0.00    -0.200 F 
ENDBRANCH  72  95
ENDBRANCH  46  47
ENDBRANCH  39  41
ENDBRANCH  38  39
ENDBRANCH  37  38
ENDBRANCH   1  37
TORSDOF 17
ENDMDL
MODEL 2
REMARK VINA RESULT:     -13.1      3.972     10.421
REMARK SMILES CC(C)C(=O)Nc1ccc2c([C@H](C(=O)OCCOC(=O)c3ccc(-c4c5nc(c(-c6c(F)c(F)c(F)c(F)c6F)c6ccc([nH]6)c(-c6c(F)c(F)c(F)c(F)c6F)c6nc(c(-c7c(F)c(F)c(F)c(F)c7F)c7ccc4[nH]7)C=C6)C=C5)cc3)[NH+]3CC[NH+](CC(=O)N(C)C)CC3)c[nH]c2c1
REMARK SMILES IDX 16 1 15 2 13 3 14 4 12 5 11 6 7 7 8 8 99 9 9 10 98 11 10 12
REMARK SMILES IDX 97 13 96 14 6 16 4 17 5 18 2 20 1 21 3 22 84 23 85 24 95 25
REMARK SMILES IDX 86 27 94 28 87 29 88 31 89 32 90 33 91 34 92 35 93 36 17 37
REMARK SMILES IDX 18 38 19 39 20 40 21 41 22 42 83 43 23 44 82 45 24 46 25 47
REMARK SMILES IDX 26 48 76 49 27 50 81 51 75 52 77 53 28 54 80 55 74 56 73 57
REMARK SMILES IDX 29 59 61 60 41 61 60 62 42 63 45 64 59 65 78 66 43 67 44 68
REMARK SMILES IDX 58 70 79 71 46 72 30 73 31 74 39 75 32 76 33 77 37 78 40 79
REMARK SMILES IDX 34 80 35 81 38 82 36 83 62 84 63 85 71 86 64 87 65 88 69 89
REMARK SMILES IDX 72 90 66 91 67 92 70 93 68 94 47 95 48 96 56 97 49 98 50 99
REMARK SMILES IDX 54 100 57 101 51 102 52 103 55 104 53 105
REMARK H PARENT 97 15 6 19 84 26 87 30 77 58 45 69
REMARK Flexibility Score: inf
ROOT
ATOM      1  C   UNL A   1      35.878  23.301  23.766  1.00  0.00     0.274 C 
ENDROOT
BRANCH   1   2
ATOM      2  O   UNL A   1      34.906  24.245  24.265  1.00  0.00    -0.457 OA
BRANCH   2   3
ATOM      3  C   UNL A   1      33.991  24.659  23.341  1.00  0.00     0.370 C 
ATOM      4  O   UNL A   1      34.330  25.319  22.358  1.00  0.00    -0.245 OA
BRANCH   3   5
ATOM      5  C   UNL A   1      32.508  24.355  23.705  1.00  0.00     0.328 C 
BRANCH   5   6
ATOM      6  C   UNL A   1      32.319  23.003  24.428  1.00  0.00     0.046 A 
ATOM      7  C   UNL A   1      32.358  18.986  23.190  1.00  0.00     0.043 A 
ATOM      8  C   UNL A   1      32.163  19.911  22.180  1.00  0.00     0.027 A 
ATOM      9  C   UNL A   1      32.233  19.355  24.532  1.00  0.00     0.052 A 
ATOM     10  C   UNL A   1      32.149  21.270  22.464  1.00  0.00     0.013 A 
ATOM     11  C   UNL A   1      32.182  20.732  24.804  1.00  0.00     0.048 A 
ATOM     12  C   UNL A   1      32.219  21.704  23.802  1.00  0.00     0.009 A 
ATOM     13  N   UNL A   1      32.140  21.401  25.999  1.00  0.00    -0.361 N 
ATOM     14  C   UNL A   1      32.227  22.752  25.789  1.00  0.00     0.094 A 
ATOM     15  H   UNL A   1      32.057  20.972  26.882  1.00  0.00     0.166 HD
BRANCH   7  16
ATOM     16  N   UNL A   1      32.738  17.681  22.877  1.00  0.00    -0.326 N 
ATOM     17  C   UNL A   1      33.771  16.949  23.403  1.00  0.00     0.226 C 
ATOM     18  O   UNL A   1      34.029  15.865  22.866  1.00  0.00    -0.274 OA
ATOM     19  H   UNL A   1      32.196  17.227  22.193  1.00  0.00     0.169 HD
BRANCH  17  20
ATOM     20  C   UNL A   1      34.541  17.361  24.678  1.00  0.00     0.072 C 
ATOM     21  C   UNL A   1      35.057  16.211  25.539  1.00  0.00     0.018 C 
ATOM     22  C   UNL A   1      35.591  18.452  24.468  1.00  0.00     0.018 C 
ENDBRANCH  17  20
ENDBRANCH   7  16
ENDBRANCH   5   6
BRANCH   5  23
ATOM     23  N   UNL A   1      31.720  25.399  24.398  1.00  0.00    -0.310 N 
ATOM     24  C   UNL A   1      32.218  26.764  24.374  1.00  0.00     0.325 C 
ATOM     25  C   UNL A   1      30.262  25.347  24.345  1.00  0.00     0.325 C 
ATOM     26  H   UNL A   1      31.940  25.043  25.328  1.00  0.00     0.349 HD
ATOM     27  C   UNL A   1      31.678  27.546  23.198  1.00  0.00     0.325 C 
ATOM     28  C   UNL A   1      29.535  26.365  23.419  1.00  0.00     0.325 C 
ATOM     29  N   UNL A   1      30.227  27.600  23.062  1.00  0.00    -0.318 N 
ATOM     30  H   UNL A   1      30.047  27.639  22.059  1.00  0.00     0.348 HD
BRANCH  29  31
ATOM     31  C   UNL A   1      29.638  28.853  23.537  1.00  0.00     0.364 C 
BRANCH  31  32
ATOM     32  C   UNL A   1      29.353  29.853  22.413  1.00  0.00     0.277 C 
ATOM     33  O   UNL A   1      29.861  29.679  21.299  1.00  0.00    -0.268 OA
ATOM     34  N   UNL A   1      28.594  30.975  22.692  1.00  0.00    -0.344 N 
ATOM     35  C   UNL A   1      27.678  31.110  23.810  1.00  0.00     0.146 C 
ATOM     36  C   UNL A   1      28.624  32.074  21.745  1.00  0.00     0.146 C 
ENDBRANCH  31  32
ENDBRANCH  29  31
ENDBRANCH   5  23
ENDBRANCH   3   5
ENDBRANCH   2   3
ENDBRANCH   1   2
BRANCH   1  37
ATOM     37  C   UNL A   1      35.863  21.996  24.576  1.00  0.00     0.275 C 
BRANCH  37  38
ATOM     38  O   UNL A   1      36.637  22.052  25.791  1.00  0.00    -0.458 OA
BRANCH  38  39
ATOM     39  C   UNL A   1      37.933  21.674  25.707  1.00  0.00     0.338 C 
ATOM     40  O   UNL A   1      38.361  20.583  25.374  1.00  0.00    -0.246 OA
BRANCH  39  41
ATOM     41  C   UNL A   1      38.759  22.744  26.306  1.00  0.00     0.060 A 
ATOM     42  C   UNL A   1      38.301  24.042  26.150  1.00  0.00     0.016 A 
ATOM     43  C   UNL A   1      39.999  22.513  26.907  1.00  0.00     0.016 A 
ATOM     44  C   UNL A   1      39.153  25.106  26.454  1.00  0.00     0.010 A 
ATOM     45  C   UNL A   1      40.777  23.602  27.361  1.00  0.00     0.010 A 
ATOM     46  C   UNL A   1      40.382  24.928  27.120  1.00  0.00    -0.014 A 
BRANCH  46  47
ATOM     47  C   UNL A   1      41.172  26.138  27.562  1.00  0.00     0.031 A 
ATOM     48  C   UNL A   1      40.614  27.214  28.474  1.00  0.00     0.074 A 
ATOM     49  C   UNL A   1      42.468  26.258  27.188  1.00  0.00     0.049 A 
ATOM     50  N   UNL A   1      41.134  28.379  28.799  1.00  0.00    -0.248 NA
ATOM     51  C   UNL A   1      39.312  26.967  29.105  1.00  0.00     0.031 C 
ATOM     52  C   UNL A   1      43.201  25.303  26.354  1.00  0.00     0.029 A 
ATOM     53  N   UNL A   1      43.417  27.211  27.485  1.00  0.00    -0.354 N 
ATOM     54  C   UNL A   1      40.218  28.999  29.645  1.00  0.00     0.074 A 
ATOM     55  C   UNL A   1      39.109  28.082  29.796  1.00  0.00     0.031 C 
ATOM     56  C   UNL A   1      44.494  25.636  26.323  1.00  0.00     0.029 A 
ATOM     57  C   UNL A   1      44.650  26.943  26.939  1.00  0.00     0.049 A 
ATOM     58  H   UNL A   1      43.231  28.006  28.035  1.00  0.00     0.167 HD
ATOM     59  C   UNL A   1      40.281  30.227  30.222  1.00  0.00     0.037 A 
ATOM     60  C   UNL A   1      45.769  27.684  26.835  1.00  0.00     0.037 A 
ATOM     61  C   UNL A   1      41.384  31.148  30.081  1.00  0.00     0.049 A 
ATOM     62  C   UNL A   1      45.767  29.085  27.354  1.00  0.00     0.074 A 
ATOM     63  C   UNL A   1      41.510  32.433  30.586  1.00  0.00     0.029 A 
ATOM     64  N   UNL A   1      42.557  30.879  29.392  1.00  0.00    -0.354 N 
ATOM     65  N   UNL A   1      44.834  29.715  28.021  1.00  0.00    -0.248 NA
ATOM     66  C   UNL A   1      46.952  29.899  27.053  1.00  0.00     0.031 C 
ATOM     67  C   UNL A   1      42.735  32.959  30.158  1.00  0.00     0.029 A 
ATOM     68  C   UNL A   1      43.396  31.983  29.434  1.00  0.00     0.049 A 
ATOM     69  H   UNL A   1      42.763  30.030  28.939  1.00  0.00     0.167 HD
ATOM     70  C   UNL A   1      45.309  31.001  28.212  1.00  0.00     0.074 A 
ATOM     71  C   UNL A   1      46.628  31.055  27.615  1.00  0.00     0.031 C 
ATOM     72  C   UNL A   1      44.696  32.045  28.819  1.00  0.00     0.037 A 
BRANCH  59  73
ATOM     73  C   UNL A   1      39.092  30.697  31.015  1.00  0.00     0.064 A 
ATOM     74  C   UNL A   1      37.990  31.321  30.414  1.00  0.00     0.173 A 
ATOM     75  C   UNL A   1      39.027  30.443  32.395  1.00  0.00     0.173 A 
ATOM     76  F   UNL A   1      38.002  31.597  29.102  1.00  0.00    -0.203 F 
ATOM     77  C   UNL A   1      36.872  31.680  31.167  1.00  0.00     0.198 A 
ATOM     78  C   UNL A   1      37.900  30.781  33.140  1.00  0.00     0.198 A 
ATOM     79  F   UNL A   1      40.051  29.841  33.020  1.00  0.00    -0.203 F 
ATOM     80  F   UNL A   1      35.840  32.300  30.578  1.00  0.00    -0.200 F 
ATOM     81  C   UNL A   1      36.824  31.402  32.525  1.00  0.00     0.200 A 
ATOM     82  F   UNL A   1      37.852  30.498  34.449  1.00  0.00    -0.200 F 
ATOM     83  F   UNL A   1      35.742  31.736  33.244  1.00  0.00    -0.200 F 
ENDBRANCH  59  73
BRANCH  60  84
ATOM     84  C   UNL A   1      46.928  27.139  26.078  1.00  0.00     0.064 A 
ATOM     85  C   UNL A   1      47.092  27.393  24.711  1.00  0.00     0.173 A 
ATOM     86  C   UNL A   1      47.934  26.407  26.734  1.00  0.00     0.173 A 
ATOM     87  F   UNL A   1      46.140  28.050  24.033  1.00  0.00    -0.203 F 
ATOM     88  C   UNL A   1      48.231  26.960  24.035  1.00  0.00     0.198 A 
ATOM     89  C   UNL A   1      49.091  26.017  26.068  1.00  0.00     0.198 A 
ATOM     90  F   UNL A   1      47.820  26.127  28.040  1.00  0.00    -0.203 F 
ATOM     91  F   UNL A   1      48.359  27.196  22.723  1.00  0.00    -0.200 F 
ATOM     92  C   UNL A   1      49.239  26.293  24.718  1.00  0.00     0.200 A 
ATOM     93  F   UNL A   1      50.071  25.398  26.741  1.00  0.00    -0.200 F 
ATOM     94  F   UNL A   1      50.353  25.916  24.076  1.00  0.00    -0.200 F 
ENDBRANCH  60  84
BRANCH  72  95
ATOM     95  C   UNL A   1      45.463  33.330  28.881  1.00  0.00     0.064 A 
ATOM     96  C   UNL A   1      45.317  34.317  27.895  1.00  0.00     0.173 A 
ATOM     97  C   UNL A   1      46.371  33.567  29.922  1.00  0.00     0.173 A 
ATOM     98  F   UNL A   1      44.476  34.126  26.867  1.00  0.00    -0.203 F 
ATOM     99  C   UNL A   1      46.080  35.482  27.931  1.00  0.00     0.198 A 
ATOM    100  C   UNL A   1      47.114  34.744  29.969  1.00  0.00     0.198 A 
ATOM    101  F   UNL A   1      46.545  32.654  30.889  1.00  0.00    -0.203 F 
ATOM    102  F   UNL A   1      45.968  36.384  26.948  1.00  0.00    -0.200 F 
ATOM    103  C   UNL A   1      46.975  35.694  28.968  1.00  0.00     0.200 A 
ATOM    104  F   UNL A   1      47.976  34.951  30.975  1.00  0.00    -0.200 F 
ATOM    105  F   UNL A   1      47.717  36.810  28.996  1.00  0.00    -0.200 F 
ENDBRANCH  72  95
ENDBRANCH  46  47
ENDBRANCH  39  41
ENDBRANCH  38  39
ENDBRANCH  37  38
ENDBRANCH   1  37
TORSDOF 17
ENDMDL
MODEL 3
REMARK VINA RESULT:     -13.1      1.144      5.617
REMARK SMILES CC(C)C(=O)Nc1ccc2c([C@H](C(=O)OCCOC(=O)c3ccc(-c4c5nc(c(-c6c(F)c(F)c(F)c(F)c6F)c6ccc([nH]6)c(-c6c(F)c(F)c(F)c(F)c6F)c6nc(c(-c7c(F)c(F)c(F)c(F)c7F)c7ccc4[nH]7)C=C6)C=C5)cc3)[NH+]3CC[NH+](CC(=O)N(C)C)CC3)c[nH]c2c1
REMARK SMILES IDX 16 1 15 2 13 3 14 4 12 5 11 6 7 7 8 8 99 9 9 10 98 11 10 12
REMARK SMILES IDX 97 13 96 14 6 16 4 17 5 18 2 20 1 21 3 22 84 23 85 24 95 25
REMARK SMILES IDX 86 27 94 28 87 29 88 31 89 32 90 33 91 34 92 35 93 36 17 37
REMARK SMILES IDX 18 38 19 39 20 40 21 41 22 42 83 43 23 44 82 45 24 46 25 47
REMARK SMILES IDX 26 48 76 49 27 50 81 51 75 52 77 53 28 54 80 55 74 56 73 57
REMARK SMILES IDX 29 59 61 60 41 61 60 62 42 63 45 64 59 65 78 66 43 67 44 68
REMARK SMILES IDX 58 70 79 71 46 72 30 73 31 74 39 75 32 76 33 77 37 78 40 79
REMARK SMILES IDX 34 80 35 81 38 82 36 83 62 84 63 85 71 86 64 87 65 88 69 89
REMARK SMILES IDX 72 90 66 91 67 92 70 93 68 94 47 95 48 96 56 97 49 98 50 99
REMARK SMILES IDX 54 100 57 101 51 102 52 103 55 104 53 105
REMARK H PARENT 97 15 6 19 84 26 87 30 77 58 45 69
REMARK Flexibility Score: inf
ROOT
ATOM      1  C   UNL A   1      31.575  28.439  27.205  1.00  0.00     0.274 C 
ENDROOT
BRANCH   1   2
ATOM      2  O   UNL A   1      32.755  27.671  26.883  1.00  0.00    -0.457 OA
BRANCH   2   3
ATOM      3  C   UNL A   1      32.505  26.464  26.298  1.00  0.00     0.370 C 
ATOM      4  O   UNL A   1      31.790  25.625  26.847  1.00  0.00    -0.245 OA
BRANCH   3   5
ATOM      5  C   UNL A   1      33.293  26.197  24.982  1.00  0.00     0.328 C 
BRANCH   5   6
ATOM      6  C   UNL A   1      33.937  24.795  24.927  1.00  0.00     0.046 A 
ATOM      7  C   UNL A   1      32.577  20.987  23.776  1.00  0.00     0.043 A 
ATOM      8  C   UNL A   1      31.583  21.905  24.065  1.00  0.00     0.027 A 
ATOM      9  C   UNL A   1      33.903  21.229  24.145  1.00  0.00     0.052 A 
ATOM     10  C   UNL A   1      31.910  23.201  24.439  1.00  0.00     0.013 A 
ATOM     11  C   UNL A   1      34.213  22.535  24.557  1.00  0.00     0.048 A 
ATOM     12  C   UNL A   1      33.260  23.552  24.635  1.00  0.00     0.009 A 
ATOM     13  N   UNL A   1      35.415  23.096  24.902  1.00  0.00    -0.361 N 
ATOM     14  C   UNL A   1      35.265  24.441  25.117  1.00  0.00     0.094 A 
ATOM     15  H   UNL A   1      36.264  22.604  24.984  1.00  0.00     0.166 HD
BRANCH   7  16
ATOM     16  N   UNL A   1      32.272  19.830  23.059  1.00  0.00    -0.326 N 
ATOM     17  C   UNL A   1      32.747  18.560  23.257  1.00  0.00     0.226 C 
ATOM     18  O   UNL A   1      32.468  17.709  22.403  1.00  0.00    -0.274 OA
ATOM     19  H   UNL A   1      31.636  19.939  22.316  1.00  0.00     0.169 HD
BRANCH  17  20
ATOM     20  C   UNL A   1      33.507  18.126  24.531  1.00  0.00     0.072 C 
ATOM     21  C   UNL A   1      32.637  17.796  25.740  1.00  0.00     0.018 C 
ATOM     22  C   UNL A   1      34.606  17.088  24.299  1.00  0.00     0.018 C 
ENDBRANCH  17  20
ENDBRANCH   7  16
ENDBRANCH   5   6
BRANCH   5  23
ATOM     23  N   UNL A   1      32.632  26.487  23.689  1.00  0.00    -0.310 N 
ATOM     24  C   UNL A   1      31.181  26.446  23.636  1.00  0.00     0.325 C 
ATOM     25  C   UNL A   1      33.182  27.524  22.821  1.00  0.00     0.325 C 
ATOM     26  H   UNL A   1      32.946  25.618  23.257  1.00  0.00     0.349 HD
ATOM     27  C   UNL A   1      30.562  27.796  23.925  1.00  0.00     0.325 C 
ATOM     28  C   UNL A   1      32.424  28.880  22.745  1.00  0.00     0.325 C 
ATOM     29  N   UNL A   1      31.007  28.907  23.092  1.00  0.00    -0.318 N 
ATOM     30  H   UNL A   1      30.970  29.731  23.692  1.00  0.00     0.348 HD
BRANCH  29  31
ATOM     31  C   UNL A   1      30.068  29.253  22.024  1.00  0.00     0.364 C 
BRANCH  31  32
ATOM     32  C   UNL A   1      29.141  30.418  22.385  1.00  0.00     0.277 C 
ATOM     33  O   UNL A   1      29.489  31.576  22.126  1.00  0.00    -0.268 OA
ATOM     34  N   UNL A   1      27.966  30.152  23.065  1.00  0.00    -0.344 N 
ATOM     35  C   UNL A   1      27.295  28.866  23.108  1.00  0.00     0.146 C 
ATOM     36  C   UNL A   1      27.282  31.260  23.706  1.00  0.00     0.146 C 
ENDBRANCH  31  32
ENDBRANCH  29  31
ENDBRANCH   5  23
ENDBRANCH   3   5
ENDBRANCH   2   3
ENDBRANCH   1   2
BRANCH   1  37
ATOM     37  C   UNL A   1      31.715  29.902  26.758  1.00  0.00     0.275 C 
BRANCH  37  38
ATOM     38  O   UNL A   1      33.078  30.328  26.566  1.00  0.00    -0.458 OA
BRANCH  38  39
ATOM     39  C   UNL A   1      33.478  31.425  27.250  1.00  0.00     0.338 C 
ATOM     40  O   UNL A   1      32.936  32.516  27.269  1.00  0.00    -0.246 OA
BRANCH  39  41
ATOM     41  C   UNL A   1      34.820  31.153  27.805  1.00  0.00     0.060 A 
ATOM     42  C   UNL A   1      35.065  29.856  28.228  1.00  0.00     0.016 A 
ATOM     43  C   UNL A   1      35.782  32.144  28.014  1.00  0.00     0.016 A 
ATOM     44  C   UNL A   1      36.202  29.594  28.995  1.00  0.00     0.010 A 
ATOM     45  C   UNL A   1      37.003  31.821  28.648  1.00  0.00     0.010 A 
ATOM     46  C   UNL A   1      37.230  30.540  29.178  1.00  0.00    -0.014 A 
BRANCH  46  47
ATOM     47  C   UNL A   1      38.503  30.132  29.882  1.00  0.00     0.031 A 
ATOM     48  C   UNL A   1      39.565  29.254  29.247  1.00  0.00     0.074 A 
ATOM     49  C   UNL A   1      38.761  30.612  31.121  1.00  0.00     0.049 A 
ATOM     50  N   UNL A   1      40.626  28.703  29.798  1.00  0.00    -0.248 NA
ATOM     51  C   UNL A   1      39.433  28.949  27.817  1.00  0.00     0.031 C 
ATOM     52  C   UNL A   1      37.888  31.510  31.881  1.00  0.00     0.029 A 
ATOM     53  N   UNL A   1      39.846  30.449  31.954  1.00  0.00    -0.354 N 
ATOM     54  C   UNL A   1      41.262  27.978  28.794  1.00  0.00     0.074 A 
ATOM     55  C   UNL A   1      40.479  28.163  27.592  1.00  0.00     0.031 C 
ATOM     56  C   UNL A   1      38.518  31.923  32.983  1.00  0.00     0.029 A 
ATOM     57  C   UNL A   1      39.743  31.152  33.131  1.00  0.00     0.049 A 
ATOM     58  H   UNL A   1      40.619  29.884  31.729  1.00  0.00     0.167 HD
ATOM     59  C   UNL A   1      42.379  27.210  28.870  1.00  0.00     0.037 A 
ATOM     60  C   UNL A   1      40.472  31.127  34.262  1.00  0.00     0.037 A 
ATOM     61  C   UNL A   1      43.170  27.022  30.063  1.00  0.00     0.049 A 
ATOM     62  C   UNL A   1      41.613  30.169  34.373  1.00  0.00     0.074 A 
ATOM     63  C   UNL A   1      44.286  26.220  30.246  1.00  0.00     0.029 A 
ATOM     64  N   UNL A   1      42.936  27.652  31.276  1.00  0.00    -0.354 N 
ATOM     65  N   UNL A   1      42.112  29.374  33.462  1.00  0.00    -0.248 NA
ATOM     66  C   UNL A   1      42.255  30.062  35.689  1.00  0.00     0.031 C 
ATOM     67  C   UNL A   1      44.694  26.325  31.581  1.00  0.00     0.029 A 
ATOM     68  C   UNL A   1      43.866  27.234  32.216  1.00  0.00     0.049 A 
ATOM     69  H   UNL A   1      42.214  28.300  31.444  1.00  0.00     0.167 HD
ATOM     70  C   UNL A   1      43.119  28.662  34.092  1.00  0.00     0.074 A 
ATOM     71  C   UNL A   1      43.180  29.141  35.458  1.00  0.00     0.031 C 
ATOM     72  C   UNL A   1      43.912  27.691  33.581  1.00  0.00     0.037 A 
BRANCH  59  73
ATOM     73  C   UNL A   1      42.795  26.443  27.644  1.00  0.00     0.064 A 
ATOM     74  C   UNL A   1      43.750  26.932  26.742  1.00  0.00     0.173 A 
ATOM     75  C   UNL A   1      42.282  25.155  27.418  1.00  0.00     0.173 A 
ATOM     76  F   UNL A   1      44.267  28.159  26.903  1.00  0.00    -0.203 F 
ATOM     77  C   UNL A   1      44.167  26.164  25.655  1.00  0.00     0.198 A 
ATOM     78  C   UNL A   1      42.718  24.381  26.346  1.00  0.00     0.198 A 
ATOM     79  F   UNL A   1      41.371  24.634  28.256  1.00  0.00    -0.203 F 
ATOM     80  F   UNL A   1      45.061  26.661  24.788  1.00  0.00    -0.200 F 
ATOM     81  C   UNL A   1      43.658  24.888  25.463  1.00  0.00     0.200 A 
ATOM     82  F   UNL A   1      42.233  23.144  26.171  1.00  0.00    -0.200 F 
ATOM     83  F   UNL A   1      44.071  24.147  24.424  1.00  0.00    -0.200 F 
ENDBRANCH  59  73
BRANCH  60  84
ATOM     84  C   UNL A   1      40.033  31.948  35.422  1.00  0.00     0.064 A 
ATOM     85  C   UNL A   1      40.578  33.214  35.669  1.00  0.00     0.173 A 
ATOM     86  C   UNL A   1      39.002  31.503  36.269  1.00  0.00     0.173 A 
ATOM     87  F   UNL A   1      41.592  33.666  34.915  1.00  0.00    -0.203 F 
ATOM     88  C   UNL A   1      40.090  34.015  36.700  1.00  0.00     0.198 A 
ATOM     89  C   UNL A   1      38.485  32.322  37.267  1.00  0.00     0.198 A 
ATOM     90  F   UNL A   1      38.453  30.294  36.082  1.00  0.00    -0.203 F 
ATOM     91  F   UNL A   1      40.639  35.214  36.931  1.00  0.00    -0.200 F 
ATOM     92  C   UNL A   1      39.030  33.577  37.482  1.00  0.00     0.200 A 
ATOM     93  F   UNL A   1      37.444  31.904  37.999  1.00  0.00    -0.200 F 
ATOM     94  F   UNL A   1      38.533  34.366  38.445  1.00  0.00    -0.200 F 
ENDBRANCH  60  84
BRANCH  72  95
ATOM     95  C   UNL A   1      44.927  27.096  34.507  1.00  0.00     0.064 A 
ATOM     96  C   UNL A   1      44.647  25.944  35.258  1.00  0.00     0.173 A 
ATOM     97  C   UNL A   1      46.184  27.698  34.666  1.00  0.00     0.173 A 
ATOM     98  F   UNL A   1      43.450  25.347  35.156  1.00  0.00    -0.203 F 
ATOM     99  C   UNL A   1      45.578  25.437  36.161  1.00  0.00     0.198 A 
ATOM    100  C   UNL A   1      47.121  27.172  35.551  1.00  0.00     0.198 A 
ATOM    101  F   UNL A   1      46.499  28.800  33.970  1.00  0.00    -0.203 F 
ATOM    102  F   UNL A   1      45.268  24.371  36.911  1.00  0.00    -0.200 F 
ATOM    103  C   UNL A   1      46.813  26.049  36.305  1.00  0.00     0.200 A 
ATOM    104  F   UNL A   1      48.317  27.762  35.686  1.00  0.00    -0.200 F 
ATOM    105  F   UNL A   1      47.704  25.566  37.182  1.00  0.00    -0.200 F 
ENDBRANCH  72  95
ENDBRANCH  46  47
ENDBRANCH  39  41
ENDBRANCH  38  39
ENDBRANCH  37  38
ENDBRANCH   1  37
TORSDOF 17
ENDMDL
