MODEL 1
REMARK VINA RESULT:     -13.3      0.000      0.000
REMARK SMILES Cc1nc[nH]c1C(=O)[NH+]1CCC2(CC1)C[C@@H](C(=O)OCCOC(=O)c1ccc(-c3c4nc(c(-c5c(F)c(F)c(F)c(F)c5F)c5ccc([nH]5)c(-c5c(F)c(F)c(F)c(F)c5F)c5nc(c(-c6c(F)c(F)c(F)c(F)c6F)c6ccc3[nH]6)C=C5)C=C4)cc1)N(C(=O)C1CC1)C2
REMARK SMILES IDX 20 1 19 2 17 3 18 4 16 5 9 6 10 7 14 8 11 10 13 11 12 12
REMARK SMILES IDX 15 13 94 14 88 15 7 16 8 17 6 18 1 19 2 20 3 21 4 22 5 23
REMARK SMILES IDX 89 25 90 26 91 27 92 28 93 29 21 30 22 31 23 32 24 33 25 34
REMARK SMILES IDX 26 35 87 36 27 37 86 38 28 39 29 40 30 41 80 42 31 43 85 44
REMARK SMILES IDX 79 45 81 46 32 47 84 48 78 49 77 50 33 52 65 53 45 54 64 55
REMARK SMILES IDX 46 56 49 57 63 58 82 59 47 60 48 61 62 63 83 64 50 65 34 66
REMARK SMILES IDX 35 67 43 68 36 69 37 70 41 71 44 72 38 73 39 74 42 75 40 76
REMARK SMILES IDX 66 77 67 78 75 79 68 80 69 81 73 82 76 83 70 84 71 85 74 86
REMARK SMILES IDX 72 87 51 88 52 89 60 90 53 91 54 92 58 93 61 94 55 95 56 96
REMARK SMILES IDX 59 97 57 98
REMARK H PARENT 9 9 5 24 81 51 49 62
REMARK Flexibility Score: inf
ROOT
ATOM      1  C   UNL A   1      36.386  22.544  23.906  1.00  0.00     0.274 C 
ENDROOT
BRANCH   1   2
ATOM      2  O   UNL A   1      34.999  22.211  23.698  1.00  0.00    -0.461 OA
BRANCH   2   3
ATOM      3  C   UNL A   1      34.237  23.177  23.116  1.00  0.00     0.328 C 
ATOM      4  O   UNL A   1      34.676  24.076  22.406  1.00  0.00    -0.250 OA
BRANCH   3   5
ATOM      5  C   UNL A   1      32.746  23.070  23.471  1.00  0.00     0.195 C 
ATOM      6  N   UNL A   1      31.106  28.053  24.272  1.00  0.00    -0.266 N 
ATOM      7  C   UNL A   1      30.203  27.033  24.764  1.00  0.00     0.271 C 
ATOM      8  C   UNL A   1      32.524  27.738  24.375  1.00  0.00     0.271 C 
ATOM      9  H   UNL A   1      31.478  28.888  24.637  1.00  0.00     0.357 HD
ATOM     10  C   UNL A   1      30.381  25.807  23.890  1.00  0.00     0.071 C 
ATOM     11  C   UNL A   1      32.872  26.400  23.715  1.00  0.00     0.071 C 
ATOM     12  C   UNL A   1      31.829  25.274  23.935  1.00  0.00     0.001 C 
ATOM     13  C   UNL A   1      31.965  24.199  22.833  1.00  0.00     0.046 C 
ATOM     14  C   UNL A   1      32.083  24.513  25.260  1.00  0.00     0.128 C 
ATOM     15  N   UNL A   1      32.396  23.151  24.881  1.00  0.00    -0.328 N 
BRANCH   6  16
ATOM     16  C   UNL A   1      30.598  29.327  24.084  1.00  0.00     0.362 C 
ATOM     17  O   UNL A   1      30.772  30.201  24.936  1.00  0.00    -0.224 OA
BRANCH  16  18
ATOM     18  C   UNL A   1      29.779  29.599  22.928  1.00  0.00     0.167 A 
ATOM     19  C   UNL A   1      27.365  28.657  23.272  1.00  0.00     0.069 C 
ATOM     20  C   UNL A   1      28.460  29.355  22.566  1.00  0.00     0.072 A 
ATOM     21  N   UNL A   1      28.165  29.962  21.363  1.00  0.00    -0.241 NA
ATOM     22  C   UNL A   1      29.244  30.621  21.022  1.00  0.00     0.197 A 
ATOM     23  N   UNL A   1      30.241  30.429  21.926  1.00  0.00    -0.337 N 
ATOM     24  H   UNL A   1      31.144  30.817  21.874  1.00  0.00     0.168 HD
ENDBRANCH  16  18
ENDBRANCH   6  16
BRANCH  15  25
ATOM     25  C   UNL A   1      32.304  21.985  25.618  1.00  0.00     0.226 C 
ATOM     26  O   UNL A   1      31.370  21.207  25.434  1.00  0.00    -0.275 OA
BRANCH  25  27
ATOM     27  C   UNL A   1      33.287  21.603  26.670  1.00  0.00     0.079 C 
ATOM     28  C   UNL A   1      34.462  22.351  27.231  1.00  0.00     0.014 C 
ATOM     29  C   UNL A   1      33.200  22.239  28.039  1.00  0.00     0.014 C 
ENDBRANCH  25  27
ENDBRANCH  15  25
ENDBRANCH   3   5
ENDBRANCH   2   3
ENDBRANCH   1   2
BRANCH   1  30
ATOM     30  C   UNL A   1      37.130  21.387  24.570  1.00  0.00     0.275 C 
BRANCH  30  31
ATOM     31  O   UNL A   1      37.602  21.783  25.869  1.00  0.00    -0.458 OA
BRANCH  31  32
ATOM     32  C   UNL A   1      38.909  21.529  26.110  1.00  0.00     0.338 C 
ATOM     33  O   UNL A   1      39.513  20.490  25.916  1.00  0.00    -0.246 OA
BRANCH  32  34
ATOM     34  C   UNL A   1      39.530  22.746  26.653  1.00  0.00     0.060 A 
ATOM     35  C   UNL A   1      39.128  23.988  26.165  1.00  0.00     0.016 A 
ATOM     36  C   UNL A   1      40.573  22.654  27.571  1.00  0.00     0.016 A 
ATOM     37  C   UNL A   1      39.793  25.146  26.546  1.00  0.00     0.010 A 
ATOM     38  C   UNL A   1      41.214  23.823  27.993  1.00  0.00     0.010 A 
ATOM     39  C   UNL A   1      40.844  25.073  27.465  1.00  0.00    -0.014 A 
BRANCH  39  40
ATOM     40  C   UNL A   1      41.601  26.297  27.816  1.00  0.00     0.031 A 
ATOM     41  C   UNL A   1      40.945  27.357  28.650  1.00  0.00     0.074 A 
ATOM     42  C   UNL A   1      42.874  26.446  27.407  1.00  0.00     0.049 A 
ATOM     43  N   UNL A   1      41.360  28.567  28.930  1.00  0.00    -0.248 NA
ATOM     44  C   UNL A   1      39.645  27.012  29.245  1.00  0.00     0.031 C 
ATOM     45  C   UNL A   1      43.641  25.454  26.653  1.00  0.00     0.029 A 
ATOM     46  N   UNL A   1      43.745  27.494  27.566  1.00  0.00    -0.354 N 
ATOM     47  C   UNL A   1      40.352  29.142  29.691  1.00  0.00     0.074 A 
ATOM     48  C   UNL A   1      39.306  28.151  29.835  1.00  0.00     0.031 C 
ATOM     49  C   UNL A   1      44.871  25.940  26.417  1.00  0.00     0.029 A 
ATOM     50  C   UNL A   1      44.954  27.298  26.947  1.00  0.00     0.049 A 
ATOM     51  H   UNL A   1      43.525  28.308  28.076  1.00  0.00     0.167 HD
ATOM     52  C   UNL A   1      40.306  30.389  30.216  1.00  0.00     0.037 A 
ATOM     53  C   UNL A   1      45.996  28.136  26.789  1.00  0.00     0.037 A 
ATOM     54  C   UNL A   1      41.371  31.351  30.107  1.00  0.00     0.049 A 
ATOM     55  C   UNL A   1      45.908  29.527  27.353  1.00  0.00     0.074 A 
ATOM     56  C   UNL A   1      41.428  32.639  30.611  1.00  0.00     0.029 A 
ATOM     57  N   UNL A   1      42.574  31.123  29.454  1.00  0.00    -0.354 N 
ATOM     58  N   UNL A   1      44.932  30.085  28.027  1.00  0.00    -0.248 NA
ATOM     59  C   UNL A   1      47.059  30.409  27.121  1.00  0.00     0.031 C 
ATOM     60  C   UNL A   1      42.654  33.200  30.237  1.00  0.00     0.029 A 
ATOM     61  C   UNL A   1      43.375  32.250  29.531  1.00  0.00     0.049 A 
ATOM     62  H   UNL A   1      42.820  30.284  29.001  1.00  0.00     0.167 HD
ATOM     63  C   UNL A   1      45.352  31.377  28.310  1.00  0.00     0.074 A 
ATOM     64  C   UNL A   1      46.682  31.515  27.749  1.00  0.00     0.031 C 
ATOM     65  C   UNL A   1      44.696  32.362  28.969  1.00  0.00     0.037 A 
BRANCH  52  66
ATOM     66  C   UNL A   1      39.050  30.797  30.923  1.00  0.00     0.064 A 
ATOM     67  C   UNL A   1      37.939  31.300  30.230  1.00  0.00     0.173 A 
ATOM     68  C   UNL A   1      38.946  30.651  32.314  1.00  0.00     0.173 A 
ATOM     69  F   UNL A   1      37.994  31.473  28.901  1.00  0.00    -0.203 F 
ATOM     70  C   UNL A   1      36.778  31.663  30.909  1.00  0.00     0.198 A 
ATOM     71  C   UNL A   1      37.776  30.993  32.987  1.00  0.00     0.198 A 
ATOM     72  F   UNL A   1      39.980  30.170  33.023  1.00  0.00    -0.203 F 
ATOM     73  F   UNL A   1      35.742  32.179  30.233  1.00  0.00    -0.200 F 
ATOM     74  C   UNL A   1      36.696  31.503  32.285  1.00  0.00     0.200 A 
ATOM     75  F   UNL A   1      37.696  30.827  34.314  1.00  0.00    -0.200 F 
ATOM     76  F   UNL A   1      35.575  31.848  32.935  1.00  0.00    -0.200 F 
ENDBRANCH  52  66
BRANCH  53  77
ATOM     77  C   UNL A   1      47.192  27.691  26.031  1.00  0.00     0.064 A 
ATOM     78  C   UNL A   1      48.329  27.211  26.693  1.00  0.00     0.173 A 
ATOM     79  C   UNL A   1      47.217  27.725  24.629  1.00  0.00     0.173 A 
ATOM     80  F   UNL A   1      48.362  27.185  28.034  1.00  0.00    -0.203 F 
ATOM     81  C   UNL A   1      49.451  26.792  25.981  1.00  0.00     0.198 A 
ATOM     82  C   UNL A   1      48.329  27.279  23.917  1.00  0.00     0.198 A 
ATOM     83  F   UNL A   1      46.153  28.177  23.948  1.00  0.00    -0.203 F 
ATOM     84  F   UNL A   1      50.541  26.371  26.639  1.00  0.00    -0.200 F 
ATOM     85  C   UNL A   1      49.447  26.818  24.594  1.00  0.00     0.200 A 
ATOM     86  F   UNL A   1      48.316  27.297  22.577  1.00  0.00    -0.200 F 
ATOM     87  F   UNL A   1      50.523  26.405  23.910  1.00  0.00    -0.200 F 
ENDBRANCH  53  77
BRANCH  65  88
ATOM     88  C   UNL A   1      45.414  33.665  29.138  1.00  0.00     0.064 A 
ATOM     89  C   UNL A   1      45.231  34.723  28.236  1.00  0.00     0.173 A 
ATOM     90  C   UNL A   1      46.265  33.872  30.234  1.00  0.00     0.173 A 
ATOM     91  F   UNL A   1      44.441  34.567  27.164  1.00  0.00    -0.203 F 
ATOM     92  C   UNL A   1      45.889  35.937  28.417  1.00  0.00     0.198 A 
ATOM     93  C   UNL A   1      46.902  35.093  30.424  1.00  0.00     0.198 A 
ATOM     94  F   UNL A   1      46.468  32.889  31.125  1.00  0.00    -0.203 F 
ATOM     95  F   UNL A   1      45.730  36.923  27.524  1.00  0.00    -0.200 F 
ATOM     96  C   UNL A   1      46.718  36.123  29.514  1.00  0.00     0.200 A 
ATOM     97  F   UNL A   1      47.697  35.274  31.488  1.00  0.00    -0.200 F 
ATOM     98  F   UNL A   1      47.346  37.294  29.689  1.00  0.00    -0.200 F 
ENDBRANCH  65  88
ENDBRANCH  39  40
ENDBRANCH  32  34
ENDBRANCH  31  32
ENDBRANCH  30  31
ENDBRANCH   1  30
TORSDOF 15
ENDMDL
MODEL 2
REMARK VINA RESULT:     -13.1      1.326      7.465
REMARK SMILES Cc1nc[nH]c1C(=O)[NH+]1CCC2(CC1)C[C@@H](C(=O)OCCOC(=O)c1ccc(-c3c4nc(c(-c5c(F)c(F)c(F)c(F)c5F)c5ccc([nH]5)c(-c5c(F)c(F)c(F)c(F)c5F)c5nc(c(-c6c(F)c(F)c(F)c(F)c6F)c6ccc3[nH]6)C=C5)C=C4)cc1)N(C(=O)C1CC1)C2
REMARK SMILES IDX 20 1 19 2 17 3 18 4 16 5 9 6 10 7 14 8 11 10 13 11 12 12
REMARK SMILES IDX 15 13 94 14 88 15 7 16 8 17 6 18 1 19 2 20 3 21 4 22 5 23
REMARK SMILES IDX 89 25 90 26 91 27 92 28 93 29 21 30 22 31 23 32 24 33 25 34
REMARK SMILES IDX 26 35 87 36 27 37 86 38 28 39 29 40 30 41 80 42 31 43 85 44
REMARK SMILES IDX 79 45 81 46 32 47 84 48 78 49 77 50 33 52 65 53 45 54 64 55
REMARK SMILES IDX 46 56 49 57 63 58 82 59 47 60 48 61 62 63 83 64 50 65 34 66
REMARK SMILES IDX 35 67 43 68 36 69 37 70 41 71 44 72 38 73 39 74 42 75 40 76
REMARK SMILES IDX 66 77 67 78 75 79 68 80 69 81 73 82 76 83 70 84 71 85 74 86
REMARK SMILES IDX 72 87 51 88 52 89 60 90 53 91 54 92 58 93 61 94 55 95 56 96
REMARK SMILES IDX 59 97 57 98
REMARK H PARENT 9 9 5 24 81 51 49 62
REMARK Flexibility Score: inf
ROOT
ATOM      1  C   UNL A   1      37.578  20.184  24.989  1.00  0.00     0.274 C 
ENDROOT
BRANCH   1   2
ATOM      2  O   UNL A   1      37.221  21.431  25.619  1.00  0.00    -0.461 OA
BRANCH   2   3
ATOM      3  C   UNL A   1      35.890  21.638  25.814  1.00  0.00     0.328 C 
ATOM      4  O   UNL A   1      35.378  21.901  26.898  1.00  0.00    -0.250 OA
BRANCH   3   5
ATOM      5  C   UNL A   1      35.054  21.464  24.536  1.00  0.00     0.195 C 
ATOM      6  N   UNL A   1      33.249  26.308  23.338  1.00  0.00    -0.266 N 
ATOM      7  C   UNL A   1      32.579  25.226  22.648  1.00  0.00     0.271 C 
ATOM      8  C   UNL A   1      33.674  26.016  24.700  1.00  0.00     0.271 C 
ATOM      9  H   UNL A   1      32.955  27.112  23.824  1.00  0.00     0.357 HD
ATOM     10  C   UNL A   1      33.576  24.094  22.498  1.00  0.00     0.071 C 
ATOM     11  C   UNL A   1      34.542  24.757  24.781  1.00  0.00     0.071 C 
ATOM     12  C   UNL A   1      34.087  23.592  23.865  1.00  0.00     0.001 C 
ATOM     13  C   UNL A   1      35.268  22.632  23.598  1.00  0.00     0.046 C 
ATOM     14  C   UNL A   1      33.014  22.712  24.551  1.00  0.00     0.128 C 
ATOM     15  N   UNL A   1      33.609  21.401  24.697  1.00  0.00    -0.328 N 
BRANCH   6  16
ATOM     16  C   UNL A   1      33.124  27.583  22.812  1.00  0.00     0.362 C 
ATOM     17  O   UNL A   1      34.061  28.102  22.203  1.00  0.00    -0.224 OA
BRANCH  16  18
ATOM     18  C   UNL A   1      31.922  28.339  23.067  1.00  0.00     0.167 A 
ATOM     19  C   UNL A   1      32.006  29.421  25.445  1.00  0.00     0.069 C 
ATOM     20  C   UNL A   1      31.437  29.109  24.117  1.00  0.00     0.072 A 
ATOM     21  N   UNL A   1      30.252  29.722  23.765  1.00  0.00    -0.241 NA
ATOM     22  C   UNL A   1      30.044  29.400  22.513  1.00  0.00     0.197 A 
ATOM     23  N   UNL A   1      31.014  28.567  22.053  1.00  0.00    -0.337 N 
ATOM     24  H   UNL A   1      31.061  28.189  21.145  1.00  0.00     0.168 HD
ENDBRANCH  16  18
ENDBRANCH   6  16
BRANCH  15  25
ATOM     25  C   UNL A   1      33.005  20.167  24.851  1.00  0.00     0.226 C 
ATOM     26  O   UNL A   1      31.813  20.091  25.148  1.00  0.00    -0.275 OA
BRANCH  25  27
ATOM     27  C   UNL A   1      33.731  18.875  24.692  1.00  0.00     0.079 C 
ATOM     28  C   UNL A   1      33.258  17.460  24.852  1.00  0.00     0.014 C 
ATOM     29  C   UNL A   1      33.472  18.019  23.474  1.00  0.00     0.014 C 
ENDBRANCH  25  27
ENDBRANCH  15  25
ENDBRANCH   3   5
ENDBRANCH   2   3
ENDBRANCH   1   2
BRANCH   1  30
ATOM     30  C   UNL A   1      38.801  19.565  25.663  1.00  0.00     0.275 C 
BRANCH  30  31
ATOM     31  O   UNL A   1      39.858  20.535  25.755  1.00  0.00    -0.458 OA
BRANCH  31  32
ATOM     32  C   UNL A   1      40.491  20.586  26.951  1.00  0.00     0.338 C 
ATOM     33  O   UNL A   1      40.787  19.654  27.677  1.00  0.00    -0.246 OA
BRANCH  32  34
ATOM     34  C   UNL A   1      40.797  21.991  27.259  1.00  0.00     0.060 A 
ATOM     35  C   UNL A   1      40.234  22.995  26.474  1.00  0.00     0.016 A 
ATOM     36  C   UNL A   1      41.713  22.307  28.258  1.00  0.00     0.016 A 
ATOM     37  C   UNL A   1      40.615  24.320  26.642  1.00  0.00     0.010 A 
ATOM     38  C   UNL A   1      42.064  23.646  28.461  1.00  0.00     0.010 A 
ATOM     39  C   UNL A   1      41.535  24.658  27.638  1.00  0.00    -0.014 A 
BRANCH  39  40
ATOM     40  C   UNL A   1      41.997  26.059  27.769  1.00  0.00     0.031 A 
ATOM     41  C   UNL A   1      43.310  26.463  27.168  1.00  0.00     0.074 A 
ATOM     42  C   UNL A   1      41.234  26.966  28.405  1.00  0.00     0.049 A 
ATOM     43  N   UNL A   1      43.977  27.580  27.307  1.00  0.00    -0.248 NA
ATOM     44  C   UNL A   1      43.964  25.474  26.297  1.00  0.00     0.031 C 
ATOM     45  C   UNL A   1      39.908  26.710  28.968  1.00  0.00     0.029 A 
ATOM     46  N   UNL A   1      41.468  28.288  28.687  1.00  0.00    -0.354 N 
ATOM     47  C   UNL A   1      45.149  27.411  26.582  1.00  0.00     0.074 A 
ATOM     48  C   UNL A   1      45.103  26.086  26.000  1.00  0.00     0.031 C 
ATOM     49  C   UNL A   1      39.445  27.840  29.527  1.00  0.00     0.029 A 
ATOM     50  C   UNL A   1      40.466  28.877  29.416  1.00  0.00     0.049 A 
ATOM     51  H   UNL A   1      42.278  28.768  28.395  1.00  0.00     0.167 HD
ATOM     52  C   UNL A   1      46.170  28.285  26.424  1.00  0.00     0.037 A 
ATOM     53  C   UNL A   1      40.398  30.104  29.969  1.00  0.00     0.037 A 
ATOM     54  C   UNL A   1      46.186  29.617  26.969  1.00  0.00     0.049 A 
ATOM     55  C   UNL A   1      41.559  31.044  29.807  1.00  0.00     0.074 A 
ATOM     56  C   UNL A   1      47.169  30.585  26.859  1.00  0.00     0.029 A 
ATOM     57  N   UNL A   1      45.159  30.172  27.719  1.00  0.00    -0.354 N 
ATOM     58  N   UNL A   1      42.687  30.861  29.165  1.00  0.00    -0.248 NA
ATOM     59  C   UNL A   1      41.444  32.355  30.459  1.00  0.00     0.031 C 
ATOM     60  C   UNL A   1      46.749  31.716  27.568  1.00  0.00     0.029 A 
ATOM     61  C   UNL A   1      45.489  31.465  28.090  1.00  0.00     0.049 A 
ATOM     62  H   UNL A   1      44.320  29.713  27.954  1.00  0.00     0.167 HD
ATOM     63  C   UNL A   1      43.412  32.033  29.325  1.00  0.00     0.074 A 
ATOM     64  C   UNL A   1      42.588  32.930  30.110  1.00  0.00     0.031 C 
ATOM     65  C   UNL A   1      44.651  32.339  28.868  1.00  0.00     0.037 A 
BRANCH  52  66
ATOM     66  C   UNL A   1      47.372  27.814  25.664  1.00  0.00     0.064 A 
ATOM     67  C   UNL A   1      47.432  27.864  24.263  1.00  0.00     0.173 A 
ATOM     68  C   UNL A   1      48.495  27.331  26.353  1.00  0.00     0.173 A 
ATOM     69  F   UNL A   1      46.378  28.303  23.559  1.00  0.00    -0.203 F 
ATOM     70  C   UNL A   1      48.565  27.429  23.581  1.00  0.00     0.198 A 
ATOM     71  C   UNL A   1      49.635  26.918  25.668  1.00  0.00     0.198 A 
ATOM     72  F   UNL A   1      48.489  27.265  27.693  1.00  0.00    -0.203 F 
ATOM     73  F   UNL A   1      48.587  27.449  22.241  1.00  0.00    -0.200 F 
ATOM     74  C   UNL A   1      49.667  26.962  24.283  1.00  0.00     0.200 A 
ATOM     75  F   UNL A   1      50.701  26.479  26.349  1.00  0.00    -0.200 F 
ATOM     76  F   UNL A   1      50.758  26.550  23.624  1.00  0.00    -0.200 F 
ENDBRANCH  52  66
BRANCH  53  77
ATOM     77  C   UNL A   1      39.201  30.491  30.757  1.00  0.00     0.064 A 
ATOM     78  C   UNL A   1      38.105  31.113  30.146  1.00  0.00     0.173 A 
ATOM     79  C   UNL A   1      39.126  30.237  32.135  1.00  0.00     0.173 A 
ATOM     80  F   UNL A   1      38.141  31.401  28.837  1.00  0.00    -0.203 F 
ATOM     81  C   UNL A   1      36.981  31.476  30.887  1.00  0.00     0.198 A 
ATOM     82  C   UNL A   1      37.990  30.575  32.868  1.00  0.00     0.198 A 
ATOM     83  F   UNL A   1      40.150  29.645  32.766  1.00  0.00    -0.203 F 
ATOM     84  F   UNL A   1      35.960  32.103  30.286  1.00  0.00    -0.200 F 
ATOM     85  C   UNL A   1      36.921  31.199  32.244  1.00  0.00     0.200 A 
ATOM     86  F   UNL A   1      37.933  30.295  34.178  1.00  0.00    -0.200 F 
ATOM     87  F   UNL A   1      35.836  31.539  32.953  1.00  0.00    -0.200 F 
ENDBRANCH  53  77
BRANCH  65  88
ATOM     88  C   UNL A   1      45.178  33.704  29.188  1.00  0.00     0.064 A 
ATOM     89  C   UNL A   1      45.960  33.937  30.328  1.00  0.00     0.173 A 
ATOM     90  C   UNL A   1      44.930  34.782  28.324  1.00  0.00     0.173 A 
ATOM     91  F   UNL A   1      46.210  32.941  31.191  1.00  0.00    -0.203 F 
ATOM     92  C   UNL A   1      46.462  35.207  30.601  1.00  0.00     0.198 A 
ATOM     93  C   UNL A   1      45.452  36.044  28.589  1.00  0.00     0.198 A 
ATOM     94  F   UNL A   1      44.189  34.605  27.220  1.00  0.00    -0.203 F 
ATOM     95  F   UNL A   1      47.176  35.417  31.715  1.00  0.00    -0.200 F 
ATOM     96  C   UNL A   1      46.213  36.257  29.729  1.00  0.00     0.200 A 
ATOM     97  F   UNL A   1      45.217  37.055  27.742  1.00  0.00    -0.200 F 
ATOM     98  F   UNL A   1      46.701  37.477  29.991  1.00  0.00    -0.200 F 
ENDBRANCH  65  88
ENDBRANCH  39  40
ENDBRANCH  32  34
ENDBRANCH  31  32
ENDBRANCH  30  31
ENDBRANCH   1  30
TORSDOF 15
ENDMDL
MODEL 3
REMARK VINA RESULT:     -13.0      1.143      1.850
REMARK SMILES Cc1nc[nH]c1C(=O)[NH+]1CCC2(CC1)C[C@@H](C(=O)OCCOC(=O)c1ccc(-c3c4nc(c(-c5c(F)c(F)c(F)c(F)c5F)c5ccc([nH]5)c(-c5c(F)c(F)c(F)c(F)c5F)c5nc(c(-c6c(F)c(F)c(F)c(F)c6F)c6ccc3[nH]6)C=C5)C=C4)cc1)N(C(=O)C1CC1)C2
REMARK SMILES IDX 20 1 19 2 17 3 18 4 16 5 9 6 10 7 14 8 11 10 13 11 12 12
REMARK SMILES IDX 15 13 94 14 88 15 7 16 8 17 6 18 1 19 2 20 3 21 4 22 5 23
REMARK SMILES IDX 89 25 90 26 91 27 92 28 93 29 21 30 22 31 23 32 24 33 25 34
REMARK SMILES IDX 26 35 87 36 27 37 86 38 28 39 29 40 30 41 80 42 31 43 85 44
REMARK SMILES IDX 79 45 81 46 32 47 84 48 78 49 77 50 33 52 65 53 45 54 64 55
REMARK SMILES IDX 46 56 49 57 63 58 82 59 47 60 48 61 62 63 83 64 50 65 34 66
REMARK SMILES IDX 35 67 43 68 36 69 37 70 41 71 44 72 38 73 39 74 42 75 40 76
REMARK SMILES IDX 66 77 67 78 75 79 68 80 69 81 73 82 76 83 70 84 71 85 74 86
REMARK SMILES IDX 72 87 51 88 52 89 60 90 53 91 54 92 58 93 61 94 55 95 56 96
REMARK SMILES IDX 59 97 57 98
REMARK H PARENT 9 9 5 24 81 51 49 62
REMARK Flexibility Score: inf
ROOT
ATOM      1  C   UNL A   1      36.143  20.626  25.004  1.00  0.00     0.274 C 
ENDROOT
BRANCH   1   2
ATOM      2  O   UNL A   1      35.593  21.573  25.941  1.00  0.00    -0.461 OA
BRANCH   2   3
ATOM      3  C   UNL A   1      34.427  22.168  25.569  1.00  0.00     0.328 C 
ATOM      4  O   UNL A   1      33.572  22.574  26.351  1.00  0.00    -0.250 OA
BRANCH   3   5
ATOM      5  C   UNL A   1      34.244  22.248  24.046  1.00  0.00     0.195 C 
ATOM      6  N   UNL A   1      32.178  27.043  23.102  1.00  0.00    -0.266 N 
ATOM      7  C   UNL A   1      32.080  26.114  21.995  1.00  0.00     0.271 C 
ATOM      8  C   UNL A   1      32.052  26.454  24.428  1.00  0.00     0.271 C 
ATOM      9  H   UNL A   1      31.558  27.665  23.546  1.00  0.00     0.357 HD
ATOM     10  C   UNL A   1      33.252  25.158  22.097  1.00  0.00     0.071 C 
ATOM     11  C   UNL A   1      33.038  25.304  24.650  1.00  0.00     0.071 C 
ATOM     12  C   UNL A   1      33.241  24.374  23.426  1.00  0.00     0.001 C 
ATOM     13  C   UNL A   1      34.591  23.631  23.540  1.00  0.00     0.046 C 
ATOM     14  C   UNL A   1      32.177  23.250  23.381  1.00  0.00     0.128 C 
ATOM     15  N   UNL A   1      32.905  22.008  23.528  1.00  0.00    -0.328 N 
BRANCH   6  16
ATOM     16  C   UNL A   1      32.032  28.392  22.825  1.00  0.00     0.362 C 
ATOM     17  O   UNL A   1      32.968  29.172  23.011  1.00  0.00    -0.224 OA
BRANCH  16  18
ATOM     18  C   UNL A   1      30.745  28.894  22.411  1.00  0.00     0.167 A 
ATOM     19  C   UNL A   1      28.822  27.499  23.501  1.00  0.00     0.069 C 
ATOM     20  C   UNL A   1      29.420  28.568  22.674  1.00  0.00     0.072 A 
ATOM     21  N   UNL A   1      28.568  29.485  22.094  1.00  0.00    -0.241 NA
ATOM     22  C   UNL A   1      29.340  30.392  21.549  1.00  0.00     0.197 A 
ATOM     23  N   UNL A   1      30.653  30.078  21.707  1.00  0.00    -0.337 N 
ATOM     24  H   UNL A   1      31.412  30.608  21.374  1.00  0.00     0.168 HD
ENDBRANCH  16  18
ENDBRANCH   6  16
BRANCH  15  25
ATOM     25  C   UNL A   1      32.547  20.724  23.161  1.00  0.00     0.226 C 
ATOM     26  O   UNL A   1      31.778  20.540  22.218  1.00  0.00    -0.275 OA
BRANCH  25  27
ATOM     27  C   UNL A   1      33.035  19.506  23.866  1.00  0.00     0.079 C 
ATOM     28  C   UNL A   1      32.651  18.925  25.196  1.00  0.00     0.014 C 
ATOM     29  C   UNL A   1      32.153  18.280  23.934  1.00  0.00     0.014 C 
ENDBRANCH  25  27
ENDBRANCH  15  25
ENDBRANCH   3   5
ENDBRANCH   2   3
ENDBRANCH   1   2
BRANCH   1  30
ATOM     30  C   UNL A   1      37.666  20.728  24.957  1.00  0.00     0.275 C 
BRANCH  30  31
ATOM     31  O   UNL A   1      38.137  21.585  26.012  1.00  0.00    -0.458 OA
BRANCH  31  32
ATOM     32  C   UNL A   1      39.415  21.368  26.404  1.00  0.00     0.338 C 
ATOM     33  O   UNL A   1      40.034  20.321  26.377  1.00  0.00    -0.246 OA
BRANCH  32  34
ATOM     34  C   UNL A   1      39.980  22.641  26.876  1.00  0.00     0.060 A 
ATOM     35  C   UNL A   1      39.524  23.834  26.320  1.00  0.00     0.016 A 
ATOM     36  C   UNL A   1      41.025  22.647  27.795  1.00  0.00     0.016 A 
ATOM     37  C   UNL A   1      40.136  25.041  26.634  1.00  0.00     0.010 A 
ATOM     38  C   UNL A   1      41.614  23.865  28.151  1.00  0.00     0.010 A 
ATOM     39  C   UNL A   1      41.189  25.066  27.554  1.00  0.00    -0.014 A 
BRANCH  39  40
ATOM     40  C   UNL A   1      41.890  26.341  27.834  1.00  0.00     0.031 A 
ATOM     41  C   UNL A   1      41.200  27.402  28.637  1.00  0.00     0.074 A 
ATOM     42  C   UNL A   1      43.145  26.534  27.389  1.00  0.00     0.049 A 
ATOM     43  N   UNL A   1      41.558  28.642  28.854  1.00  0.00    -0.248 NA
ATOM     44  C   UNL A   1      39.932  27.020  29.277  1.00  0.00     0.031 C 
ATOM     45  C   UNL A   1      43.945  25.549  26.661  1.00  0.00     0.029 A 
ATOM     46  N   UNL A   1      43.966  27.630  27.482  1.00  0.00    -0.354 N 
ATOM     47  C   UNL A   1      40.539  29.200  29.614  1.00  0.00     0.074 A 
ATOM     48  C   UNL A   1      39.549  28.165  29.824  1.00  0.00     0.031 C 
ATOM     49  C   UNL A   1      45.143  26.085  26.375  1.00  0.00     0.029 A 
ATOM     50  C   UNL A   1      45.169  27.467  26.843  1.00  0.00     0.049 A 
ATOM     51  H   UNL A   1      43.715  28.453  27.962  1.00  0.00     0.167 HD
ATOM     52  C   UNL A   1      40.442  30.465  30.086  1.00  0.00     0.037 A 
ATOM     53  C   UNL A   1      46.164  28.348  26.625  1.00  0.00     0.037 A 
ATOM     54  C   UNL A   1      41.454  31.473  29.910  1.00  0.00     0.049 A 
ATOM     55  C   UNL A   1      46.017  29.756  27.131  1.00  0.00     0.074 A 
ATOM     56  C   UNL A   1      41.456  32.783  30.357  1.00  0.00     0.029 A 
ATOM     57  N   UNL A   1      42.652  31.276  29.239  1.00  0.00    -0.354 N 
ATOM     58  N   UNL A   1      45.029  30.294  27.804  1.00  0.00    -0.248 NA
ATOM     59  C   UNL A   1      47.117  30.683  26.834  1.00  0.00     0.031 C 
ATOM     60  C   UNL A   1      42.645  33.387  29.930  1.00  0.00     0.029 A 
ATOM     61  C   UNL A   1      43.398  32.444  29.249  1.00  0.00     0.049 A 
ATOM     62  H   UNL A   1      42.931  30.431  28.818  1.00  0.00     0.167 HD
ATOM     63  C   UNL A   1      45.390  31.617  28.020  1.00  0.00     0.074 A 
ATOM     64  C   UNL A   1      46.698  31.795  27.423  1.00  0.00     0.031 C 
ATOM     65  C   UNL A   1      44.698  32.596  28.652  1.00  0.00     0.037 A 
BRANCH  52  66
ATOM     66  C   UNL A   1      39.182  30.840  30.804  1.00  0.00     0.064 A 
ATOM     67  C   UNL A   1      39.056  30.719  32.196  1.00  0.00     0.173 A 
ATOM     68  C   UNL A   1      38.093  31.359  30.088  1.00  0.00     0.173 A 
ATOM     69  F   UNL A   1      40.063  30.214  32.923  1.00  0.00    -0.203 F 
ATOM     70  C   UNL A   1      37.877  31.084  32.840  1.00  0.00     0.198 A 
ATOM     71  C   UNL A   1      36.924  31.744  30.738  1.00  0.00     0.198 A 
ATOM     72  F   UNL A   1      38.164  31.498  28.755  1.00  0.00    -0.203 F 
ATOM     73  F   UNL A   1      37.763  30.923  34.166  1.00  0.00    -0.200 F 
ATOM     74  C   UNL A   1      36.815  31.601  32.113  1.00  0.00     0.200 A 
ATOM     75  F   UNL A   1      35.904  32.254  30.035  1.00  0.00    -0.200 F 
ATOM     76  F   UNL A   1      35.683  31.957  32.737  1.00  0.00    -0.200 F 
ENDBRANCH  52  66
BRANCH  53  77
ATOM     77  C   UNL A   1      47.364  27.929  25.859  1.00  0.00     0.064 A 
ATOM     78  C   UNL A   1      48.550  27.571  26.513  1.00  0.00     0.173 A 
ATOM     79  C   UNL A   1      47.346  27.868  24.457  1.00  0.00     0.173 A 
ATOM     80  F   UNL A   1      48.624  27.639  27.851  1.00  0.00    -0.203 F 
ATOM     81  C   UNL A   1      49.676  27.177  25.794  1.00  0.00     0.198 A 
ATOM     82  C   UNL A   1      48.464  27.447  23.741  1.00  0.00     0.198 A 
ATOM     83  F   UNL A   1      46.235  28.203  23.785  1.00  0.00    -0.203 F 
ATOM     84  F   UNL A   1      50.810  26.874  26.441  1.00  0.00    -0.200 F 
ATOM     85  C   UNL A   1      49.630  27.107  24.409  1.00  0.00     0.200 A 
ATOM     86  F   UNL A   1      48.411  27.372  22.403  1.00  0.00    -0.200 F 
ATOM     87  F   UNL A   1      50.711  26.718  23.719  1.00  0.00    -0.200 F 
ENDBRANCH  53  77
BRANCH  65  88
ATOM     88  C   UNL A   1      45.354  33.940  28.747  1.00  0.00     0.064 A 
ATOM     89  C   UNL A   1      45.139  34.929  27.777  1.00  0.00     0.173 A 
ATOM     90  C   UNL A   1      46.174  34.254  29.841  1.00  0.00     0.173 A 
ATOM     91  F   UNL A   1      44.376  34.668  26.705  1.00  0.00    -0.203 F 
ATOM     92  C   UNL A   1      45.737  36.181  27.890  1.00  0.00     0.198 A 
ATOM     93  C   UNL A   1      46.751  35.514  29.962  1.00  0.00     0.198 A 
ATOM     94  F   UNL A   1      46.406  33.341  30.796  1.00  0.00    -0.203 F 
ATOM     95  F   UNL A   1      45.549  37.099  26.933  1.00  0.00    -0.200 F 
ATOM     96  C   UNL A   1      46.537  36.475  28.985  1.00  0.00     0.200 A 
ATOM     97  F   UNL A   1      47.518  35.799  31.024  1.00  0.00    -0.200 F 
ATOM     98  F   UNL A   1      47.108  37.682  29.093  1.00  0.00    -0.200 F 
ENDBRANCH  65  88
ENDBRANCH  39  40
ENDBRANCH  32  34
ENDBRANCH  31  32
ENDBRANCH  30  31
ENDBRANCH   1  30
TORSDOF 15
ENDMDL
