MODEL 1
REMARK VINA RESULT:     -11.1      0.000      0.000
REMARK SMILES CCC(CC)[C@H](C(=O)OCCOC(=O)c1ccc(-c2c3nc(c(-c4c(F)c(F)c(F)c(F)c4F)c4ccc([nH]4)c(-c4c(F)c(F)c(F)c(F)c4F)c4nc(c(-c5c(F)c(F)c(F)c(F)c5F)c5ccc2[nH]5)C=C4)C=C3)cc1)c1ccc(OC(F)F)cc1
REMARK SMILES IDX 10 1 9 2 7 3 8 4 6 5 3 6 2 7 1 8 4 9 5 10 78 11 79 12 87 13
REMARK SMILES IDX 80 14 86 15 81 16 82 17 83 18 84 19 85 20 11 21 12 22 13 23
REMARK SMILES IDX 14 24 15 25 16 26 77 27 17 28 76 29 18 30 19 31 20 32 70 33
REMARK SMILES IDX 21 34 75 35 69 36 71 37 22 38 74 39 68 40 67 41 23 43 55 44
REMARK SMILES IDX 35 45 54 46 36 47 39 48 53 49 72 50 37 51 38 52 52 54 73 55
REMARK SMILES IDX 40 56 24 57 25 58 33 59 26 60 27 61 31 62 34 63 28 64 29 65
REMARK SMILES IDX 32 66 30 67 56 68 57 69 65 70 58 71 59 72 63 73 66 74 60 75
REMARK SMILES IDX 61 76 64 77 62 78 41 79 42 80 50 81 43 82 44 83 48 84 51 85
REMARK SMILES IDX 45 86 46 87 49 88 47 89
REMARK H PARENT 71 42 39 53
REMARK Flexibility Score: inf
ROOT
ATOM      1  C   UNL A   1      36.952  22.574  23.621  1.00  0.00     0.274 C 
ENDROOT
BRANCH   1   2
ATOM      2  O   UNL A   1      36.168  23.554  24.333  1.00  0.00    -0.462 OA
BRANCH   2   3
ATOM      3  C   UNL A   1      34.883  23.695  23.890  1.00  0.00     0.313 C 
ATOM      4  O   UNL A   1      34.586  24.183  22.806  1.00  0.00    -0.252 OA
BRANCH   3   5
ATOM      5  C   UNL A   1      33.861  23.243  24.944  1.00  0.00     0.132 C 
BRANCH   5   6
ATOM      6  C   UNL A   1      32.775  24.389  25.025  1.00  0.00     0.007 C 
BRANCH   6   7
ATOM      7  C   UNL A   1      31.299  23.927  24.857  1.00  0.00     0.001 C 
ATOM      8  C   UNL A   1      30.675  24.190  23.495  1.00  0.00     0.004 C 
ENDBRANCH   6   7
BRANCH   6   9
ATOM      9  C   UNL A   1      33.063  25.441  26.124  1.00  0.00     0.001 C 
ATOM     10  C   UNL A   1      33.216  26.891  25.710  1.00  0.00     0.004 C 
ENDBRANCH   6   9
ENDBRANCH   5   6
BRANCH   5  11
ATOM     11  C   UNL A   1      33.465  21.767  24.789  1.00  0.00    -0.033 A 
ATOM     12  C   UNL A   1      32.911  21.217  23.626  1.00  0.00     0.008 A 
ATOM     13  C   UNL A   1      33.612  20.892  25.888  1.00  0.00     0.008 A 
ATOM     14  C   UNL A   1      32.529  19.873  23.547  1.00  0.00     0.047 A 
ATOM     15  C   UNL A   1      33.252  19.535  25.807  1.00  0.00     0.047 A 
ATOM     16  C   UNL A   1      32.718  19.026  24.629  1.00  0.00     0.126 A 
BRANCH  16  17
ATOM     17  O   UNL A   1      32.280  17.744  24.471  1.00  0.00    -0.435 OA
BRANCH  17  18
ATOM     18  C   UNL A   1      33.181  16.898  23.764  1.00  0.00     0.542 C 
ATOM     19  F   UNL A   1      34.413  17.456  23.715  1.00  0.00    -0.167 F 
ATOM     20  F   UNL A   1      33.286  15.713  24.411  1.00  0.00    -0.167 F 
ENDBRANCH  17  18
ENDBRANCH  16  17
ENDBRANCH   5  11
ENDBRANCH   3   5
ENDBRANCH   2   3
ENDBRANCH   1   2
BRANCH   1  21
ATOM     21  C   UNL A   1      37.255  21.331  24.458  1.00  0.00     0.275 C 
BRANCH  21  22
ATOM     22  O   UNL A   1      37.605  21.701  25.802  1.00  0.00    -0.458 OA
BRANCH  22  23
ATOM     23  C   UNL A   1      38.914  21.612  26.111  1.00  0.00     0.338 C 
ATOM     24  O   UNL A   1      39.679  20.694  25.847  1.00  0.00    -0.246 OA
BRANCH  23  25
ATOM     25  C   UNL A   1      39.365  22.830  26.802  1.00  0.00     0.060 A 
ATOM     26  C   UNL A   1      38.733  24.036  26.518  1.00  0.00     0.016 A 
ATOM     27  C   UNL A   1      40.543  22.816  27.549  1.00  0.00     0.016 A 
ATOM     28  C   UNL A   1      39.332  25.242  26.865  1.00  0.00     0.010 A 
ATOM     29  C   UNL A   1      41.110  24.028  27.963  1.00  0.00     0.010 A 
ATOM     30  C   UNL A   1      40.547  25.251  27.559  1.00  0.00    -0.014 A 
BRANCH  30  31
ATOM     31  C   UNL A   1      41.277  26.539  27.707  1.00  0.00     0.031 A 
ATOM     32  C   UNL A   1      40.637  27.679  28.456  1.00  0.00     0.074 A 
ATOM     33  C   UNL A   1      42.554  26.651  27.293  1.00  0.00     0.049 A 
ATOM     34  N   UNL A   1      41.139  28.847  28.776  1.00  0.00    -0.248 NA
ATOM     35  C   UNL A   1      39.260  27.476  28.935  1.00  0.00     0.031 C 
ATOM     36  C   UNL A   1      43.320  25.602  26.622  1.00  0.00     0.029 A 
ATOM     37  N   UNL A   1      43.438  27.697  27.396  1.00  0.00    -0.354 N 
ATOM     38  C   UNL A   1      40.159  29.493  29.516  1.00  0.00     0.074 A 
ATOM     39  C   UNL A   1      39.011  28.616  29.562  1.00  0.00     0.031 C 
ATOM     40  C   UNL A   1      44.565  26.049  26.390  1.00  0.00     0.029 A 
ATOM     41  C   UNL A   1      44.670  27.431  26.854  1.00  0.00     0.049 A 
ATOM     42  H   UNL A   1      43.210  28.555  27.819  1.00  0.00     0.167 HD
ATOM     43  C   UNL A   1      40.215  30.696  30.134  1.00  0.00     0.037 A 
ATOM     44  C   UNL A   1      45.755  28.218  26.723  1.00  0.00     0.037 A 
ATOM     45  C   UNL A   1      41.331  31.597  30.072  1.00  0.00     0.049 A 
ATOM     46  C   UNL A   1      45.716  29.626  27.248  1.00  0.00     0.074 A 
ATOM     47  C   UNL A   1      41.461  32.853  30.640  1.00  0.00     0.029 A 
ATOM     48  N   UNL A   1      42.508  31.344  29.387  1.00  0.00    -0.354 N 
ATOM     49  N   UNL A   1      44.784  30.224  27.947  1.00  0.00    -0.248 NA
ATOM     50  C   UNL A   1      46.881  30.475  26.951  1.00  0.00     0.031 C 
ATOM     51  C   UNL A   1      42.704  33.377  30.263  1.00  0.00     0.029 A 
ATOM     52  C   UNL A   1      43.358  32.433  29.489  1.00  0.00     0.049 A 
ATOM     53  H   UNL A   1      42.710  30.513  28.898  1.00  0.00     0.167 HD
ATOM     54  C   UNL A   1      45.253  31.507  28.190  1.00  0.00     0.074 A 
ATOM     55  C   UNL A   1      46.559  31.601  27.572  1.00  0.00     0.031 C 
ATOM     56  C   UNL A   1      44.653  32.516  28.868  1.00  0.00     0.037 A 
BRANCH  43  57
ATOM     57  C   UNL A   1      39.017  31.104  30.931  1.00  0.00     0.064 A 
ATOM     58  C   UNL A   1      37.945  31.777  30.327  1.00  0.00     0.173 A 
ATOM     59  C   UNL A   1      38.929  30.808  32.299  1.00  0.00     0.173 A 
ATOM     60  F   UNL A   1      37.999  32.103  29.026  1.00  0.00    -0.203 F 
ATOM     61  C   UNL A   1      36.827  32.147  31.070  1.00  0.00     0.198 A 
ATOM     62  C   UNL A   1      37.805  31.169  33.034  1.00  0.00     0.198 A 
ATOM     63  F   UNL A   1      39.934  30.170  32.917  1.00  0.00    -0.203 F 
ATOM     64  F   UNL A   1      35.823  32.811  30.481  1.00  0.00    -0.200 F 
ATOM     65  C   UNL A   1      36.757  31.840  32.421  1.00  0.00     0.200 A 
ATOM     66  F   UNL A   1      37.738  30.872  34.339  1.00  0.00    -0.200 F 
ATOM     67  F   UNL A   1      35.681  32.197  33.136  1.00  0.00    -0.200 F 
ENDBRANCH  43  57
BRANCH  44  68
ATOM     68  C   UNL A   1      46.961  27.704  26.027  1.00  0.00     0.064 A 
ATOM     69  C   UNL A   1      47.068  27.744  24.631  1.00  0.00     0.173 A 
ATOM     70  C   UNL A   1      48.025  27.142  26.749  1.00  0.00     0.173 A 
ATOM     71  F   UNL A   1      46.062  28.244  23.897  1.00  0.00    -0.203 F 
ATOM     72  C   UNL A   1      48.191  27.236  23.982  1.00  0.00     0.198 A 
ATOM     73  C   UNL A   1      49.158  26.657  26.100  1.00  0.00     0.198 A 
ATOM     74  F   UNL A   1      47.965  27.069  28.086  1.00  0.00    -0.203 F 
ATOM     75  F   UNL A   1      48.253  27.251  22.643  1.00  0.00    -0.200 F 
ATOM     76  C   UNL A   1      49.237  26.698  24.717  1.00  0.00     0.200 A 
ATOM     77  F   UNL A   1      50.168  26.144  26.816  1.00  0.00    -0.200 F 
ATOM     78  F   UNL A   1      50.317  26.211  24.092  1.00  0.00    -0.200 F 
ENDBRANCH  44  68
BRANCH  56  79
ATOM     79  C   UNL A   1      45.410  33.804  28.992  1.00  0.00     0.064 A 
ATOM     80  C   UNL A   1      46.310  34.020  30.045  1.00  0.00     0.173 A 
ATOM     81  C   UNL A   1      45.259  34.815  28.033  1.00  0.00     0.173 A 
ATOM     82  F   UNL A   1      46.475  33.087  30.996  1.00  0.00    -0.203 F 
ATOM     83  C   UNL A   1      47.019  35.214  30.144  1.00  0.00     0.198 A 
ATOM     84  C   UNL A   1      45.987  35.999  28.123  1.00  0.00     0.198 A 
ATOM     85  F   UNL A   1      44.414  34.652  27.005  1.00  0.00    -0.203 F 
ATOM     86  F   UNL A   1      47.847  35.418  31.179  1.00  0.00    -0.200 F 
ATOM     87  C   UNL A   1      46.861  36.199  29.180  1.00  0.00     0.200 A 
ATOM     88  F   UNL A   1      45.840  36.947  27.186  1.00  0.00    -0.200 F 
ATOM     89  F   UNL A   1      47.547  37.347  29.275  1.00  0.00    -0.200 F 
ENDBRANCH  56  79
ENDBRANCH  30  31
ENDBRANCH  23  25
ENDBRANCH  22  23
ENDBRANCH  21  22
ENDBRANCH   1  21
TORSDOF 17
ENDMDL
MODEL 2
REMARK VINA RESULT:     -11.0      4.837      7.541
REMARK SMILES CCC(CC)[C@H](C(=O)OCCOC(=O)c1ccc(-c2c3nc(c(-c4c(F)c(F)c(F)c(F)c4F)c4ccc([nH]4)c(-c4c(F)c(F)c(F)c(F)c4F)c4nc(c(-c5c(F)c(F)c(F)c(F)c5F)c5ccc2[nH]5)C=C4)C=C3)cc1)c1ccc(OC(F)F)cc1
REMARK SMILES IDX 10 1 9 2 7 3 8 4 6 5 3 6 2 7 1 8 4 9 5 10 78 11 79 12 87 13
REMARK SMILES IDX 80 14 86 15 81 16 82 17 83 18 84 19 85 20 11 21 12 22 13 23
REMARK SMILES IDX 14 24 15 25 16 26 77 27 17 28 76 29 18 30 19 31 20 32 70 33
REMARK SMILES IDX 21 34 75 35 69 36 71 37 22 38 74 39 68 40 67 41 23 43 55 44
REMARK SMILES IDX 35 45 54 46 36 47 39 48 53 49 72 50 37 51 38 52 52 54 73 55
REMARK SMILES IDX 40 56 24 57 25 58 33 59 26 60 27 61 31 62 34 63 28 64 29 65
REMARK SMILES IDX 32 66 30 67 56 68 57 69 65 70 58 71 59 72 63 73 66 74 60 75
REMARK SMILES IDX 61 76 64 77 62 78 41 79 42 80 50 81 43 82 44 83 48 84 51 85
REMARK SMILES IDX 45 86 46 87 49 88 47 89
REMARK H PARENT 71 42 39 53
REMARK Flexibility Score: inf
ROOT
ATOM      1  C   UNL A   1      32.001  28.171  27.626  1.00  0.00     0.274 C 
ENDROOT
BRANCH   1   2
ATOM      2  O   UNL A   1      30.988  27.293  27.092  1.00  0.00    -0.462 OA
BRANCH   2   3
ATOM      3  C   UNL A   1      31.466  26.185  26.453  1.00  0.00     0.313 C 
ATOM      4  O   UNL A   1      31.344  25.044  26.883  1.00  0.00    -0.252 OA
BRANCH   3   5
ATOM      5  C   UNL A   1      32.240  26.549  25.176  1.00  0.00     0.132 C 
BRANCH   5   6
ATOM      6  C   UNL A   1      32.959  25.223  24.704  1.00  0.00     0.007 C 
BRANCH   6   7
ATOM      7  C   UNL A   1      32.491  24.659  23.332  1.00  0.00     0.001 C 
ATOM      8  C   UNL A   1      31.524  23.486  23.394  1.00  0.00     0.004 C 
ENDBRANCH   6   7
BRANCH   6   9
ATOM      9  C   UNL A   1      34.481  25.206  24.990  1.00  0.00     0.001 C 
ATOM     10  C   UNL A   1      35.208  23.878  24.938  1.00  0.00     0.004 C 
ENDBRANCH   6   9
ENDBRANCH   5   6
BRANCH   5  11
ATOM     11  C   UNL A   1      31.412  27.406  24.207  1.00  0.00    -0.033 A 
ATOM     12  C   UNL A   1      30.048  27.214  23.952  1.00  0.00     0.008 A 
ATOM     13  C   UNL A   1      32.048  28.432  23.473  1.00  0.00     0.008 A 
ATOM     14  C   UNL A   1      29.345  27.997  23.029  1.00  0.00     0.047 A 
ATOM     15  C   UNL A   1      31.342  29.236  22.562  1.00  0.00     0.047 A 
ATOM     16  C   UNL A   1      29.986  29.021  22.349  1.00  0.00     0.126 A 
BRANCH  16  17
ATOM     17  O   UNL A   1      29.229  29.704  21.442  1.00  0.00    -0.435 OA
BRANCH  17  18
ATOM     18  C   UNL A   1      28.102  30.371  22.001  1.00  0.00     0.542 C 
ATOM     19  F   UNL A   1      28.449  31.011  23.142  1.00  0.00    -0.167 F 
ATOM     20  F   UNL A   1      27.650  31.300  21.124  1.00  0.00    -0.167 F 
ENDBRANCH  17  18
ENDBRANCH  16  17
ENDBRANCH   5  11
ENDBRANCH   3   5
ENDBRANCH   2   3
ENDBRANCH   1   2
BRANCH   1  21
ATOM     21  C   UNL A   1      31.788  29.634  27.236  1.00  0.00     0.275 C 
BRANCH  21  22
ATOM     22  O   UNL A   1      32.979  30.176  26.641  1.00  0.00    -0.458 OA
BRANCH  22  23
ATOM     23  C   UNL A   1      33.537  31.214  27.294  1.00  0.00     0.338 C 
ATOM     24  O   UNL A   1      32.981  32.229  27.689  1.00  0.00    -0.246 OA
BRANCH  23  25
ATOM     25  C   UNL A   1      34.966  30.962  27.537  1.00  0.00     0.060 A 
ATOM     26  C   UNL A   1      35.430  29.650  27.518  1.00  0.00     0.016 A 
ATOM     27  C   UNL A   1      35.790  31.987  28.000  1.00  0.00     0.016 A 
ATOM     28  C   UNL A   1      36.663  29.333  28.074  1.00  0.00     0.010 A 
ATOM     29  C   UNL A   1      37.064  31.678  28.494  1.00  0.00     0.010 A 
ATOM     30  C   UNL A   1      37.479  30.340  28.603  1.00  0.00    -0.014 A 
BRANCH  30  31
ATOM     31  C   UNL A   1      38.675  29.950  29.397  1.00  0.00     0.031 A 
ATOM     32  C   UNL A   1      38.866  30.510  30.783  1.00  0.00     0.074 A 
ATOM     33  C   UNL A   1      39.517  29.004  28.942  1.00  0.00     0.049 A 
ATOM     34  N   UNL A   1      39.787  30.226  31.673  1.00  0.00    -0.248 NA
ATOM     35  C   UNL A   1      37.879  31.499  31.248  1.00  0.00     0.031 C 
ATOM     36  C   UNL A   1      39.409  28.324  27.652  1.00  0.00     0.029 A 
ATOM     37  N   UNL A   1      40.622  28.435  29.527  1.00  0.00    -0.354 N 
ATOM     38  C   UNL A   1      39.469  30.970  32.800  1.00  0.00     0.074 A 
ATOM     39  C   UNL A   1      38.300  31.758  32.477  1.00  0.00     0.031 C 
ATOM     40  C   UNL A   1      40.393  27.417  27.549  1.00  0.00     0.029 A 
ATOM     41  C   UNL A   1      41.229  27.484  28.746  1.00  0.00     0.049 A 
ATOM     42  H   UNL A   1      40.947  28.685  30.422  1.00  0.00     0.167 HD
ATOM     43  C   UNL A   1      40.072  30.977  34.011  1.00  0.00     0.037 A 
ATOM     44  C   UNL A   1      42.347  26.764  28.958  1.00  0.00     0.037 A 
ATOM     45  C   UNL A   1      41.253  30.230  34.342  1.00  0.00     0.049 A 
ATOM     46  C   UNL A   1      43.110  26.941  30.242  1.00  0.00     0.074 A 
ATOM     47  C   UNL A   1      41.953  30.204  35.537  1.00  0.00     0.029 A 
ATOM     48  N   UNL A   1      41.919  29.387  33.468  1.00  0.00    -0.354 N 
ATOM     49  N   UNL A   1      42.798  27.646  31.300  1.00  0.00    -0.248 NA
ATOM     50  C   UNL A   1      44.393  26.229  30.351  1.00  0.00     0.031 C 
ATOM     51  C   UNL A   1      43.068  29.373  35.371  1.00  0.00     0.029 A 
ATOM     52  C   UNL A   1      43.043  28.860  34.085  1.00  0.00     0.049 A 
ATOM     53  H   UNL A   1      41.637  29.193  32.545  1.00  0.00     0.167 HD
ATOM     54  C   UNL A   1      43.830  27.450  32.207  1.00  0.00     0.074 A 
ATOM     55  C   UNL A   1      44.776  26.551  31.580  1.00  0.00     0.031 C 
ATOM     56  C   UNL A   1      43.978  27.969  33.450  1.00  0.00     0.037 A 
BRANCH  43  57
ATOM     57  C   UNL A   1      39.454  31.834  35.071  1.00  0.00     0.064 A 
ATOM     58  C   UNL A   1      38.597  31.281  36.034  1.00  0.00     0.173 A 
ATOM     59  C   UNL A   1      39.729  33.206  35.136  1.00  0.00     0.173 A 
ATOM     60  F   UNL A   1      38.286  29.976  35.992  1.00  0.00    -0.203 F 
ATOM     61  C   UNL A   1      38.030  32.078  37.025  1.00  0.00     0.198 A 
ATOM     62  C   UNL A   1      39.170  33.997  36.135  1.00  0.00     0.198 A 
ATOM     63  F   UNL A   1      40.539  33.776  34.232  1.00  0.00    -0.203 F 
ATOM     64  F   UNL A   1      37.196  31.537  37.922  1.00  0.00    -0.200 F 
ATOM     65  C   UNL A   1      38.320  33.434  37.076  1.00  0.00     0.200 A 
ATOM     66  F   UNL A   1      39.450  35.307  36.185  1.00  0.00    -0.200 F 
ATOM     67  F   UNL A   1      37.774  34.202  38.029  1.00  0.00    -0.200 F 
ENDBRANCH  43  57
BRANCH  44  68
ATOM     68  C   UNL A   1      42.838  25.834  27.909  1.00  0.00     0.064 A 
ATOM     69  C   UNL A   1      43.754  26.254  26.937  1.00  0.00     0.173 A 
ATOM     70  C   UNL A   1      42.381  24.509  27.850  1.00  0.00     0.173 A 
ATOM     71  F   UNL A   1      44.195  27.521  26.935  1.00  0.00    -0.203 F 
ATOM     72  C   UNL A   1      44.191  25.385  25.940  1.00  0.00     0.198 A 
ATOM     73  C   UNL A   1      42.837  23.634  26.867  1.00  0.00     0.198 A 
ATOM     74  F   UNL A   1      41.494  24.063  28.751  1.00  0.00    -0.203 F 
ATOM     75  F   UNL A   1      45.038  25.822  24.997  1.00  0.00    -0.200 F 
ATOM     76  C   UNL A   1      43.737  24.075  25.909  1.00  0.00     0.200 A 
ATOM     77  F   UNL A   1      42.400  22.367  26.846  1.00  0.00    -0.200 F 
ATOM     78  F   UNL A   1      44.158  23.239  24.950  1.00  0.00    -0.200 F 
ENDBRANCH  44  68
BRANCH  56  79
ATOM     79  C   UNL A   1      45.197  27.564  34.222  1.00  0.00     0.064 A 
ATOM     80  C   UNL A   1      46.371  28.329  34.182  1.00  0.00     0.173 A 
ATOM     81  C   UNL A   1      45.180  26.421  35.033  1.00  0.00     0.173 A 
ATOM     82  F   UNL A   1      46.439  29.422  33.407  1.00  0.00    -0.203 F 
ATOM     83  C   UNL A   1      47.494  27.952  34.914  1.00  0.00     0.198 A 
ATOM     84  C   UNL A   1      46.297  26.059  35.781  1.00  0.00     0.198 A 
ATOM     85  F   UNL A   1      44.078  25.660  35.108  1.00  0.00    -0.203 F 
ATOM     86  F   UNL A   1      48.619  28.675  34.833  1.00  0.00    -0.200 F 
ATOM     87  C   UNL A   1      47.454  26.821  35.717  1.00  0.00     0.200 A 
ATOM     88  F   UNL A   1      46.255  24.970  36.563  1.00  0.00    -0.200 F 
ATOM     89  F   UNL A   1      48.534  26.461  36.423  1.00  0.00    -0.200 F 
ENDBRANCH  56  79
ENDBRANCH  30  31
ENDBRANCH  23  25
ENDBRANCH  22  23
ENDBRANCH  21  22
ENDBRANCH   1  21
TORSDOF 17
ENDMDL
MODEL 3
REMARK VINA RESULT:     -11.0      5.785     12.107
REMARK SMILES CCC(CC)[C@H](C(=O)OCCOC(=O)c1ccc(-c2c3nc(c(-c4c(F)c(F)c(F)c(F)c4F)c4ccc([nH]4)c(-c4c(F)c(F)c(F)c(F)c4F)c4nc(c(-c5c(F)c(F)c(F)c(F)c5F)c5ccc2[nH]5)C=C4)C=C3)cc1)c1ccc(OC(F)F)cc1
REMARK SMILES IDX 10 1 9 2 7 3 8 4 6 5 3 6 2 7 1 8 4 9 5 10 78 11 79 12 87 13
REMARK SMILES IDX 80 14 86 15 81 16 82 17 83 18 84 19 85 20 11 21 12 22 13 23
REMARK SMILES IDX 14 24 15 25 16 26 77 27 17 28 76 29 18 30 19 31 20 32 70 33
REMARK SMILES IDX 21 34 75 35 69 36 71 37 22 38 74 39 68 40 67 41 23 43 55 44
REMARK SMILES IDX 35 45 54 46 36 47 39 48 53 49 72 50 37 51 38 52 52 54 73 55
REMARK SMILES IDX 40 56 24 57 25 58 33 59 26 60 27 61 31 62 34 63 28 64 29 65
REMARK SMILES IDX 32 66 30 67 56 68 57 69 65 70 58 71 59 72 63 73 66 74 60 75
REMARK SMILES IDX 61 76 64 77 62 78 41 79 42 80 50 81 43 82 44 83 48 84 51 85
REMARK SMILES IDX 45 86 46 87 49 88 47 89
REMARK H PARENT 71 42 39 53
REMARK Flexibility Score: inf
ROOT
ATOM      1  C   UNL A   1      33.275  34.662  29.263  1.00  0.00     0.274 C 
ENDROOT
BRANCH   1   2
ATOM      2  O   UNL A   1      34.677  34.514  29.574  1.00  0.00    -0.462 OA
BRANCH   2   3
ATOM      3  C   UNL A   1      34.942  33.823  30.722  1.00  0.00     0.313 C 
ATOM      4  O   UNL A   1      34.570  32.674  30.927  1.00  0.00    -0.252 OA
BRANCH   3   5
ATOM      5  C   UNL A   1      35.690  34.686  31.750  1.00  0.00     0.132 C 
BRANCH   5   6
ATOM      6  C   UNL A   1      34.920  34.507  33.119  1.00  0.00     0.007 C 
BRANCH   6   7
ATOM      7  C   UNL A   1      35.537  33.472  34.104  1.00  0.00     0.001 C 
ATOM      8  C   UNL A   1      35.915  34.008  35.475  1.00  0.00     0.004 C 
ENDBRANCH   6   7
BRANCH   6   9
ATOM      9  C   UNL A   1      34.410  35.837  33.724  1.00  0.00     0.001 C 
ATOM     10  C   UNL A   1      34.044  36.964  32.780  1.00  0.00     0.004 C 
ENDBRANCH   6   9
ENDBRANCH   5   6
BRANCH   5  11
ATOM     11  C   UNL A   1      37.215  34.530  31.656  1.00  0.00    -0.033 A 
ATOM     12  C   UNL A   1      38.095  34.717  32.729  1.00  0.00     0.008 A 
ATOM     13  C   UNL A   1      37.803  34.224  30.409  1.00  0.00     0.008 A 
ATOM     14  C   UNL A   1      39.482  34.602  32.584  1.00  0.00     0.047 A 
ATOM     15  C   UNL A   1      39.194  34.083  30.261  1.00  0.00     0.047 A 
ATOM     16  C   UNL A   1      40.032  34.264  31.356  1.00  0.00     0.126 A 
BRANCH  16  17
ATOM     17  O   UNL A   1      41.394  34.213  31.302  1.00  0.00    -0.435 OA
BRANCH  17  18
ATOM     18  C   UNL A   1      41.947  34.578  30.042  1.00  0.00     0.542 C 
ATOM     19  F   UNL A   1      42.886  35.540  30.199  1.00  0.00    -0.167 F 
ATOM     20  F   UNL A   1      42.546  33.499  29.486  1.00  0.00    -0.167 F 
ENDBRANCH  17  18
ENDBRANCH  16  17
ENDBRANCH   5  11
ENDBRANCH   3   5
ENDBRANCH   2   3
ENDBRANCH   1   2
BRANCH   1  21
ATOM     21  C   UNL A   1      32.861  33.900  28.004  1.00  0.00     0.275 C 
BRANCH  21  22
ATOM     22  O   UNL A   1      33.966  33.141  27.486  1.00  0.00    -0.458 OA
BRANCH  22  23
ATOM     23  C   UNL A   1      33.817  31.802  27.507  1.00  0.00     0.338 C 
ATOM     24  O   UNL A   1      32.804  31.163  27.260  1.00  0.00    -0.246 OA
BRANCH  23  25
ATOM     25  C   UNL A   1      35.093  31.146  27.834  1.00  0.00     0.060 A 
ATOM     26  C   UNL A   1      35.071  29.850  28.341  1.00  0.00     0.016 A 
ATOM     27  C   UNL A   1      36.276  31.885  27.854  1.00  0.00     0.016 A 
ATOM     28  C   UNL A   1      36.189  29.328  28.981  1.00  0.00     0.010 A 
ATOM     29  C   UNL A   1      37.424  31.332  28.433  1.00  0.00     0.010 A 
ATOM     30  C   UNL A   1      37.368  30.078  29.068  1.00  0.00    -0.014 A 
BRANCH  30  31
ATOM     31  C   UNL A   1      38.460  29.597  29.955  1.00  0.00     0.031 A 
ATOM     32  C   UNL A   1      39.486  28.632  29.420  1.00  0.00     0.074 A 
ATOM     33  C   UNL A   1      38.616  30.115  31.188  1.00  0.00     0.049 A 
ATOM     34  N   UNL A   1      40.567  28.165  29.999  1.00  0.00    -0.248 NA
ATOM     35  C   UNL A   1      39.295  28.144  28.045  1.00  0.00     0.031 C 
ATOM     36  C   UNL A   1      37.740  31.112  31.804  1.00  0.00     0.029 A 
ATOM     37  N   UNL A   1      39.581  29.887  32.138  1.00  0.00    -0.354 N 
ATOM     38  C   UNL A   1      41.191  27.366  29.052  1.00  0.00     0.074 A 
ATOM     39  C   UNL A   1      40.352  27.366  27.874  1.00  0.00     0.031 C 
ATOM     40  C   UNL A   1      38.217  31.425  33.019  1.00  0.00     0.029 A 
ATOM     41  C   UNL A   1      39.406  30.616  33.286  1.00  0.00     0.049 A 
ATOM     42  H   UNL A   1      40.328  29.260  32.007  1.00  0.00     0.167 HD
ATOM     43  C   UNL A   1      42.374  26.714  29.136  1.00  0.00     0.037 A 
ATOM     44  C   UNL A   1      40.108  30.618  34.436  1.00  0.00     0.037 A 
ATOM     45  C   UNL A   1      43.204  26.672  30.307  1.00  0.00     0.049 A 
ATOM     46  C   UNL A   1      41.312  29.728  34.570  1.00  0.00     0.074 A 
ATOM     47  C   UNL A   1      44.404  26.008  30.493  1.00  0.00     0.029 A 
ATOM     48  N   UNL A   1      42.911  27.313  31.500  1.00  0.00    -0.354 N 
ATOM     49  N   UNL A   1      41.893  28.979  33.666  1.00  0.00    -0.248 NA
ATOM     50  C   UNL A   1      41.950  29.674  35.894  1.00  0.00     0.031 C 
ATOM     51  C   UNL A   1      44.818  26.214  31.815  1.00  0.00     0.029 A 
ATOM     52  C   UNL A   1      43.891  27.032  32.439  1.00  0.00     0.049 A 
ATOM     53  H   UNL A   1      42.123  27.882  31.658  1.00  0.00     0.167 HD
ATOM     54  C   UNL A   1      42.972  28.382  34.302  1.00  0.00     0.074 A 
ATOM     55  C   UNL A   1      42.973  28.862  35.667  1.00  0.00     0.031 C 
ATOM     56  C   UNL A   1      43.881  27.513  33.795  1.00  0.00     0.037 A 
BRANCH  43  57
ATOM     57  C   UNL A   1      42.834  25.985  27.914  1.00  0.00     0.064 A 
ATOM     58  C   UNL A   1      43.679  26.605  26.982  1.00  0.00     0.173 A 
ATOM     59  C   UNL A   1      42.445  24.659  27.679  1.00  0.00     0.173 A 
ATOM     60  F   UNL A   1      44.055  27.882  27.155  1.00  0.00    -0.203 F 
ATOM     61  C   UNL A   1      44.114  25.921  25.849  1.00  0.00     0.198 A 
ATOM     62  C   UNL A   1      42.891  23.976  26.552  1.00  0.00     0.198 A 
ATOM     63  F   UNL A   1      41.633  24.031  28.542  1.00  0.00    -0.203 F 
ATOM     64  F   UNL A   1      44.902  26.537  24.958  1.00  0.00    -0.200 F 
ATOM     65  C   UNL A   1      43.722  24.607  25.638  1.00  0.00     0.200 A 
ATOM     66  F   UNL A   1      42.513  22.706  26.347  1.00  0.00    -0.200 F 
ATOM     67  F   UNL A   1      44.140  23.949  24.547  1.00  0.00    -0.200 F 
ENDBRANCH  43  57
BRANCH  44  68
ATOM     68  C   UNL A   1      39.664  31.465  35.572  1.00  0.00     0.064 A 
ATOM     69  C   UNL A   1      40.328  32.656  35.893  1.00  0.00     0.173 A 
ATOM     70  C   UNL A   1      38.575  31.087  36.371  1.00  0.00     0.173 A 
ATOM     71  F   UNL A   1      41.394  33.042  35.176  1.00  0.00    -0.203 F 
ATOM     72  C   UNL A   1      39.924  33.433  36.976  1.00  0.00     0.198 A 
ATOM     73  C   UNL A   1      38.157  31.877  37.438  1.00  0.00     0.198 A 
ATOM     74  F   UNL A   1      37.915  29.949  36.111  1.00  0.00    -0.203 F 
ATOM     75  F   UNL A   1      40.600  34.548  37.288  1.00  0.00    -0.200 F 
ATOM     76  C   UNL A   1      38.835  33.046  37.744  1.00  0.00     0.200 A 
ATOM     77  F   UNL A   1      37.101  31.501  38.174  1.00  0.00    -0.200 F 
ATOM     78  F   UNL A   1      38.447  33.795  38.785  1.00  0.00    -0.200 F 
ENDBRANCH  44  68
BRANCH  56  79
ATOM     79  C   UNL A   1      44.964  27.040  34.716  1.00  0.00     0.064 A 
ATOM     80  C   UNL A   1      46.155  27.763  34.872  1.00  0.00     0.173 A 
ATOM     81  C   UNL A   1      44.796  25.872  35.474  1.00  0.00     0.173 A 
ATOM     82  F   UNL A   1      46.367  28.877  34.155  1.00  0.00    -0.203 F 
ATOM     83  C   UNL A   1      47.149  27.321  35.741  1.00  0.00     0.198 A 
ATOM     84  C   UNL A   1      45.782  25.446  36.359  1.00  0.00     0.198 A 
ATOM     85  F   UNL A   1      43.672  25.149  35.363  1.00  0.00    -0.203 F 
ATOM     86  F   UNL A   1      48.297  28.006  35.848  1.00  0.00    -0.200 F 
ATOM     87  C   UNL A   1      46.960  26.168  36.487  1.00  0.00     0.200 A 
ATOM     88  F   UNL A   1      45.595  24.335  37.085  1.00  0.00    -0.200 F 
ATOM     89  F   UNL A   1      47.916  25.746  37.326  1.00  0.00    -0.200 F 
ENDBRANCH  56  79
ENDBRANCH  30  31
ENDBRANCH  23  25
ENDBRANCH  22  23
ENDBRANCH  21  22
ENDBRANCH   1  21
TORSDOF 17
ENDMDL
