MODEL 1
REMARK VINA RESULT:     -12.0      0.000      0.000
REMARK SMILES [NH3+][C@@]1(C(=O)OCCOC(=O)c2ccc(-c3c4nc(c(-c5c(F)c(F)c(F)c(F)c5F)c5ccc([nH]5)c(-c5c(F)c(F)c(F)c(F)c5F)c5nc(c(-c6c(F)c(F)c(F)c(F)c6F)c6ccc3[nH]6)C=C5)C=C4)cc2)CC[C@@H](Sc2ccc(Cl)c(Cl)c2)C1
REMARK SMILES IDX 6 1 5 2 3 3 4 4 2 5 74 6 86 7 75 8 76 9 1 10 77 14 78 15
REMARK SMILES IDX 79 16 85 17 80 18 83 19 81 20 84 21 82 22 7 23 8 24 9 25
REMARK SMILES IDX 10 26 11 27 12 28 73 29 13 30 72 31 14 32 15 33 16 34 66 35
REMARK SMILES IDX 17 36 71 37 65 38 67 39 18 40 70 41 64 42 63 43 19 45 51 46
REMARK SMILES IDX 31 47 50 48 32 49 35 50 49 51 68 52 33 53 34 54 48 56 69 57
REMARK SMILES IDX 36 58 20 59 21 60 29 61 22 62 23 63 27 64 30 65 24 66 25 67
REMARK SMILES IDX 28 68 26 69 52 70 53 71 61 72 54 73 55 74 59 75 62 76 56 77
REMARK SMILES IDX 57 78 60 79 58 80 37 81 38 82 46 83 39 84 40 85 44 86 47 87
REMARK SMILES IDX 41 88 42 89 45 90 43 91
REMARK H PARENT 1 11 1 12 1 13 67 44 35 55
REMARK Flexibility Score: inf
ROOT
ATOM      1  C   UNL A   1      31.215  29.732  24.483  1.00  0.00     0.274 C 
ENDROOT
BRANCH   1   2
ATOM      2  O   UNL A   1      31.924  28.476  24.487  1.00  0.00    -0.457 OA
BRANCH   2   3
ATOM      3  C   UNL A   1      31.189  27.378  24.819  1.00  0.00     0.368 C 
ATOM      4  O   UNL A   1      30.124  27.087  24.284  1.00  0.00    -0.245 OA
BRANCH   3   5
ATOM      5  C   UNL A   1      31.828  26.548  25.978  1.00  0.00     0.193 C 
ATOM      6  C   UNL A   1      33.354  26.685  25.875  1.00  0.00     0.082 C 
ATOM      7  C   UNL A   1      31.533  25.034  25.952  1.00  0.00     0.095 C 
ATOM      8  C   UNL A   1      33.798  25.445  25.116  1.00  0.00     0.022 C 
ATOM      9  C   UNL A   1      32.840  24.340  25.555  1.00  0.00     0.059 C 
BRANCH   5  10
ATOM     10  N   UNL A   1      31.364  27.115  27.266  1.00  0.00    -0.343 N 
ATOM     11  H   UNL A   1      31.810  28.019  27.421  1.00  0.00     0.345 HD
ATOM     12  H   UNL A   1      31.611  26.479  28.025  1.00  0.00     0.345 HD
ATOM     13  H   UNL A   1      30.352  27.235  27.239  1.00  0.00     0.345 HD
ENDBRANCH   5  10
BRANCH   9  14
ATOM     14  S   UNL A   1      33.506  23.186  26.838  1.00  0.00    -0.122 SA
BRANCH  14  15
ATOM     15  C   UNL A   1      33.734  21.653  25.961  1.00  0.00     0.009 A 
ATOM     16  C   UNL A   1      32.620  20.934  25.519  1.00  0.00     0.017 A 
ATOM     17  C   UNL A   1      35.011  21.119  25.764  1.00  0.00     0.037 A 
ATOM     18  C   UNL A   1      32.782  19.726  24.835  1.00  0.00     0.023 A 
ATOM     19  C   UNL A   1      35.179  19.917  25.065  1.00  0.00     0.060 A 
ATOM     20  C   UNL A   1      34.062  19.219  24.595  1.00  0.00     0.059 A 
ATOM     21  Cl  UNL A   1      36.795  19.370  24.794  1.00  0.00    -0.083 Cl
ATOM     22  Cl  UNL A   1      34.194  17.738  23.719  1.00  0.00    -0.083 Cl
ENDBRANCH  14  15
ENDBRANCH   9  14
ENDBRANCH   3   5
ENDBRANCH   2   3
ENDBRANCH   1   2
BRANCH   1  23
ATOM     23  C   UNL A   1      31.422  30.496  25.794  1.00  0.00     0.275 C 
BRANCH  23  24
ATOM     24  O   UNL A   1      32.787  30.423  26.245  1.00  0.00    -0.458 OA
BRANCH  24  25
ATOM     25  C   UNL A   1      33.194  31.453  27.018  1.00  0.00     0.338 C 
ATOM     26  O   UNL A   1      32.575  32.465  27.302  1.00  0.00    -0.246 OA
BRANCH  25  27
ATOM     27  C   UNL A   1      34.526  31.170  27.567  1.00  0.00     0.060 A 
ATOM     28  C   UNL A   1      34.821  29.863  27.946  1.00  0.00     0.016 A 
ATOM     29  C   UNL A   1      35.414  32.207  27.846  1.00  0.00     0.016 A 
ATOM     30  C   UNL A   1      35.967  29.594  28.688  1.00  0.00     0.010 A 
ATOM     31  C   UNL A   1      36.607  31.921  28.519  1.00  0.00     0.010 A 
ATOM     32  C   UNL A   1      36.880  30.617  28.971  1.00  0.00    -0.014 A 
BRANCH  32  33
ATOM     33  C   UNL A   1      38.115  30.328  29.746  1.00  0.00     0.031 A 
ATOM     34  C   UNL A   1      39.180  29.444  29.166  1.00  0.00     0.074 A 
ATOM     35  C   UNL A   1      38.277  30.848  30.976  1.00  0.00     0.049 A 
ATOM     36  N   UNL A   1      40.210  28.892  29.755  1.00  0.00    -0.248 NA
ATOM     37  C   UNL A   1      39.067  29.129  27.733  1.00  0.00     0.031 C 
ATOM     38  C   UNL A   1      37.346  31.761  31.640  1.00  0.00     0.029 A 
ATOM     39  N   UNL A   1      39.285  30.676  31.893  1.00  0.00    -0.354 N 
ATOM     40  C   UNL A   1      40.827  28.113  28.786  1.00  0.00     0.074 A 
ATOM     41  C   UNL A   1      40.072  28.280  27.563  1.00  0.00     0.031 C 
ATOM     42  C   UNL A   1      37.830  32.079  32.850  1.00  0.00     0.029 A 
ATOM     43  C   UNL A   1      39.064  31.334  33.076  1.00  0.00     0.049 A 
ATOM     44  H   UNL A   1      40.087  30.133  31.717  1.00  0.00     0.167 HD
ATOM     45  C   UNL A   1      41.917  27.321  28.916  1.00  0.00     0.037 A 
ATOM     46  C   UNL A   1      39.748  31.303  34.236  1.00  0.00     0.037 A 
ATOM     47  C   UNL A   1      42.704  27.207  30.116  1.00  0.00     0.049 A 
ATOM     48  C   UNL A   1      40.957  30.425  34.354  1.00  0.00     0.074 A 
ATOM     49  C   UNL A   1      43.840  26.448  30.338  1.00  0.00     0.029 A 
ATOM     50  N   UNL A   1      42.444  27.894  31.293  1.00  0.00    -0.354 N 
ATOM     51  N   UNL A   1      41.491  29.633  33.458  1.00  0.00    -0.248 NA
ATOM     52  C   UNL A   1      41.645  30.414  35.653  1.00  0.00     0.031 C 
ATOM     53  C   UNL A   1      44.257  26.660  31.658  1.00  0.00     0.029 A 
ATOM     54  C   UNL A   1      43.394  27.571  32.247  1.00  0.00     0.049 A 
ATOM     55  H   UNL A   1      41.695  28.518  31.429  1.00  0.00     0.167 HD
ATOM     56  C   UNL A   1      42.571  29.026  34.081  1.00  0.00     0.074 A 
ATOM     57  C   UNL A   1      42.631  29.556  35.429  1.00  0.00     0.031 C 
ATOM     58  C   UNL A   1      43.430  28.104  33.583  1.00  0.00     0.037 A 
BRANCH  45  59
ATOM     59  C   UNL A   1      42.299  26.474  27.742  1.00  0.00     0.064 A 
ATOM     60  C   UNL A   1      43.276  26.876  26.821  1.00  0.00     0.173 A 
ATOM     61  C   UNL A   1      41.693  25.221  27.556  1.00  0.00     0.173 A 
ATOM     62  F   UNL A   1      43.870  28.072  26.948  1.00  0.00    -0.203 F 
ATOM     63  C   UNL A   1      43.622  26.061  25.746  1.00  0.00     0.198 A 
ATOM     64  C   UNL A   1      42.055  24.402  26.492  1.00  0.00     0.198 A 
ATOM     65  F   UNL A   1      40.754  24.792  28.412  1.00  0.00    -0.203 F 
ATOM     66  F   UNL A   1      44.534  26.478  24.857  1.00  0.00    -0.200 F 
ATOM     67  C   UNL A   1      43.014  24.824  25.585  1.00  0.00     0.200 A 
ATOM     68  F   UNL A   1      41.471  23.205  26.340  1.00  0.00    -0.200 F 
ATOM     69  F   UNL A   1      43.351  24.040  24.551  1.00  0.00    -0.200 F 
ENDBRANCH  45  59
BRANCH  46  70
ATOM     70  C   UNL A   1      39.254  32.096  35.387  1.00  0.00     0.064 A 
ATOM     71  C   UNL A   1      38.453  31.511  36.374  1.00  0.00     0.173 A 
ATOM     72  C   UNL A   1      39.617  33.442  35.545  1.00  0.00     0.173 A 
ATOM     73  F   UNL A   1      38.063  30.235  36.252  1.00  0.00    -0.203 F 
ATOM     74  C   UNL A   1      38.035  32.244  37.484  1.00  0.00     0.198 A 
ATOM     75  C   UNL A   1      39.218  34.167  36.664  1.00  0.00     0.198 A 
ATOM     76  F   UNL A   1      40.384  34.043  34.624  1.00  0.00    -0.203 F 
ATOM     77  F   UNL A   1      37.253  31.671  38.408  1.00  0.00    -0.200 F 
ATOM     78  C   UNL A   1      38.426  33.568  37.632  1.00  0.00     0.200 A 
ATOM     79  F   UNL A   1      39.607  35.441  36.809  1.00  0.00    -0.200 F 
ATOM     80  F   UNL A   1      38.037  34.267  38.707  1.00  0.00    -0.200 F 
ENDBRANCH  46  70
BRANCH  58  81
ATOM     81  C   UNL A   1      44.507  27.613  34.498  1.00  0.00     0.064 A 
ATOM     82  C   UNL A   1      44.300  26.504  35.330  1.00  0.00     0.173 A 
ATOM     83  C   UNL A   1      45.767  28.227  34.511  1.00  0.00     0.173 A 
ATOM     84  F   UNL A   1      43.103  25.898  35.361  1.00  0.00    -0.203 F 
ATOM     85  C   UNL A   1      45.319  26.029  36.151  1.00  0.00     0.198 A 
ATOM     86  C   UNL A   1      46.788  27.741  35.322  1.00  0.00     0.198 A 
ATOM     87  F   UNL A   1      46.009  29.290  33.730  1.00  0.00    -0.203 F 
ATOM     88  F   UNL A   1      45.095  24.982  36.955  1.00  0.00    -0.200 F 
ATOM     89  C   UNL A   1      46.563  26.644  36.142  1.00  0.00     0.200 A 
ATOM     90  F   UNL A   1      47.990  28.332  35.311  1.00  0.00    -0.200 F 
ATOM     91  F   UNL A   1      47.543  26.183  36.930  1.00  0.00    -0.200 F 
ENDBRANCH  58  81
ENDBRANCH  32  33
ENDBRANCH  25  27
ENDBRANCH  24  25
ENDBRANCH  23  24
ENDBRANCH   1  23
TORSDOF 14
ENDMDL
MODEL 2
REMARK VINA RESULT:     -12.0      0.882      2.328
REMARK SMILES [NH3+][C@@]1(C(=O)OCCOC(=O)c2ccc(-c3c4nc(c(-c5c(F)c(F)c(F)c(F)c5F)c5ccc([nH]5)c(-c5c(F)c(F)c(F)c(F)c5F)c5nc(c(-c6c(F)c(F)c(F)c(F)c6F)c6ccc3[nH]6)C=C5)C=C4)cc2)CC[C@@H](Sc2ccc(Cl)c(Cl)c2)C1
REMARK SMILES IDX 6 1 5 2 3 3 4 4 2 5 74 6 86 7 75 8 76 9 1 10 77 14 78 15
REMARK SMILES IDX 79 16 85 17 80 18 83 19 81 20 84 21 82 22 7 23 8 24 9 25
REMARK SMILES IDX 10 26 11 27 12 28 73 29 13 30 72 31 14 32 15 33 16 34 66 35
REMARK SMILES IDX 17 36 71 37 65 38 67 39 18 40 70 41 64 42 63 43 19 45 51 46
REMARK SMILES IDX 31 47 50 48 32 49 35 50 49 51 68 52 33 53 34 54 48 56 69 57
REMARK SMILES IDX 36 58 20 59 21 60 29 61 22 62 23 63 27 64 30 65 24 66 25 67
REMARK SMILES IDX 28 68 26 69 52 70 53 71 61 72 54 73 55 74 59 75 62 76 56 77
REMARK SMILES IDX 57 78 60 79 58 80 37 81 38 82 46 83 39 84 40 85 44 86 47 87
REMARK SMILES IDX 41 88 42 89 45 90 43 91
REMARK H PARENT 1 11 1 12 1 13 67 44 35 55
REMARK Flexibility Score: inf
ROOT
ATOM      1  C   UNL A   1      31.526  29.328  24.162  1.00  0.00     0.274 C 
ENDROOT
BRANCH   1   2
ATOM      2  O   UNL A   1      30.302  28.569  24.079  1.00  0.00    -0.457 OA
BRANCH   2   3
ATOM      3  C   UNL A   1      30.332  27.475  23.267  1.00  0.00     0.368 C 
ATOM      4  O   UNL A   1      30.624  27.523  22.076  1.00  0.00    -0.245 OA
BRANCH   3   5
ATOM      5  C   UNL A   1      29.920  26.161  24.004  1.00  0.00     0.193 C 
ATOM      6  C   UNL A   1      30.292  26.312  25.486  1.00  0.00     0.082 C 
ATOM      7  C   UNL A   1      30.624  24.878  23.516  1.00  0.00     0.095 C 
ATOM      8  C   UNL A   1      31.644  25.629  25.612  1.00  0.00     0.022 C 
ATOM      9  C   UNL A   1      31.603  24.468  24.621  1.00  0.00     0.059 C 
BRANCH   5  10
ATOM     10  N   UNL A   1      28.454  25.995  23.873  1.00  0.00    -0.343 N 
ATOM     11  H   UNL A   1      28.235  25.617  22.951  1.00  0.00     0.345 HD
ATOM     12  H   UNL A   1      27.998  26.900  23.988  1.00  0.00     0.345 HD
ATOM     13  H   UNL A   1      28.119  25.353  24.592  1.00  0.00     0.345 HD
ENDBRANCH   5  10
BRANCH   9  14
ATOM     14  S   UNL A   1      31.254  22.811  25.366  1.00  0.00    -0.122 SA
BRANCH  14  15
ATOM     15  C   UNL A   1      32.807  21.949  25.246  1.00  0.00     0.009 A 
ATOM     16  C   UNL A   1      34.004  22.647  25.437  1.00  0.00     0.017 A 
ATOM     17  C   UNL A   1      32.856  20.596  24.899  1.00  0.00     0.037 A 
ATOM     18  C   UNL A   1      35.232  21.987  25.339  1.00  0.00     0.023 A 
ATOM     19  C   UNL A   1      34.084  19.927  24.817  1.00  0.00     0.060 A 
ATOM     20  C   UNL A   1      35.276  20.622  25.041  1.00  0.00     0.059 A 
ATOM     21  Cl  UNL A   1      34.049  18.236  24.462  1.00  0.00    -0.083 Cl
ATOM     22  Cl  UNL A   1      36.823  19.861  24.966  1.00  0.00    -0.083 Cl
ENDBRANCH  14  15
ENDBRANCH   9  14
ENDBRANCH   3   5
ENDBRANCH   2   3
ENDBRANCH   1   2
BRANCH   1  23
ATOM     23  C   UNL A   1      31.660  30.029  25.517  1.00  0.00     0.275 C 
BRANCH  23  24
ATOM     24  O   UNL A   1      33.029  30.077  25.960  1.00  0.00    -0.458 OA
BRANCH  24  25
ATOM     25  C   UNL A   1      33.305  31.034  26.872  1.00  0.00     0.338 C 
ATOM     26  O   UNL A   1      32.578  31.936  27.254  1.00  0.00    -0.246 OA
BRANCH  25  27
ATOM     27  C   UNL A   1      34.641  30.812  27.438  1.00  0.00     0.060 A 
ATOM     28  C   UNL A   1      35.035  29.505  27.716  1.00  0.00     0.016 A 
ATOM     29  C   UNL A   1      35.433  31.889  27.833  1.00  0.00     0.016 A 
ATOM     30  C   UNL A   1      36.179  29.266  28.469  1.00  0.00     0.010 A 
ATOM     31  C   UNL A   1      36.629  31.643  28.517  1.00  0.00     0.010 A 
ATOM     32  C   UNL A   1      36.997  30.330  28.867  1.00  0.00    -0.014 A 
BRANCH  32  33
ATOM     33  C   UNL A   1      38.231  30.075  29.654  1.00  0.00     0.031 A 
ATOM     34  C   UNL A   1      39.314  29.198  29.098  1.00  0.00     0.074 A 
ATOM     35  C   UNL A   1      38.377  30.621  30.876  1.00  0.00     0.049 A 
ATOM     36  N   UNL A   1      40.349  28.674  29.703  1.00  0.00    -0.248 NA
ATOM     37  C   UNL A   1      39.215  28.854  27.670  1.00  0.00     0.031 C 
ATOM     38  C   UNL A   1      37.428  31.531  31.517  1.00  0.00     0.029 A 
ATOM     39  N   UNL A   1      39.382  30.482  31.802  1.00  0.00    -0.354 N 
ATOM     40  C   UNL A   1      40.984  27.887  28.753  1.00  0.00     0.074 A 
ATOM     41  C   UNL A   1      40.234  28.019  27.522  1.00  0.00     0.031 C 
ATOM     42  C   UNL A   1      37.899  31.880  32.723  1.00  0.00     0.029 A 
ATOM     43  C   UNL A   1      39.143  31.159  32.971  1.00  0.00     0.049 A 
ATOM     44  H   UNL A   1      40.194  29.949  31.641  1.00  0.00     0.167 HD
ATOM     45  C   UNL A   1      42.085  27.114  28.904  1.00  0.00     0.037 A 
ATOM     46  C   UNL A   1      39.820  31.160  34.135  1.00  0.00     0.037 A 
ATOM     47  C   UNL A   1      42.866  27.036  30.111  1.00  0.00     0.049 A 
ATOM     48  C   UNL A   1      41.043  30.304  34.277  1.00  0.00     0.074 A 
ATOM     49  C   UNL A   1      44.013  26.300  30.354  1.00  0.00     0.029 A 
ATOM     50  N   UNL A   1      42.588  27.740  31.273  1.00  0.00    -0.354 N 
ATOM     51  N   UNL A   1      41.595  29.504  33.400  1.00  0.00    -0.248 NA
ATOM     52  C   UNL A   1      41.722  30.329  35.580  1.00  0.00     0.031 C 
ATOM     53  C   UNL A   1      44.418  26.543  31.672  1.00  0.00     0.029 A 
ATOM     54  C   UNL A   1      43.538  27.450  32.239  1.00  0.00     0.049 A 
ATOM     55  H   UNL A   1      41.829  28.355  31.393  1.00  0.00     0.167 HD
ATOM     56  C   UNL A   1      42.680  28.927  34.040  1.00  0.00     0.074 A 
ATOM     57  C   UNL A   1      42.723  29.482  35.378  1.00  0.00     0.031 C 
ATOM     58  C   UNL A   1      43.557  28.009  33.565  1.00  0.00     0.037 A 
BRANCH  45  59
ATOM     59  C   UNL A   1      42.488  26.252  27.748  1.00  0.00     0.064 A 
ATOM     60  C   UNL A   1      41.897  25.003  27.511  1.00  0.00     0.173 A 
ATOM     61  C   UNL A   1      43.464  26.702  26.845  1.00  0.00     0.173 A 
ATOM     62  F   UNL A   1      40.972  24.524  28.356  1.00  0.00    -0.203 F 
ATOM     63  C   UNL A   1      42.280  24.229  26.419  1.00  0.00     0.198 A 
ATOM     64  C   UNL A   1      43.830  25.934  25.745  1.00  0.00     0.198 A 
ATOM     65  F   UNL A   1      44.056  27.892  27.030  1.00  0.00    -0.203 F 
ATOM     66  F   UNL A   1      41.727  23.023  26.228  1.00  0.00    -0.200 F 
ATOM     67  C   UNL A   1      43.243  24.696  25.535  1.00  0.00     0.200 A 
ATOM     68  F   UNL A   1      44.756  26.390  24.890  1.00  0.00    -0.200 F 
ATOM     69  F   UNL A   1      43.608  23.950  24.483  1.00  0.00    -0.200 F 
ENDBRANCH  45  59
BRANCH  46  70
ATOM     70  C   UNL A   1      39.307  31.967  35.268  1.00  0.00     0.064 A 
ATOM     71  C   UNL A   1      39.604  33.331  35.374  1.00  0.00     0.173 A 
ATOM     72  C   UNL A   1      38.468  31.399  36.238  1.00  0.00     0.173 A 
ATOM     73  F   UNL A   1      40.421  33.910  34.483  1.00  0.00    -0.203 F 
ATOM     74  C   UNL A   1      39.077  34.100  36.410  1.00  0.00     0.198 A 
ATOM     75  C   UNL A   1      37.924  32.172  37.259  1.00  0.00     0.198 A 
ATOM     76  F   UNL A   1      38.156  30.096  36.175  1.00  0.00    -0.203 F 
ATOM     77  F   UNL A   1      39.389  35.400  36.503  1.00  0.00    -0.200 F 
ATOM     78  C   UNL A   1      38.229  33.522  37.345  1.00  0.00     0.200 A 
ATOM     79  F   UNL A   1      37.097  31.613  38.154  1.00  0.00    -0.200 F 
ATOM     80  F   UNL A   1      37.710  34.267  38.331  1.00  0.00    -0.200 F 
ENDBRANCH  46  70
BRANCH  58  81
ATOM     81  C   UNL A   1      44.635  27.553  34.496  1.00  0.00     0.064 A 
ATOM     82  C   UNL A   1      45.855  28.236  34.581  1.00  0.00     0.173 A 
ATOM     83  C   UNL A   1      44.430  26.453  35.340  1.00  0.00     0.173 A 
ATOM     84  F   UNL A   1      46.099  29.284  33.779  1.00  0.00    -0.203 F 
ATOM     85  C   UNL A   1      46.840  27.829  35.476  1.00  0.00     0.198 A 
ATOM     86  C   UNL A   1      45.410  26.057  36.245  1.00  0.00     0.198 A 
ATOM     87  F   UNL A   1      43.276  25.771  35.293  1.00  0.00    -0.203 F 
ATOM     88  F   UNL A   1      48.009  28.481  35.528  1.00  0.00    -0.200 F 
ATOM     89  C   UNL A   1      46.614  26.743  36.312  1.00  0.00     0.200 A 
ATOM     90  F   UNL A   1      45.191  25.011  37.053  1.00  0.00    -0.200 F 
ATOM     91  F   UNL A   1      47.561  26.355  37.176  1.00  0.00    -0.200 F 
ENDBRANCH  58  81
ENDBRANCH  32  33
ENDBRANCH  25  27
ENDBRANCH  24  25
ENDBRANCH  23  24
ENDBRANCH   1  23
TORSDOF 14
ENDMDL
MODEL 3
REMARK VINA RESULT:     -11.8      1.241      1.951
REMARK SMILES [NH3+][C@@]1(C(=O)OCCOC(=O)c2ccc(-c3c4nc(c(-c5c(F)c(F)c(F)c(F)c5F)c5ccc([nH]5)c(-c5c(F)c(F)c(F)c(F)c5F)c5nc(c(-c6c(F)c(F)c(F)c(F)c6F)c6ccc3[nH]6)C=C5)C=C4)cc2)CC[C@@H](Sc2ccc(Cl)c(Cl)c2)C1
REMARK SMILES IDX 6 1 5 2 3 3 4 4 2 5 74 6 86 7 75 8 76 9 1 10 77 14 78 15
REMARK SMILES IDX 79 16 85 17 80 18 83 19 81 20 84 21 82 22 7 23 8 24 9 25
REMARK SMILES IDX 10 26 11 27 12 28 73 29 13 30 72 31 14 32 15 33 16 34 66 35
REMARK SMILES IDX 17 36 71 37 65 38 67 39 18 40 70 41 64 42 63 43 19 45 51 46
REMARK SMILES IDX 31 47 50 48 32 49 35 50 49 51 68 52 33 53 34 54 48 56 69 57
REMARK SMILES IDX 36 58 20 59 21 60 29 61 22 62 23 63 27 64 30 65 24 66 25 67
REMARK SMILES IDX 28 68 26 69 52 70 53 71 61 72 54 73 55 74 59 75 62 76 56 77
REMARK SMILES IDX 57 78 60 79 58 80 37 81 38 82 46 83 39 84 40 85 44 86 47 87
REMARK SMILES IDX 41 88 42 89 45 90 43 91
REMARK H PARENT 1 11 1 12 1 13 67 44 35 55
REMARK Flexibility Score: inf
ROOT
ATOM      1  C   UNL A   1      32.360  28.335  25.046  1.00  0.00     0.274 C 
ENDROOT
BRANCH   1   2
ATOM      2  O   UNL A   1      31.155  27.575  24.823  1.00  0.00    -0.457 OA
BRANCH   2   3
ATOM      3  C   UNL A   1      30.926  26.550  25.690  1.00  0.00     0.368 C 
ATOM      4  O   UNL A   1      30.653  26.713  26.876  1.00  0.00    -0.245 OA
BRANCH   3   5
ATOM      5  C   UNL A   1      31.085  25.145  25.026  1.00  0.00     0.193 C 
ATOM      6  C   UNL A   1      30.935  24.081  26.122  1.00  0.00     0.082 C 
ATOM      7  C   UNL A   1      32.450  24.878  24.356  1.00  0.00     0.095 C 
ATOM      8  C   UNL A   1      32.362  23.743  26.525  1.00  0.00     0.022 C 
ATOM      9  C   UNL A   1      33.181  23.865  25.242  1.00  0.00     0.059 C 
BRANCH   5  10
ATOM     10  N   UNL A   1      30.007  24.981  24.023  1.00  0.00    -0.343 N 
ATOM     11  H   UNL A   1      29.106  24.921  24.497  1.00  0.00     0.345 HD
ATOM     12  H   UNL A   1      30.168  24.126  23.489  1.00  0.00     0.345 HD
ATOM     13  H   UNL A   1      30.006  25.781  23.390  1.00  0.00     0.345 HD
ENDBRANCH   5  10
BRANCH   9  14
ATOM     14  S   UNL A   1      33.567  22.263  24.402  1.00  0.00    -0.122 SA
BRANCH  14  15
ATOM     15  C   UNL A   1      35.274  21.963  24.811  1.00  0.00     0.009 A 
ATOM     16  C   UNL A   1      35.803  20.676  24.677  1.00  0.00     0.017 A 
ATOM     17  C   UNL A   1      36.081  22.980  25.328  1.00  0.00     0.037 A 
ATOM     18  C   UNL A   1      37.140  20.422  25.001  1.00  0.00     0.023 A 
ATOM     19  C   UNL A   1      37.424  22.735  25.638  1.00  0.00     0.060 A 
ATOM     20  C   UNL A   1      37.958  21.453  25.471  1.00  0.00     0.059 A 
ATOM     21  Cl  UNL A   1      38.372  24.068  26.195  1.00  0.00    -0.083 Cl
ATOM     22  Cl  UNL A   1      39.606  21.080  25.823  1.00  0.00    -0.083 Cl
ENDBRANCH  14  15
ENDBRANCH   9  14
ENDBRANCH   3   5
ENDBRANCH   2   3
ENDBRANCH   1   2
BRANCH   1  23
ATOM     23  C   UNL A   1      32.046  29.763  25.499  1.00  0.00     0.275 C 
BRANCH  23  24
ATOM     24  O   UNL A   1      32.427  29.984  26.870  1.00  0.00    -0.458 OA
BRANCH  24  25
ATOM     25  C   UNL A   1      33.029  31.167  27.117  1.00  0.00     0.338 C 
ATOM     26  O   UNL A   1      32.564  32.286  26.978  1.00  0.00    -0.246 OA
BRANCH  25  27
ATOM     27  C   UNL A   1      34.370  30.940  27.669  1.00  0.00     0.060 A 
ATOM     28  C   UNL A   1      34.739  29.637  27.998  1.00  0.00     0.016 A 
ATOM     29  C   UNL A   1      35.193  32.014  28.001  1.00  0.00     0.016 A 
ATOM     30  C   UNL A   1      35.892  29.405  28.741  1.00  0.00     0.010 A 
ATOM     31  C   UNL A   1      36.395  31.771  28.675  1.00  0.00     0.010 A 
ATOM     32  C   UNL A   1      36.740  30.467  29.076  1.00  0.00    -0.014 A 
BRANCH  32  33
ATOM     33  C   UNL A   1      37.983  30.218  29.853  1.00  0.00     0.031 A 
ATOM     34  C   UNL A   1      39.082  29.380  29.270  1.00  0.00     0.074 A 
ATOM     35  C   UNL A   1      38.121  30.735  31.088  1.00  0.00     0.049 A 
ATOM     36  N   UNL A   1      40.130  28.862  29.858  1.00  0.00    -0.248 NA
ATOM     37  C   UNL A   1      38.985  29.072  27.834  1.00  0.00     0.031 C 
ATOM     38  C   UNL A   1      37.155  31.606  31.756  1.00  0.00     0.029 A 
ATOM     39  N   UNL A   1      39.133  30.593  32.007  1.00  0.00    -0.354 N 
ATOM     40  C   UNL A   1      40.780  28.115  28.885  1.00  0.00     0.074 A 
ATOM     41  C   UNL A   1      40.022  28.263  27.660  1.00  0.00     0.031 C 
ATOM     42  C   UNL A   1      37.623  31.933  32.970  1.00  0.00     0.029 A 
ATOM     43  C   UNL A   1      38.883  31.233  33.194  1.00  0.00     0.049 A 
ATOM     44  H   UNL A   1      39.956  30.083  31.829  1.00  0.00     0.167 HD
ATOM     45  C   UNL A   1      41.898  27.363  29.012  1.00  0.00     0.037 A 
ATOM     46  C   UNL A   1      39.565  31.219  34.356  1.00  0.00     0.037 A 
ATOM     47  C   UNL A   1      42.685  27.270  30.214  1.00  0.00     0.049 A 
ATOM     48  C   UNL A   1      40.806  30.386  34.471  1.00  0.00     0.074 A 
ATOM     49  C   UNL A   1      43.848  26.553  30.433  1.00  0.00     0.029 A 
ATOM     50  N   UNL A   1      42.396  27.937  31.395  1.00  0.00    -0.354 N 
ATOM     51  N   UNL A   1      41.372  29.622  33.571  1.00  0.00    -0.248 NA
ATOM     52  C   UNL A   1      41.490  30.392  35.772  1.00  0.00     0.031 C 
ATOM     53  C   UNL A   1      44.253  26.770  31.756  1.00  0.00     0.029 A 
ATOM     54  C   UNL A   1      43.355  27.642  32.350  1.00  0.00     0.049 A 
ATOM     55  H   UNL A   1      41.624  28.532  31.534  1.00  0.00     0.167 HD
ATOM     56  C   UNL A   1      42.473  29.052  34.192  1.00  0.00     0.074 A 
ATOM     57  C   UNL A   1      42.508  29.573  35.544  1.00  0.00     0.031 C 
ATOM     58  C   UNL A   1      43.367  28.167  33.690  1.00  0.00     0.037 A 
BRANCH  45  59
ATOM     59  C   UNL A   1      42.314  26.541  27.832  1.00  0.00     0.064 A 
ATOM     60  C   UNL A   1      43.275  26.989  26.915  1.00  0.00     0.173 A 
ATOM     61  C   UNL A   1      41.760  25.266  27.637  1.00  0.00     0.173 A 
ATOM     62  F   UNL A   1      43.820  28.207  27.051  1.00  0.00    -0.203 F 
ATOM     63  C   UNL A   1      43.655  26.196  25.836  1.00  0.00     0.198 A 
ATOM     64  C   UNL A   1      42.156  24.469  26.568  1.00  0.00     0.198 A 
ATOM     65  F   UNL A   1      40.839  24.793  28.490  1.00  0.00    -0.203 F 
ATOM     66  F   UNL A   1      44.550  26.656  24.950  1.00  0.00    -0.200 F 
ATOM     67  C   UNL A   1      43.099  24.936  25.665  1.00  0.00     0.200 A 
ATOM     68  F   UNL A   1      41.621  23.250  26.408  1.00  0.00    -0.200 F 
ATOM     69  F   UNL A   1      43.467  24.173  24.626  1.00  0.00    -0.200 F 
ENDBRANCH  45  59
BRANCH  46  70
ATOM     70  C   UNL A   1      39.039  31.984  35.511  1.00  0.00     0.064 A 
ATOM     71  C   UNL A   1      38.248  31.364  36.486  1.00  0.00     0.173 A 
ATOM     72  C   UNL A   1      39.359  33.338  35.687  1.00  0.00     0.173 A 
ATOM     73  F   UNL A   1      37.897  30.078  36.346  1.00  0.00    -0.203 F 
ATOM     74  C   UNL A   1      37.799  32.072  37.600  1.00  0.00     0.198 A 
ATOM     75  C   UNL A   1      38.929  34.038  36.810  1.00  0.00     0.198 A 
ATOM     76  F   UNL A   1      40.115  33.972  34.778  1.00  0.00    -0.203 F 
ATOM     77  F   UNL A   1      37.028  31.464  38.511  1.00  0.00    -0.200 F 
ATOM     78  C   UNL A   1      38.148  33.405  37.765  1.00  0.00     0.200 A 
ATOM     79  F   UNL A   1      39.278  35.322  36.973  1.00  0.00    -0.200 F 
ATOM     80  F   UNL A   1      37.730  34.079  38.845  1.00  0.00    -0.200 F 
ENDBRANCH  46  70
BRANCH  58  81
ATOM     81  C   UNL A   1      44.459  27.709  34.605  1.00  0.00     0.064 A 
ATOM     82  C   UNL A   1      45.660  28.422  34.711  1.00  0.00     0.173 A 
ATOM     83  C   UNL A   1      44.284  26.578  35.414  1.00  0.00     0.173 A 
ATOM     84  F   UNL A   1      45.875  29.502  33.943  1.00  0.00    -0.203 F 
ATOM     85  C   UNL A   1      46.657  28.012  35.592  1.00  0.00     0.198 A 
ATOM     86  C   UNL A   1      45.276  26.179  36.304  1.00  0.00     0.198 A 
ATOM     87  F   UNL A   1      43.149  25.867  35.345  1.00  0.00    -0.203 F 
ATOM     88  F   UNL A   1      47.808  28.694  35.664  1.00  0.00    -0.200 F 
ATOM     89  C   UNL A   1      46.461  26.895  36.392  1.00  0.00     0.200 A 
ATOM     90  F   UNL A   1      45.087  25.102  37.079  1.00  0.00    -0.200 F 
ATOM     91  F   UNL A   1      47.420  26.504  37.243  1.00  0.00    -0.200 F 
ENDBRANCH  58  81
ENDBRANCH  32  33
ENDBRANCH  25  27
ENDBRANCH  24  25
ENDBRANCH  23  24
ENDBRANCH   1  23
TORSDOF 14
ENDMDL
