MODEL 1
REMARK VINA RESULT:     -11.4      0.000      0.000
REMARK SMILES CC(C)C[C@@H](NC(=O)Cn1nc(O)ccc1=O)C(=O)OCCOC(=O)c1ccc(-c2c3nc(c(-c4c(F)c(F)c(F)c(F)c4F)c4ccc([nH]4)c(-c4c(F)c(F)c(F)c(F)c4F)c4nc(c(-c5c(F)c(F)c(F)c(F)c5F)c5ccc2[nH]5)C=C4)C=C3)cc1
REMARK SMILES IDX 21 1 20 2 18 3 19 4 5 5 4 6 2 7 1 8 3 9 6 10 7 11 8 13 9 14
REMARK SMILES IDX 10 15 11 16 16 17 12 18 15 19 17 20 14 21 13 22 22 24 23 25
REMARK SMILES IDX 24 26 25 27 26 28 27 29 88 30 28 31 87 32 29 33 30 34 31 35
REMARK SMILES IDX 81 36 32 37 86 38 80 39 82 40 33 41 85 42 79 43 78 44 34 46
REMARK SMILES IDX 66 47 46 48 65 49 47 50 50 51 64 52 83 53 48 54 49 55 63 57
REMARK SMILES IDX 84 58 51 59 35 60 36 61 44 62 37 63 38 64 42 65 45 66 39 67
REMARK SMILES IDX 40 68 43 69 41 70 67 71 68 72 76 73 69 74 70 75 74 76 77 77
REMARK SMILES IDX 71 78 72 79 75 80 73 81 52 82 53 83 61 84 54 85 55 86 59 87
REMARK SMILES IDX 62 88 56 89 57 90 60 91 58 92
REMARK H PARENT 6 12 13 23 82 45 50 56
REMARK Flexibility Score: inf
ROOT
ATOM      1  C   UNL A   1      31.666  29.450  25.355  1.00  0.00     0.274 C 
ENDROOT
BRANCH   1   2
ATOM      2  O   UNL A   1      32.393  28.317  25.883  1.00  0.00    -0.461 OA
BRANCH   2   3
ATOM      3  C   UNL A   1      31.707  27.387  26.594  1.00  0.00     0.328 C 
ATOM      4  O   UNL A   1      31.103  27.638  27.633  1.00  0.00    -0.250 OA
BRANCH   3   5
ATOM      5  C   UNL A   1      31.946  25.943  26.082  1.00  0.00     0.192 C 
BRANCH   5   6
ATOM      6  C   UNL A   1      33.374  25.535  25.677  1.00  0.00     0.040 C 
BRANCH   6   7
ATOM      7  C   UNL A   1      33.595  25.075  24.220  1.00  0.00    -0.015 C 
ATOM      8  C   UNL A   1      33.643  26.237  23.232  1.00  0.00     0.007 C 
ATOM      9  C   UNL A   1      34.917  24.292  24.143  1.00  0.00     0.007 C 
ENDBRANCH   6   7
ENDBRANCH   5   6
BRANCH   5  10
ATOM     10  N   UNL A   1      31.346  24.917  26.963  1.00  0.00    -0.341 N 
ATOM     11  C   UNL A   1      30.539  23.858  26.602  1.00  0.00     0.242 C 
ATOM     12  H   UNL A   1      31.547  24.999  27.922  1.00  0.00     0.164 HD
ATOM     13  O   UNL A   1      29.596  23.583  27.347  1.00  0.00    -0.273 OA
BRANCH  11  14
ATOM     14  C   UNL A   1      30.905  22.961  25.407  1.00  0.00     0.248 C 
BRANCH  14  15
ATOM     15  N   UNL A   1      32.046  22.032  25.446  1.00  0.00    -0.217 N 
ATOM     16  N   UNL A   1      32.795  22.062  26.620  1.00  0.00    -0.131 NA
ATOM     17  C   UNL A   1      32.534  21.440  24.288  1.00  0.00     0.267 A 
ATOM     18  C   UNL A   1      33.928  21.456  26.584  1.00  0.00     0.229 A 
ATOM     19  C   UNL A   1      33.836  20.745  24.360  1.00  0.00     0.079 A 
ATOM     20  O   UNL A   1      32.004  21.468  23.190  1.00  0.00    -0.268 OA
ATOM     21  C   UNL A   1      34.552  20.752  25.481  1.00  0.00     0.075 A 
BRANCH  18  22
ATOM     22  O   UNL A   1      34.707  21.453  27.668  1.00  0.00    -0.492 OA
ATOM     23  H   UNL A   1      35.282  22.174  27.835  1.00  0.00     0.295 HD
ENDBRANCH  18  22
ENDBRANCH  14  15
ENDBRANCH  11  14
ENDBRANCH   5  10
ENDBRANCH   3   5
ENDBRANCH   2   3
ENDBRANCH   1   2
BRANCH   1  24
ATOM     24  C   UNL A   1      31.822  30.640  26.307  1.00  0.00     0.275 C 
BRANCH  24  25
ATOM     25  O   UNL A   1      33.218  30.882  26.508  1.00  0.00    -0.458 OA
BRANCH  25  26
ATOM     26  C   UNL A   1      33.498  31.973  27.263  1.00  0.00     0.338 C 
ATOM     27  O   UNL A   1      32.779  32.927  27.496  1.00  0.00    -0.246 OA
BRANCH  26  28
ATOM     28  C   UNL A   1      34.717  31.634  28.014  1.00  0.00     0.060 A 
ATOM     29  C   UNL A   1      35.790  32.524  28.054  1.00  0.00     0.016 A 
ATOM     30  C   UNL A   1      34.819  30.353  28.569  1.00  0.00     0.016 A 
ATOM     31  C   UNL A   1      36.986  32.115  28.627  1.00  0.00     0.010 A 
ATOM     32  C   UNL A   1      36.020  29.940  29.139  1.00  0.00     0.010 A 
ATOM     33  C   UNL A   1      37.106  30.822  29.165  1.00  0.00    -0.014 A 
BRANCH  33  34
ATOM     34  C   UNL A   1      38.352  30.460  29.861  1.00  0.00     0.031 A 
ATOM     35  C   UNL A   1      38.625  30.926  31.252  1.00  0.00     0.074 A 
ATOM     36  C   UNL A   1      39.196  29.636  29.218  1.00  0.00     0.049 A 
ATOM     37  N   UNL A   1      39.573  30.547  32.070  1.00  0.00    -0.248 NA
ATOM     38  C   UNL A   1      37.721  31.947  31.799  1.00  0.00     0.031 C 
ATOM     39  C   UNL A   1      39.000  29.147  27.852  1.00  0.00     0.029 A 
ATOM     40  N   UNL A   1      40.353  29.036  29.632  1.00  0.00    -0.354 N 
ATOM     41  C   UNL A   1      39.359  31.252  33.246  1.00  0.00     0.074 A 
ATOM     42  C   UNL A   1      38.226  32.127  33.013  1.00  0.00     0.031 C 
ATOM     43  C   UNL A   1      39.977  28.278  27.558  1.00  0.00     0.029 A 
ATOM     44  C   UNL A   1      40.871  28.168  28.706  1.00  0.00     0.049 A 
ATOM     45  H   UNL A   1      40.772  29.211  30.506  1.00  0.00     0.167 HD
ATOM     46  C   UNL A   1      40.037  31.150  34.413  1.00  0.00     0.037 A 
ATOM     47  C   UNL A   1      41.934  27.350  28.789  1.00  0.00     0.037 A 
ATOM     48  C   UNL A   1      41.188  30.301  34.601  1.00  0.00     0.049 A 
ATOM     49  C   UNL A   1      42.707  27.305  30.075  1.00  0.00     0.074 A 
ATOM     50  C   UNL A   1      41.960  30.126  35.736  1.00  0.00     0.029 A 
ATOM     51  N   UNL A   1      41.742  29.493  33.615  1.00  0.00    -0.354 N 
ATOM     52  N   UNL A   1      42.472  27.935  31.201  1.00  0.00    -0.248 NA
ATOM     53  C   UNL A   1      43.884  26.432  30.103  1.00  0.00     0.031 C 
ATOM     54  C   UNL A   1      43.007  29.250  35.423  1.00  0.00     0.029 A 
ATOM     55  C   UNL A   1      42.859  28.836  34.108  1.00  0.00     0.049 A 
ATOM     56  H   UNL A   1      41.391  29.399  32.700  1.00  0.00     0.167 HD
ATOM     57  C   UNL A   1      43.465  27.528  32.079  1.00  0.00     0.074 A 
ATOM     58  C   UNL A   1      44.289  26.577  31.358  1.00  0.00     0.031 C 
ATOM     59  C   UNL A   1      43.677  27.910  33.363  1.00  0.00     0.037 A 
BRANCH  46  60
ATOM     60  C   UNL A   1      39.553  31.975  35.571  1.00  0.00     0.064 A 
ATOM     61  C   UNL A   1      38.562  31.496  36.442  1.00  0.00     0.173 A 
ATOM     62  C   UNL A   1      40.107  33.235  35.841  1.00  0.00     0.173 A 
ATOM     63  F   UNL A   1      37.993  30.300  36.225  1.00  0.00    -0.203 F 
ATOM     64  C   UNL A   1      38.128  32.257  37.526  1.00  0.00     0.198 A 
ATOM     65  C   UNL A   1      39.689  33.981  36.941  1.00  0.00     0.198 A 
ATOM     66  F   UNL A   1      41.062  33.740  35.046  1.00  0.00    -0.203 F 
ATOM     67  F   UNL A   1      37.152  31.793  38.319  1.00  0.00    -0.200 F 
ATOM     68  C   UNL A   1      38.696  33.496  37.778  1.00  0.00     0.200 A 
ATOM     69  F   UNL A   1      40.250  35.174  37.192  1.00  0.00    -0.200 F 
ATOM     70  F   UNL A   1      38.284  34.223  38.826  1.00  0.00    -0.200 F 
ENDBRANCH  46  60
BRANCH  47  71
ATOM     71  C   UNL A   1      42.262  26.473  27.640  1.00  0.00     0.064 A 
ATOM     72  C   UNL A   1      43.263  26.833  26.730  1.00  0.00     0.173 A 
ATOM     73  C   UNL A   1      41.644  25.224  27.476  1.00  0.00     0.173 A 
ATOM     74  F   UNL A   1      43.876  28.020  26.842  1.00  0.00    -0.203 F 
ATOM     75  C   UNL A   1      43.638  25.974  25.699  1.00  0.00     0.198 A 
ATOM     76  C   UNL A   1      42.036  24.357  26.461  1.00  0.00     0.198 A 
ATOM     77  F   UNL A   1      40.689  24.831  28.331  1.00  0.00    -0.203 F 
ATOM     78  F   UNL A   1      44.591  26.346  24.834  1.00  0.00    -0.200 F 
ATOM     79  C   UNL A   1      43.032  24.732  25.572  1.00  0.00     0.200 A 
ATOM     80  F   UNL A   1      41.463  23.150  26.354  1.00  0.00    -0.200 F 
ATOM     81  F   UNL A   1      43.411  23.897  24.596  1.00  0.00    -0.200 F 
ENDBRANCH  47  71
BRANCH  59  82
ATOM     82  C   UNL A   1      44.856  27.300  34.063  1.00  0.00     0.064 A 
ATOM     83  C   UNL A   1      46.110  27.927  34.066  1.00  0.00     0.173 A 
ATOM     84  C   UNL A   1      44.723  26.093  34.766  1.00  0.00     0.173 A 
ATOM     85  F   UNL A   1      46.292  29.075  33.395  1.00  0.00    -0.203 F 
ATOM     86  C   UNL A   1      47.194  27.356  34.724  1.00  0.00     0.198 A 
ATOM     87  C   UNL A   1      45.802  25.539  35.449  1.00  0.00     0.198 A 
ATOM     88  F   UNL A   1      43.543  25.455  34.799  1.00  0.00    -0.203 F 
ATOM     89  F   UNL A   1      48.396  27.948  34.672  1.00  0.00    -0.200 F 
ATOM     90  C   UNL A   1      47.038  26.167  35.422  1.00  0.00     0.200 A 
ATOM     91  F   UNL A   1      45.646  24.397  36.133  1.00  0.00    -0.200 F 
ATOM     92  F   UNL A   1      48.081  25.622  36.061  1.00  0.00    -0.200 F 
ENDBRANCH  59  82
ENDBRANCH  33  34
ENDBRANCH  26  28
ENDBRANCH  25  26
ENDBRANCH  24  25
ENDBRANCH   1  24
TORSDOF 17
ENDMDL
MODEL 2
REMARK VINA RESULT:     -11.2      1.640      3.407
REMARK SMILES CC(C)C[C@@H](NC(=O)Cn1nc(O)ccc1=O)C(=O)OCCOC(=O)c1ccc(-c2c3nc(c(-c4c(F)c(F)c(F)c(F)c4F)c4ccc([nH]4)c(-c4c(F)c(F)c(F)c(F)c4F)c4nc(c(-c5c(F)c(F)c(F)c(F)c5F)c5ccc2[nH]5)C=C4)C=C3)cc1
REMARK SMILES IDX 21 1 20 2 18 3 19 4 5 5 4 6 2 7 1 8 3 9 6 10 7 11 8 13 9 14
REMARK SMILES IDX 10 15 11 16 16 17 12 18 15 19 17 20 14 21 13 22 22 24 23 25
REMARK SMILES IDX 24 26 25 27 26 28 27 29 88 30 28 31 87 32 29 33 30 34 31 35
REMARK SMILES IDX 81 36 32 37 86 38 80 39 82 40 33 41 85 42 79 43 78 44 34 46
REMARK SMILES IDX 66 47 46 48 65 49 47 50 50 51 64 52 83 53 48 54 49 55 63 57
REMARK SMILES IDX 84 58 51 59 35 60 36 61 44 62 37 63 38 64 42 65 45 66 39 67
REMARK SMILES IDX 40 68 43 69 41 70 67 71 68 72 76 73 69 74 70 75 74 76 77 77
REMARK SMILES IDX 71 78 72 79 75 80 73 81 52 82 53 83 61 84 54 85 55 86 59 87
REMARK SMILES IDX 62 88 56 89 57 90 60 91 58 92
REMARK H PARENT 6 12 13 23 82 45 50 56
REMARK Flexibility Score: inf
ROOT
ATOM      1  C   UNL A   1      31.634  28.559  25.711  1.00  0.00     0.274 C 
ENDROOT
BRANCH   1   2
ATOM      2  O   UNL A   1      32.737  27.898  25.049  1.00  0.00    -0.461 OA
BRANCH   2   3
ATOM      3  C   UNL A   1      32.984  26.599  25.351  1.00  0.00     0.328 C 
ATOM      4  O   UNL A   1      32.568  26.048  26.367  1.00  0.00    -0.250 OA
BRANCH   3   5
ATOM      5  C   UNL A   1      34.019  25.947  24.399  1.00  0.00     0.192 C 
BRANCH   5   6
ATOM      6  C   UNL A   1      34.369  24.461  24.601  1.00  0.00     0.040 C 
BRANCH   6   7
ATOM      7  C   UNL A   1      35.347  24.110  25.742  1.00  0.00    -0.015 C 
ATOM      8  C   UNL A   1      34.834  22.989  26.640  1.00  0.00     0.007 C 
ATOM      9  C   UNL A   1      36.694  23.689  25.127  1.00  0.00     0.007 C 
ENDBRANCH   6   7
ENDBRANCH   5   6
BRANCH   5  10
ATOM     10  N   UNL A   1      33.737  26.221  22.972  1.00  0.00    -0.341 N 
ATOM     11  C   UNL A   1      32.708  25.721  22.202  1.00  0.00     0.242 C 
ATOM     12  H   UNL A   1      34.358  26.834  22.518  1.00  0.00     0.164 HD
ATOM     13  O   UNL A   1      32.969  25.415  21.036  1.00  0.00    -0.273 OA
BRANCH  11  14
ATOM     14  C   UNL A   1      31.264  25.706  22.731  1.00  0.00     0.248 C 
BRANCH  14  15
ATOM     15  N   UNL A   1      30.388  26.886  22.650  1.00  0.00    -0.217 N 
ATOM     16  N   UNL A   1      30.937  27.988  21.997  1.00  0.00    -0.131 NA
ATOM     17  C   UNL A   1      29.262  27.005  23.454  1.00  0.00     0.267 A 
ATOM     18  C   UNL A   1      30.302  29.097  22.130  1.00  0.00     0.229 A 
ATOM     19  C   UNL A   1      28.592  28.320  23.519  1.00  0.00     0.079 A 
ATOM     20  O   UNL A   1      28.784  26.127  24.153  1.00  0.00    -0.268 OA
ATOM     21  C   UNL A   1      29.096  29.375  22.885  1.00  0.00     0.075 A 
BRANCH  18  22
ATOM     22  O   UNL A   1      30.775  30.200  21.544  1.00  0.00    -0.492 OA
ATOM     23  H   UNL A   1      30.988  30.952  22.061  1.00  0.00     0.295 HD
ENDBRANCH  18  22
ENDBRANCH  14  15
ENDBRANCH  11  14
ENDBRANCH   5  10
ENDBRANCH   3   5
ENDBRANCH   2   3
ENDBRANCH   1   2
BRANCH   1  24
ATOM     24  C   UNL A   1      31.884  30.069  25.727  1.00  0.00     0.275 C 
BRANCH  24  25
ATOM     25  O   UNL A   1      33.257  30.300  26.064  1.00  0.00    -0.458 OA
BRANCH  25  26
ATOM     26  C   UNL A   1      33.459  31.312  26.944  1.00  0.00     0.338 C 
ATOM     27  O   UNL A   1      32.659  32.150  27.318  1.00  0.00    -0.246 OA
BRANCH  26  28
ATOM     28  C   UNL A   1      34.735  31.009  27.610  1.00  0.00     0.060 A 
ATOM     29  C   UNL A   1      34.990  29.726  28.094  1.00  0.00     0.016 A 
ATOM     30  C   UNL A   1      35.620  32.065  27.860  1.00  0.00     0.016 A 
ATOM     31  C   UNL A   1      36.125  29.506  28.860  1.00  0.00     0.010 A 
ATOM     32  C   UNL A   1      36.756  31.846  28.633  1.00  0.00     0.010 A 
ATOM     33  C   UNL A   1      37.007  30.565  29.137  1.00  0.00    -0.014 A 
BRANCH  33  34
ATOM     34  C   UNL A   1      38.255  30.273  29.861  1.00  0.00     0.031 A 
ATOM     35  C   UNL A   1      38.492  30.797  31.238  1.00  0.00     0.074 A 
ATOM     36  C   UNL A   1      39.136  29.457  29.259  1.00  0.00     0.049 A 
ATOM     37  N   UNL A   1      39.442  30.481  32.081  1.00  0.00    -0.248 NA
ATOM     38  C   UNL A   1      37.545  31.803  31.738  1.00  0.00     0.031 C 
ATOM     39  C   UNL A   1      38.976  28.913  27.909  1.00  0.00     0.029 A 
ATOM     40  N   UNL A   1      40.308  28.914  29.708  1.00  0.00    -0.354 N 
ATOM     41  C   UNL A   1      39.187  31.219  33.228  1.00  0.00     0.074 A 
ATOM     42  C   UNL A   1      38.028  32.044  32.950  1.00  0.00     0.031 C 
ATOM     43  C   UNL A   1      39.988  28.070  27.658  1.00  0.00     0.029 A 
ATOM     44  C   UNL A   1      40.869  28.033  28.820  1.00  0.00     0.049 A 
ATOM     45  H   UNL A   1      40.709  29.134  30.580  1.00  0.00     0.167 HD
ATOM     46  C   UNL A   1      39.854  31.183  34.406  1.00  0.00     0.037 A 
ATOM     47  C   UNL A   1      41.960  27.258  28.946  1.00  0.00     0.037 A 
ATOM     48  C   UNL A   1      41.031  30.383  34.639  1.00  0.00     0.049 A 
ATOM     49  C   UNL A   1      42.716  27.286  30.241  1.00  0.00     0.074 A 
ATOM     50  C   UNL A   1      41.794  30.277  35.788  1.00  0.00     0.029 A 
ATOM     51  N   UNL A   1      41.626  29.561  33.689  1.00  0.00    -0.354 N 
ATOM     52  N   UNL A   1      42.445  27.946  31.341  1.00  0.00    -0.248 NA
ATOM     53  C   UNL A   1      43.923  26.457  30.315  1.00  0.00     0.031 C 
ATOM     54  C   UNL A   1      42.875  29.428  35.520  1.00  0.00     0.029 A 
ATOM     55  C   UNL A   1      42.760  28.963  34.219  1.00  0.00     0.049 A 
ATOM     56  H   UNL A   1      41.292  29.423  32.773  1.00  0.00     0.167 HD
ATOM     57  C   UNL A   1      43.439  27.607  32.245  1.00  0.00     0.074 A 
ATOM     58  C   UNL A   1      44.306  26.662  31.568  1.00  0.00     0.031 C 
ATOM     59  C   UNL A   1      43.620  28.041  33.517  1.00  0.00     0.037 A 
BRANCH  46  60
ATOM     60  C   UNL A   1      39.325  32.030  35.527  1.00  0.00     0.064 A 
ATOM     61  C   UNL A   1      38.462  31.497  36.498  1.00  0.00     0.173 A 
ATOM     62  C   UNL A   1      39.710  33.372  35.663  1.00  0.00     0.173 A 
ATOM     63  F   UNL A   1      38.054  30.221  36.413  1.00  0.00    -0.203 F 
ATOM     64  C   UNL A   1      37.987  32.282  37.548  1.00  0.00     0.198 A 
ATOM     65  C   UNL A   1      39.256  34.146  36.728  1.00  0.00     0.198 A 
ATOM     66  F   UNL A   1      40.539  33.932  34.768  1.00  0.00    -0.203 F 
ATOM     67  F   UNL A   1      37.132  31.760  38.439  1.00  0.00    -0.200 F 
ATOM     68  C   UNL A   1      38.389  33.603  37.666  1.00  0.00     0.200 A 
ATOM     69  F   UNL A   1      39.656  35.420  36.849  1.00  0.00    -0.200 F 
ATOM     70  F   UNL A   1      37.939  34.354  38.680  1.00  0.00    -0.200 F 
ENDBRANCH  46  60
BRANCH  47  71
ATOM     71  C   UNL A   1      42.334  26.352  27.832  1.00  0.00     0.064 A 
ATOM     72  C   UNL A   1      41.682  25.124  27.661  1.00  0.00     0.173 A 
ATOM     73  C   UNL A   1      43.284  26.730  26.873  1.00  0.00     0.173 A 
ATOM     74  F   UNL A   1      40.771  24.719  28.558  1.00  0.00    -0.203 F 
ATOM     75  C   UNL A   1      41.965  24.308  26.569  1.00  0.00     0.198 A 
ATOM     76  C   UNL A   1      43.549  25.925  25.769  1.00  0.00     0.198 A 
ATOM     77  F   UNL A   1      43.925  27.902  26.988  1.00  0.00    -0.203 F 
ATOM     78  F   UNL A   1      41.337  23.133  26.433  1.00  0.00    -0.200 F 
ATOM     79  C   UNL A   1      42.890  24.714  25.617  1.00  0.00     0.200 A 
ATOM     80  F   UNL A   1      44.427  26.330  24.842  1.00  0.00    -0.200 F 
ATOM     81  F   UNL A   1      43.143  23.941  24.553  1.00  0.00    -0.200 F 
ENDBRANCH  47  71
BRANCH  59  82
ATOM     82  C   UNL A   1      44.810  27.499  34.253  1.00  0.00     0.064 A 
ATOM     83  C   UNL A   1      44.736  26.304  34.983  1.00  0.00     0.173 A 
ATOM     84  C   UNL A   1      46.046  28.162  34.201  1.00  0.00     0.173 A 
ATOM     85  F   UNL A   1      43.573  25.642  35.076  1.00  0.00    -0.203 F 
ATOM     86  C   UNL A   1      45.847  25.806  35.656  1.00  0.00     0.198 A 
ATOM     87  C   UNL A   1      47.164  27.645  34.850  1.00  0.00     0.198 A 
ATOM     88  F   UNL A   1      46.171  29.306  33.512  1.00  0.00    -0.203 F 
ATOM     89  F   UNL A   1      45.740  24.688  36.388  1.00  0.00    -0.200 F 
ATOM     90  C   UNL A   1      47.062  26.472  35.583  1.00  0.00     0.200 A 
ATOM     91  F   UNL A   1      48.338  28.283  34.768  1.00  0.00    -0.200 F 
ATOM     92  F   UNL A   1      48.132  25.988  36.226  1.00  0.00    -0.200 F 
ENDBRANCH  59  82
ENDBRANCH  33  34
ENDBRANCH  26  28
ENDBRANCH  25  26
ENDBRANCH  24  25
ENDBRANCH   1  24
TORSDOF 17
ENDMDL
MODEL 3
REMARK VINA RESULT:     -11.1      1.074      2.008
REMARK SMILES CC(C)C[C@@H](NC(=O)Cn1nc(O)ccc1=O)C(=O)OCCOC(=O)c1ccc(-c2c3nc(c(-c4c(F)c(F)c(F)c(F)c4F)c4ccc([nH]4)c(-c4c(F)c(F)c(F)c(F)c4F)c4nc(c(-c5c(F)c(F)c(F)c(F)c5F)c5ccc2[nH]5)C=C4)C=C3)cc1
REMARK SMILES IDX 21 1 20 2 18 3 19 4 5 5 4 6 2 7 1 8 3 9 6 10 7 11 8 13 9 14
REMARK SMILES IDX 10 15 11 16 16 17 12 18 15 19 17 20 14 21 13 22 22 24 23 25
REMARK SMILES IDX 24 26 25 27 26 28 27 29 88 30 28 31 87 32 29 33 30 34 31 35
REMARK SMILES IDX 81 36 32 37 86 38 80 39 82 40 33 41 85 42 79 43 78 44 34 46
REMARK SMILES IDX 66 47 46 48 65 49 47 50 50 51 64 52 83 53 48 54 49 55 63 57
REMARK SMILES IDX 84 58 51 59 35 60 36 61 44 62 37 63 38 64 42 65 45 66 39 67
REMARK SMILES IDX 40 68 43 69 41 70 67 71 68 72 76 73 69 74 70 75 74 76 77 77
REMARK SMILES IDX 71 78 72 79 75 80 73 81 52 82 53 83 61 84 54 85 55 86 59 87
REMARK SMILES IDX 62 88 56 89 57 90 60 91 58 92
REMARK H PARENT 6 12 13 23 82 45 50 56
REMARK Flexibility Score: inf
ROOT
ATOM      1  C   UNL A   1      31.599  28.852  24.968  1.00  0.00     0.274 C 
ENDROOT
BRANCH   1   2
ATOM      2  O   UNL A   1      31.588  27.699  25.841  1.00  0.00    -0.461 OA
BRANCH   2   3
ATOM      3  C   UNL A   1      32.658  26.866  25.820  1.00  0.00     0.328 C 
ATOM      4  O   UNL A   1      33.793  27.210  26.139  1.00  0.00    -0.250 OA
BRANCH   3   5
ATOM      5  C   UNL A   1      32.345  25.504  25.147  1.00  0.00     0.192 C 
BRANCH   5   6
ATOM      6  C   UNL A   1      31.062  24.760  25.560  1.00  0.00     0.040 C 
BRANCH   6   7
ATOM      7  C   UNL A   1      31.223  23.351  26.169  1.00  0.00    -0.015 C 
ATOM      8  C   UNL A   1      32.363  23.268  27.179  1.00  0.00     0.007 C 
ATOM      9  C   UNL A   1      29.906  22.958  26.861  1.00  0.00     0.007 C 
ENDBRANCH   6   7
ENDBRANCH   5   6
BRANCH   5  10
ATOM     10  N   UNL A   1      32.462  25.553  23.673  1.00  0.00    -0.341 N 
ATOM     11  C   UNL A   1      33.578  25.302  22.903  1.00  0.00     0.242 C 
ATOM     12  H   UNL A   1      31.644  25.795  23.182  1.00  0.00     0.164 HD
ATOM     13  O   UNL A   1      33.765  26.024  21.921  1.00  0.00    -0.273 OA
BRANCH  11  14
ATOM     14  C   UNL A   1      34.456  24.067  23.170  1.00  0.00     0.248 C 
BRANCH  14  15
ATOM     15  N   UNL A   1      33.899  22.705  23.210  1.00  0.00    -0.217 N 
ATOM     16  N   UNL A   1      32.875  22.456  22.300  1.00  0.00    -0.131 NA
ATOM     17  C   UNL A   1      34.133  21.862  24.289  1.00  0.00     0.267 A 
ATOM     18  C   UNL A   1      32.208  21.372  22.482  1.00  0.00     0.229 A 
ATOM     19  C   UNL A   1      33.328  20.627  24.392  1.00  0.00     0.079 A 
ATOM     20  O   UNL A   1      34.925  22.061  25.196  1.00  0.00    -0.268 OA
ATOM     21  C   UNL A   1      32.359  20.370  23.518  1.00  0.00     0.075 A 
BRANCH  18  22
ATOM     22  O   UNL A   1      31.201  21.073  21.657  1.00  0.00    -0.492 OA
ATOM     23  H   UNL A   1      30.485  21.668  21.555  1.00  0.00     0.295 HD
ENDBRANCH  18  22
ENDBRANCH  14  15
ENDBRANCH  11  14
ENDBRANCH   5  10
ENDBRANCH   3   5
ENDBRANCH   2   3
ENDBRANCH   1   2
BRANCH   1  24
ATOM     24  C   UNL A   1      31.739  30.124  25.808  1.00  0.00     0.275 C 
BRANCH  24  25
ATOM     25  O   UNL A   1      33.120  30.297  26.146  1.00  0.00    -0.458 OA
BRANCH  25  26
ATOM     26  C   UNL A   1      33.375  31.361  26.947  1.00  0.00     0.338 C 
ATOM     27  O   UNL A   1      32.610  32.246  27.284  1.00  0.00    -0.246 OA
BRANCH  26  28
ATOM     28  C   UNL A   1      34.662  31.069  27.596  1.00  0.00     0.060 A 
ATOM     29  C   UNL A   1      34.945  29.780  28.051  1.00  0.00     0.016 A 
ATOM     30  C   UNL A   1      35.530  32.135  27.862  1.00  0.00     0.016 A 
ATOM     31  C   UNL A   1      36.091  29.566  28.803  1.00  0.00     0.010 A 
ATOM     32  C   UNL A   1      36.676  31.922  28.621  1.00  0.00     0.010 A 
ATOM     33  C   UNL A   1      36.954  30.635  29.096  1.00  0.00    -0.014 A 
BRANCH  33  34
ATOM     34  C   UNL A   1      38.214  30.351  29.804  1.00  0.00     0.031 A 
ATOM     35  C   UNL A   1      38.455  30.855  31.188  1.00  0.00     0.074 A 
ATOM     36  C   UNL A   1      39.103  29.561  29.179  1.00  0.00     0.049 A 
ATOM     37  N   UNL A   1      39.417  30.540  32.016  1.00  0.00    -0.248 NA
ATOM     38  C   UNL A   1      37.496  31.835  31.713  1.00  0.00     0.031 C 
ATOM     39  C   UNL A   1      38.940  29.038  27.821  1.00  0.00     0.029 A 
ATOM     40  N   UNL A   1      40.288  29.031  29.608  1.00  0.00    -0.354 N 
ATOM     41  C   UNL A   1      39.160  31.253  33.178  1.00  0.00     0.074 A 
ATOM     42  C   UNL A   1      37.985  32.063  32.926  1.00  0.00     0.031 C 
ATOM     43  C   UNL A   1      39.964  28.218  27.546  1.00  0.00     0.029 A 
ATOM     44  C   UNL A   1      40.856  28.175  28.699  1.00  0.00     0.049 A 
ATOM     45  H   UNL A   1      40.693  29.242  30.481  1.00  0.00     0.167 HD
ATOM     46  C   UNL A   1      39.838  31.208  34.350  1.00  0.00     0.037 A 
ATOM     47  C   UNL A   1      41.960  27.416  28.802  1.00  0.00     0.037 A 
ATOM     48  C   UNL A   1      41.031  30.424  34.558  1.00  0.00     0.049 A 
ATOM     49  C   UNL A   1      42.728  27.434  30.091  1.00  0.00     0.074 A 
ATOM     50  C   UNL A   1      41.805  30.310  35.699  1.00  0.00     0.029 A 
ATOM     51  N   UNL A   1      41.631  29.629  33.588  1.00  0.00    -0.354 N 
ATOM     52  N   UNL A   1      42.455  28.070  31.205  1.00  0.00    -0.248 NA
ATOM     53  C   UNL A   1      43.950  26.625  30.140  1.00  0.00     0.031 C 
ATOM     54  C   UNL A   1      42.898  29.485  35.406  1.00  0.00     0.029 A 
ATOM     55  C   UNL A   1      42.779  29.041  34.098  1.00  0.00     0.049 A 
ATOM     56  H   UNL A   1      41.290  29.501  32.674  1.00  0.00     0.167 HD
ATOM     57  C   UNL A   1      43.463  27.732  32.094  1.00  0.00     0.074 A 
ATOM     58  C   UNL A   1      44.340  26.813  31.393  1.00  0.00     0.031 C 
ATOM     59  C   UNL A   1      43.649  28.147  33.372  1.00  0.00     0.037 A 
BRANCH  46  60
ATOM     60  C   UNL A   1      39.305  32.026  35.491  1.00  0.00     0.064 A 
ATOM     61  C   UNL A   1      38.465  31.460  36.463  1.00  0.00     0.173 A 
ATOM     62  C   UNL A   1      39.664  33.374  35.643  1.00  0.00     0.173 A 
ATOM     63  F   UNL A   1      38.084  30.177  36.362  1.00  0.00    -0.203 F 
ATOM     64  C   UNL A   1      37.987  32.218  37.531  1.00  0.00     0.198 A 
ATOM     65  C   UNL A   1      39.206  34.121  36.726  1.00  0.00     0.198 A 
ATOM     66  F   UNL A   1      40.469  33.965  34.747  1.00  0.00    -0.203 F 
ATOM     67  F   UNL A   1      37.155  31.664  38.423  1.00  0.00    -0.200 F 
ATOM     68  C   UNL A   1      38.363  33.545  37.665  1.00  0.00     0.200 A 
ATOM     69  F   UNL A   1      39.581  35.401  36.862  1.00  0.00    -0.200 F 
ATOM     70  F   UNL A   1      37.909  34.271  38.696  1.00  0.00    -0.200 F 
ENDBRANCH  46  60
BRANCH  47  71
ATOM     71  C   UNL A   1      42.340  26.537  27.670  1.00  0.00     0.064 A 
ATOM     72  C   UNL A   1      43.311  26.943  26.745  1.00  0.00     0.173 A 
ATOM     73  C   UNL A   1      41.805  25.248  27.537  1.00  0.00     0.173 A 
ATOM     74  F   UNL A   1      43.844  28.170  26.829  1.00  0.00    -0.203 F 
ATOM     75  C   UNL A   1      43.736  26.088  25.731  1.00  0.00     0.198 A 
ATOM     76  C   UNL A   1      42.249  24.386  26.537  1.00  0.00     0.198 A 
ATOM     77  F   UNL A   1      40.882  24.811  28.406  1.00  0.00    -0.203 F 
ATOM     78  F   UNL A   1      44.658  26.503  24.852  1.00  0.00    -0.200 F 
ATOM     79  C   UNL A   1      43.213  24.807  25.634  1.00  0.00     0.200 A 
ATOM     80  F   UNL A   1      41.756  23.142  26.460  1.00  0.00    -0.200 F 
ATOM     81  F   UNL A   1      43.642  23.977  24.674  1.00  0.00    -0.200 F 
ENDBRANCH  47  71
BRANCH  59  82
ATOM     82  C   UNL A   1      44.854  27.612  34.088  1.00  0.00     0.064 A 
ATOM     83  C   UNL A   1      46.074  28.303  34.082  1.00  0.00     0.173 A 
ATOM     84  C   UNL A   1      44.781  26.413  34.814  1.00  0.00     0.173 A 
ATOM     85  F   UNL A   1      46.200  29.445  33.389  1.00  0.00    -0.203 F 
ATOM     86  C   UNL A   1      47.184  27.802  34.755  1.00  0.00     0.198 A 
ATOM     87  C   UNL A   1      45.884  25.929  35.511  1.00  0.00     0.198 A 
ATOM     88  F   UNL A   1      43.635  25.716  34.855  1.00  0.00    -0.203 F 
ATOM     89  F   UNL A   1      48.353  28.454  34.695  1.00  0.00    -0.200 F 
ATOM     90  C   UNL A   1      47.087  26.620  35.475  1.00  0.00     0.200 A 
ATOM     91  F   UNL A   1      45.784  24.795  36.216  1.00  0.00    -0.200 F 
ATOM     92  F   UNL A   1      48.154  26.142  36.128  1.00  0.00    -0.200 F 
ENDBRANCH  59  82
ENDBRANCH  33  34
ENDBRANCH  26  28
ENDBRANCH  25  26
ENDBRANCH  24  25
ENDBRANCH   1  24
TORSDOF 17
ENDMDL
