MODEL 1
REMARK VINA RESULT:     -11.1      0.000      0.000
REMARK SMILES CC(C)OCCS(=O)(=O)Nc1ccc(O)c(C(=O)OCCOC(=O)c2ccc(-c3c4nc(c(-c5c(F)c(F)c(F)c(F)c5F)c5ccc([nH]5)c(-c5c(F)c(F)c(F)c(F)c5F)c5nc(c(-c6c(F)c(F)c(F)c(F)c6F)c6ccc3[nH]6)C=C5)C=C4)cc2)c1
REMARK SMILES IDX 17 1 18 2 16 3 11 4 12 5 88 6 13 7 14 8 10 9 7 11 8 12 9 13
REMARK SMILES IDX 6 14 5 15 4 16 2 17 1 18 3 19 15 20 19 22 20 23 21 24 22 25
REMARK SMILES IDX 23 26 24 27 25 28 26 29 87 30 27 31 86 32 28 33 29 34 30 35
REMARK SMILES IDX 80 36 31 37 85 38 79 39 81 40 32 41 84 42 78 43 77 44 33 46
REMARK SMILES IDX 65 47 45 48 64 49 46 50 49 51 63 52 82 53 47 54 48 55 62 57
REMARK SMILES IDX 83 58 50 59 34 60 35 61 43 62 36 63 37 64 41 65 44 66 38 67
REMARK SMILES IDX 39 68 42 69 40 70 66 71 67 72 75 73 68 74 69 75 73 76 76 77
REMARK SMILES IDX 70 78 71 79 74 80 72 81 51 82 52 83 60 84 53 85 54 86 58 87
REMARK SMILES IDX 61 88 55 89 56 90 59 91 57 92
REMARK H PARENT 10 10 15 21 81 45 49 56
REMARK Flexibility Score: inf
ROOT
ATOM      1  C   UNL A   1      32.891  26.984  22.148  1.00  0.00     0.342 C 
ATOM      2  O   UNL A   1      33.638  26.296  21.471  1.00  0.00    -0.246 OA
ENDROOT
BRANCH   1   3
ATOM      3  C   UNL A   1      31.526  26.578  22.572  1.00  0.00     0.103 A 
ATOM      4  C   UNL A   1      30.343  25.136  24.085  1.00  0.00     0.050 A 
ATOM      5  C   UNL A   1      29.388  26.139  24.263  1.00  0.00     0.030 A 
ATOM      6  C   UNL A   1      31.401  25.333  23.206  1.00  0.00     0.046 A 
ATOM      7  C   UNL A   1      29.410  27.290  23.483  1.00  0.00     0.049 A 
ATOM      8  C   UNL A   1      30.470  27.496  22.613  1.00  0.00     0.130 A 
BRANCH   4   9
ATOM      9  N   UNL A   1      30.282  23.972  24.891  1.00  0.00    -0.283 N 
ATOM     10  H   UNL A   1      29.891  23.152  24.514  1.00  0.00     0.180 HD
BRANCH   9  11
ATOM     11  S   UNL A   1      30.854  23.948  26.458  1.00  0.00     0.235 S 
ATOM     12  O   UNL A   1      29.697  23.665  27.283  1.00  0.00    -0.207 OA
ATOM     13  O   UNL A   1      31.598  25.174  26.654  1.00  0.00    -0.207 OA
BRANCH  11  14
ATOM     14  C   UNL A   1      32.008  22.576  26.581  1.00  0.00     0.188 C 
BRANCH  14  15
ATOM     15  C   UNL A   1      32.419  21.935  25.260  1.00  0.00     0.178 C 
BRANCH  15  16
ATOM     16  O   UNL A   1      31.993  20.569  25.221  1.00  0.00    -0.378 OA
BRANCH  16  17
ATOM     17  C   UNL A   1      32.993  19.547  25.250  1.00  0.00     0.112 C 
ATOM     18  C   UNL A   1      32.619  18.291  24.478  1.00  0.00     0.038 C 
ATOM     19  C   UNL A   1      34.361  20.039  24.818  1.00  0.00     0.038 C 
ENDBRANCH  16  17
ENDBRANCH  15  16
ENDBRANCH  14  15
ENDBRANCH  11  14
ENDBRANCH   9  11
ENDBRANCH   4   9
BRANCH   8  20
ATOM     20  O   UNL A   1      30.474  28.602  21.812  1.00  0.00    -0.507 OA
ATOM     21  H   UNL A   1      31.247  29.126  21.744  1.00  0.00     0.293 HD
ENDBRANCH   8  20
ENDBRANCH   1   3
BRANCH   1  22
ATOM     22  O   UNL A   1      33.225  28.080  22.867  1.00  0.00    -0.458 OA
BRANCH  22  23
ATOM     23  C   UNL A   1      33.617  27.931  24.238  1.00  0.00     0.275 C 
BRANCH  23  24
ATOM     24  C   UNL A   1      32.804  28.910  25.088  1.00  0.00     0.275 C 
BRANCH  24  25
ATOM     25  O   UNL A   1      33.567  30.105  25.360  1.00  0.00    -0.458 OA
BRANCH  25  26
ATOM     26  C   UNL A   1      33.273  30.741  26.515  1.00  0.00     0.338 C 
ATOM     27  O   UNL A   1      32.255  31.347  26.805  1.00  0.00    -0.246 OA
BRANCH  26  28
ATOM     28  C   UNL A   1      34.365  30.539  27.482  1.00  0.00     0.060 A 
ATOM     29  C   UNL A   1      35.295  31.561  27.630  1.00  0.00     0.016 A 
ATOM     30  C   UNL A   1      34.560  29.320  28.125  1.00  0.00     0.016 A 
ATOM     31  C   UNL A   1      36.461  31.362  28.363  1.00  0.00     0.010 A 
ATOM     32  C   UNL A   1      35.698  29.143  28.926  1.00  0.00     0.010 A 
ATOM     33  C   UNL A   1      36.677  30.151  29.035  1.00  0.00    -0.014 A 
BRANCH  33  34
ATOM     34  C   UNL A   1      37.931  29.930  29.815  1.00  0.00     0.031 A 
ATOM     35  C   UNL A   1      39.042  29.086  29.245  1.00  0.00     0.074 A 
ATOM     36  C   UNL A   1      38.093  30.492  31.030  1.00  0.00     0.049 A 
ATOM     37  N   UNL A   1      40.119  28.620  29.827  1.00  0.00    -0.248 NA
ATOM     38  C   UNL A   1      38.919  28.706  27.829  1.00  0.00     0.031 C 
ATOM     39  C   UNL A   1      37.138  31.385  31.688  1.00  0.00     0.029 A 
ATOM     40  N   UNL A   1      39.127  30.396  31.933  1.00  0.00    -0.354 N 
ATOM     41  C   UNL A   1      40.770  27.851  28.870  1.00  0.00     0.074 A 
ATOM     42  C   UNL A   1      39.965  27.906  27.669  1.00  0.00     0.031 C 
ATOM     43  C   UNL A   1      37.641  31.779  32.866  1.00  0.00     0.029 A 
ATOM     44  C   UNL A   1      38.907  31.093  33.097  1.00  0.00     0.049 A 
ATOM     45  H   UNL A   1      39.946  29.877  31.762  1.00  0.00     0.167 HD
ATOM     46  C   UNL A   1      41.934  27.164  28.984  1.00  0.00     0.037 A 
ATOM     47  C   UNL A   1      39.614  31.140  34.242  1.00  0.00     0.037 A 
ATOM     48  C   UNL A   1      42.759  27.151  30.166  1.00  0.00     0.049 A 
ATOM     49  C   UNL A   1      40.870  30.321  34.367  1.00  0.00     0.074 A 
ATOM     50  C   UNL A   1      43.958  26.490  30.376  1.00  0.00     0.029 A 
ATOM     51  N   UNL A   1      42.476  27.843  31.335  1.00  0.00    -0.354 N 
ATOM     52  N   UNL A   1      41.448  29.552  33.477  1.00  0.00    -0.248 NA
ATOM     53  C   UNL A   1      41.562  30.362  35.662  1.00  0.00     0.031 C 
ATOM     54  C   UNL A   1      44.377  26.745  31.686  1.00  0.00     0.029 A 
ATOM     55  C   UNL A   1      43.470  27.611  32.274  1.00  0.00     0.049 A 
ATOM     56  H   UNL A   1      41.688  28.415  31.477  1.00  0.00     0.167 HD
ATOM     57  C   UNL A   1      42.581  29.039  34.093  1.00  0.00     0.074 A 
ATOM     58  C   UNL A   1      42.617  29.595  35.429  1.00  0.00     0.031 C 
ATOM     59  C   UNL A   1      43.505  28.183  33.596  1.00  0.00     0.037 A 
BRANCH  46  60
ATOM     60  C   UNL A   1      42.373  26.332  27.811  1.00  0.00     0.064 A 
ATOM     61  C   UNL A   1      41.820  25.071  27.543  1.00  0.00     0.173 A 
ATOM     62  C   UNL A   1      43.335  26.827  26.917  1.00  0.00     0.173 A 
ATOM     63  F   UNL A   1      40.904  24.545  28.370  1.00  0.00    -0.203 F 
ATOM     64  C   UNL A   1      42.236  24.326  26.441  1.00  0.00     0.198 A 
ATOM     65  C   UNL A   1      43.725  26.094  25.799  1.00  0.00     0.198 A 
ATOM     66  F   UNL A   1      43.891  28.032  27.121  1.00  0.00    -0.203 F 
ATOM     67  F   UNL A   1      41.731  23.102  26.234  1.00  0.00    -0.200 F 
ATOM     68  C   UNL A   1      43.181  24.840  25.566  1.00  0.00     0.200 A 
ATOM     69  F   UNL A   1      44.627  26.601  24.947  1.00  0.00    -0.200 F 
ATOM     70  F   UNL A   1      43.574  24.124  24.504  1.00  0.00    -0.200 F 
ENDBRANCH  46  60
BRANCH  47  71
ATOM     71  C   UNL A   1      39.124  31.957  35.386  1.00  0.00     0.064 A 
ATOM     72  C   UNL A   1      39.407  33.328  35.470  1.00  0.00     0.173 A 
ATOM     73  C   UNL A   1      38.370  31.383  36.421  1.00  0.00     0.173 A 
ATOM     74  F   UNL A   1      40.153  33.918  34.524  1.00  0.00    -0.203 F 
ATOM     75  C   UNL A   1      38.967  34.088  36.552  1.00  0.00     0.198 A 
ATOM     76  C   UNL A   1      37.901  32.152  37.484  1.00  0.00     0.198 A 
ATOM     77  F   UNL A   1      38.078  30.076  36.395  1.00  0.00    -0.203 F 
ATOM     78  F   UNL A   1      39.298  35.384  36.635  1.00  0.00    -0.200 F 
ATOM     79  C   UNL A   1      38.207  33.503  37.553  1.00  0.00     0.200 A 
ATOM     80  F   UNL A   1      37.157  31.583  38.442  1.00  0.00    -0.200 F 
ATOM     81  F   UNL A   1      37.781  34.235  38.591  1.00  0.00    -0.200 F 
ENDBRANCH  47  71
BRANCH  59  82
ATOM     82  C   UNL A   1      44.668  27.833  34.480  1.00  0.00     0.064 A 
ATOM     83  C   UNL A   1      45.831  28.613  34.516  1.00  0.00     0.173 A 
ATOM     84  C   UNL A   1      44.598  26.717  35.329  1.00  0.00     0.173 A 
ATOM     85  F   UNL A   1      45.953  29.680  33.712  1.00  0.00    -0.203 F 
ATOM     86  C   UNL A   1      46.891  28.279  35.356  1.00  0.00     0.198 A 
ATOM     87  C   UNL A   1      45.646  26.404  36.189  1.00  0.00     0.198 A 
ATOM     88  F   UNL A   1      43.504  25.940  35.338  1.00  0.00    -0.203 F 
ATOM     89  F   UNL A   1      48.011  29.014  35.341  1.00  0.00    -0.200 F 
ATOM     90  C   UNL A   1      46.795  27.180  36.195  1.00  0.00     0.200 A 
ATOM     91  F   UNL A   1      45.546  25.349  37.010  1.00  0.00    -0.200 F 
ATOM     92  F   UNL A   1      47.813  26.865  37.009  1.00  0.00    -0.200 F 
ENDBRANCH  59  82
ENDBRANCH  33  34
ENDBRANCH  26  28
ENDBRANCH  25  26
ENDBRANCH  24  25
ENDBRANCH  23  24
ENDBRANCH  22  23
ENDBRANCH   1  22
TORSDOF 18
ENDMDL
MODEL 2
REMARK VINA RESULT:     -11.1      1.439      2.442
REMARK SMILES CC(C)OCCS(=O)(=O)Nc1ccc(O)c(C(=O)OCCOC(=O)c2ccc(-c3c4nc(c(-c5c(F)c(F)c(F)c(F)c5F)c5ccc([nH]5)c(-c5c(F)c(F)c(F)c(F)c5F)c5nc(c(-c6c(F)c(F)c(F)c(F)c6F)c6ccc3[nH]6)C=C5)C=C4)cc2)c1
REMARK SMILES IDX 17 1 18 2 16 3 11 4 12 5 88 6 13 7 14 8 10 9 7 11 8 12 9 13
REMARK SMILES IDX 6 14 5 15 4 16 2 17 1 18 3 19 15 20 19 22 20 23 21 24 22 25
REMARK SMILES IDX 23 26 24 27 25 28 26 29 87 30 27 31 86 32 28 33 29 34 30 35
REMARK SMILES IDX 80 36 31 37 85 38 79 39 81 40 32 41 84 42 78 43 77 44 33 46
REMARK SMILES IDX 65 47 45 48 64 49 46 50 49 51 63 52 82 53 47 54 48 55 62 57
REMARK SMILES IDX 83 58 50 59 34 60 35 61 43 62 36 63 37 64 41 65 44 66 38 67
REMARK SMILES IDX 39 68 42 69 40 70 66 71 67 72 75 73 68 74 69 75 73 76 76 77
REMARK SMILES IDX 70 78 71 79 74 80 72 81 51 82 52 83 60 84 53 85 54 86 58 87
REMARK SMILES IDX 61 88 55 89 56 90 59 91 57 92
REMARK H PARENT 10 10 15 21 81 45 49 56
REMARK Flexibility Score: inf
ROOT
ATOM      1  C   UNL A   1      31.602  26.886  26.480  1.00  0.00     0.342 C 
ATOM      2  O   UNL A   1      31.135  27.365  27.502  1.00  0.00    -0.246 OA
ENDROOT
BRANCH   1   3
ATOM      3  C   UNL A   1      31.558  25.444  26.131  1.00  0.00     0.103 A 
ATOM      4  C   UNL A   1      32.907  23.459  26.029  1.00  0.00     0.050 A 
ATOM      5  C   UNL A   1      31.809  22.713  26.463  1.00  0.00     0.030 A 
ATOM      6  C   UNL A   1      32.780  24.827  25.821  1.00  0.00     0.046 A 
ATOM      7  C   UNL A   1      30.552  23.298  26.575  1.00  0.00     0.049 A 
ATOM      8  C   UNL A   1      30.422  24.664  26.380  1.00  0.00     0.130 A 
BRANCH   4   9
ATOM      9  N   UNL A   1      34.170  22.826  25.916  1.00  0.00    -0.283 N 
ATOM     10  H   UNL A   1      34.818  22.920  26.651  1.00  0.00     0.180 HD
BRANCH   9  11
ATOM     11  S   UNL A   1      34.594  21.928  24.576  1.00  0.00     0.235 S 
ATOM     12  O   UNL A   1      36.036  22.038  24.481  1.00  0.00    -0.207 OA
ATOM     13  O   UNL A   1      33.761  22.383  23.483  1.00  0.00    -0.207 OA
BRANCH  11  14
ATOM     14  C   UNL A   1      34.162  20.219  24.925  1.00  0.00     0.188 C 
BRANCH  14  15
ATOM     15  C   UNL A   1      32.745  19.801  24.544  1.00  0.00     0.178 C 
BRANCH  15  16
ATOM     16  O   UNL A   1      32.407  18.566  25.182  1.00  0.00    -0.378 OA
BRANCH  16  17
ATOM     17  C   UNL A   1      33.176  17.404  24.860  1.00  0.00     0.112 C 
ATOM     18  C   UNL A   1      32.760  16.154  25.620  1.00  0.00     0.038 C 
ATOM     19  C   UNL A   1      33.227  17.118  23.371  1.00  0.00     0.038 C 
ENDBRANCH  16  17
ENDBRANCH  15  16
ENDBRANCH  14  15
ENDBRANCH  11  14
ENDBRANCH   9  11
ENDBRANCH   4   9
BRANCH   8  20
ATOM     20  O   UNL A   1      29.184  25.236  26.447  1.00  0.00    -0.507 OA
ATOM     21  H   UNL A   1      29.095  26.128  26.717  1.00  0.00     0.293 HD
ENDBRANCH   8  20
ENDBRANCH   1   3
BRANCH   1  22
ATOM     22  O   UNL A   1      31.983  27.558  25.369  1.00  0.00    -0.458 OA
BRANCH  22  23
ATOM     23  C   UNL A   1      31.367  28.815  25.060  1.00  0.00     0.275 C 
BRANCH  23  24
ATOM     24  C   UNL A   1      32.379  29.932  25.324  1.00  0.00     0.275 C 
BRANCH  24  25
ATOM     25  O   UNL A   1      32.516  30.172  26.741  1.00  0.00    -0.458 OA
BRANCH  25  26
ATOM     26  C   UNL A   1      33.085  31.348  27.087  1.00  0.00     0.338 C 
ATOM     27  O   UNL A   1      32.598  32.465  27.036  1.00  0.00    -0.246 OA
BRANCH  26  28
ATOM     28  C   UNL A   1      34.424  31.103  27.644  1.00  0.00     0.060 A 
ATOM     29  C   UNL A   1      34.746  29.799  28.005  1.00  0.00     0.016 A 
ATOM     30  C   UNL A   1      35.298  32.144  27.944  1.00  0.00     0.016 A 
ATOM     31  C   UNL A   1      35.905  29.525  28.725  1.00  0.00     0.010 A 
ATOM     32  C   UNL A   1      36.503  31.860  28.603  1.00  0.00     0.010 A 
ATOM     33  C   UNL A   1      36.811  30.551  29.026  1.00  0.00    -0.014 A 
BRANCH  33  34
ATOM     34  C   UNL A   1      38.051  30.262  29.807  1.00  0.00     0.031 A 
ATOM     35  C   UNL A   1      39.135  29.396  29.219  1.00  0.00     0.074 A 
ATOM     36  C   UNL A   1      38.224  30.783  31.039  1.00  0.00     0.049 A 
ATOM     37  N   UNL A   1      40.191  28.875  29.794  1.00  0.00    -0.248 NA
ATOM     38  C   UNL A   1      39.009  29.062  27.792  1.00  0.00     0.031 C 
ATOM     39  C   UNL A   1      37.297  31.690  31.717  1.00  0.00     0.029 A 
ATOM     40  N   UNL A   1      39.248  30.624  31.945  1.00  0.00    -0.354 N 
ATOM     41  C   UNL A   1      40.821  28.111  28.819  1.00  0.00     0.074 A 
ATOM     42  C   UNL A   1      40.026  28.230  27.615  1.00  0.00     0.031 C 
ATOM     43  C   UNL A   1      37.806  32.031  32.909  1.00  0.00     0.029 A 
ATOM     44  C   UNL A   1      39.045  31.295  33.127  1.00  0.00     0.049 A 
ATOM     45  H   UNL A   1      40.049  30.081  31.764  1.00  0.00     0.167 HD
ATOM     46  C   UNL A   1      41.958  27.380  28.920  1.00  0.00     0.037 A 
ATOM     47  C   UNL A   1      39.745  31.284  34.278  1.00  0.00     0.037 A 
ATOM     48  C   UNL A   1      42.774  27.303  30.106  1.00  0.00     0.049 A 
ATOM     49  C   UNL A   1      40.970  30.416  34.385  1.00  0.00     0.074 A 
ATOM     50  C   UNL A   1      43.947  26.594  30.303  1.00  0.00     0.029 A 
ATOM     51  N   UNL A   1      42.508  27.971  31.293  1.00  0.00    -0.354 N 
ATOM     52  N   UNL A   1      41.527  29.653  33.477  1.00  0.00    -0.248 NA
ATOM     53  C   UNL A   1      41.654  30.396  35.685  1.00  0.00     0.031 C 
ATOM     54  C   UNL A   1      44.367  26.796  31.623  1.00  0.00     0.029 A 
ATOM     55  C   UNL A   1      43.486  27.677  32.230  1.00  0.00     0.049 A 
ATOM     56  H   UNL A   1      41.740  28.567  31.447  1.00  0.00     0.167 HD
ATOM     57  C   UNL A   1      42.636  29.083  34.085  1.00  0.00     0.074 A 
ATOM     58  C   UNL A   1      42.683  29.598  35.437  1.00  0.00     0.031 C 
ATOM     59  C   UNL A   1      43.533  28.209  33.569  1.00  0.00     0.037 A 
BRANCH  46  60
ATOM     60  C   UNL A   1      42.376  26.567  27.726  1.00  0.00     0.064 A 
ATOM     61  C   UNL A   1      43.353  27.014  26.824  1.00  0.00     0.173 A 
ATOM     62  C   UNL A   1      41.814  25.299  27.506  1.00  0.00     0.173 A 
ATOM     63  F   UNL A   1      43.915  28.222  26.981  1.00  0.00    -0.203 F 
ATOM     64  C   UNL A   1      43.730  26.235  25.732  1.00  0.00     0.198 A 
ATOM     65  C   UNL A   1      42.217  24.510  26.431  1.00  0.00     0.198 A 
ATOM     66  F   UNL A   1      40.880  24.819  28.341  1.00  0.00    -0.203 F 
ATOM     67  F   UNL A   1      44.629  26.705  24.856  1.00  0.00    -0.200 F 
ATOM     68  C   UNL A   1      43.168  24.982  25.541  1.00  0.00     0.200 A 
ATOM     69  F   UNL A   1      41.683  23.292  26.258  1.00  0.00    -0.200 F 
ATOM     70  F   UNL A   1      43.538  24.232  24.493  1.00  0.00    -0.200 F 
ENDBRANCH  46  60
BRANCH  47  71
ATOM     71  C   UNL A   1      39.276  32.084  35.441  1.00  0.00     0.064 A 
ATOM     72  C   UNL A   1      39.659  33.424  35.600  1.00  0.00     0.173 A 
ATOM     73  C   UNL A   1      38.443  31.525  36.423  1.00  0.00     0.173 A 
ATOM     74  F   UNL A   1      40.482  33.996  34.708  1.00  0.00    -0.203 F 
ATOM     75  C   UNL A   1      39.239  34.166  36.702  1.00  0.00     0.198 A 
ATOM     76  C   UNL A   1      37.995  32.279  37.504  1.00  0.00     0.198 A 
ATOM     77  F   UNL A   1      38.054  30.246  36.325  1.00  0.00    -0.203 F 
ATOM     78  F   UNL A   1      39.663  35.428  36.857  1.00  0.00    -0.200 F 
ATOM     79  C   UNL A   1      38.400  33.598  37.648  1.00  0.00     0.200 A 
ATOM     80  F   UNL A   1      37.175  31.727  38.409  1.00  0.00    -0.200 F 
ATOM     81  F   UNL A   1      37.993  34.313  38.704  1.00  0.00    -0.200 F 
ENDBRANCH  47  71
BRANCH  59  82
ATOM     82  C   UNL A   1      44.676  27.792  34.449  1.00  0.00     0.064 A 
ATOM     83  C   UNL A   1      45.870  28.523  34.507  1.00  0.00     0.173 A 
ATOM     84  C   UNL A   1      44.556  26.662  35.273  1.00  0.00     0.173 A 
ATOM     85  F   UNL A   1      46.040  29.602  33.726  1.00  0.00    -0.203 F 
ATOM     86  C   UNL A   1      46.912  28.127  35.342  1.00  0.00     0.198 A 
ATOM     87  C   UNL A   1      45.588  26.287  36.129  1.00  0.00     0.198 A 
ATOM     88  F   UNL A   1      43.432  25.930  35.260  1.00  0.00    -0.203 F 
ATOM     89  F   UNL A   1      48.061  28.816  35.348  1.00  0.00    -0.200 F 
ATOM     90  C   UNL A   1      46.767  27.015  36.157  1.00  0.00     0.200 A 
ATOM     91  F   UNL A   1      45.440  25.219  36.927  1.00  0.00    -0.200 F 
ATOM     92  F   UNL A   1      47.767  26.641  36.967  1.00  0.00    -0.200 F 
ENDBRANCH  59  82
ENDBRANCH  33  34
ENDBRANCH  26  28
ENDBRANCH  25  26
ENDBRANCH  24  25
ENDBRANCH  23  24
ENDBRANCH  22  23
ENDBRANCH   1  22
TORSDOF 18
ENDMDL
MODEL 3
REMARK VINA RESULT:     -11.0      5.011     10.460
REMARK SMILES CC(C)OCCS(=O)(=O)Nc1ccc(O)c(C(=O)OCCOC(=O)c2ccc(-c3c4nc(c(-c5c(F)c(F)c(F)c(F)c5F)c5ccc([nH]5)c(-c5c(F)c(F)c(F)c(F)c5F)c5nc(c(-c6c(F)c(F)c(F)c(F)c6F)c6ccc3[nH]6)C=C5)C=C4)cc2)c1
REMARK SMILES IDX 17 1 18 2 16 3 11 4 12 5 88 6 13 7 14 8 10 9 7 11 8 12 9 13
REMARK SMILES IDX 6 14 5 15 4 16 2 17 1 18 3 19 15 20 19 22 20 23 21 24 22 25
REMARK SMILES IDX 23 26 24 27 25 28 26 29 87 30 27 31 86 32 28 33 29 34 30 35
REMARK SMILES IDX 80 36 31 37 85 38 79 39 81 40 32 41 84 42 78 43 77 44 33 46
REMARK SMILES IDX 65 47 45 48 64 49 46 50 49 51 63 52 82 53 47 54 48 55 62 57
REMARK SMILES IDX 83 58 50 59 34 60 35 61 43 62 36 63 37 64 41 65 44 66 38 67
REMARK SMILES IDX 39 68 42 69 40 70 66 71 67 72 75 73 68 74 69 75 73 76 76 77
REMARK SMILES IDX 70 78 71 79 74 80 72 81 51 82 52 83 60 84 53 85 54 86 58 87
REMARK SMILES IDX 61 88 55 89 56 90 59 91 57 92
REMARK H PARENT 10 10 15 21 81 45 49 56
REMARK Flexibility Score: inf
ROOT
ATOM      1  C   UNL A   1      33.328  35.761  29.619  1.00  0.00     0.342 C 
ATOM      2  O   UNL A   1      32.460  36.107  28.832  1.00  0.00    -0.246 OA
ENDROOT
BRANCH   1   3
ATOM      3  C   UNL A   1      33.296  36.029  31.079  1.00  0.00     0.103 A 
ATOM      4  C   UNL A   1      34.037  35.174  33.197  1.00  0.00     0.050 A 
ATOM      5  C   UNL A   1      34.259  36.484  33.627  1.00  0.00     0.030 A 
ATOM      6  C   UNL A   1      33.515  34.937  31.931  1.00  0.00     0.046 A 
ATOM      7  C   UNL A   1      33.852  37.566  32.853  1.00  0.00     0.049 A 
ATOM      8  C   UNL A   1      33.342  37.334  31.584  1.00  0.00     0.130 A 
BRANCH   4   9
ATOM      9  N   UNL A   1      34.455  34.097  34.018  1.00  0.00    -0.283 N 
ATOM     10  H   UNL A   1      33.781  33.611  34.545  1.00  0.00     0.180 HD
BRANCH   9  11
ATOM     11  S   UNL A   1      36.053  33.628  34.120  1.00  0.00     0.235 S 
ATOM     12  O   UNL A   1      36.234  33.180  35.486  1.00  0.00    -0.207 OA
ATOM     13  O   UNL A   1      36.847  34.724  33.607  1.00  0.00    -0.207 OA
BRANCH  11  14
ATOM     14  C   UNL A   1      36.265  32.228  33.013  1.00  0.00     0.188 C 
BRANCH  14  15
ATOM     15  C   UNL A   1      37.390  31.263  33.373  1.00  0.00     0.178 C 
BRANCH  15  16
ATOM     16  O   UNL A   1      38.643  31.952  33.395  1.00  0.00    -0.378 OA
BRANCH  16  17
ATOM     17  C   UNL A   1      39.414  31.917  34.599  1.00  0.00     0.112 C 
ATOM     18  C   UNL A   1      40.224  30.642  34.781  1.00  0.00     0.038 C 
ATOM     19  C   UNL A   1      40.307  33.132  34.770  1.00  0.00     0.038 C 
ENDBRANCH  16  17
ENDBRANCH  15  16
ENDBRANCH  14  15
ENDBRANCH  11  14
ENDBRANCH   9  11
ENDBRANCH   4   9
BRANCH   8  20
ATOM     20  O   UNL A   1      32.901  38.389  30.837  1.00  0.00    -0.507 OA
ATOM     21  H   UNL A   1      32.672  38.262  29.938  1.00  0.00     0.293 HD
ENDBRANCH   8  20
ENDBRANCH   1   3
BRANCH   1  22
ATOM     22  O   UNL A   1      34.310  34.857  29.398  1.00  0.00    -0.458 OA
BRANCH  22  23
ATOM     23  C   UNL A   1      34.382  34.191  28.130  1.00  0.00     0.275 C 
BRANCH  23  24
ATOM     24  C   UNL A   1      33.920  32.744  28.312  1.00  0.00     0.275 C 
BRANCH  24  25
ATOM     25  O   UNL A   1      35.026  31.899  28.696  1.00  0.00    -0.458 OA
BRANCH  25  26
ATOM     26  C   UNL A   1      35.006  30.641  28.203  1.00  0.00     0.338 C 
ATOM     27  O   UNL A   1      34.093  30.071  27.629  1.00  0.00    -0.246 OA
BRANCH  26  28
ATOM     28  C   UNL A   1      36.329  30.021  28.377  1.00  0.00     0.060 A 
ATOM     29  C   UNL A   1      36.605  29.420  29.600  1.00  0.00     0.016 A 
ATOM     30  C   UNL A   1      37.332  30.148  27.420  1.00  0.00     0.016 A 
ATOM     31  C   UNL A   1      37.894  28.999  29.911  1.00  0.00     0.010 A 
ATOM     32  C   UNL A   1      38.615  29.657  27.704  1.00  0.00     0.010 A 
ATOM     33  C   UNL A   1      38.921  29.099  28.962  1.00  0.00    -0.014 A 
BRANCH  33  34
ATOM     34  C   UNL A   1      40.308  28.658  29.296  1.00  0.00     0.031 A 
ATOM     35  C   UNL A   1      41.197  29.525  30.149  1.00  0.00     0.074 A 
ATOM     36  C   UNL A   1      40.778  27.475  28.852  1.00  0.00     0.049 A 
ATOM     37  N   UNL A   1      42.480  29.419  30.396  1.00  0.00    -0.248 NA
ATOM     38  C   UNL A   1      40.558  30.676  30.807  1.00  0.00     0.031 C 
ATOM     39  C   UNL A   1      40.019  26.497  28.072  1.00  0.00     0.029 A 
ATOM     40  N   UNL A   1      42.015  26.889  28.996  1.00  0.00    -0.354 N 
ATOM     41  C   UNL A   1      42.810  30.512  31.187  1.00  0.00     0.074 A 
ATOM     42  C   UNL A   1      41.595  31.276  31.375  1.00  0.00     0.031 C 
ATOM     43  C   UNL A   1      40.790  25.426  27.835  1.00  0.00     0.029 A 
ATOM     44  C   UNL A   1      42.127  25.677  28.359  1.00  0.00     0.049 A 
ATOM     45  H   UNL A   1      42.750  27.300  29.506  1.00  0.00     0.167 HD
ATOM     46  C   UNL A   1      44.017  30.846  31.709  1.00  0.00     0.037 A 
ATOM     47  C   UNL A   1      43.194  24.876  28.170  1.00  0.00     0.037 A 
ATOM     48  C   UNL A   1      45.214  30.057  31.561  1.00  0.00     0.049 A 
ATOM     49  C   UNL A   1      44.535  25.298  28.705  1.00  0.00     0.074 A 
ATOM     50  C   UNL A   1      46.482  30.309  32.057  1.00  0.00     0.029 A 
ATOM     51  N   UNL A   1      45.287  28.853  30.874  1.00  0.00    -0.354 N 
ATOM     52  N   UNL A   1      44.850  26.361  29.403  1.00  0.00    -0.248 NA
ATOM     53  C   UNL A   1      45.672  24.416  28.411  1.00  0.00     0.031 C 
ATOM     54  C   UNL A   1      47.332  29.282  31.633  1.00  0.00     0.029 A 
ATOM     55  C   UNL A   1      46.583  28.361  30.921  1.00  0.00     0.049 A 
ATOM     56  H   UNL A   1      44.532  28.413  30.421  1.00  0.00     0.167 HD
ATOM     57  C   UNL A   1      46.212  26.264  29.653  1.00  0.00     0.074 A 
ATOM     58  C   UNL A   1      46.662  25.031  29.043  1.00  0.00     0.031 C 
ATOM     59  C   UNL A   1      47.016  27.122  30.325  1.00  0.00     0.037 A 
BRANCH  46  60
ATOM     60  C   UNL A   1      44.118  32.143  32.461  1.00  0.00     0.064 A 
ATOM     61  C   UNL A   1      44.425  33.354  31.823  1.00  0.00     0.173 A 
ATOM     62  C   UNL A   1      43.862  32.179  33.841  1.00  0.00     0.173 A 
ATOM     63  F   UNL A   1      44.690  33.376  30.508  1.00  0.00    -0.203 F 
ATOM     64  C   UNL A   1      44.501  34.545  32.542  1.00  0.00     0.198 A 
ATOM     65  C   UNL A   1      43.907  33.377  34.551  1.00  0.00     0.198 A 
ATOM     66  F   UNL A   1      43.555  31.052  34.502  1.00  0.00    -0.203 F 
ATOM     67  F   UNL A   1      44.846  35.680  31.919  1.00  0.00    -0.200 F 
ATOM     68  C   UNL A   1      44.234  34.557  33.903  1.00  0.00     0.200 A 
ATOM     69  F   UNL A   1      43.633  33.388  35.864  1.00  0.00    -0.200 F 
ATOM     70  F   UNL A   1      44.301  35.705  34.591  1.00  0.00    -0.200 F 
ENDBRANCH  46  60
BRANCH  47  71
ATOM     71  C   UNL A   1      43.048  23.614  27.394  1.00  0.00     0.064 A 
ATOM     72  C   UNL A   1      42.549  22.449  27.993  1.00  0.00     0.173 A 
ATOM     73  C   UNL A   1      43.413  23.544  26.040  1.00  0.00     0.173 A 
ATOM     74  F   UNL A   1      42.218  22.453  29.294  1.00  0.00    -0.203 F 
ATOM     75  C   UNL A   1      42.434  21.262  27.273  1.00  0.00     0.198 A 
ATOM     76  C   UNL A   1      43.264  22.367  25.313  1.00  0.00     0.198 A 
ATOM     77  F   UNL A   1      43.903  24.627  25.420  1.00  0.00    -0.203 F 
ATOM     78  F   UNL A   1      42.005  20.149  27.884  1.00  0.00    -0.200 F 
ATOM     79  C   UNL A   1      42.782  21.223  25.932  1.00  0.00     0.200 A 
ATOM     80  F   UNL A   1      43.591  22.339  24.013  1.00  0.00    -0.200 F 
ATOM     81  F   UNL A   1      42.668  20.083  25.239  1.00  0.00    -0.200 F 
ENDBRANCH  47  71
BRANCH  59  82
ATOM     82  C   UNL A   1      48.458  26.735  30.485  1.00  0.00     0.064 A 
ATOM     83  C   UNL A   1      49.449  27.191  29.605  1.00  0.00     0.173 A 
ATOM     84  C   UNL A   1      48.856  25.925  31.561  1.00  0.00     0.173 A 
ATOM     85  F   UNL A   1      49.118  27.954  28.552  1.00  0.00    -0.203 F 
ATOM     86  C   UNL A   1      50.783  26.832  29.782  1.00  0.00     0.198 A 
ATOM     87  C   UNL A   1      50.194  25.594  31.752  1.00  0.00     0.198 A 
ATOM     88  F   UNL A   1      47.948  25.467  32.436  1.00  0.00    -0.203 F 
ATOM     89  F   UNL A   1      51.707  27.242  28.902  1.00  0.00    -0.200 F 
ATOM     90  C   UNL A   1      51.155  26.041  30.858  1.00  0.00     0.200 A 
ATOM     91  F   UNL A   1      50.554  24.841  32.801  1.00  0.00    -0.200 F 
ATOM     92  F   UNL A   1      52.441  25.705  31.032  1.00  0.00    -0.200 F 
ENDBRANCH  59  82
ENDBRANCH  33  34
ENDBRANCH  26  28
ENDBRANCH  25  26
ENDBRANCH  24  25
ENDBRANCH  23  24
ENDBRANCH  22  23
ENDBRANCH   1  22
TORSDOF 18
ENDMDL
