MODEL 1
REMARK VINA RESULT:     -11.1      0.000      0.000
REMARK SMILES C[NH+](C)[C@H]1COC[C@]1(C)C(=O)OCCOC(=O)c1ccc(-c2c3nc(c(-c4c(F)c(F)c(F)c(F)c4F)c4ccc([nH]4)c(-c4c(F)c(F)c(F)c(F)c4F)c4nc(c(-c5c(F)c(F)c(F)c(F)c5F)c5ccc2[nH]5)C=C4)C=C3)cc1
REMARK SMILES IDX 14 1 13 2 12 3 10 4 11 5 8 6 4 7 5 8 6 9 7 10 9 11 2 12 1 13
REMARK SMILES IDX 3 14 15 16 16 17 17 18 18 19 19 20 80 21 20 22 79 23 21 24
REMARK SMILES IDX 22 25 23 26 73 27 24 28 78 29 72 30 74 31 25 32 77 33 71 34
REMARK SMILES IDX 70 35 26 37 58 38 38 39 57 40 39 41 42 42 56 43 75 44 40 45
REMARK SMILES IDX 41 46 55 48 76 49 43 50 27 51 28 52 36 53 29 54 30 55 34 56
REMARK SMILES IDX 37 57 31 58 32 59 35 60 33 61 59 62 60 63 68 64 61 65 62 66
REMARK SMILES IDX 66 67 69 68 63 69 64 70 67 71 65 72 44 73 45 74 53 75 46 76
REMARK SMILES IDX 47 77 51 78 54 79 48 80 49 81 52 82 50 83
REMARK H PARENT 2 15 74 36 42 47
REMARK Flexibility Score: inf
ROOT
ATOM      1  C   UNL A   1      31.697  29.687  25.850  1.00  0.00     0.275 C 
ENDROOT
BRANCH   1   2
ATOM      2  C   UNL A   1      31.229  29.472  24.414  1.00  0.00     0.274 C 
BRANCH   2   3
ATOM      3  O   UNL A   1      30.643  28.161  24.255  1.00  0.00    -0.461 OA
BRANCH   3   4
ATOM      4  C   UNL A   1      30.738  27.607  23.014  1.00  0.00     0.320 C 
ATOM      5  O   UNL A   1      30.275  28.120  22.001  1.00  0.00    -0.251 OA
BRANCH   4   6
ATOM      6  C   UNL A   1      31.350  26.198  23.040  1.00  0.00     0.142 C 
ATOM      7  C   UNL A   1      32.670  26.136  23.841  1.00  0.00     0.229 C 
ATOM      8  C   UNL A   1      33.683  26.603  22.777  1.00  0.00     0.226 C 
ATOM      9  O   UNL A   1      33.178  26.246  21.485  1.00  0.00    -0.374 OA
ATOM     10  C   UNL A   1      31.801  25.861  21.617  1.00  0.00     0.185 C 
ATOM     11  C   UNL A   1      30.196  25.306  23.500  1.00  0.00     0.033 C 
BRANCH   7  12
ATOM     12  N   UNL A   1      33.193  24.889  24.446  1.00  0.00    -0.334 N 
ATOM     13  C   UNL A   1      33.212  24.758  25.891  1.00  0.00     0.332 C 
ATOM     14  C   UNL A   1      34.440  24.440  23.841  1.00  0.00     0.332 C 
ATOM     15  H   UNL A   1      32.441  24.246  24.197  1.00  0.00     0.347 HD
ENDBRANCH   7  12
ENDBRANCH   4   6
ENDBRANCH   3   4
ENDBRANCH   2   3
ENDBRANCH   1   2
BRANCH   1  16
ATOM     16  O   UNL A   1      32.965  30.363  25.829  1.00  0.00    -0.458 OA
BRANCH  16  17
ATOM     17  C   UNL A   1      33.200  31.213  26.850  1.00  0.00     0.338 C 
ATOM     18  O   UNL A   1      32.455  32.093  27.264  1.00  0.00    -0.246 OA
BRANCH  17  19
ATOM     19  C   UNL A   1      34.518  30.920  27.440  1.00  0.00     0.060 A 
ATOM     20  C   UNL A   1      34.891  29.602  27.705  1.00  0.00     0.016 A 
ATOM     21  C   UNL A   1      35.351  31.967  27.834  1.00  0.00     0.016 A 
ATOM     22  C   UNL A   1      36.046  29.325  28.430  1.00  0.00     0.010 A 
ATOM     23  C   UNL A   1      36.555  31.685  28.487  1.00  0.00     0.010 A 
ATOM     24  C   UNL A   1      36.896  30.362  28.828  1.00  0.00    -0.014 A 
BRANCH  24  25
ATOM     25  C   UNL A   1      38.090  30.078  29.669  1.00  0.00     0.031 A 
ATOM     26  C   UNL A   1      39.194  29.212  29.128  1.00  0.00     0.074 A 
ATOM     27  C   UNL A   1      38.205  30.599  30.906  1.00  0.00     0.049 A 
ATOM     28  N   UNL A   1      40.221  28.687  29.749  1.00  0.00    -0.248 NA
ATOM     29  C   UNL A   1      39.122  28.875  27.697  1.00  0.00     0.031 C 
ATOM     30  C   UNL A   1      37.237  31.492  31.543  1.00  0.00     0.029 A 
ATOM     31  N   UNL A   1      39.193  30.451  31.848  1.00  0.00    -0.354 N 
ATOM     32  C   UNL A   1      40.871  27.903  28.806  1.00  0.00     0.074 A 
ATOM     33  C   UNL A   1      40.130  28.025  27.568  1.00  0.00     0.031 C 
ATOM     34  C   UNL A   1      37.691  31.834  32.759  1.00  0.00     0.029 A 
ATOM     35  C   UNL A   1      38.944  31.128  33.016  1.00  0.00     0.049 A 
ATOM     36  H   UNL A   1      40.003  29.911  31.701  1.00  0.00     0.167 HD
ATOM     37  C   UNL A   1      41.982  27.144  28.960  1.00  0.00     0.037 A 
ATOM     38  C   UNL A   1      39.625  31.151  34.178  1.00  0.00     0.037 A 
ATOM     39  C   UNL A   1      42.766  27.087  30.167  1.00  0.00     0.049 A 
ATOM     40  C   UNL A   1      40.874  30.327  34.320  1.00  0.00     0.074 A 
ATOM     41  C   UNL A   1      43.925  26.372  30.412  1.00  0.00     0.029 A 
ATOM     42  N   UNL A   1      42.479  27.794  31.325  1.00  0.00    -0.354 N 
ATOM     43  N   UNL A   1      41.445  29.537  33.444  1.00  0.00    -0.248 NA
ATOM     44  C   UNL A   1      41.563  30.384  35.617  1.00  0.00     0.031 C 
ATOM     45  C   UNL A   1      44.328  26.628  31.728  1.00  0.00     0.029 A 
ATOM     46  C   UNL A   1      43.438  27.529  32.291  1.00  0.00     0.049 A 
ATOM     47  H   UNL A   1      41.709  28.395  31.444  1.00  0.00     0.167 HD
ATOM     48  C   UNL A   1      42.557  29.003  34.080  1.00  0.00     0.074 A 
ATOM     49  C   UNL A   1      42.595  29.579  35.408  1.00  0.00     0.031 C 
ATOM     50  C   UNL A   1      43.458  28.107  33.609  1.00  0.00     0.037 A 
BRANCH  37  51
ATOM     51  C   UNL A   1      42.393  26.279  27.806  1.00  0.00     0.064 A 
ATOM     52  C   UNL A   1      41.805  25.031  27.563  1.00  0.00     0.173 A 
ATOM     53  C   UNL A   1      43.389  26.721  26.922  1.00  0.00     0.173 A 
ATOM     54  F   UNL A   1      40.859  24.557  28.388  1.00  0.00    -0.203 F 
ATOM     55  C   UNL A   1      42.219  24.242  26.492  1.00  0.00     0.198 A 
ATOM     56  C   UNL A   1      43.783  25.942  25.838  1.00  0.00     0.198 A 
ATOM     57  F   UNL A   1      43.981  27.910  27.108  1.00  0.00    -0.203 F 
ATOM     58  F   UNL A   1      41.679  23.029  26.306  1.00  0.00    -0.200 F 
ATOM     59  C   UNL A   1      43.204  24.700  25.628  1.00  0.00     0.200 A 
ATOM     60  F   UNL A   1      44.727  26.391  24.999  1.00  0.00    -0.200 F 
ATOM     61  F   UNL A   1      43.601  23.939  24.599  1.00  0.00    -0.200 F 
ENDBRANCH  37  51
BRANCH  38  62
ATOM     62  C   UNL A   1      39.109  31.963  35.309  1.00  0.00     0.064 A 
ATOM     63  C   UNL A   1      38.350  31.379  36.331  1.00  0.00     0.173 A 
ATOM     64  C   UNL A   1      39.392  33.334  35.405  1.00  0.00     0.173 A 
ATOM     65  F   UNL A   1      38.032  30.077  36.268  1.00  0.00    -0.203 F 
ATOM     66  C   UNL A   1      37.894  32.136  37.408  1.00  0.00     0.198 A 
ATOM     67  C   UNL A   1      38.958  34.083  36.494  1.00  0.00     0.198 A 
ATOM     68  F   UNL A   1      40.114  33.938  34.449  1.00  0.00    -0.203 F 
ATOM     69  F   UNL A   1      37.145  31.560  38.359  1.00  0.00    -0.200 F 
ATOM     70  C   UNL A   1      38.206  33.485  37.493  1.00  0.00     0.200 A 
ATOM     71  F   UNL A   1      39.273  35.383  36.579  1.00  0.00    -0.200 F 
ATOM     72  F   UNL A   1      37.779  34.208  38.538  1.00  0.00    -0.200 F 
ENDBRANCH  38  62
BRANCH  50  73
ATOM     73  C   UNL A   1      44.566  27.702  34.533  1.00  0.00     0.064 A 
ATOM     74  C   UNL A   1      44.445  26.583  35.370  1.00  0.00     0.173 A 
ATOM     75  C   UNL A   1      45.772  28.416  34.556  1.00  0.00     0.173 A 
ATOM     76  F   UNL A   1      43.304  25.879  35.394  1.00  0.00    -0.203 F 
ATOM     77  C   UNL A   1      45.488  26.204  36.211  1.00  0.00     0.198 A 
ATOM     78  C   UNL A   1      46.821  28.022  35.382  1.00  0.00     0.198 A 
ATOM     79  F   UNL A   1      45.937  29.491  33.770  1.00  0.00    -0.203 F 
ATOM     80  F   UNL A   1      45.339  25.153  37.029  1.00  0.00    -0.200 F 
ATOM     81  C   UNL A   1      46.676  26.920  36.212  1.00  0.00     0.200 A 
ATOM     82  F   UNL A   1      47.971  28.709  35.378  1.00  0.00    -0.200 F 
ATOM     83  F   UNL A   1      47.680  26.552  37.020  1.00  0.00    -0.200 F 
ENDBRANCH  50  73
ENDBRANCH  24  25
ENDBRANCH  17  19
ENDBRANCH  16  17
ENDBRANCH   1  16
TORSDOF 12
ENDMDL
MODEL 2
REMARK VINA RESULT:     -11.0      0.242      2.071
REMARK SMILES C[NH+](C)[C@H]1COC[C@]1(C)C(=O)OCCOC(=O)c1ccc(-c2c3nc(c(-c4c(F)c(F)c(F)c(F)c4F)c4ccc([nH]4)c(-c4c(F)c(F)c(F)c(F)c4F)c4nc(c(-c5c(F)c(F)c(F)c(F)c5F)c5ccc2[nH]5)C=C4)C=C3)cc1
REMARK SMILES IDX 14 1 13 2 12 3 10 4 11 5 8 6 4 7 5 8 6 9 7 10 9 11 2 12 1 13
REMARK SMILES IDX 3 14 15 16 16 17 17 18 18 19 19 20 80 21 20 22 79 23 21 24
REMARK SMILES IDX 22 25 23 26 73 27 24 28 78 29 72 30 74 31 25 32 77 33 71 34
REMARK SMILES IDX 70 35 26 37 58 38 38 39 57 40 39 41 42 42 56 43 75 44 40 45
REMARK SMILES IDX 41 46 55 48 76 49 43 50 27 51 28 52 36 53 29 54 30 55 34 56
REMARK SMILES IDX 37 57 31 58 32 59 35 60 33 61 59 62 60 63 68 64 61 65 62 66
REMARK SMILES IDX 66 67 69 68 63 69 64 70 67 71 65 72 44 73 45 74 53 75 46 76
REMARK SMILES IDX 47 77 51 78 54 79 48 80 49 81 52 82 50 83
REMARK H PARENT 2 15 74 36 42 47
REMARK Flexibility Score: inf
ROOT
ATOM      1  C   UNL A   1      31.584  29.654  25.861  1.00  0.00     0.275 C 
ENDROOT
BRANCH   1   2
ATOM      2  C   UNL A   1      31.241  29.341  24.407  1.00  0.00     0.274 C 
BRANCH   2   3
ATOM      3  O   UNL A   1      30.819  27.967  24.263  1.00  0.00    -0.461 OA
BRANCH   3   4
ATOM      4  C   UNL A   1      30.955  27.425  23.021  1.00  0.00     0.320 C 
ATOM      5  O   UNL A   1      30.513  27.941  21.999  1.00  0.00    -0.251 OA
BRANCH   4   6
ATOM      6  C   UNL A   1      31.581  26.023  23.051  1.00  0.00     0.142 C 
ATOM      7  C   UNL A   1      32.840  25.952  23.945  1.00  0.00     0.229 C 
ATOM      8  C   UNL A   1      33.921  26.460  22.971  1.00  0.00     0.226 C 
ATOM      9  O   UNL A   1      33.516  26.136  21.637  1.00  0.00    -0.374 OA
ATOM     10  C   UNL A   1      32.139  25.732  21.657  1.00  0.00     0.185 C 
ATOM     11  C   UNL A   1      30.408  25.105  23.401  1.00  0.00     0.033 C 
BRANCH   7  12
ATOM     12  N   UNL A   1      33.333  24.694  24.552  1.00  0.00    -0.334 N 
ATOM     13  C   UNL A   1      32.940  24.361  25.908  1.00  0.00     0.332 C 
ATOM     14  C   UNL A   1      34.756  24.471  24.325  1.00  0.00     0.332 C 
ATOM     15  H   UNL A   1      32.792  24.016  24.014  1.00  0.00     0.347 HD
ENDBRANCH   7  12
ENDBRANCH   4   6
ENDBRANCH   3   4
ENDBRANCH   2   3
ENDBRANCH   1   2
BRANCH   1  16
ATOM     16  O   UNL A   1      32.952  30.087  25.934  1.00  0.00    -0.458 OA
BRANCH  16  17
ATOM     17  C   UNL A   1      33.230  31.017  26.870  1.00  0.00     0.338 C 
ATOM     18  O   UNL A   1      32.508  31.937  27.234  1.00  0.00    -0.246 OA
BRANCH  17  19
ATOM     19  C   UNL A   1      34.566  30.760  27.437  1.00  0.00     0.060 A 
ATOM     20  C   UNL A   1      34.990  29.451  27.666  1.00  0.00     0.016 A 
ATOM     21  C   UNL A   1      35.365  31.828  27.845  1.00  0.00     0.016 A 
ATOM     22  C   UNL A   1      36.164  29.200  28.371  1.00  0.00     0.010 A 
ATOM     23  C   UNL A   1      36.587  31.576  28.476  1.00  0.00     0.010 A 
ATOM     24  C   UNL A   1      36.980  30.259  28.783  1.00  0.00    -0.014 A 
BRANCH  24  25
ATOM     25  C   UNL A   1      38.195  30.000  29.602  1.00  0.00     0.031 A 
ATOM     26  C   UNL A   1      39.301  29.145  29.048  1.00  0.00     0.074 A 
ATOM     27  C   UNL A   1      38.327  30.535  30.831  1.00  0.00     0.049 A 
ATOM     28  N   UNL A   1      40.347  28.641  29.652  1.00  0.00    -0.248 NA
ATOM     29  C   UNL A   1      39.204  28.793  27.622  1.00  0.00     0.031 C 
ATOM     30  C   UNL A   1      37.360  31.420  31.479  1.00  0.00     0.029 A 
ATOM     31  N   UNL A   1      39.336  30.410  31.755  1.00  0.00    -0.354 N 
ATOM     32  C   UNL A   1      40.989  27.856  28.704  1.00  0.00     0.074 A 
ATOM     33  C   UNL A   1      40.222  27.956  27.481  1.00  0.00     0.031 C 
ATOM     34  C   UNL A   1      37.833  31.781  32.682  1.00  0.00     0.029 A 
ATOM     35  C   UNL A   1      39.100  31.096  32.921  1.00  0.00     0.049 A 
ATOM     36  H   UNL A   1      40.151  29.881  31.597  1.00  0.00     0.167 HD
ATOM     37  C   UNL A   1      42.115  27.115  28.844  1.00  0.00     0.037 A 
ATOM     38  C   UNL A   1      39.804  31.139  34.069  1.00  0.00     0.037 A 
ATOM     39  C   UNL A   1      42.922  27.082  30.035  1.00  0.00     0.049 A 
ATOM     40  C   UNL A   1      41.067  30.335  34.193  1.00  0.00     0.074 A 
ATOM     41  C   UNL A   1      44.097  26.386  30.263  1.00  0.00     0.029 A 
ATOM     42  N   UNL A   1      42.648  27.795  31.192  1.00  0.00    -0.354 N 
ATOM     43  N   UNL A   1      41.632  29.544  33.314  1.00  0.00    -0.248 NA
ATOM     44  C   UNL A   1      41.781  30.415  35.476  1.00  0.00     0.031 C 
ATOM     45  C   UNL A   1      44.522  26.660  31.569  1.00  0.00     0.029 A 
ATOM     46  C   UNL A   1      43.631  27.553  32.140  1.00  0.00     0.049 A 
ATOM     47  H   UNL A   1      41.873  28.387  31.321  1.00  0.00     0.167 HD
ATOM     48  C   UNL A   1      42.764  29.032  33.933  1.00  0.00     0.074 A 
ATOM     49  C   UNL A   1      42.820  29.622  35.254  1.00  0.00     0.031 C 
ATOM     50  C   UNL A   1      43.669  28.145  33.452  1.00  0.00     0.037 A 
BRANCH  37  51
ATOM     51  C   UNL A   1      42.515  26.245  27.690  1.00  0.00     0.064 A 
ATOM     52  C   UNL A   1      43.487  26.639  26.760  1.00  0.00     0.173 A 
ATOM     53  C   UNL A   1      41.917  24.986  27.524  1.00  0.00     0.173 A 
ATOM     54  F   UNL A   1      44.077  27.839  26.867  1.00  0.00    -0.203 F 
ATOM     55  C   UNL A   1      43.826  25.816  25.689  1.00  0.00     0.198 A 
ATOM     56  C   UNL A   1      42.276  24.156  26.466  1.00  0.00     0.198 A 
ATOM     57  F   UNL A   1      40.983  24.561  28.388  1.00  0.00    -0.203 F 
ATOM     58  F   UNL A   1      44.722  26.232  24.783  1.00  0.00    -0.200 F 
ATOM     59  C   UNL A   1      43.224  24.574  25.546  1.00  0.00     0.200 A 
ATOM     60  F   UNL A   1      41.701  22.952  26.336  1.00  0.00    -0.200 F 
ATOM     61  F   UNL A   1      43.552  23.784  24.513  1.00  0.00    -0.200 F 
ENDBRANCH  37  51
BRANCH  38  62
ATOM     62  C   UNL A   1      39.299  31.955  35.203  1.00  0.00     0.064 A 
ATOM     63  C   UNL A   1      39.585  33.323  35.292  1.00  0.00     0.173 A 
ATOM     64  C   UNL A   1      38.497  31.386  36.203  1.00  0.00     0.173 A 
ATOM     65  F   UNL A   1      40.370  33.904  34.373  1.00  0.00    -0.203 F 
ATOM     66  C   UNL A   1      39.085  34.094  36.339  1.00  0.00     0.198 A 
ATOM     67  C   UNL A   1      37.976  32.162  37.235  1.00  0.00     0.198 A 
ATOM     68  F   UNL A   1      38.198  30.079  36.162  1.00  0.00    -0.203 F 
ATOM     69  F   UNL A   1      39.394  35.395  36.418  1.00  0.00    -0.200 F 
ATOM     70  C   UNL A   1      38.273  33.515  37.304  1.00  0.00     0.200 A 
ATOM     71  F   UNL A   1      37.182  31.602  38.158  1.00  0.00    -0.200 F 
ATOM     72  F   UNL A   1      37.780  34.260  38.303  1.00  0.00    -0.200 F 
ENDBRANCH  38  62
BRANCH  50  73
ATOM     73  C   UNL A   1      44.800  27.765  34.358  1.00  0.00     0.064 A 
ATOM     74  C   UNL A   1      45.996  28.498  34.379  1.00  0.00     0.173 A 
ATOM     75  C   UNL A   1      44.675  26.681  35.239  1.00  0.00     0.173 A 
ATOM     76  F   UNL A   1      46.167  29.533  33.543  1.00  0.00    -0.203 F 
ATOM     77  C   UNL A   1      47.033  28.147  35.238  1.00  0.00     0.198 A 
ATOM     78  C   UNL A   1      45.706  26.346  36.111  1.00  0.00     0.198 A 
ATOM     79  F   UNL A   1      43.548  25.952  35.258  1.00  0.00    -0.203 F 
ATOM     80  F   UNL A   1      48.181  28.839  35.217  1.00  0.00    -0.200 F 
ATOM     81  C   UNL A   1      46.886  27.076  36.107  1.00  0.00     0.200 A 
ATOM     82  F   UNL A   1      45.561  25.316  36.955  1.00  0.00    -0.200 F 
ATOM     83  F   UNL A   1      47.885  26.742  36.935  1.00  0.00    -0.200 F 
ENDBRANCH  50  73
ENDBRANCH  24  25
ENDBRANCH  17  19
ENDBRANCH  16  17
ENDBRANCH   1  16
TORSDOF 12
ENDMDL
MODEL 3
REMARK VINA RESULT:     -10.9      1.711      2.829
REMARK SMILES C[NH+](C)[C@H]1COC[C@]1(C)C(=O)OCCOC(=O)c1ccc(-c2c3nc(c(-c4c(F)c(F)c(F)c(F)c4F)c4ccc([nH]4)c(-c4c(F)c(F)c(F)c(F)c4F)c4nc(c(-c5c(F)c(F)c(F)c(F)c5F)c5ccc2[nH]5)C=C4)C=C3)cc1
REMARK SMILES IDX 14 1 13 2 12 3 10 4 11 5 8 6 4 7 5 8 6 9 7 10 9 11 2 12 1 13
REMARK SMILES IDX 3 14 15 16 16 17 17 18 18 19 19 20 80 21 20 22 79 23 21 24
REMARK SMILES IDX 22 25 23 26 73 27 24 28 78 29 72 30 74 31 25 32 77 33 71 34
REMARK SMILES IDX 70 35 26 37 58 38 38 39 57 40 39 41 42 42 56 43 75 44 40 45
REMARK SMILES IDX 41 46 55 48 76 49 43 50 27 51 28 52 36 53 29 54 30 55 34 56
REMARK SMILES IDX 37 57 31 58 32 59 35 60 33 61 59 62 60 63 68 64 61 65 62 66
REMARK SMILES IDX 66 67 69 68 63 69 64 70 67 71 65 72 44 73 45 74 53 75 46 76
REMARK SMILES IDX 47 77 51 78 54 79 48 80 49 81 52 82 50 83
REMARK H PARENT 2 15 74 36 42 47
REMARK Flexibility Score: inf
ROOT
ATOM      1  C   UNL A   1      31.875  29.564  26.788  1.00  0.00     0.275 C 
ENDROOT
BRANCH   1   2
ATOM      2  C   UNL A   1      31.418  28.627  25.673  1.00  0.00     0.274 C 
BRANCH   2   3
ATOM      3  O   UNL A   1      31.026  29.375  24.501  1.00  0.00    -0.461 OA
BRANCH   3   4
ATOM      4  C   UNL A   1      29.979  28.870  23.790  1.00  0.00     0.320 C 
ATOM      5  O   UNL A   1      29.575  27.717  23.897  1.00  0.00    -0.251 OA
BRANCH   4   6
ATOM      6  C   UNL A   1      29.459  29.849  22.727  1.00  0.00     0.142 C 
ATOM      7  C   UNL A   1      29.118  31.238  23.313  1.00  0.00     0.229 C 
ATOM      8  C   UNL A   1      27.693  30.992  23.845  1.00  0.00     0.226 C 
ATOM      9  O   UNL A   1      27.084  29.969  23.050  1.00  0.00    -0.374 OA
ATOM     10  C   UNL A   1      28.097  29.339  22.252  1.00  0.00     0.185 C 
ATOM     11  C   UNL A   1      30.513  29.784  21.620  1.00  0.00     0.033 C 
BRANCH   7  12
ATOM     12  N   UNL A   1      29.089  32.476  22.499  1.00  0.00    -0.334 N 
ATOM     13  C   UNL A   1      29.137  33.764  23.166  1.00  0.00     0.332 C 
ATOM     14  C   UNL A   1      28.079  32.444  21.448  1.00  0.00     0.332 C 
ATOM     15  H   UNL A   1      30.018  32.432  22.080  1.00  0.00     0.347 HD
ENDBRANCH   7  12
ENDBRANCH   4   6
ENDBRANCH   3   4
ENDBRANCH   2   3
ENDBRANCH   1   2
BRANCH   1  16
ATOM     16  O   UNL A   1      32.918  30.412  26.284  1.00  0.00    -0.458 OA
BRANCH  16  17
ATOM     17  C   UNL A   1      33.306  31.419  27.094  1.00  0.00     0.338 C 
ATOM     18  O   UNL A   1      32.679  32.438  27.358  1.00  0.00    -0.246 OA
BRANCH  17  19
ATOM     19  C   UNL A   1      34.632  31.113  27.659  1.00  0.00     0.060 A 
ATOM     20  C   UNL A   1      34.973  29.797  27.974  1.00  0.00     0.016 A 
ATOM     21  C   UNL A   1      35.508  32.151  27.978  1.00  0.00     0.016 A 
ATOM     22  C   UNL A   1      36.141  29.518  28.679  1.00  0.00     0.010 A 
ATOM     23  C   UNL A   1      36.722  31.861  28.608  1.00  0.00     0.010 A 
ATOM     24  C   UNL A   1      37.034  30.546  29.002  1.00  0.00    -0.014 A 
BRANCH  24  25
ATOM     25  C   UNL A   1      38.243  30.263  29.821  1.00  0.00     0.031 A 
ATOM     26  C   UNL A   1      39.350  29.419  29.250  1.00  0.00     0.074 A 
ATOM     27  C   UNL A   1      38.371  30.768  31.063  1.00  0.00     0.049 A 
ATOM     28  N   UNL A   1      40.392  28.898  29.847  1.00  0.00    -0.248 NA
ATOM     29  C   UNL A   1      39.259  29.103  27.816  1.00  0.00     0.031 C 
ATOM     30  C   UNL A   1      37.403  31.640  31.728  1.00  0.00     0.029 A 
ATOM     31  N   UNL A   1      39.375  30.618  31.988  1.00  0.00    -0.354 N 
ATOM     32  C   UNL A   1      41.036  28.135  28.883  1.00  0.00     0.074 A 
ATOM     33  C   UNL A   1      40.275  28.266  27.659  1.00  0.00     0.031 C 
ATOM     34  C   UNL A   1      37.871  31.970  32.942  1.00  0.00     0.029 A 
ATOM     35  C   UNL A   1      39.136  31.275  33.169  1.00  0.00     0.049 A 
ATOM     36  H   UNL A   1      40.190  30.090  31.821  1.00  0.00     0.167 HD
ATOM     37  C   UNL A   1      42.159  27.388  29.010  1.00  0.00     0.037 A 
ATOM     38  C   UNL A   1      39.834  31.289  34.321  1.00  0.00     0.037 A 
ATOM     39  C   UNL A   1      42.961  27.323  30.204  1.00  0.00     0.049 A 
ATOM     40  C   UNL A   1      41.095  30.479  34.432  1.00  0.00     0.074 A 
ATOM     41  C   UNL A   1      44.133  26.618  30.421  1.00  0.00     0.029 A 
ATOM     42  N   UNL A   1      42.683  28.009  31.377  1.00  0.00    -0.354 N 
ATOM     43  N   UNL A   1      41.662  29.708  33.536  1.00  0.00    -0.248 NA
ATOM     44  C   UNL A   1      41.803  30.525  35.719  1.00  0.00     0.031 C 
ATOM     45  C   UNL A   1      44.552  26.860  31.734  1.00  0.00     0.029 A 
ATOM     46  C   UNL A   1      43.661  27.741  32.323  1.00  0.00     0.049 A 
ATOM     47  H   UNL A   1      41.909  28.599  31.516  1.00  0.00     0.167 HD
ATOM     48  C   UNL A   1      42.789  29.178  34.147  1.00  0.00     0.074 A 
ATOM     49  C   UNL A   1      42.841  29.735  35.483  1.00  0.00     0.031 C 
ATOM     50  C   UNL A   1      43.694  28.300  33.650  1.00  0.00     0.037 A 
BRANCH  37  51
ATOM     51  C   UNL A   1      42.562  26.545  27.837  1.00  0.00     0.064 A 
ATOM     52  C   UNL A   1      43.459  27.003  26.862  1.00  0.00     0.173 A 
ATOM     53  C   UNL A   1      42.046  25.247  27.699  1.00  0.00     0.173 A 
ATOM     54  F   UNL A   1      43.968  28.242  26.941  1.00  0.00    -0.203 F 
ATOM     55  C   UNL A   1      43.802  26.203  25.775  1.00  0.00     0.198 A 
ATOM     56  C   UNL A   1      42.411  24.441  26.624  1.00  0.00     0.198 A 
ATOM     57  F   UNL A   1      41.188  24.760  28.607  1.00  0.00    -0.203 F 
ATOM     58  F   UNL A   1      44.622  26.679  24.827  1.00  0.00    -0.200 F 
ATOM     59  C   UNL A   1      43.282  24.922  25.659  1.00  0.00     0.200 A 
ATOM     60  F   UNL A   1      41.916  23.200  26.520  1.00  0.00    -0.200 F 
ATOM     61  F   UNL A   1      43.613  24.155  24.611  1.00  0.00    -0.200 F 
ENDBRANCH  37  51
BRANCH  38  62
ATOM     62  C   UNL A   1      39.326  32.078  35.472  1.00  0.00     0.064 A 
ATOM     63  C   UNL A   1      38.499  31.494  36.440  1.00  0.00     0.173 A 
ATOM     64  C   UNL A   1      39.683  33.425  35.641  1.00  0.00     0.173 A 
ATOM     65  F   UNL A   1      38.109  30.218  36.306  1.00  0.00    -0.203 F 
ATOM     66  C   UNL A   1      38.049  32.227  37.535  1.00  0.00     0.198 A 
ATOM     67  C   UNL A   1      39.254  34.148  36.750  1.00  0.00     0.198 A 
ATOM     68  F   UNL A   1      40.472  34.028  34.739  1.00  0.00    -0.203 F 
ATOM     69  F   UNL A   1      37.236  31.655  38.434  1.00  0.00    -0.200 F 
ATOM     70  C   UNL A   1      38.435  33.551  37.695  1.00  0.00     0.200 A 
ATOM     71  F   UNL A   1      39.640  35.422  36.906  1.00  0.00    -0.200 F 
ATOM     72  F   UNL A   1      38.014  34.250  38.757  1.00  0.00    -0.200 F 
ENDBRANCH  38  62
BRANCH  50  73
ATOM     73  C   UNL A   1      44.820  27.895  34.551  1.00  0.00     0.064 A 
ATOM     74  C   UNL A   1      44.727  26.760  35.369  1.00  0.00     0.173 A 
ATOM     75  C   UNL A   1      46.017  28.626  34.569  1.00  0.00     0.173 A 
ATOM     76  F   UNL A   1      43.597  26.039  35.396  1.00  0.00    -0.203 F 
ATOM     77  C   UNL A   1      45.788  26.382  36.189  1.00  0.00     0.198 A 
ATOM     78  C   UNL A   1      47.082  28.233  35.374  1.00  0.00     0.198 A 
ATOM     79  F   UNL A   1      46.155  29.717  33.801  1.00  0.00    -0.203 F 
ATOM     80  F   UNL A   1      45.665  25.314  36.990  1.00  0.00    -0.200 F 
ATOM     81  C   UNL A   1      46.965  27.114  36.186  1.00  0.00     0.200 A 
ATOM     82  F   UNL A   1      48.222  28.937  35.366  1.00  0.00    -0.200 F 
ATOM     83  F   UNL A   1      47.985  26.747  36.973  1.00  0.00    -0.200 F 
ENDBRANCH  50  73
ENDBRANCH  24  25
ENDBRANCH  17  19
ENDBRANCH  16  17
ENDBRANCH   1  16
TORSDOF 12
ENDMDL
