MODEL 1
REMARK VINA RESULT:     -12.9      0.000      0.000
REMARK SMILES Cc1nc(-c2ccc(S(=O)(=O)N3CC[NH2+][C@H](C(=O)OCCOC(=O)c4ccc(-c5c6nc(c(-c7c(F)c(F)c(F)c(F)c7F)c7ccc([nH]7)c(-c7c(F)c(F)c(F)c(F)c7F)c7nc(c(-c8c(F)c(F)c(F)c(F)c8F)c8ccc5[nH]8)C=C7)C=C6)cc4)C3)s2)cs1
REMARK SMILES IDX 20 1 19 2 17 3 18 4 16 5 12 6 13 7 88 8 14 9 15 10 9 13
REMARK SMILES IDX 10 14 11 15 8 16 5 17 6 18 89 19 7 20 4 21 1 22 2 23 3 24
REMARK SMILES IDX 91 25 90 26 21 27 22 28 23 29 24 30 25 31 26 32 87 33 27 34
REMARK SMILES IDX 86 35 28 36 29 37 30 38 80 39 31 40 85 41 79 42 81 43 32 44
REMARK SMILES IDX 84 45 78 46 77 47 33 49 65 50 45 51 64 52 46 53 49 54 63 55
REMARK SMILES IDX 82 56 47 57 48 58 62 60 83 61 50 62 34 63 35 64 43 65 36 66
REMARK SMILES IDX 37 67 41 68 44 69 38 70 39 71 42 72 40 73 66 74 67 75 75 76
REMARK SMILES IDX 68 77 69 78 73 79 76 80 70 81 71 82 74 83 72 84 51 85 52 86
REMARK SMILES IDX 60 87 53 88 54 89 58 90 61 91 55 92 56 93 59 94 57 95
REMARK H PARENT 15 11 15 12 81 48 49 59
REMARK Flexibility Score: inf
ROOT
ATOM      1  C   UNL A   1      31.268  30.049  24.983  1.00  0.00     0.274 C 
ENDROOT
BRANCH   1   2
ATOM      2  O   UNL A   1      31.385  28.651  24.650  1.00  0.00    -0.458 OA
BRANCH   2   3
ATOM      3  C   UNL A   1      31.149  28.376  23.341  1.00  0.00     0.366 C 
ATOM      4  O   UNL A   1      30.628  29.151  22.545  1.00  0.00    -0.245 OA
BRANCH   3   5
ATOM      5  C   UNL A   1      31.656  27.012  22.912  1.00  0.00     0.308 C 
ATOM      6  N   UNL A   1      32.604  24.888  23.593  1.00  0.00    -0.185 NA
ATOM      7  C   UNL A   1      33.306  24.709  22.297  1.00  0.00     0.164 C 
ATOM      8  C   UNL A   1      32.484  26.317  23.979  1.00  0.00     0.180 C 
ATOM      9  C   UNL A   1      32.842  25.694  21.194  1.00  0.00     0.278 C 
ATOM     10  N   UNL A   1      32.321  27.016  21.585  1.00  0.00    -0.332 N 
ATOM     11  H   UNL A   1      31.645  27.318  20.885  1.00  0.00     0.347 HD
ATOM     12  H   UNL A   1      33.118  27.650  21.646  1.00  0.00     0.347 HD
BRANCH   6  13
ATOM     13  S   UNL A   1      31.381  23.813  24.081  1.00  0.00     0.253 S 
ATOM     14  O   UNL A   1      30.231  24.102  23.249  1.00  0.00    -0.206 OA
ATOM     15  O   UNL A   1      31.306  23.863  25.525  1.00  0.00    -0.206 OA
BRANCH  13  16
ATOM     16  C   UNL A   1      31.796  22.098  23.734  1.00  0.00     0.135 A 
ATOM     17  C   UNL A   1      32.547  19.760  24.101  1.00  0.00     0.055 A 
ATOM     18  C   UNL A   1      32.324  20.032  22.772  1.00  0.00     0.023 A 
ATOM     19  S   UNL A   1      32.175  21.096  25.091  1.00  0.00    -0.121 S 
ATOM     20  C   UNL A   1      31.931  21.375  22.562  1.00  0.00     0.034 A 
BRANCH  17  21
ATOM     21  C   UNL A   1      33.106  18.435  24.515  1.00  0.00     0.091 A 
ATOM     22  C   UNL A   1      32.216  15.166  25.860  1.00  0.00     0.079 C 
ATOM     23  C   UNL A   1      32.884  16.384  25.325  1.00  0.00     0.090 A 
ATOM     24  N   UNL A   1      32.269  17.529  25.150  1.00  0.00    -0.241 NA
ATOM     25  S   UNL A   1      34.544  16.373  24.883  1.00  0.00    -0.127 S 
ATOM     26  C   UNL A   1      34.392  17.988  24.305  1.00  0.00     0.096 A 
ENDBRANCH  17  21
ENDBRANCH  13  16
ENDBRANCH   6  13
ENDBRANCH   3   5
ENDBRANCH   2   3
ENDBRANCH   1   2
BRANCH   1  27
ATOM     27  C   UNL A   1      31.764  30.313  26.407  1.00  0.00     0.275 C 
BRANCH  27  28
ATOM     28  O   UNL A   1      33.196  30.464  26.452  1.00  0.00    -0.458 OA
BRANCH  28  29
ATOM     29  C   UNL A   1      33.640  31.456  27.258  1.00  0.00     0.338 C 
ATOM     30  O   UNL A   1      33.066  32.497  27.535  1.00  0.00    -0.246 OA
BRANCH  29  31
ATOM     31  C   UNL A   1      34.970  31.118  27.789  1.00  0.00     0.060 A 
ATOM     32  C   UNL A   1      35.255  29.812  28.193  1.00  0.00     0.016 A 
ATOM     33  C   UNL A   1      35.885  32.143  28.024  1.00  0.00     0.016 A 
ATOM     34  C   UNL A   1      36.424  29.538  28.902  1.00  0.00     0.010 A 
ATOM     35  C   UNL A   1      37.090  31.853  28.670  1.00  0.00     0.010 A 
ATOM     36  C   UNL A   1      37.358  30.554  29.139  1.00  0.00    -0.014 A 
BRANCH  36  37
ATOM     37  C   UNL A   1      38.610  30.287  29.895  1.00  0.00     0.031 A 
ATOM     38  C   UNL A   1      39.646  29.364  29.319  1.00  0.00     0.074 A 
ATOM     39  C   UNL A   1      38.800  30.835  31.110  1.00  0.00     0.049 A 
ATOM     40  N   UNL A   1      40.669  28.792  29.903  1.00  0.00    -0.248 NA
ATOM     41  C   UNL A   1      39.508  29.034  27.891  1.00  0.00     0.031 C 
ATOM     42  C   UNL A   1      37.912  31.802  31.753  1.00  0.00     0.029 A 
ATOM     43  N   UNL A   1      39.797  30.631  32.034  1.00  0.00    -0.354 N 
ATOM     44  C   UNL A   1      41.265  28.000  28.932  1.00  0.00     0.074 A 
ATOM     45  C   UNL A   1      40.493  28.163  27.719  1.00  0.00     0.031 C 
ATOM     46  C   UNL A   1      38.395  32.101  32.969  1.00  0.00     0.029 A 
ATOM     47  C   UNL A   1      39.577  31.285  33.222  1.00  0.00     0.049 A 
ATOM     48  H   UNL A   1      40.589  30.073  31.861  1.00  0.00     0.167 HD
ATOM     49  C   UNL A   1      42.355  27.203  29.050  1.00  0.00     0.037 A 
ATOM     50  C   UNL A   1      40.217  31.188  34.403  1.00  0.00     0.037 A 
ATOM     51  C   UNL A   1      43.135  27.076  30.255  1.00  0.00     0.049 A 
ATOM     52  C   UNL A   1      41.376  30.240  34.535  1.00  0.00     0.074 A 
ATOM     53  C   UNL A   1      44.264  26.307  30.477  1.00  0.00     0.029 A 
ATOM     54  N   UNL A   1      42.867  27.744  31.441  1.00  0.00    -0.354 N 
ATOM     55  N   UNL A   1      41.912  29.459  33.630  1.00  0.00    -0.248 NA
ATOM     56  C   UNL A   1      42.011  30.150  35.857  1.00  0.00     0.031 C 
ATOM     57  C   UNL A   1      44.652  26.475  31.809  1.00  0.00     0.029 A 
ATOM     58  C   UNL A   1      43.797  27.389  32.403  1.00  0.00     0.049 A 
ATOM     59  H   UNL A   1      42.125  28.377  31.578  1.00  0.00     0.167 HD
ATOM     60  C   UNL A   1      42.961  28.805  34.261  1.00  0.00     0.074 A 
ATOM     61  C   UNL A   1      42.990  29.284  35.627  1.00  0.00     0.031 C 
ATOM     62  C   UNL A   1      43.825  27.894  33.753  1.00  0.00     0.037 A 
BRANCH  49  63
ATOM     63  C   UNL A   1      42.751  26.375  27.863  1.00  0.00     0.064 A 
ATOM     64  C   UNL A   1      42.178  25.121  27.605  1.00  0.00     0.173 A 
ATOM     65  C   UNL A   1      43.689  26.868  26.941  1.00  0.00     0.173 A 
ATOM     66  F   UNL A   1      41.285  24.599  28.459  1.00  0.00    -0.203 F 
ATOM     67  C   UNL A   1      42.546  24.382  26.482  1.00  0.00     0.198 A 
ATOM     68  C   UNL A   1      44.034  26.140  25.806  1.00  0.00     0.198 A 
ATOM     69  F   UNL A   1      44.262  28.066  27.136  1.00  0.00    -0.203 F 
ATOM     70  F   UNL A   1      42.018  23.168  26.279  1.00  0.00    -0.200 F 
ATOM     71  C   UNL A   1      43.468  24.895  25.581  1.00  0.00     0.200 A 
ATOM     72  F   UNL A   1      44.915  26.643  24.930  1.00  0.00    -0.200 F 
ATOM     73  F   UNL A   1      43.815  24.185  24.499  1.00  0.00    -0.200 F 
ENDBRANCH  49  63
BRANCH  50  74
ATOM     74  C   UNL A   1      39.737  31.978  35.565  1.00  0.00     0.064 A 
ATOM     75  C   UNL A   1      38.703  31.503  36.381  1.00  0.00     0.173 A 
ATOM     76  C   UNL A   1      40.309  33.218  35.891  1.00  0.00     0.173 A 
ATOM     77  F   UNL A   1      38.112  30.332  36.101  1.00  0.00    -0.203 F 
ATOM     78  C   UNL A   1      38.250  32.243  37.472  1.00  0.00     0.198 A 
ATOM     79  C   UNL A   1      39.877  33.943  36.999  1.00  0.00     0.198 A 
ATOM     80  F   UNL A   1      41.304  33.717  35.142  1.00  0.00    -0.203 F 
ATOM     81  F   UNL A   1      37.236  31.781  38.215  1.00  0.00    -0.200 F 
ATOM     82  C   UNL A   1      38.842  33.458  37.784  1.00  0.00     0.200 A 
ATOM     83  F   UNL A   1      40.463  35.108  37.306  1.00  0.00    -0.200 F 
ATOM     84  F   UNL A   1      38.412  34.163  38.839  1.00  0.00    -0.200 F 
ENDBRANCH  50  74
BRANCH  62  85
ATOM     85  C   UNL A   1      44.912  27.392  34.653  1.00  0.00     0.064 A 
ATOM     86  C   UNL A   1      44.756  26.229  35.421  1.00  0.00     0.173 A 
ATOM     87  C   UNL A   1      46.153  28.047  34.691  1.00  0.00     0.173 A 
ATOM     88  F   UNL A   1      43.584  25.579  35.431  1.00  0.00    -0.203 F 
ATOM     89  C   UNL A   1      45.802  25.745  36.203  1.00  0.00     0.198 A 
ATOM     90  C   UNL A   1      47.204  27.545  35.453  1.00  0.00     0.198 A 
ATOM     91  F   UNL A   1      46.352  29.160  33.970  1.00  0.00    -0.203 F 
ATOM     92  F   UNL A   1      45.624  24.650  36.953  1.00  0.00    -0.200 F 
ATOM     93  C   UNL A   1      47.027  26.397  36.210  1.00  0.00     0.200 A 
ATOM     94  F   UNL A   1      48.390  28.169  35.449  1.00  0.00    -0.200 F 
ATOM     95  F   UNL A   1      48.037  25.919  36.950  1.00  0.00    -0.200 F 
ENDBRANCH  62  85
ENDBRANCH  36  37
ENDBRANCH  29  31
ENDBRANCH  28  29
ENDBRANCH  27  28
ENDBRANCH   1  27
TORSDOF 14
ENDMDL
MODEL 2
REMARK VINA RESULT:     -12.9      0.561      1.720
REMARK SMILES Cc1nc(-c2ccc(S(=O)(=O)N3CC[NH2+][C@H](C(=O)OCCOC(=O)c4ccc(-c5c6nc(c(-c7c(F)c(F)c(F)c(F)c7F)c7ccc([nH]7)c(-c7c(F)c(F)c(F)c(F)c7F)c7nc(c(-c8c(F)c(F)c(F)c(F)c8F)c8ccc5[nH]8)C=C7)C=C6)cc4)C3)s2)cs1
REMARK SMILES IDX 20 1 19 2 17 3 18 4 16 5 12 6 13 7 88 8 14 9 15 10 9 13
REMARK SMILES IDX 10 14 11 15 8 16 5 17 6 18 89 19 7 20 4 21 1 22 2 23 3 24
REMARK SMILES IDX 91 25 90 26 21 27 22 28 23 29 24 30 25 31 26 32 87 33 27 34
REMARK SMILES IDX 86 35 28 36 29 37 30 38 80 39 31 40 85 41 79 42 81 43 32 44
REMARK SMILES IDX 84 45 78 46 77 47 33 49 65 50 45 51 64 52 46 53 49 54 63 55
REMARK SMILES IDX 82 56 47 57 48 58 62 60 83 61 50 62 34 63 35 64 43 65 36 66
REMARK SMILES IDX 37 67 41 68 44 69 38 70 39 71 42 72 40 73 66 74 67 75 75 76
REMARK SMILES IDX 68 77 69 78 73 79 76 80 70 81 71 82 74 83 72 84 51 85 52 86
REMARK SMILES IDX 60 87 53 88 54 89 58 90 61 91 55 92 56 93 59 94 57 95
REMARK H PARENT 15 11 15 12 81 48 49 59
REMARK Flexibility Score: inf
ROOT
ATOM      1  C   UNL A   1      31.157  30.087  24.923  1.00  0.00     0.274 C 
ENDROOT
BRANCH   1   2
ATOM      2  O   UNL A   1      31.902  29.096  24.187  1.00  0.00    -0.458 OA
BRANCH   2   3
ATOM      3  C   UNL A   1      31.190  28.495  23.198  1.00  0.00     0.366 C 
ATOM      4  O   UNL A   1      30.289  29.031  22.559  1.00  0.00    -0.245 OA
BRANCH   3   5
ATOM      5  C   UNL A   1      31.658  27.085  22.892  1.00  0.00     0.308 C 
ATOM      6  N   UNL A   1      32.727  25.073  23.716  1.00  0.00    -0.185 NA
ATOM      7  C   UNL A   1      33.247  24.717  22.371  1.00  0.00     0.164 C 
ATOM      8  C   UNL A   1      32.636  26.541  23.917  1.00  0.00     0.180 C 
ATOM      9  C   UNL A   1      32.618  25.543  21.220  1.00  0.00     0.278 C 
ATOM     10  N   UNL A   1      32.133  26.907  21.497  1.00  0.00    -0.332 N 
ATOM     11  H   UNL A   1      31.362  27.112  20.863  1.00  0.00     0.347 HD
ATOM     12  H   UNL A   1      32.919  27.542  21.360  1.00  0.00     0.347 HD
BRANCH   6  13
ATOM     13  S   UNL A   1      31.602  24.076  24.510  1.00  0.00     0.253 S 
ATOM     14  O   UNL A   1      30.645  23.662  23.504  1.00  0.00    -0.206 OA
ATOM     15  O   UNL A   1      31.188  24.759  25.716  1.00  0.00    -0.206 OA
BRANCH  13  16
ATOM     16  C   UNL A   1      32.341  22.551  25.113  1.00  0.00     0.135 A 
ATOM     17  C   UNL A   1      33.099  20.188  25.163  1.00  0.00     0.055 A 
ATOM     18  C   UNL A   1      33.277  20.817  26.372  1.00  0.00     0.023 A 
ATOM     19  S   UNL A   1      32.472  21.248  23.985  1.00  0.00    -0.121 S 
ATOM     20  C   UNL A   1      32.811  22.153  26.351  1.00  0.00     0.034 A 
BRANCH  17  21
ATOM     21  C   UNL A   1      33.396  18.728  25.022  1.00  0.00     0.091 A 
ATOM     22  C   UNL A   1      32.157  15.391  25.808  1.00  0.00     0.079 C 
ATOM     23  C   UNL A   1      32.916  16.590  25.359  1.00  0.00     0.090 A 
ATOM     24  N   UNL A   1      32.595  17.817  25.696  1.00  0.00    -0.241 NA
ATOM     25  S   UNL A   1      34.292  16.450  24.341  1.00  0.00    -0.127 S 
ATOM     26  C   UNL A   1      34.391  18.167  24.251  1.00  0.00     0.096 A 
ENDBRANCH  17  21
ENDBRANCH  13  16
ENDBRANCH   6  13
ENDBRANCH   3   5
ENDBRANCH   2   3
ENDBRANCH   1   2
BRANCH   1  27
ATOM     27  C   UNL A   1      31.702  30.231  26.346  1.00  0.00     0.275 C 
BRANCH  27  28
ATOM     28  O   UNL A   1      33.126  30.450  26.351  1.00  0.00    -0.458 OA
BRANCH  28  29
ATOM     29  C   UNL A   1      33.552  31.415  27.198  1.00  0.00     0.338 C 
ATOM     30  O   UNL A   1      32.969  32.443  27.501  1.00  0.00    -0.246 OA
BRANCH  29  31
ATOM     31  C   UNL A   1      34.875  31.064  27.738  1.00  0.00     0.060 A 
ATOM     32  C   UNL A   1      35.152  29.751  28.124  1.00  0.00     0.016 A 
ATOM     33  C   UNL A   1      35.791  32.082  28.001  1.00  0.00     0.016 A 
ATOM     34  C   UNL A   1      36.312  29.462  28.842  1.00  0.00     0.010 A 
ATOM     35  C   UNL A   1      36.987  31.777  28.656  1.00  0.00     0.010 A 
ATOM     36  C   UNL A   1      37.246  30.470  29.107  1.00  0.00    -0.014 A 
BRANCH  36  37
ATOM     37  C   UNL A   1      38.489  30.187  29.872  1.00  0.00     0.031 A 
ATOM     38  C   UNL A   1      39.521  29.257  29.301  1.00  0.00     0.074 A 
ATOM     39  C   UNL A   1      38.672  30.726  31.092  1.00  0.00     0.049 A 
ATOM     40  N   UNL A   1      40.532  28.672  29.891  1.00  0.00    -0.248 NA
ATOM     41  C   UNL A   1      39.393  28.936  27.870  1.00  0.00     0.031 C 
ATOM     42  C   UNL A   1      37.788  31.698  31.733  1.00  0.00     0.029 A 
ATOM     43  N   UNL A   1      39.659  30.507  32.024  1.00  0.00    -0.354 N 
ATOM     44  C   UNL A   1      41.130  27.879  28.921  1.00  0.00     0.074 A 
ATOM     45  C   UNL A   1      40.370  28.056  27.702  1.00  0.00     0.031 C 
ATOM     46  C   UNL A   1      38.263  31.986  32.954  1.00  0.00     0.029 A 
ATOM     47  C   UNL A   1      39.435  31.157  33.213  1.00  0.00     0.049 A 
ATOM     48  H   UNL A   1      40.447  29.942  31.855  1.00  0.00     0.167 HD
ATOM     49  C   UNL A   1      42.210  27.071  29.045  1.00  0.00     0.037 A 
ATOM     50  C   UNL A   1      40.062  31.047  34.400  1.00  0.00     0.037 A 
ATOM     51  C   UNL A   1      42.978  26.929  30.256  1.00  0.00     0.049 A 
ATOM     52  C   UNL A   1      41.211  30.087  34.537  1.00  0.00     0.074 A 
ATOM     53  C   UNL A   1      44.097  26.148  30.484  1.00  0.00     0.029 A 
ATOM     54  N   UNL A   1      42.706  27.593  31.443  1.00  0.00    -0.354 N 
ATOM     55  N   UNL A   1      41.747  29.305  33.633  1.00  0.00    -0.248 NA
ATOM     56  C   UNL A   1      41.833  29.983  35.865  1.00  0.00     0.031 C 
ATOM     57  C   UNL A   1      44.475  26.305  31.821  1.00  0.00     0.029 A 
ATOM     58  C   UNL A   1      43.624  27.224  32.412  1.00  0.00     0.049 A 
ATOM     59  H   UNL A   1      41.968  28.233  31.577  1.00  0.00     0.167 HD
ATOM     60  C   UNL A   1      42.784  28.638  34.270  1.00  0.00     0.074 A 
ATOM     61  C   UNL A   1      42.805  29.110  35.639  1.00  0.00     0.031 C 
ATOM     62  C   UNL A   1      43.644  27.721  33.765  1.00  0.00     0.037 A 
BRANCH  49  63
ATOM     63  C   UNL A   1      42.609  26.245  27.856  1.00  0.00     0.064 A 
ATOM     64  C   UNL A   1      41.991  25.021  27.559  1.00  0.00     0.173 A 
ATOM     65  C   UNL A   1      43.597  26.712  26.974  1.00  0.00     0.173 A 
ATOM     66  F   UNL A   1      41.050  24.525  28.375  1.00  0.00    -0.203 F 
ATOM     67  C   UNL A   1      42.365  24.286  26.436  1.00  0.00     0.198 A 
ATOM     68  C   UNL A   1      43.947  25.987  25.838  1.00  0.00     0.198 A 
ATOM     69  F   UNL A   1      44.214  27.880  27.208  1.00  0.00    -0.203 F 
ATOM     70  F   UNL A   1      41.792  23.098  26.195  1.00  0.00    -0.200 F 
ATOM     71  C   UNL A   1      43.336  24.772  25.574  1.00  0.00     0.200 A 
ATOM     72  F   UNL A   1      44.877  26.466  25.000  1.00  0.00    -0.200 F 
ATOM     73  F   UNL A   1      43.687  24.065  24.491  1.00  0.00    -0.200 F 
ENDBRANCH  49  63
BRANCH  50  74
ATOM     74  C   UNL A   1      39.579  31.835  35.562  1.00  0.00     0.064 A 
ATOM     75  C   UNL A   1      40.064  33.125  35.810  1.00  0.00     0.173 A 
ATOM     76  C   UNL A   1      38.614  31.320  36.442  1.00  0.00     0.173 A 
ATOM     77  F   UNL A   1      41.000  33.655  35.007  1.00  0.00    -0.203 F 
ATOM     78  C   UNL A   1      39.613  33.866  36.900  1.00  0.00     0.198 A 
ATOM     79  C   UNL A   1      38.142  32.072  37.515  1.00  0.00     0.198 A 
ATOM     80  F   UNL A   1      38.116  30.090  36.249  1.00  0.00    -0.203 F 
ATOM     81  F   UNL A   1      40.120  35.084  37.134  1.00  0.00    -0.200 F 
ATOM     82  C   UNL A   1      38.647  33.342  37.747  1.00  0.00     0.200 A 
ATOM     83  F   UNL A   1      37.197  31.569  38.320  1.00  0.00    -0.200 F 
ATOM     84  F   UNL A   1      38.207  34.060  38.790  1.00  0.00    -0.200 F 
ENDBRANCH  50  74
BRANCH  62  85
ATOM     85  C   UNL A   1      44.718  27.204  34.672  1.00  0.00     0.064 A 
ATOM     86  C   UNL A   1      45.929  27.887  34.846  1.00  0.00     0.173 A 
ATOM     87  C   UNL A   1      44.499  26.043  35.432  1.00  0.00     0.173 A 
ATOM     88  F   UNL A   1      46.191  28.990  34.130  1.00  0.00    -0.203 F 
ATOM     89  C   UNL A   1      46.888  27.422  35.743  1.00  0.00     0.198 A 
ATOM     90  C   UNL A   1      45.449  25.596  36.344  1.00  0.00     0.198 A 
ATOM     91  F   UNL A   1      43.354  25.357  35.302  1.00  0.00    -0.203 F 
ATOM     92  F   UNL A   1      48.052  28.073  35.872  1.00  0.00    -0.200 F 
ATOM     93  C   UNL A   1      46.643  26.284  36.497  1.00  0.00     0.200 A 
ATOM     94  F   UNL A   1      45.205  24.504  37.082  1.00  0.00    -0.200 F 
ATOM     95  F   UNL A   1      47.561  25.848  37.372  1.00  0.00    -0.200 F 
ENDBRANCH  62  85
ENDBRANCH  36  37
ENDBRANCH  29  31
ENDBRANCH  28  29
ENDBRANCH  27  28
ENDBRANCH   1  27
TORSDOF 14
ENDMDL
MODEL 3
REMARK VINA RESULT:     -12.8      4.557     10.349
REMARK SMILES Cc1nc(-c2ccc(S(=O)(=O)N3CC[NH2+][C@H](C(=O)OCCOC(=O)c4ccc(-c5c6nc(c(-c7c(F)c(F)c(F)c(F)c7F)c7ccc([nH]7)c(-c7c(F)c(F)c(F)c(F)c7F)c7nc(c(-c8c(F)c(F)c(F)c(F)c8F)c8ccc5[nH]8)C=C7)C=C6)cc4)C3)s2)cs1
REMARK SMILES IDX 20 1 19 2 17 3 18 4 16 5 12 6 13 7 88 8 14 9 15 10 9 13
REMARK SMILES IDX 10 14 11 15 8 16 5 17 6 18 89 19 7 20 4 21 1 22 2 23 3 24
REMARK SMILES IDX 91 25 90 26 21 27 22 28 23 29 24 30 25 31 26 32 87 33 27 34
REMARK SMILES IDX 86 35 28 36 29 37 30 38 80 39 31 40 85 41 79 42 81 43 32 44
REMARK SMILES IDX 84 45 78 46 77 47 33 49 65 50 45 51 64 52 46 53 49 54 63 55
REMARK SMILES IDX 82 56 47 57 48 58 62 60 83 61 50 62 34 63 35 64 43 65 36 66
REMARK SMILES IDX 37 67 41 68 44 69 38 70 39 71 42 72 40 73 66 74 67 75 75 76
REMARK SMILES IDX 68 77 69 78 73 79 76 80 70 81 71 82 74 83 72 84 51 85 52 86
REMARK SMILES IDX 60 87 53 88 54 89 58 90 61 91 55 92 56 93 59 94 57 95
REMARK H PARENT 15 11 15 12 81 48 49 59
REMARK Flexibility Score: inf
ROOT
ATOM      1  C   UNL A   1      35.866  20.867  25.025  1.00  0.00     0.274 C 
ENDROOT
BRANCH   1   2
ATOM      2  O   UNL A   1      34.694  21.592  24.601  1.00  0.00    -0.458 OA
BRANCH   2   3
ATOM      3  C   UNL A   1      33.533  21.107  25.113  1.00  0.00     0.366 C 
ATOM      4  O   UNL A   1      33.349  19.942  25.453  1.00  0.00    -0.245 OA
BRANCH   3   5
ATOM      5  C   UNL A   1      32.466  22.171  25.297  1.00  0.00     0.308 C 
ATOM      6  N   UNL A   1      31.834  24.490  24.995  1.00  0.00    -0.185 NA
ATOM      7  C   UNL A   1      30.930  24.467  26.173  1.00  0.00     0.164 C 
ATOM      8  C   UNL A   1      33.000  23.585  25.160  1.00  0.00     0.180 C 
ATOM      9  C   UNL A   1      30.638  23.043  26.708  1.00  0.00     0.278 C 
ATOM     10  N   UNL A   1      31.647  21.984  26.520  1.00  0.00    -0.332 N 
ATOM     11  H   UNL A   1      31.168  21.087  26.457  1.00  0.00     0.347 HD
ATOM     12  H   UNL A   1      32.280  22.024  27.320  1.00  0.00     0.347 HD
BRANCH   6  13
ATOM     13  S   UNL A   1      31.225  24.749  23.429  1.00  0.00     0.253 S 
ATOM     14  O   UNL A   1      30.398  23.600  23.121  1.00  0.00    -0.206 OA
ATOM     15  O   UNL A   1      32.336  25.133  22.586  1.00  0.00    -0.206 OA
BRANCH  13  16
ATOM     16  C   UNL A   1      30.117  26.163  23.349  1.00  0.00     0.135 A 
ATOM     17  C   UNL A   1      29.304  28.466  22.903  1.00  0.00     0.055 A 
ATOM     18  C   UNL A   1      28.377  27.709  23.579  1.00  0.00     0.023 A 
ATOM     19  S   UNL A   1      30.700  27.565  22.524  1.00  0.00    -0.121 S 
ATOM     20  C   UNL A   1      28.857  26.409  23.863  1.00  0.00     0.034 A 
BRANCH  17  21
ATOM     21  C   UNL A   1      29.043  29.915  22.634  1.00  0.00     0.091 A 
ATOM     22  C   UNL A   1      27.870  32.266  20.107  1.00  0.00     0.079 C 
ATOM     23  C   UNL A   1      28.396  31.576  21.317  1.00  0.00     0.090 A 
ATOM     24  N   UNL A   1      28.714  30.303  21.344  1.00  0.00    -0.241 NA
ATOM     25  S   UNL A   1      28.622  32.415  22.798  1.00  0.00    -0.127 S 
ATOM     26  C   UNL A   1      29.066  30.936  23.560  1.00  0.00     0.096 A 
ENDBRANCH  17  21
ENDBRANCH  13  16
ENDBRANCH   6  13
ENDBRANCH   3   5
ENDBRANCH   2   3
ENDBRANCH   1   2
BRANCH   1  27
ATOM     27  C   UNL A   1      36.859  21.798  25.724  1.00  0.00     0.275 C 
BRANCH  27  28
ATOM     28  O   UNL A   1      38.190  21.654  25.189  1.00  0.00    -0.458 OA
BRANCH  28  29
ATOM     29  C   UNL A   1      39.144  21.363  26.104  1.00  0.00     0.338 C 
ATOM     30  O   UNL A   1      39.521  20.256  26.452  1.00  0.00    -0.246 OA
BRANCH  29  31
ATOM     31  C   UNL A   1      39.700  22.604  26.666  1.00  0.00     0.060 A 
ATOM     32  C   UNL A   1      39.312  23.844  26.154  1.00  0.00     0.016 A 
ATOM     33  C   UNL A   1      40.726  22.521  27.606  1.00  0.00     0.016 A 
ATOM     34  C   UNL A   1      39.999  24.999  26.522  1.00  0.00     0.010 A 
ATOM     35  C   UNL A   1      41.364  23.690  28.029  1.00  0.00     0.010 A 
ATOM     36  C   UNL A   1      41.026  24.936  27.470  1.00  0.00    -0.014 A 
BRANCH  36  37
ATOM     37  C   UNL A   1      41.775  26.154  27.878  1.00  0.00     0.031 A 
ATOM     38  C   UNL A   1      41.088  27.216  28.687  1.00  0.00     0.074 A 
ATOM     39  C   UNL A   1      43.052  26.328  27.488  1.00  0.00     0.049 A 
ATOM     40  N   UNL A   1      41.454  28.450  28.924  1.00  0.00    -0.248 NA
ATOM     41  C   UNL A   1      39.808  26.840  29.310  1.00  0.00     0.031 C 
ATOM     42  C   UNL A   1      43.860  25.347  26.764  1.00  0.00     0.029 A 
ATOM     43  N   UNL A   1      43.887  27.411  27.627  1.00  0.00    -0.354 N 
ATOM     44  C   UNL A   1      40.432  29.011  29.679  1.00  0.00     0.074 A 
ATOM     45  C   UNL A   1      39.429  27.984  29.863  1.00  0.00     0.031 C 
ATOM     46  C   UNL A   1      45.068  25.874  26.512  1.00  0.00     0.029 A 
ATOM     47  C   UNL A   1      45.090  27.254  26.982  1.00  0.00     0.049 A 
ATOM     48  H   UNL A   1      43.647  28.217  28.138  1.00  0.00     0.167 HD
ATOM     49  C   UNL A   1      40.342  30.272  30.164  1.00  0.00     0.037 A 
ATOM     50  C   UNL A   1      46.072  28.143  26.739  1.00  0.00     0.037 A 
ATOM     51  C   UNL A   1      41.364  31.276  30.002  1.00  0.00     0.049 A 
ATOM     52  C   UNL A   1      45.917  29.559  27.220  1.00  0.00     0.074 A 
ATOM     53  C   UNL A   1      41.376  32.579  30.466  1.00  0.00     0.029 A 
ATOM     54  N   UNL A   1      42.560  31.079  29.328  1.00  0.00    -0.354 N 
ATOM     55  N   UNL A   1      44.932  30.099  27.894  1.00  0.00    -0.248 NA
ATOM     56  C   UNL A   1      47.005  30.492  26.894  1.00  0.00     0.031 C 
ATOM     57  C   UNL A   1      42.560  33.185  30.033  1.00  0.00     0.029 A 
ATOM     58  C   UNL A   1      43.309  32.244  29.345  1.00  0.00     0.049 A 
ATOM     59  H   UNL A   1      42.836  30.237  28.899  1.00  0.00     0.167 HD
ATOM     60  C   UNL A   1      45.290  31.425  28.097  1.00  0.00     0.074 A 
ATOM     61  C   UNL A   1      46.586  31.607  27.477  1.00  0.00     0.031 C 
ATOM     62  C   UNL A   1      44.608  32.401  28.743  1.00  0.00     0.037 A 
BRANCH  49  63
ATOM     63  C   UNL A   1      39.082  30.658  30.884  1.00  0.00     0.064 A 
ATOM     64  C   UNL A   1      38.948  30.525  32.273  1.00  0.00     0.173 A 
ATOM     65  C   UNL A   1      38.007  31.215  30.172  1.00  0.00     0.173 A 
ATOM     66  F   UNL A   1      39.941  29.989  32.999  1.00  0.00    -0.203 F 
ATOM     67  C   UNL A   1      37.776  30.912  32.920  1.00  0.00     0.198 A 
ATOM     68  C   UNL A   1      36.849  31.627  30.825  1.00  0.00     0.198 A 
ATOM     69  F   UNL A   1      38.086  31.372  28.842  1.00  0.00    -0.203 F 
ATOM     70  F   UNL A   1      37.653  30.736  34.242  1.00  0.00    -0.200 F 
ATOM     71  C   UNL A   1      36.731  31.469  32.197  1.00  0.00     0.200 A 
ATOM     72  F   UNL A   1      35.846  32.176  30.125  1.00  0.00    -0.200 F 
ATOM     73  F   UNL A   1      35.608  31.847  32.822  1.00  0.00    -0.200 F 
ENDBRANCH  49  63
BRANCH  50  74
ATOM     74  C   UNL A   1      47.265  27.724  25.959  1.00  0.00     0.064 A 
ATOM     75  C   UNL A   1      47.242  27.713  24.559  1.00  0.00     0.173 A 
ATOM     76  C   UNL A   1      48.455  27.339  26.597  1.00  0.00     0.173 A 
ATOM     77  F   UNL A   1      46.122  28.056  23.905  1.00  0.00    -0.203 F 
ATOM     78  C   UNL A   1      48.360  27.320  23.825  1.00  0.00     0.198 A 
ATOM     79  C   UNL A   1      49.581  26.975  25.862  1.00  0.00     0.198 A 
ATOM     80  F   UNL A   1      48.529  27.334  27.936  1.00  0.00    -0.203 F 
ATOM     81  F   UNL A   1      48.299  27.284  22.488  1.00  0.00    -0.200 F 
ATOM     82  C   UNL A   1      49.530  26.959  24.477  1.00  0.00     0.200 A 
ATOM     83  F   UNL A   1      50.714  26.644  26.495  1.00  0.00    -0.200 F 
ATOM     84  F   UNL A   1      50.606  26.591  23.769  1.00  0.00    -0.200 F 
ENDBRANCH  50  74
BRANCH  62  85
ATOM     85  C   UNL A   1      45.266  33.742  28.866  1.00  0.00     0.064 A 
ATOM     86  C   UNL A   1      46.151  34.036  29.913  1.00  0.00     0.173 A 
ATOM     87  C   UNL A   1      45.062  34.720  27.880  1.00  0.00     0.173 A 
ATOM     88  F   UNL A   1      46.365  33.139  30.887  1.00  0.00    -0.203 F 
ATOM     89  C   UNL A   1      46.801  35.266  29.974  1.00  0.00     0.198 A 
ATOM     90  C   UNL A   1      45.732  35.938  27.931  1.00  0.00     0.198 A 
ATOM     91  F   UNL A   1      44.227  34.484  26.857  1.00  0.00    -0.203 F 
ATOM     92  F   UNL A   1      47.619  35.539  30.999  1.00  0.00    -0.200 F 
ATOM     93  C   UNL A   1      46.599  36.211  28.979  1.00  0.00     0.200 A 
ATOM     94  F   UNL A   1      45.546  36.845  26.962  1.00  0.00    -0.200 F 
ATOM     95  F   UNL A   1      47.239  37.388  29.031  1.00  0.00    -0.200 F 
ENDBRANCH  62  85
ENDBRANCH  36  37
ENDBRANCH  29  31
ENDBRANCH  28  29
ENDBRANCH  27  28
ENDBRANCH   1  27
TORSDOF 14
ENDMDL
