MODEL 1
REMARK VINA RESULT:     -14.0      0.000      0.000
REMARK SMILES O=C(OCCOC(=O)c1nn(Cc2ccc(F)cc2)c2c1CN(C(=O)[C@H]1CC1(F)F)CC2)c1ccc(-c2c3nc(c(-c4c(F)c(F)c(F)c(F)c4F)c4ccc([nH]4)c(-c4c(F)c(F)c(F)c(F)c4F)c4nc(c(-c5c(F)c(F)c(F)c(F)c5F)c5ccc2[nH]5)C=C4)C=C3)cc1
REMARK SMILES IDX 4 1 3 2 2 3 1 4 33 5 34 6 95 7 35 8 94 9 36 10 37 11 38 12
REMARK SMILES IDX 88 13 39 14 93 15 87 16 89 17 40 18 92 19 86 20 85 21 41 23
REMARK SMILES IDX 73 24 53 25 72 26 54 27 57 28 71 29 90 30 55 31 56 32 70 34
REMARK SMILES IDX 91 35 58 36 42 37 43 38 51 39 44 40 45 41 49 42 52 43 46 44
REMARK SMILES IDX 47 45 50 46 48 47 74 48 75 49 83 50 76 51 77 52 81 53 84 54
REMARK SMILES IDX 78 55 79 56 82 57 80 58 59 59 60 60 68 61 61 62 62 63 66 64
REMARK SMILES IDX 69 65 63 66 64 67 67 68 65 69 5 70 6 71 7 72 8 73 9 74 10 75
REMARK SMILES IDX 21 76 11 77 20 78 22 79 32 80 23 81 31 82 12 83 13 84 14 85
REMARK SMILES IDX 19 86 15 87 18 88 16 89 17 90 24 91 25 92 26 93 27 94 28 95
REMARK SMILES IDX 29 96 30 97
REMARK H PARENT 89 22 57 33
REMARK Flexibility Score: inf
ROOT
ATOM      1  C   UNL A   1      38.495  21.690  25.760  1.00  0.00     0.275 C 
ENDROOT
BRANCH   1   2
ATOM      2  O   UNL A   1      39.652  22.541  25.863  1.00  0.00    -0.458 OA
BRANCH   2   3
ATOM      3  C   UNL A   1      40.296  22.627  27.039  1.00  0.00     0.338 C 
ATOM      4  O   UNL A   1      40.711  21.689  27.703  1.00  0.00    -0.246 OA
BRANCH   3   5
ATOM      5  C   UNL A   1      40.390  24.048  27.435  1.00  0.00     0.060 A 
ATOM      6  C   UNL A   1      39.414  24.974  27.044  1.00  0.00     0.016 A 
ATOM      7  C   UNL A   1      41.415  24.445  28.290  1.00  0.00     0.016 A 
ATOM      8  C   UNL A   1      39.485  26.293  27.472  1.00  0.00     0.010 A 
ATOM      9  C   UNL A   1      41.450  25.756  28.764  1.00  0.00     0.010 A 
ATOM     10  C   UNL A   1      40.512  26.704  28.329  1.00  0.00    -0.014 A 
BRANCH  10  11
ATOM     11  C   UNL A   1      40.550  28.122  28.730  1.00  0.00     0.031 A 
ATOM     12  C   UNL A   1      41.719  28.975  28.298  1.00  0.00     0.074 A 
ATOM     13  C   UNL A   1      39.549  28.731  29.403  1.00  0.00     0.049 A 
ATOM     14  N   UNL A   1      42.424  29.806  29.008  1.00  0.00    -0.248 NA
ATOM     15  C   UNL A   1      42.141  28.926  26.889  1.00  0.00     0.031 C 
ATOM     16  C   UNL A   1      38.217  28.231  29.759  1.00  0.00     0.029 A 
ATOM     17  N   UNL A   1      39.528  30.013  29.874  1.00  0.00    -0.354 N 
ATOM     18  C   UNL A   1      43.286  30.460  28.127  1.00  0.00     0.074 A 
ATOM     19  C   UNL A   1      43.041  29.910  26.819  1.00  0.00     0.031 C 
ATOM     20  C   UNL A   1      37.453  29.252  30.205  1.00  0.00     0.029 A 
ATOM     21  C   UNL A   1      38.292  30.428  30.336  1.00  0.00     0.049 A 
ATOM     22  H   UNL A   1      40.324  30.592  29.886  1.00  0.00     0.167 HD
ATOM     23  C   UNL A   1      44.159  31.437  28.503  1.00  0.00     0.037 A 
ATOM     24  C   UNL A   1      37.964  31.650  30.804  1.00  0.00     0.037 A 
ATOM     25  C   UNL A   1      44.513  31.337  29.886  1.00  0.00     0.049 A 
ATOM     26  C   UNL A   1      39.205  32.308  31.266  1.00  0.00     0.074 A 
ATOM     27  C   UNL A   1      45.166  30.376  30.633  1.00  0.00     0.029 A 
ATOM     28  N   UNL A   1      43.954  32.184  30.804  1.00  0.00    -0.354 N 
ATOM     29  N   UNL A   1      39.901  31.925  32.299  1.00  0.00    -0.248 NA
ATOM     30  C   UNL A   1      39.879  33.219  30.357  1.00  0.00     0.031 C 
ATOM     31  C   UNL A   1      44.520  30.397  31.902  1.00  0.00     0.029 A 
ATOM     32  C   UNL A   1      43.536  31.384  31.838  1.00  0.00     0.049 A 
ATOM     33  H   UNL A   1      43.870  33.163  30.737  1.00  0.00     0.167 HD
ATOM     34  C   UNL A   1      41.212  32.227  31.974  1.00  0.00     0.074 A 
ATOM     35  C   UNL A   1      41.123  33.125  30.830  1.00  0.00     0.031 C 
ATOM     36  C   UNL A   1      42.256  31.516  32.492  1.00  0.00     0.037 A 
BRANCH  23  37
ATOM     37  C   UNL A   1      44.621  32.563  27.626  1.00  0.00     0.064 A 
ATOM     38  C   UNL A   1      43.960  33.808  27.601  1.00  0.00     0.173 A 
ATOM     39  C   UNL A   1      45.882  32.520  26.998  1.00  0.00     0.173 A 
ATOM     40  F   UNL A   1      42.794  33.986  28.237  1.00  0.00    -0.203 F 
ATOM     41  C   UNL A   1      44.522  34.930  26.989  1.00  0.00     0.198 A 
ATOM     42  C   UNL A   1      46.454  33.654  26.413  1.00  0.00     0.198 A 
ATOM     43  F   UNL A   1      46.605  31.391  26.995  1.00  0.00    -0.203 F 
ATOM     44  F   UNL A   1      43.860  36.097  27.012  1.00  0.00    -0.200 F 
ATOM     45  C   UNL A   1      45.775  34.859  26.412  1.00  0.00     0.200 A 
ATOM     46  F   UNL A   1      47.687  33.586  25.892  1.00  0.00    -0.200 F 
ATOM     47  F   UNL A   1      46.339  35.955  25.890  1.00  0.00    -0.200 F 
ENDBRANCH  23  37
BRANCH  24  48
ATOM     48  C   UNL A   1      36.680  32.358  30.648  1.00  0.00     0.064 A 
ATOM     49  C   UNL A   1      36.424  33.140  29.503  1.00  0.00     0.173 A 
ATOM     50  C   UNL A   1      35.791  32.504  31.723  1.00  0.00     0.173 A 
ATOM     51  F   UNL A   1      37.270  33.132  28.462  1.00  0.00    -0.203 F 
ATOM     52  C   UNL A   1      35.347  34.024  29.444  1.00  0.00     0.198 A 
ATOM     53  C   UNL A   1      34.718  33.396  31.664  1.00  0.00     0.198 A 
ATOM     54  F   UNL A   1      35.998  31.831  32.864  1.00  0.00    -0.203 F 
ATOM     55  F   UNL A   1      35.175  34.788  28.356  1.00  0.00    -0.200 F 
ATOM     56  C   UNL A   1      34.503  34.161  30.529  1.00  0.00     0.200 A 
ATOM     57  F   UNL A   1      33.925  33.557  32.733  1.00  0.00    -0.200 F 
ATOM     58  F   UNL A   1      33.511  35.063  30.498  1.00  0.00    -0.200 F 
ENDBRANCH  24  48
BRANCH  36  59
ATOM     59  C   UNL A   1      41.980  30.556  33.617  1.00  0.00     0.064 A 
ATOM     60  C   UNL A   1      42.295  30.942  34.927  1.00  0.00     0.173 A 
ATOM     61  C   UNL A   1      41.602  29.218  33.413  1.00  0.00     0.173 A 
ATOM     62  F   UNL A   1      42.728  32.188  35.176  1.00  0.00    -0.203 F 
ATOM     63  C   UNL A   1      42.234  30.034  35.982  1.00  0.00     0.198 A 
ATOM     64  C   UNL A   1      41.506  28.321  34.476  1.00  0.00     0.198 A 
ATOM     65  F   UNL A   1      41.394  28.741  32.181  1.00  0.00    -0.203 F 
ATOM     66  F   UNL A   1      42.604  30.417  37.214  1.00  0.00    -0.200 F 
ATOM     67  C   UNL A   1      41.832  28.727  35.759  1.00  0.00     0.200 A 
ATOM     68  F   UNL A   1      41.144  27.049  34.252  1.00  0.00    -0.200 F 
ATOM     69  F   UNL A   1      41.793  27.851  36.773  1.00  0.00    -0.200 F 
ENDBRANCH  36  59
ENDBRANCH  10  11
ENDBRANCH   3   5
ENDBRANCH   2   3
ENDBRANCH   1   2
BRANCH   1  70
ATOM     70  C   UNL A   1      37.104  22.337  25.781  1.00  0.00     0.275 C 
BRANCH  70  71
ATOM     71  O   UNL A   1      37.009  23.413  24.826  1.00  0.00    -0.457 OA
BRANCH  71  72
ATOM     72  C   UNL A   1      36.261  23.175  23.702  1.00  0.00     0.359 C 
ATOM     73  O   UNL A   1      36.713  23.027  22.571  1.00  0.00    -0.244 OA
BRANCH  72  74
ATOM     74  C   UNL A   1      34.822  23.115  23.982  1.00  0.00     0.175 A 
ATOM     75  N   UNL A   1      34.157  21.939  23.956  1.00  0.00    -0.165 NA
ATOM     76  C   UNL A   1      33.951  24.172  24.373  1.00  0.00     0.028 A 
ATOM     77  N   UNL A   1      32.904  22.236  24.365  1.00  0.00    -0.264 N 
ATOM     78  C   UNL A   1      32.714  23.577  24.495  1.00  0.00     0.046 A 
ATOM     79  C   UNL A   1      34.196  25.625  24.592  1.00  0.00     0.159 C 
ATOM     80  C   UNL A   1      31.463  24.307  24.790  1.00  0.00     0.078 C 
ATOM     81  N   UNL A   1      32.927  26.362  24.814  1.00  0.00    -0.337 N 
ATOM     82  C   UNL A   1      31.657  25.769  24.354  1.00  0.00     0.126 C 
BRANCH  77  83
ATOM     83  C   UNL A   1      32.018  21.173  24.832  1.00  0.00     0.180 C 
BRANCH  83  84
ATOM     84  C   UNL A   1      32.455  19.795  24.407  1.00  0.00    -0.026 A 
ATOM     85  C   UNL A   1      32.231  19.360  23.088  1.00  0.00     0.008 A 
ATOM     86  C   UNL A   1      33.128  18.946  25.299  1.00  0.00     0.008 A 
ATOM     87  C   UNL A   1      32.673  18.107  22.668  1.00  0.00     0.039 A 
ATOM     88  C   UNL A   1      33.574  17.693  24.874  1.00  0.00     0.039 A 
ATOM     89  C   UNL A   1      33.343  17.286  23.564  1.00  0.00     0.123 A 
ATOM     90  F   UNL A   1      33.780  16.087  23.160  1.00  0.00    -0.207 F 
ENDBRANCH  83  84
ENDBRANCH  77  83
BRANCH  81  91
ATOM     91  C   UNL A   1      33.039  27.706  25.162  1.00  0.00     0.232 C 
ATOM     92  O   UNL A   1      33.982  28.410  24.824  1.00  0.00    -0.274 OA
BRANCH  91  93
ATOM     93  C   UNL A   1      31.920  28.302  25.925  1.00  0.00     0.154 C 
ATOM     94  C   UNL A   1      31.681  27.891  27.372  1.00  0.00     0.097 C 
ATOM     95  C   UNL A   1      32.194  29.239  27.037  1.00  0.00     0.260 C 
ATOM     96  F   UNL A   1      33.460  29.585  27.442  1.00  0.00    -0.206 F 
ATOM     97  F   UNL A   1      31.378  30.325  27.265  1.00  0.00    -0.206 F 
ENDBRANCH  91  93
ENDBRANCH  81  91
ENDBRANCH  72  74
ENDBRANCH  71  72
ENDBRANCH  70  71
ENDBRANCH   1  70
TORSDOF 15
ENDMDL
MODEL 2
REMARK VINA RESULT:     -13.8      1.435      4.399
REMARK SMILES O=C(OCCOC(=O)c1nn(Cc2ccc(F)cc2)c2c1CN(C(=O)[C@H]1CC1(F)F)CC2)c1ccc(-c2c3nc(c(-c4c(F)c(F)c(F)c(F)c4F)c4ccc([nH]4)c(-c4c(F)c(F)c(F)c(F)c4F)c4nc(c(-c5c(F)c(F)c(F)c(F)c5F)c5ccc2[nH]5)C=C4)C=C3)cc1
REMARK SMILES IDX 4 1 3 2 2 3 1 4 33 5 34 6 95 7 35 8 94 9 36 10 37 11 38 12
REMARK SMILES IDX 88 13 39 14 93 15 87 16 89 17 40 18 92 19 86 20 85 21 41 23
REMARK SMILES IDX 73 24 53 25 72 26 54 27 57 28 71 29 90 30 55 31 56 32 70 34
REMARK SMILES IDX 91 35 58 36 42 37 43 38 51 39 44 40 45 41 49 42 52 43 46 44
REMARK SMILES IDX 47 45 50 46 48 47 74 48 75 49 83 50 76 51 77 52 81 53 84 54
REMARK SMILES IDX 78 55 79 56 82 57 80 58 59 59 60 60 68 61 61 62 62 63 66 64
REMARK SMILES IDX 69 65 63 66 64 67 67 68 65 69 5 70 6 71 7 72 8 73 9 74 10 75
REMARK SMILES IDX 21 76 11 77 20 78 22 79 32 80 23 81 31 82 12 83 13 84 14 85
REMARK SMILES IDX 19 86 15 87 18 88 16 89 17 90 24 91 25 92 26 93 27 94 28 95
REMARK SMILES IDX 29 96 30 97
REMARK H PARENT 89 22 57 33
REMARK Flexibility Score: inf
ROOT
ATOM      1  C   UNL A   1      39.597  21.337  25.876  1.00  0.00     0.275 C 
ENDROOT
BRANCH   1   2
ATOM      2  O   UNL A   1      39.904  22.137  27.033  1.00  0.00    -0.458 OA
BRANCH   2   3
ATOM      3  C   UNL A   1      41.136  22.659  27.155  1.00  0.00     0.338 C 
ATOM      4  O   UNL A   1      42.190  22.064  26.993  1.00  0.00    -0.246 OA
BRANCH   3   5
ATOM      5  C   UNL A   1      41.020  24.076  27.565  1.00  0.00     0.060 A 
ATOM      6  C   UNL A   1      41.921  24.641  28.476  1.00  0.00     0.016 A 
ATOM      7  C   UNL A   1      40.057  24.877  26.957  1.00  0.00     0.016 A 
ATOM      8  C   UNL A   1      41.834  25.987  28.806  1.00  0.00     0.010 A 
ATOM      9  C   UNL A   1      40.010  26.240  27.247  1.00  0.00     0.010 A 
ATOM     10  C   UNL A   1      40.868  26.802  28.204  1.00  0.00    -0.014 A 
BRANCH  10  11
ATOM     11  C   UNL A   1      40.808  28.217  28.613  1.00  0.00     0.031 A 
ATOM     12  C   UNL A   1      41.936  29.142  28.219  1.00  0.00     0.074 A 
ATOM     13  C   UNL A   1      39.754  28.760  29.261  1.00  0.00     0.049 A 
ATOM     14  N   UNL A   1      42.569  30.009  28.953  1.00  0.00    -0.248 NA
ATOM     15  C   UNL A   1      42.399  29.129  26.822  1.00  0.00     0.031 C 
ATOM     16  C   UNL A   1      38.446  28.178  29.577  1.00  0.00     0.029 A 
ATOM     17  N   UNL A   1      39.642  30.035  29.739  1.00  0.00    -0.354 N 
ATOM     18  C   UNL A   1      43.414  30.720  28.101  1.00  0.00     0.074 A 
ATOM     19  C   UNL A   1      43.238  30.165  26.783  1.00  0.00     0.031 C 
ATOM     20  C   UNL A   1      37.610  29.148  30.006  1.00  0.00     0.029 A 
ATOM     21  C   UNL A   1      38.372  30.371  30.168  1.00  0.00     0.049 A 
ATOM     22  H   UNL A   1      40.401  30.661  29.776  1.00  0.00     0.167 HD
ATOM     23  C   UNL A   1      44.215  31.745  28.506  1.00  0.00     0.037 A 
ATOM     24  C   UNL A   1      37.958  31.567  30.633  1.00  0.00     0.037 A 
ATOM     25  C   UNL A   1      44.536  31.657  29.897  1.00  0.00     0.049 A 
ATOM     26  C   UNL A   1      39.143  32.296  31.133  1.00  0.00     0.074 A 
ATOM     27  C   UNL A   1      45.225  30.732  30.658  1.00  0.00     0.029 A 
ATOM     28  N   UNL A   1      43.902  32.462  30.804  1.00  0.00    -0.354 N 
ATOM     29  N   UNL A   1      39.832  31.948  32.184  1.00  0.00    -0.248 NA
ATOM     30  C   UNL A   1      39.785  33.253  30.249  1.00  0.00     0.031 C 
ATOM     31  C   UNL A   1      44.544  30.705  31.908  1.00  0.00     0.029 A 
ATOM     32  C   UNL A   1      43.505  31.631  31.822  1.00  0.00     0.049 A 
ATOM     33  H   UNL A   1      43.760  33.434  30.740  1.00  0.00     0.167 HD
ATOM     34  C   UNL A   1      41.131  32.331  31.897  1.00  0.00     0.074 A 
ATOM     35  C   UNL A   1      41.019  33.231  30.756  1.00  0.00     0.031 C 
ATOM     36  C   UNL A   1      42.201  31.681  32.440  1.00  0.00     0.037 A 
BRANCH  23  37
ATOM     37  C   UNL A   1      44.633  32.903  27.649  1.00  0.00     0.064 A 
ATOM     38  C   UNL A   1      43.961  34.142  27.691  1.00  0.00     0.173 A 
ATOM     39  C   UNL A   1      45.867  32.892  26.970  1.00  0.00     0.173 A 
ATOM     40  F   UNL A   1      42.820  34.288  28.378  1.00  0.00    -0.203 F 
ATOM     41  C   UNL A   1      44.488  35.289  27.094  1.00  0.00     0.198 A 
ATOM     42  C   UNL A   1      46.406  34.051  26.399  1.00  0.00     0.198 A 
ATOM     43  F   UNL A   1      46.599  31.771  26.901  1.00  0.00    -0.203 F 
ATOM     44  F   UNL A   1      43.819  36.448  27.182  1.00  0.00    -0.200 F 
ATOM     45  C   UNL A   1      45.718  35.248  26.465  1.00  0.00     0.200 A 
ATOM     46  F   UNL A   1      47.617  34.011  25.827  1.00  0.00    -0.200 F 
ATOM     47  F   UNL A   1      46.251  36.366  25.957  1.00  0.00    -0.200 F 
ENDBRANCH  23  37
BRANCH  24  48
ATOM     48  C   UNL A   1      36.637  32.198  30.445  1.00  0.00     0.064 A 
ATOM     49  C   UNL A   1      36.271  32.741  29.196  1.00  0.00     0.173 A 
ATOM     50  C   UNL A   1      35.820  32.521  31.538  1.00  0.00     0.173 A 
ATOM     51  F   UNL A   1      37.042  32.558  28.115  1.00  0.00    -0.203 F 
ATOM     52  C   UNL A   1      35.158  33.568  29.054  1.00  0.00     0.198 A 
ATOM     53  C   UNL A   1      34.709  33.357  31.395  1.00  0.00     0.198 A 
ATOM     54  F   UNL A   1      36.133  32.083  32.765  1.00  0.00    -0.203 F 
ATOM     55  F   UNL A   1      34.879  34.106  27.859  1.00  0.00    -0.200 F 
ATOM     56  C   UNL A   1      34.385  33.886  30.156  1.00  0.00     0.200 A 
ATOM     57  F   UNL A   1      33.987  33.696  32.471  1.00  0.00    -0.200 F 
ATOM     58  F   UNL A   1      33.358  34.738  30.031  1.00  0.00    -0.200 F 
ENDBRANCH  24  48
BRANCH  36  59
ATOM     59  C   UNL A   1      41.953  30.698  33.552  1.00  0.00     0.064 A 
ATOM     60  C   UNL A   1      42.220  31.087  34.871  1.00  0.00     0.173 A 
ATOM     61  C   UNL A   1      41.649  29.343  33.330  1.00  0.00     0.173 A 
ATOM     62  F   UNL A   1      42.583  32.352  35.138  1.00  0.00    -0.203 F 
ATOM     63  C   UNL A   1      42.185  30.169  35.918  1.00  0.00     0.198 A 
ATOM     64  C   UNL A   1      41.578  28.434  34.384  1.00  0.00     0.198 A 
ATOM     65  F   UNL A   1      41.491  28.868  32.090  1.00  0.00    -0.203 F 
ATOM     66  F   UNL A   1      42.510  30.559  37.159  1.00  0.00    -0.200 F 
ATOM     67  C   UNL A   1      41.856  28.845  35.675  1.00  0.00     0.200 A 
ATOM     68  F   UNL A   1      41.288  27.146  34.142  1.00  0.00    -0.200 F 
ATOM     69  F   UNL A   1      41.843  27.959  36.682  1.00  0.00    -0.200 F 
ENDBRANCH  36  59
ENDBRANCH  10  11
ENDBRANCH   3   5
ENDBRANCH   2   3
ENDBRANCH   1   2
BRANCH   1  70
ATOM     70  C   UNL A   1      38.124  21.132  25.495  1.00  0.00     0.275 C 
BRANCH  70  71
ATOM     71  O   UNL A   1      37.637  22.212  24.673  1.00  0.00    -0.457 OA
BRANCH  71  72
ATOM     72  C   UNL A   1      36.738  23.070  25.251  1.00  0.00     0.359 C 
ATOM     73  O   UNL A   1      36.970  23.789  26.219  1.00  0.00    -0.244 OA
BRANCH  72  74
ATOM     74  C   UNL A   1      35.430  23.050  24.588  1.00  0.00     0.175 A 
ATOM     75  N   UNL A   1      34.997  24.110  23.871  1.00  0.00    -0.165 NA
ATOM     76  C   UNL A   1      34.490  21.983  24.518  1.00  0.00     0.028 A 
ATOM     77  N   UNL A   1      33.830  23.708  23.321  1.00  0.00    -0.264 N 
ATOM     78  C   UNL A   1      33.436  22.494  23.792  1.00  0.00     0.046 A 
ATOM     79  C   UNL A   1      34.512  20.606  25.087  1.00  0.00     0.159 C 
ATOM     80  C   UNL A   1      32.169  21.775  23.540  1.00  0.00     0.078 C 
ATOM     81  N   UNL A   1      33.210  19.919  24.896  1.00  0.00    -0.337 N 
ATOM     82  C   UNL A   1      31.998  20.722  24.649  1.00  0.00     0.126 C 
BRANCH  77  83
ATOM     83  C   UNL A   1      33.273  24.434  22.183  1.00  0.00     0.180 C 
BRANCH  83  84
ATOM     84  C   UNL A   1      32.429  25.618  22.579  1.00  0.00    -0.026 A 
ATOM     85  C   UNL A   1      32.928  26.923  22.421  1.00  0.00     0.008 A 
ATOM     86  C   UNL A   1      31.125  25.441  23.066  1.00  0.00     0.008 A 
ATOM     87  C   UNL A   1      32.140  28.028  22.738  1.00  0.00     0.039 A 
ATOM     88  C   UNL A   1      30.336  26.550  23.378  1.00  0.00     0.039 A 
ATOM     89  C   UNL A   1      30.850  27.832  23.211  1.00  0.00     0.123 A 
ATOM     90  F   UNL A   1      30.087  28.891  23.504  1.00  0.00    -0.207 F 
ENDBRANCH  83  84
ENDBRANCH  77  83
BRANCH  81  91
ATOM     91  C   UNL A   1      33.153  18.578  25.269  1.00  0.00     0.232 C 
ATOM     92  O   UNL A   1      32.383  18.151  26.120  1.00  0.00    -0.274 OA
BRANCH  91  93
ATOM     93  C   UNL A   1      34.031  17.636  24.541  1.00  0.00     0.154 C 
ATOM     94  C   UNL A   1      33.579  16.201  24.304  1.00  0.00     0.097 C 
ATOM     95  C   UNL A   1      33.660  17.168  23.186  1.00  0.00     0.260 C 
ATOM     96  F   UNL A   1      32.502  17.540  22.548  1.00  0.00    -0.206 F 
ATOM     97  F   UNL A   1      34.619  16.971  22.218  1.00  0.00    -0.206 F 
ENDBRANCH  91  93
ENDBRANCH  81  91
ENDBRANCH  72  74
ENDBRANCH  71  72
ENDBRANCH  70  71
ENDBRANCH   1  70
TORSDOF 15
ENDMDL
MODEL 3
REMARK VINA RESULT:     -13.5      3.454      9.430
REMARK SMILES O=C(OCCOC(=O)c1nn(Cc2ccc(F)cc2)c2c1CN(C(=O)[C@H]1CC1(F)F)CC2)c1ccc(-c2c3nc(c(-c4c(F)c(F)c(F)c(F)c4F)c4ccc([nH]4)c(-c4c(F)c(F)c(F)c(F)c4F)c4nc(c(-c5c(F)c(F)c(F)c(F)c5F)c5ccc2[nH]5)C=C4)C=C3)cc1
REMARK SMILES IDX 4 1 3 2 2 3 1 4 33 5 34 6 95 7 35 8 94 9 36 10 37 11 38 12
REMARK SMILES IDX 88 13 39 14 93 15 87 16 89 17 40 18 92 19 86 20 85 21 41 23
REMARK SMILES IDX 73 24 53 25 72 26 54 27 57 28 71 29 90 30 55 31 56 32 70 34
REMARK SMILES IDX 91 35 58 36 42 37 43 38 51 39 44 40 45 41 49 42 52 43 46 44
REMARK SMILES IDX 47 45 50 46 48 47 74 48 75 49 83 50 76 51 77 52 81 53 84 54
REMARK SMILES IDX 78 55 79 56 82 57 80 58 59 59 60 60 68 61 61 62 62 63 66 64
REMARK SMILES IDX 69 65 63 66 64 67 67 68 65 69 5 70 6 71 7 72 8 73 9 74 10 75
REMARK SMILES IDX 21 76 11 77 20 78 22 79 32 80 23 81 31 82 12 83 13 84 14 85
REMARK SMILES IDX 19 86 15 87 18 88 16 89 17 90 24 91 25 92 26 93 27 94 28 95
REMARK SMILES IDX 29 96 30 97
REMARK H PARENT 89 22 57 33
REMARK Flexibility Score: inf
ROOT
ATOM      1  C   UNL A   1      33.304  30.974  27.251  1.00  0.00     0.275 C 
ENDROOT
BRANCH   1   2
ATOM      2  O   UNL A   1      34.251  31.182  28.315  1.00  0.00    -0.458 OA
BRANCH   2   3
ATOM      3  C   UNL A   1      35.359  31.903  28.070  1.00  0.00     0.338 C 
ATOM      4  O   UNL A   1      35.395  33.039  27.624  1.00  0.00    -0.246 OA
BRANCH   3   5
ATOM      5  C   UNL A   1      36.548  31.082  28.386  1.00  0.00     0.060 A 
ATOM      6  C   UNL A   1      36.597  29.722  28.054  1.00  0.00     0.016 A 
ATOM      7  C   UNL A   1      37.669  31.700  28.935  1.00  0.00     0.016 A 
ATOM      8  C   UNL A   1      37.742  28.978  28.305  1.00  0.00     0.010 A 
ATOM      9  C   UNL A   1      38.836  30.963  29.131  1.00  0.00     0.010 A 
ATOM     10  C   UNL A   1      38.874  29.588  28.858  1.00  0.00    -0.014 A 
BRANCH  10  11
ATOM     11  C   UNL A   1      40.051  28.742  29.124  1.00  0.00     0.031 A 
ATOM     12  C   UNL A   1      40.502  28.541  30.552  1.00  0.00     0.074 A 
ATOM     13  C   UNL A   1      40.714  28.065  28.161  1.00  0.00     0.049 A 
ATOM     14  N   UNL A   1      41.704  28.610  31.041  1.00  0.00    -0.248 NA
ATOM     15  C   UNL A   1      39.493  28.185  31.563  1.00  0.00     0.031 C 
ATOM     16  C   UNL A   1      40.385  27.889  26.742  1.00  0.00     0.029 A 
ATOM     17  N   UNL A   1      41.849  27.318  28.304  1.00  0.00    -0.354 N 
ATOM     18  C   UNL A   1      41.624  28.198  32.373  1.00  0.00     0.074 A 
ATOM     19  C   UNL A   1      40.238  27.904  32.634  1.00  0.00     0.031 C 
ATOM     20  C   UNL A   1      41.178  26.935  26.208  1.00  0.00     0.029 A 
ATOM     21  C   UNL A   1      42.180  26.569  27.190  1.00  0.00     0.049 A 
ATOM     22  H   UNL A   1      42.387  27.315  29.128  1.00  0.00     0.167 HD
ATOM     23  C   UNL A   1      42.698  28.102  33.205  1.00  0.00     0.037 A 
ATOM     24  C   UNL A   1      43.209  25.705  27.064  1.00  0.00     0.037 A 
ATOM     25  C   UNL A   1      43.768  28.962  32.801  1.00  0.00     0.049 A 
ATOM     26  C   UNL A   1      44.236  26.072  28.062  1.00  0.00     0.074 A 
ATOM     27  C   UNL A   1      43.896  30.332  32.688  1.00  0.00     0.029 A 
ATOM     28  N   UNL A   1      44.860  28.447  32.155  1.00  0.00    -0.354 N 
ATOM     29  N   UNL A   1      44.943  27.167  28.022  1.00  0.00    -0.248 NA
ATOM     30  C   UNL A   1      44.248  25.362  29.329  1.00  0.00     0.031 C 
ATOM     31  C   UNL A   1      44.732  30.530  31.552  1.00  0.00     0.029 A 
ATOM     32  C   UNL A   1      45.067  29.265  31.072  1.00  0.00     0.049 A 
ATOM     33  H   UNL A   1      45.387  27.657  32.414  1.00  0.00     0.167 HD
ATOM     34  C   UNL A   1      45.170  27.490  29.348  1.00  0.00     0.074 A 
ATOM     35  C   UNL A   1      44.827  26.287  30.097  1.00  0.00     0.031 C 
ATOM     36  C   UNL A   1      45.362  28.782  29.743  1.00  0.00     0.037 A 
BRANCH  23  37
ATOM     37  C   UNL A   1      42.819  27.137  34.347  1.00  0.00     0.064 A 
ATOM     38  C   UNL A   1      42.131  27.330  35.563  1.00  0.00     0.173 A 
ATOM     39  C   UNL A   1      43.405  25.869  34.163  1.00  0.00     0.173 A 
ATOM     40  F   UNL A   1      41.466  28.467  35.809  1.00  0.00    -0.203 F 
ATOM     41  C   UNL A   1      42.037  26.324  36.526  1.00  0.00     0.198 A 
ATOM     42  C   UNL A   1      43.283  24.854  35.118  1.00  0.00     0.198 A 
ATOM     43  F   UNL A   1      44.055  25.574  33.028  1.00  0.00    -0.203 F 
ATOM     44  F   UNL A   1      41.352  26.552  37.656  1.00  0.00    -0.200 F 
ATOM     45  C   UNL A   1      42.596  25.081  36.297  1.00  0.00     0.200 A 
ATOM     46  F   UNL A   1      43.793  23.640  34.870  1.00  0.00    -0.200 F 
ATOM     47  F   UNL A   1      42.442  24.098  37.193  1.00  0.00    -0.200 F 
ENDBRANCH  23  37
BRANCH  24  48
ATOM     48  C   UNL A   1      43.237  24.446  26.296  1.00  0.00     0.064 A 
ATOM     49  C   UNL A   1      42.665  23.269  26.822  1.00  0.00     0.173 A 
ATOM     50  C   UNL A   1      44.050  24.300  25.163  1.00  0.00     0.173 A 
ATOM     51  F   UNL A   1      41.947  23.301  27.954  1.00  0.00    -0.203 F 
ATOM     52  C   UNL A   1      42.904  22.020  26.252  1.00  0.00     0.198 A 
ATOM     53  C   UNL A   1      44.294  23.046  24.598  1.00  0.00     0.198 A 
ATOM     54  F   UNL A   1      44.668  25.367  24.636  1.00  0.00    -0.203 F 
ATOM     55  F   UNL A   1      42.384  20.922  26.819  1.00  0.00    -0.200 F 
ATOM     56  C   UNL A   1      43.729  21.907  25.149  1.00  0.00     0.200 A 
ATOM     57  F   UNL A   1      45.127  22.936  23.554  1.00  0.00    -0.200 F 
ATOM     58  F   UNL A   1      44.014  20.698  24.645  1.00  0.00    -0.200 F 
ENDBRANCH  24  48
BRANCH  36  59
ATOM     59  C   UNL A   1      45.572  29.831  28.686  1.00  0.00     0.064 A 
ATOM     60  C   UNL A   1      46.870  30.304  28.451  1.00  0.00     0.173 A 
ATOM     61  C   UNL A   1      44.517  30.505  28.047  1.00  0.00     0.173 A 
ATOM     62  F   UNL A   1      47.914  29.745  29.084  1.00  0.00    -0.203 F 
ATOM     63  C   UNL A   1      47.102  31.397  27.619  1.00  0.00     0.198 A 
ATOM     64  C   UNL A   1      44.754  31.576  27.187  1.00  0.00     0.198 A 
ATOM     65  F   UNL A   1      43.243  30.189  28.305  1.00  0.00    -0.203 F 
ATOM     66  F   UNL A   1      48.350  31.866  27.467  1.00  0.00    -0.200 F 
ATOM     67  C   UNL A   1      46.046  32.027  26.981  1.00  0.00     0.200 A 
ATOM     68  F   UNL A   1      43.727  32.202  26.593  1.00  0.00    -0.200 F 
ATOM     69  F   UNL A   1      46.271  33.091  26.197  1.00  0.00    -0.200 F 
ENDBRANCH  36  59
ENDBRANCH  10  11
ENDBRANCH   3   5
ENDBRANCH   2   3
ENDBRANCH   1   2
BRANCH   1  70
ATOM     70  C   UNL A   1      33.474  29.746  26.346  1.00  0.00     0.275 C 
BRANCH  70  71
ATOM     71  O   UNL A   1      33.391  28.521  27.100  1.00  0.00    -0.457 OA
BRANCH  71  72
ATOM     72  C   UNL A   1      32.219  27.815  27.003  1.00  0.00     0.359 C 
ATOM     73  O   UNL A   1      31.399  27.680  27.907  1.00  0.00    -0.244 OA
BRANCH  72  74
ATOM     74  C   UNL A   1      32.029  27.213  25.679  1.00  0.00     0.175 A 
ATOM     75  N   UNL A   1      31.060  27.654  24.847  1.00  0.00    -0.165 NA
ATOM     76  C   UNL A   1      32.805  26.199  25.047  1.00  0.00     0.028 A 
ATOM     77  N   UNL A   1      31.245  26.968  23.698  1.00  0.00    -0.264 N 
ATOM     78  C   UNL A   1      32.193  26.000  23.829  1.00  0.00     0.046 A 
ATOM     79  C   UNL A   1      33.996  25.433  25.511  1.00  0.00     0.159 C 
ATOM     80  C   UNL A   1      32.591  24.962  22.855  1.00  0.00     0.078 C 
ATOM     81  N   UNL A   1      34.343  24.344  24.564  1.00  0.00    -0.337 N 
ATOM     82  C   UNL A   1      33.317  23.846  23.628  1.00  0.00     0.126 C 
BRANCH  77  83
ATOM     83  C   UNL A   1      30.643  27.447  22.457  1.00  0.00     0.180 C 
BRANCH  83  84
ATOM     84  C   UNL A   1      29.638  28.552  22.663  1.00  0.00    -0.026 A 
ATOM     85  C   UNL A   1      28.341  28.249  23.112  1.00  0.00     0.008 A 
ATOM     86  C   UNL A   1      29.992  29.894  22.455  1.00  0.00     0.008 A 
ATOM     87  C   UNL A   1      27.417  29.265  23.353  1.00  0.00     0.039 A 
ATOM     88  C   UNL A   1      29.066  30.910  22.701  1.00  0.00     0.039 A 
ATOM     89  C   UNL A   1      27.789  30.586  23.148  1.00  0.00     0.123 A 
ATOM     90  F   UNL A   1      26.909  31.564  23.390  1.00  0.00    -0.207 F 
ENDBRANCH  83  84
ENDBRANCH  77  83
BRANCH  81  91
ATOM     91  C   UNL A   1      35.518  23.643  24.823  1.00  0.00     0.232 C 
ATOM     92  O   UNL A   1      36.417  24.080  25.530  1.00  0.00    -0.274 OA
BRANCH  91  93
ATOM     93  C   UNL A   1      35.633  22.283  24.254  1.00  0.00     0.154 C 
ATOM     94  C   UNL A   1      36.808  21.393  24.639  1.00  0.00     0.097 C 
ATOM     95  C   UNL A   1      35.439  21.096  25.118  1.00  0.00     0.260 C 
ATOM     96  F   UNL A   1      35.178  21.174  26.464  1.00  0.00    -0.206 F 
ATOM     97  F   UNL A   1      34.808  19.968  24.641  1.00  0.00    -0.206 F 
ENDBRANCH  91  93
ENDBRANCH  81  91
ENDBRANCH  72  74
ENDBRANCH  71  72
ENDBRANCH  70  71
ENDBRANCH   1  70
TORSDOF 15
ENDMDL
