MODEL 1
REMARK VINA RESULT:     -12.1      0.000      0.000
REMARK SMILES Cc1[nH]ncc1S(=O)(=O)N1CC[C@@H](C(=O)OCCOC(=O)c2ccc(-c3c4nc(c(-c5c(F)c(F)c(F)c(F)c5F)c5ccc([nH]5)c(-c5c(F)c(F)c(F)c(F)c5F)c5nc(c(-c6c(F)c(F)c(F)c(F)c6F)c6ccc3[nH]6)C=C5)C=C4)cc2)[C@@H]1C
REMARK SMILES IDX 17 1 16 2 14 3 15 4 13 5 10 6 11 7 85 8 12 9 86 10 7 11 8 12
REMARK SMILES IDX 9 13 6 14 1 15 2 16 3 17 4 18 5 20 18 21 19 22 20 23 21 24
REMARK SMILES IDX 22 25 23 26 84 27 24 28 83 29 25 30 26 31 27 32 77 33 28 34
REMARK SMILES IDX 82 35 76 36 78 37 29 38 81 39 75 40 74 41 30 43 62 44 42 45
REMARK SMILES IDX 61 46 43 47 46 48 60 49 79 50 44 51 45 52 59 54 80 55 47 56
REMARK SMILES IDX 31 57 32 58 40 59 33 60 34 61 38 62 41 63 35 64 36 65 39 66
REMARK SMILES IDX 37 67 63 68 64 69 72 70 65 71 66 72 70 73 73 74 67 75 68 76
REMARK SMILES IDX 71 77 69 78 48 79 49 80 57 81 50 82 51 83 55 84 58 85 52 86
REMARK SMILES IDX 53 87 56 88 54 89
REMARK H PARENT 3 19 78 42 46 53
REMARK Flexibility Score: inf
ROOT
ATOM      1  C   UNL A   1      31.604  28.567  26.088  1.00  0.00     0.274 C 
ENDROOT
BRANCH   1   2
ATOM      2  O   UNL A   1      32.221  27.381  26.629  1.00  0.00    -0.462 OA
BRANCH   2   3
ATOM      3  C   UNL A   1      31.587  26.194  26.478  1.00  0.00     0.310 C 
ATOM      4  O   UNL A   1      30.370  26.049  26.509  1.00  0.00    -0.252 OA
BRANCH   3   5
ATOM      5  C   UNL A   1      32.539  25.055  26.144  1.00  0.00     0.118 C 
ATOM      6  N   UNL A   1      33.118  24.882  23.873  1.00  0.00    -0.194 NA
ATOM      7  C   UNL A   1      34.314  25.436  24.507  1.00  0.00     0.104 C 
ATOM      8  C   UNL A   1      32.215  24.289  24.869  1.00  0.00     0.084 C 
ATOM      9  C   UNL A   1      33.990  25.518  25.993  1.00  0.00     0.034 C 
ATOM     10  C   UNL A   1      32.550  22.804  25.042  1.00  0.00     0.027 C 
BRANCH   6  11
ATOM     11  S   UNL A   1      32.530  25.494  22.433  1.00  0.00     0.246 S 
ATOM     12  O   UNL A   1      31.275  24.828  22.174  1.00  0.00    -0.207 OA
ATOM     13  O   UNL A   1      33.608  25.481  21.464  1.00  0.00    -0.207 OA
BRANCH  11  14
ATOM     14  C   UNL A   1      32.087  27.161  22.509  1.00  0.00     0.123 A 
ATOM     15  C   UNL A   1      34.231  28.726  22.727  1.00  0.00     0.067 C 
ATOM     16  C   UNL A   1      32.811  28.342  22.603  1.00  0.00     0.052 A 
ATOM     17  N   UNL A   1      31.870  29.340  22.510  1.00  0.00    -0.281 N 
ATOM     18  N   UNL A   1      30.612  28.901  22.393  1.00  0.00    -0.183 NA
ATOM     19  H   UNL A   1      32.102  30.296  22.529  1.00  0.00     0.190 HD
ATOM     20  C   UNL A   1      30.748  27.574  22.356  1.00  0.00     0.157 A 
ENDBRANCH  11  14
ENDBRANCH   6  11
ENDBRANCH   3   5
ENDBRANCH   2   3
ENDBRANCH   1   2
BRANCH   1  21
ATOM     21  C   UNL A   1      31.965  29.780  26.949  1.00  0.00     0.275 C 
BRANCH  21  22
ATOM     22  O   UNL A   1      33.175  30.396  26.468  1.00  0.00    -0.458 OA
BRANCH  22  23
ATOM     23  C   UNL A   1      33.600  31.447  27.203  1.00  0.00     0.338 C 
ATOM     24  O   UNL A   1      32.959  32.417  27.570  1.00  0.00    -0.246 OA
BRANCH  23  25
ATOM     25  C   UNL A   1      34.945  31.171  27.712  1.00  0.00     0.060 A 
ATOM     26  C   UNL A   1      35.214  29.860  28.097  1.00  0.00     0.016 A 
ATOM     27  C   UNL A   1      35.867  32.183  27.954  1.00  0.00     0.016 A 
ATOM     28  C   UNL A   1      36.339  29.559  28.837  1.00  0.00     0.010 A 
ATOM     29  C   UNL A   1      37.057  31.863  28.615  1.00  0.00     0.010 A 
ATOM     30  C   UNL A   1      37.279  30.556  29.092  1.00  0.00    -0.014 A 
BRANCH  30  31
ATOM     31  C   UNL A   1      38.464  30.221  29.909  1.00  0.00     0.031 A 
ATOM     32  C   UNL A   1      39.521  29.327  29.337  1.00  0.00     0.074 A 
ATOM     33  C   UNL A   1      38.604  30.765  31.132  1.00  0.00     0.049 A 
ATOM     34  N   UNL A   1      40.548  28.776  29.927  1.00  0.00    -0.248 NA
ATOM     35  C   UNL A   1      39.402  29.006  27.906  1.00  0.00     0.031 C 
ATOM     36  C   UNL A   1      37.675  31.718  31.745  1.00  0.00     0.029 A 
ATOM     37  N   UNL A   1      39.580  30.597  32.078  1.00  0.00    -0.354 N 
ATOM     38  C   UNL A   1      41.169  28.006  28.955  1.00  0.00     0.074 A 
ATOM     39  C   UNL A   1      40.402  28.154  27.738  1.00  0.00     0.031 C 
ATOM     40  C   UNL A   1      38.129  32.054  32.960  1.00  0.00     0.029 A 
ATOM     41  C   UNL A   1      39.328  31.275  33.244  1.00  0.00     0.049 A 
ATOM     42  H   UNL A   1      40.382  30.044  31.936  1.00  0.00     0.167 HD
ATOM     43  C   UNL A   1      42.282  27.244  29.079  1.00  0.00     0.037 A 
ATOM     44  C   UNL A   1      39.961  31.227  34.429  1.00  0.00     0.037 A 
ATOM     45  C   UNL A   1      43.038  27.135  30.299  1.00  0.00     0.049 A 
ATOM     46  C   UNL A   1      41.155  30.325  34.564  1.00  0.00     0.074 A 
ATOM     47  C   UNL A   1      44.167  26.380  30.555  1.00  0.00     0.029 A 
ATOM     48  N   UNL A   1      42.735  27.815  31.473  1.00  0.00    -0.354 N 
ATOM     49  N   UNL A   1      41.705  29.545  33.664  1.00  0.00    -0.248 NA
ATOM     50  C   UNL A   1      41.808  30.285  35.877  1.00  0.00     0.031 C 
ATOM     51  C   UNL A   1      44.524  26.572  31.896  1.00  0.00     0.029 A 
ATOM     52  C   UNL A   1      43.649  27.487  32.461  1.00  0.00     0.049 A 
ATOM     53  H   UNL A   1      41.983  28.439  31.585  1.00  0.00     0.167 HD
ATOM     54  C   UNL A   1      42.774  28.930  34.294  1.00  0.00     0.074 A 
ATOM     55  C   UNL A   1      42.807  29.445  35.649  1.00  0.00     0.031 C 
ATOM     56  C   UNL A   1      43.651  28.019  33.801  1.00  0.00     0.037 A 
BRANCH  43  57
ATOM     57  C   UNL A   1      42.701  26.440  27.884  1.00  0.00     0.064 A 
ATOM     58  C   UNL A   1      43.648  26.911  26.962  1.00  0.00     0.173 A 
ATOM     59  C   UNL A   1      42.131  25.178  27.647  1.00  0.00     0.173 A 
ATOM     60  F   UNL A   1      44.208  28.119  27.129  1.00  0.00    -0.203 F 
ATOM     61  C   UNL A   1      43.980  26.169  25.830  1.00  0.00     0.198 A 
ATOM     62  C   UNL A   1      42.487  24.426  26.531  1.00  0.00     0.198 A 
ATOM     63  F   UNL A   1      41.219  24.679  28.494  1.00  0.00    -0.203 F 
ATOM     64  F   UNL A   1      44.839  26.669  24.931  1.00  0.00    -0.200 F 
ATOM     65  C   UNL A   1      43.403  24.926  25.619  1.00  0.00     0.200 A 
ATOM     66  F   UNL A   1      41.935  23.221  26.332  1.00  0.00    -0.200 F 
ATOM     67  F   UNL A   1      43.720  24.216  24.526  1.00  0.00    -0.200 F 
ENDBRANCH  43  57
BRANCH  44  68
ATOM     68  C   UNL A   1      39.438  32.013  35.576  1.00  0.00     0.064 A 
ATOM     69  C   UNL A   1      38.517  31.462  36.475  1.00  0.00     0.173 A 
ATOM     70  C   UNL A   1      39.880  33.325  35.817  1.00  0.00     0.173 A 
ATOM     71  F   UNL A   1      38.051  30.221  36.277  1.00  0.00    -0.203 F 
ATOM     72  C   UNL A   1      38.052  32.194  37.566  1.00  0.00     0.198 A 
ATOM     73  C   UNL A   1      39.438  34.043  36.924  1.00  0.00     0.198 A 
ATOM     74  F   UNL A   1      40.767  33.898  34.989  1.00  0.00    -0.203 F 
ATOM     75  F   UNL A   1      37.146  31.654  38.393  1.00  0.00    -0.200 F 
ATOM     76  C   UNL A   1      38.520  33.480  37.796  1.00  0.00     0.200 A 
ATOM     77  F   UNL A   1      39.909  35.277  37.152  1.00  0.00    -0.200 F 
ATOM     78  F   UNL A   1      38.084  34.175  38.855  1.00  0.00    -0.200 F 
ENDBRANCH  44  68
BRANCH  56  79
ATOM     79  C   UNL A   1      44.729  27.548  34.730  1.00  0.00     0.064 A 
ATOM     80  C   UNL A   1      44.568  26.403  35.522  1.00  0.00     0.173 A 
ATOM     81  C   UNL A   1      45.951  28.234  34.799  1.00  0.00     0.173 A 
ATOM     82  F   UNL A   1      43.410  25.726  35.503  1.00  0.00    -0.203 F 
ATOM     83  C   UNL A   1      45.585  25.974  36.370  1.00  0.00     0.198 A 
ATOM     84  C   UNL A   1      46.976  27.785  35.626  1.00  0.00     0.198 A 
ATOM     85  F   UNL A   1      46.153  29.333  34.056  1.00  0.00    -0.203 F 
ATOM     86  F   UNL A   1      45.394  24.904  37.154  1.00  0.00    -0.200 F 
ATOM     87  C   UNL A   1      46.789  26.660  36.415  1.00  0.00     0.200 A 
ATOM     88  F   UNL A   1      48.143  28.442  35.660  1.00  0.00    -0.200 F 
ATOM     89  F   UNL A   1      47.769  26.242  37.228  1.00  0.00    -0.200 F 
ENDBRANCH  56  79
ENDBRANCH  30  31
ENDBRANCH  23  25
ENDBRANCH  22  23
ENDBRANCH  21  22
ENDBRANCH   1  21
TORSDOF 13
ENDMDL
MODEL 2
REMARK VINA RESULT:     -12.0      4.314      9.647
REMARK SMILES Cc1[nH]ncc1S(=O)(=O)N1CC[C@@H](C(=O)OCCOC(=O)c2ccc(-c3c4nc(c(-c5c(F)c(F)c(F)c(F)c5F)c5ccc([nH]5)c(-c5c(F)c(F)c(F)c(F)c5F)c5nc(c(-c6c(F)c(F)c(F)c(F)c6F)c6ccc3[nH]6)C=C5)C=C4)cc2)[C@@H]1C
REMARK SMILES IDX 17 1 16 2 14 3 15 4 13 5 10 6 11 7 85 8 12 9 86 10 7 11 8 12
REMARK SMILES IDX 9 13 6 14 1 15 2 16 3 17 4 18 5 20 18 21 19 22 20 23 21 24
REMARK SMILES IDX 22 25 23 26 84 27 24 28 83 29 25 30 26 31 27 32 77 33 28 34
REMARK SMILES IDX 82 35 76 36 78 37 29 38 81 39 75 40 74 41 30 43 62 44 42 45
REMARK SMILES IDX 61 46 43 47 46 48 60 49 79 50 44 51 45 52 59 54 80 55 47 56
REMARK SMILES IDX 31 57 32 58 40 59 33 60 34 61 38 62 41 63 35 64 36 65 39 66
REMARK SMILES IDX 37 67 63 68 64 69 72 70 65 71 66 72 70 73 73 74 67 75 68 76
REMARK SMILES IDX 71 77 69 78 48 79 49 80 57 81 50 82 51 83 55 84 58 85 52 86
REMARK SMILES IDX 53 87 56 88 54 89
REMARK H PARENT 3 19 78 42 46 53
REMARK Flexibility Score: inf
ROOT
ATOM      1  C   UNL A   1      36.559  23.112  23.522  1.00  0.00     0.274 C 
ENDROOT
BRANCH   1   2
ATOM      2  O   UNL A   1      35.403  23.870  23.935  1.00  0.00    -0.462 OA
BRANCH   2   3
ATOM      3  C   UNL A   1      34.390  24.038  23.052  1.00  0.00     0.310 C 
ATOM      4  O   UNL A   1      34.135  23.267  22.134  1.00  0.00    -0.252 OA
BRANCH   3   5
ATOM      5  C   UNL A   1      33.511  25.234  23.385  1.00  0.00     0.118 C 
ATOM      6  N   UNL A   1      32.021  24.903  25.173  1.00  0.00    -0.194 NA
ATOM      7  C   UNL A   1      33.065  25.762  25.731  1.00  0.00     0.104 C 
ATOM      8  C   UNL A   1      32.059  24.906  23.703  1.00  0.00     0.084 C 
ATOM      9  C   UNL A   1      34.027  26.037  24.582  1.00  0.00     0.034 C 
ATOM     10  C   UNL A   1      31.136  26.008  23.172  1.00  0.00     0.027 C 
BRANCH   6  11
ATOM     11  S   UNL A   1      31.432  23.585  26.016  1.00  0.00     0.246 S 
ATOM     12  O   UNL A   1      30.534  22.884  25.128  1.00  0.00    -0.207 OA
ATOM     13  O   UNL A   1      31.000  24.043  27.322  1.00  0.00    -0.207 OA
BRANCH  11  14
ATOM     14  C   UNL A   1      32.628  22.399  26.389  1.00  0.00     0.123 A 
ATOM     15  C   UNL A   1      33.007  20.728  24.351  1.00  0.00     0.067 C 
ATOM     16  C   UNL A   1      33.188  21.345  25.679  1.00  0.00     0.052 A 
ATOM     17  N   UNL A   1      34.169  20.847  26.504  1.00  0.00    -0.281 N 
ATOM     18  N   UNL A   1      34.267  21.471  27.683  1.00  0.00    -0.183 NA
ATOM     19  H   UNL A   1      34.750  20.095  26.248  1.00  0.00     0.190 HD
ATOM     20  C   UNL A   1      33.352  22.439  27.599  1.00  0.00     0.157 A 
ENDBRANCH  11  14
ENDBRANCH   6  11
ENDBRANCH   3   5
ENDBRANCH   2   3
ENDBRANCH   1   2
BRANCH   1  21
ATOM     21  C   UNL A   1      36.620  21.794  24.298  1.00  0.00     0.275 C 
BRANCH  21  22
ATOM     22  O   UNL A   1      37.068  22.023  25.647  1.00  0.00    -0.458 OA
BRANCH  22  23
ATOM     23  C   UNL A   1      38.355  21.681  25.876  1.00  0.00     0.338 C 
ATOM     24  O   UNL A   1      38.964  20.714  25.451  1.00  0.00    -0.246 OA
BRANCH  23  25
ATOM     25  C   UNL A   1      39.033  22.779  26.568  1.00  0.00     0.060 A 
ATOM     26  C   UNL A   1      38.591  24.068  26.286  1.00  0.00     0.016 A 
ATOM     27  C   UNL A   1      40.166  22.574  27.349  1.00  0.00     0.016 A 
ATOM     28  C   UNL A   1      39.333  25.168  26.665  1.00  0.00     0.010 A 
ATOM     29  C   UNL A   1      40.865  23.688  27.822  1.00  0.00     0.010 A 
ATOM     30  C   UNL A   1      40.472  24.989  27.450  1.00  0.00    -0.014 A 
BRANCH  30  31
ATOM     31  C   UNL A   1      41.269  26.176  27.823  1.00  0.00     0.031 A 
ATOM     32  C   UNL A   1      40.644  27.243  28.667  1.00  0.00     0.074 A 
ATOM     33  C   UNL A   1      42.559  26.256  27.447  1.00  0.00     0.049 A 
ATOM     34  N   UNL A   1      41.098  28.430  28.970  1.00  0.00    -0.248 NA
ATOM     35  C   UNL A   1      39.326  26.934  29.244  1.00  0.00     0.031 C 
ATOM     36  C   UNL A   1      43.287  25.228  26.699  1.00  0.00     0.029 A 
ATOM     37  N   UNL A   1      43.486  27.245  27.642  1.00  0.00    -0.354 N 
ATOM     38  C   UNL A   1      40.103  29.027  29.732  1.00  0.00     0.074 A 
ATOM     39  C   UNL A   1      39.018  28.076  29.839  1.00  0.00     0.031 C 
ATOM     40  C   UNL A   1      44.548  25.637  26.504  1.00  0.00     0.029 A 
ATOM     41  C   UNL A   1      44.689  26.988  27.034  1.00  0.00     0.049 A 
ATOM     42  H   UNL A   1      43.307  28.059  28.165  1.00  0.00     0.167 HD
ATOM     43  C   UNL A   1      40.105  30.263  30.286  1.00  0.00     0.037 A 
ATOM     44  C   UNL A   1      45.765  27.778  26.872  1.00  0.00     0.037 A 
ATOM     45  C   UNL A   1      41.210  31.179  30.181  1.00  0.00     0.049 A 
ATOM     46  C   UNL A   1      45.720  29.169  27.438  1.00  0.00     0.074 A 
ATOM     47  C   UNL A   1      41.322  32.463  30.679  1.00  0.00     0.029 A 
ATOM     48  N   UNL A   1      42.405  30.895  29.530  1.00  0.00    -0.354 N 
ATOM     49  N   UNL A   1      44.754  29.758  28.102  1.00  0.00    -0.248 NA
ATOM     50  C   UNL A   1      46.905  30.007  27.225  1.00  0.00     0.031 C 
ATOM     51  C   UNL A   1      42.569  32.971  30.295  1.00  0.00     0.029 A 
ATOM     52  C   UNL A   1      43.255  31.985  29.603  1.00  0.00     0.049 A 
ATOM     53  H   UNL A   1      42.616  30.043  29.085  1.00  0.00     0.167 HD
ATOM     54  C   UNL A   1      45.215  31.031  28.396  1.00  0.00     0.074 A 
ATOM     55  C   UNL A   1      46.558  31.120  27.856  1.00  0.00     0.031 C 
ATOM     56  C   UNL A   1      44.587  32.039  29.052  1.00  0.00     0.037 A 
BRANCH  43  57
ATOM     57  C   UNL A   1      38.858  30.698  30.999  1.00  0.00     0.064 A 
ATOM     58  C   UNL A   1      37.760  31.243  30.316  1.00  0.00     0.173 A 
ATOM     59  C   UNL A   1      38.767  30.583  32.395  1.00  0.00     0.173 A 
ATOM     60  F   UNL A   1      37.802  31.395  28.984  1.00  0.00    -0.203 F 
ATOM     61  C   UNL A   1      36.634  31.690  31.006  1.00  0.00     0.198 A 
ATOM     62  C   UNL A   1      37.629  31.003  33.079  1.00  0.00     0.198 A 
ATOM     63  F   UNL A   1      39.788  30.071  33.099  1.00  0.00    -0.203 F 
ATOM     64  F   UNL A   1      35.625  32.264  30.338  1.00  0.00    -0.200 F 
ATOM     65  C   UNL A   1      36.569  31.565  32.386  1.00  0.00     0.200 A 
ATOM     66  F   UNL A   1      37.565  30.874  34.412  1.00  0.00    -0.200 F 
ATOM     67  F   UNL A   1      35.488  32.001  33.049  1.00  0.00    -0.200 F 
ENDBRANCH  43  57
BRANCH  44  68
ATOM     68  C   UNL A   1      46.933  27.282  26.098  1.00  0.00     0.064 A 
ATOM     69  C   UNL A   1      47.064  27.548  24.730  1.00  0.00     0.173 A 
ATOM     70  C   UNL A   1      47.963  26.561  26.724  1.00  0.00     0.173 A 
ATOM     71  F   UNL A   1      46.098  28.218  24.084  1.00  0.00    -0.203 F 
ATOM     72  C   UNL A   1      48.176  27.107  24.016  1.00  0.00     0.198 A 
ATOM     73  C   UNL A   1      49.087  26.147  26.015  1.00  0.00     0.198 A 
ATOM     74  F   UNL A   1      47.889  26.284  28.035  1.00  0.00    -0.203 F 
ATOM     75  F   UNL A   1      48.261  27.348  22.700  1.00  0.00    -0.200 F 
ATOM     76  C   UNL A   1      49.191  26.416  24.660  1.00  0.00     0.200 A 
ATOM     77  F   UNL A   1      50.074  25.498  26.648  1.00  0.00    -0.200 F 
ATOM     78  F   UNL A   1      50.267  26.007  23.974  1.00  0.00    -0.200 F 
ENDBRANCH  44  68
BRANCH  56  79
ATOM     79  C   UNL A   1      45.362  33.309  29.238  1.00  0.00     0.064 A 
ATOM     80  C   UNL A   1      45.316  34.343  28.293  1.00  0.00     0.173 A 
ATOM     81  C   UNL A   1      46.130  33.504  30.396  1.00  0.00     0.173 A 
ATOM     82  F   UNL A   1      44.609  34.194  27.164  1.00  0.00    -0.203 F 
ATOM     83  C   UNL A   1      46.032  35.520  28.489  1.00  0.00     0.198 A 
ATOM     84  C   UNL A   1      46.822  34.693  30.602  1.00  0.00     0.198 A 
ATOM     85  F   UNL A   1      46.201  32.544  31.330  1.00  0.00    -0.203 F 
ATOM     86  F   UNL A   1      46.013  36.478  27.552  1.00  0.00    -0.200 F 
ATOM     87  C   UNL A   1      46.777  35.697  29.646  1.00  0.00     0.200 A 
ATOM     88  F   UNL A   1      47.531  34.868  31.725  1.00  0.00    -0.200 F 
ATOM     89  F   UNL A   1      47.461  36.834  29.835  1.00  0.00    -0.200 F 
ENDBRANCH  56  79
ENDBRANCH  30  31
ENDBRANCH  23  25
ENDBRANCH  22  23
ENDBRANCH  21  22
ENDBRANCH   1  21
TORSDOF 13
ENDMDL
MODEL 3
REMARK VINA RESULT:     -11.9      1.277      2.206
REMARK SMILES Cc1[nH]ncc1S(=O)(=O)N1CC[C@@H](C(=O)OCCOC(=O)c2ccc(-c3c4nc(c(-c5c(F)c(F)c(F)c(F)c5F)c5ccc([nH]5)c(-c5c(F)c(F)c(F)c(F)c5F)c5nc(c(-c6c(F)c(F)c(F)c(F)c6F)c6ccc3[nH]6)C=C5)C=C4)cc2)[C@@H]1C
REMARK SMILES IDX 17 1 16 2 14 3 15 4 13 5 10 6 11 7 85 8 12 9 86 10 7 11 8 12
REMARK SMILES IDX 9 13 6 14 1 15 2 16 3 17 4 18 5 20 18 21 19 22 20 23 21 24
REMARK SMILES IDX 22 25 23 26 84 27 24 28 83 29 25 30 26 31 27 32 77 33 28 34
REMARK SMILES IDX 82 35 76 36 78 37 29 38 81 39 75 40 74 41 30 43 62 44 42 45
REMARK SMILES IDX 61 46 43 47 46 48 60 49 79 50 44 51 45 52 59 54 80 55 47 56
REMARK SMILES IDX 31 57 32 58 40 59 33 60 34 61 38 62 41 63 35 64 36 65 39 66
REMARK SMILES IDX 37 67 63 68 64 69 72 70 65 71 66 72 70 73 73 74 67 75 68 76
REMARK SMILES IDX 71 77 69 78 48 79 49 80 57 81 50 82 51 83 55 84 58 85 52 86
REMARK SMILES IDX 53 87 56 88 54 89
REMARK H PARENT 3 19 78 42 46 53
REMARK Flexibility Score: inf
ROOT
ATOM      1  C   UNL A   1      31.418  28.881  25.732  1.00  0.00     0.274 C 
ENDROOT
BRANCH   1   2
ATOM      2  O   UNL A   1      32.536  28.176  25.155  1.00  0.00    -0.462 OA
BRANCH   2   3
ATOM      3  C   UNL A   1      32.969  27.044  25.758  1.00  0.00     0.310 C 
ATOM      4  O   UNL A   1      32.520  26.603  26.810  1.00  0.00    -0.252 OA
BRANCH   3   5
ATOM      5  C   UNL A   1      34.003  26.294  24.931  1.00  0.00     0.118 C 
ATOM      6  N   UNL A   1      33.296  24.206  24.115  1.00  0.00    -0.194 NA
ATOM      7  C   UNL A   1      33.274  25.077  22.940  1.00  0.00     0.104 C 
ATOM      8  C   UNL A   1      34.091  24.798  25.200  1.00  0.00     0.084 C 
ATOM      9  C   UNL A   1      33.774  26.433  23.424  1.00  0.00     0.034 C 
ATOM     10  C   UNL A   1      35.544  24.323  25.087  1.00  0.00     0.027 C 
BRANCH   6  11
ATOM     11  S   UNL A   1      32.043  23.151  24.443  1.00  0.00     0.246 S 
ATOM     12  O   UNL A   1      32.604  22.049  25.190  1.00  0.00    -0.207 OA
ATOM     13  O   UNL A   1      31.304  22.934  23.215  1.00  0.00    -0.207 OA
BRANCH  11  14
ATOM     14  C   UNL A   1      30.850  23.790  25.514  1.00  0.00     0.123 A 
ATOM     15  C   UNL A   1      29.733  25.994  24.520  1.00  0.00     0.067 C 
ATOM     16  C   UNL A   1      29.993  24.881  25.454  1.00  0.00     0.052 A 
ATOM     17  N   UNL A   1      29.213  24.778  26.582  1.00  0.00    -0.281 N 
ATOM     18  N   UNL A   1      29.513  23.737  27.366  1.00  0.00    -0.183 NA
ATOM     19  H   UNL A   1      28.495  25.417  26.795  1.00  0.00     0.190 HD
ATOM     20  C   UNL A   1      30.486  23.115  26.698  1.00  0.00     0.157 A 
ENDBRANCH  11  14
ENDBRANCH   6  11
ENDBRANCH   3   5
ENDBRANCH   2   3
ENDBRANCH   1   2
BRANCH   1  21
ATOM     21  C   UNL A   1      31.804  30.337  26.001  1.00  0.00     0.275 C 
BRANCH  21  22
ATOM     22  O   UNL A   1      33.219  30.445  26.251  1.00  0.00    -0.458 OA
BRANCH  22  23
ATOM     23  C   UNL A   1      33.563  31.421  27.119  1.00  0.00     0.338 C 
ATOM     24  O   UNL A   1      32.855  32.299  27.582  1.00  0.00    -0.246 OA
BRANCH  23  25
ATOM     25  C   UNL A   1      34.912  31.166  27.627  1.00  0.00     0.060 A 
ATOM     26  C   UNL A   1      35.222  29.848  27.952  1.00  0.00     0.016 A 
ATOM     27  C   UNL A   1      35.798  32.195  27.926  1.00  0.00     0.016 A 
ATOM     28  C   UNL A   1      36.351  29.549  28.688  1.00  0.00     0.010 A 
ATOM     29  C   UNL A   1      36.992  31.883  28.583  1.00  0.00     0.010 A 
ATOM     30  C   UNL A   1      37.255  30.564  28.999  1.00  0.00    -0.014 A 
BRANCH  30  31
ATOM     31  C   UNL A   1      38.443  30.229  29.811  1.00  0.00     0.031 A 
ATOM     32  C   UNL A   1      39.499  29.337  29.234  1.00  0.00     0.074 A 
ATOM     33  C   UNL A   1      38.587  30.772  31.034  1.00  0.00     0.049 A 
ATOM     34  N   UNL A   1      40.528  28.787  29.820  1.00  0.00    -0.248 NA
ATOM     35  C   UNL A   1      39.374  29.017  27.803  1.00  0.00     0.031 C 
ATOM     36  C   UNL A   1      37.660  31.724  31.651  1.00  0.00     0.029 A 
ATOM     37  N   UNL A   1      39.567  30.604  31.976  1.00  0.00    -0.354 N 
ATOM     38  C   UNL A   1      41.147  28.018  28.844  1.00  0.00     0.074 A 
ATOM     39  C   UNL A   1      40.374  28.166  27.630  1.00  0.00     0.031 C 
ATOM     40  C   UNL A   1      38.118  32.059  32.865  1.00  0.00     0.029 A 
ATOM     41  C   UNL A   1      39.319  31.281  33.144  1.00  0.00     0.049 A 
ATOM     42  H   UNL A   1      40.370  30.053  31.830  1.00  0.00     0.167 HD
ATOM     43  C   UNL A   1      42.261  27.257  28.963  1.00  0.00     0.037 A 
ATOM     44  C   UNL A   1      39.958  31.233  34.326  1.00  0.00     0.037 A 
ATOM     45  C   UNL A   1      43.022  27.148  30.180  1.00  0.00     0.049 A 
ATOM     46  C   UNL A   1      41.153  30.332  34.455  1.00  0.00     0.074 A 
ATOM     47  C   UNL A   1      44.153  26.394  30.430  1.00  0.00     0.029 A 
ATOM     48  N   UNL A   1      42.724  27.827  31.355  1.00  0.00    -0.354 N 
ATOM     49  N   UNL A   1      41.700  29.553  33.552  1.00  0.00    -0.248 NA
ATOM     50  C   UNL A   1      41.812  30.292  35.765  1.00  0.00     0.031 C 
ATOM     51  C   UNL A   1      44.515  26.586  31.769  1.00  0.00     0.029 A 
ATOM     52  C   UNL A   1      43.642  27.499  32.339  1.00  0.00     0.049 A 
ATOM     53  H   UNL A   1      41.971  28.450  31.471  1.00  0.00     0.167 HD
ATOM     54  C   UNL A   1      42.773  28.939  34.177  1.00  0.00     0.074 A 
ATOM     55  C   UNL A   1      42.811  29.453  35.533  1.00  0.00     0.031 C 
ATOM     56  C   UNL A   1      43.648  28.030  33.680  1.00  0.00     0.037 A 
BRANCH  43  57
ATOM     57  C   UNL A   1      42.676  26.454  27.765  1.00  0.00     0.064 A 
ATOM     58  C   UNL A   1      42.172  25.168  27.518  1.00  0.00     0.173 A 
ATOM     59  C   UNL A   1      43.609  26.976  26.855  1.00  0.00     0.173 A 
ATOM     60  F   UNL A   1      41.295  24.614  28.367  1.00  0.00    -0.203 F 
ATOM     61  C   UNL A   1      42.614  24.421  26.428  1.00  0.00     0.198 A 
ATOM     62  C   UNL A   1      44.026  26.239  25.750  1.00  0.00     0.198 A 
ATOM     63  F   UNL A   1      44.124  28.200  27.042  1.00  0.00    -0.203 F 
ATOM     64  F   UNL A   1      42.166  23.170  26.249  1.00  0.00    -0.200 F 
ATOM     65  C   UNL A   1      43.536  24.959  25.543  1.00  0.00     0.200 A 
ATOM     66  F   UNL A   1      44.911  26.764  24.891  1.00  0.00    -0.200 F 
ATOM     67  F   UNL A   1      43.964  24.236  24.498  1.00  0.00    -0.200 F 
ENDBRANCH  43  57
BRANCH  44  68
ATOM     68  C   UNL A   1      39.439  32.018  35.476  1.00  0.00     0.064 A 
ATOM     69  C   UNL A   1      38.538  31.458  36.390  1.00  0.00     0.173 A 
ATOM     70  C   UNL A   1      39.864  33.337  35.703  1.00  0.00     0.173 A 
ATOM     71  F   UNL A   1      38.090  30.208  36.206  1.00  0.00    -0.203 F 
ATOM     72  C   UNL A   1      38.078  32.189  37.484  1.00  0.00     0.198 A 
ATOM     73  C   UNL A   1      39.425  34.055  36.813  1.00  0.00     0.198 A 
ATOM     74  F   UNL A   1      40.730  33.919  34.860  1.00  0.00    -0.203 F 
ATOM     75  F   UNL A   1      37.192  31.639  38.327  1.00  0.00    -0.200 F 
ATOM     76  C   UNL A   1      38.529  33.483  37.700  1.00  0.00     0.200 A 
ATOM     77  F   UNL A   1      39.880  35.297  37.027  1.00  0.00    -0.200 F 
ATOM     78  F   UNL A   1      38.097  34.177  38.761  1.00  0.00    -0.200 F 
ENDBRANCH  44  68
BRANCH  56  79
ATOM     79  C   UNL A   1      44.731  27.559  34.604  1.00  0.00     0.064 A 
ATOM     80  C   UNL A   1      44.574  26.415  35.397  1.00  0.00     0.173 A 
ATOM     81  C   UNL A   1      45.953  28.245  34.667  1.00  0.00     0.173 A 
ATOM     82  F   UNL A   1      43.416  25.737  35.383  1.00  0.00    -0.203 F 
ATOM     83  C   UNL A   1      45.595  25.986  36.240  1.00  0.00     0.198 A 
ATOM     84  C   UNL A   1      46.982  27.797  35.489  1.00  0.00     0.198 A 
ATOM     85  F   UNL A   1      46.151  29.344  33.923  1.00  0.00    -0.203 F 
ATOM     86  F   UNL A   1      45.408  24.916  37.026  1.00  0.00    -0.200 F 
ATOM     87  C   UNL A   1      46.799  26.672  36.279  1.00  0.00     0.200 A 
ATOM     88  F   UNL A   1      48.149  28.454  35.517  1.00  0.00    -0.200 F 
ATOM     89  F   UNL A   1      47.783  26.254  37.088  1.00  0.00    -0.200 F 
ENDBRANCH  56  79
ENDBRANCH  30  31
ENDBRANCH  23  25
ENDBRANCH  22  23
ENDBRANCH  21  22
ENDBRANCH   1  21
TORSDOF 13
ENDMDL
