MODEL 1
REMARK VINA RESULT:     -12.7      0.000      0.000
REMARK SMILES Cc1ccc(C)c(-n2nc(C)c(/C=C(/C#N)C(=O)OCCOC(=O)c3ccc(-c4c5nc(c(-c6c(F)c(F)c(F)c(F)c6F)c6ccc([nH]6)c(-c6c(F)c(F)c(F)c(F)c6F)c6nc(c(-c7c(F)c(F)c(F)c(F)c7F)c7ccc4[nH]7)C=C6)C=C5)cc3)c2Cl)c1
REMARK SMILES IDX 20 1 19 2 17 3 18 4 14 5 13 6 12 7 8 8 9 9 88 10 10 11 89 12
REMARK SMILES IDX 11 13 7 14 1 15 2 16 3 17 90 18 4 19 5 20 6 21 15 22 16 23
REMARK SMILES IDX 21 24 22 25 23 26 24 27 25 28 26 29 87 30 27 31 86 32 28 33
REMARK SMILES IDX 29 34 30 35 80 36 31 37 85 38 79 39 81 40 32 41 84 42 78 43
REMARK SMILES IDX 77 44 33 46 65 47 45 48 64 49 46 50 49 51 63 52 82 53 47 54
REMARK SMILES IDX 48 55 62 57 83 58 50 59 34 60 35 61 43 62 36 63 37 64 41 65
REMARK SMILES IDX 44 66 38 67 39 68 42 69 40 70 66 71 67 72 75 73 68 74 69 75
REMARK SMILES IDX 73 76 76 77 70 78 71 79 74 80 72 81 51 82 52 83 60 84 53 85
REMARK SMILES IDX 54 86 58 87 61 88 55 89 56 90 59 91 57 92
REMARK H PARENT 81 45 49 56
REMARK Flexibility Score: inf
ROOT
ATOM      1  C   UNL A   1      36.859  22.070  25.371  1.00  0.00     0.275 C 
ENDROOT
BRANCH   1   2
ATOM      2  O   UNL A   1      35.854  21.035  25.466  1.00  0.00    -0.458 OA
BRANCH   2   3
ATOM      3  C   UNL A   1      34.761  21.356  26.210  1.00  0.00     0.349 C 
ATOM      4  O   UNL A   1      34.783  21.548  27.421  1.00  0.00    -0.245 OA
BRANCH   3   5
ATOM      5  C   UNL A   1      33.498  20.955  25.562  1.00  0.00     0.138 C 
ATOM      6  C   UNL A   1      32.241  21.464  25.541  1.00  0.00     0.040 C 
BRANCH   6   7
ATOM      7  C   UNL A   1      31.469  22.676  25.970  1.00  0.00     0.037 A 
ATOM      8  N   UNL A   1      31.176  24.937  26.084  1.00  0.00    -0.221 N 
ATOM      9  N   UNL A   1      30.280  24.430  26.911  1.00  0.00    -0.171 NA
ATOM     10  C   UNL A   1      31.893  23.929  25.483  1.00  0.00     0.140 A 
ATOM     11  C   UNL A   1      30.287  23.111  26.730  1.00  0.00     0.069 A 
ATOM     12  Cl  UNL A   1      33.166  24.368  24.420  1.00  0.00    -0.061 Cl
ATOM     13  C   UNL A   1      29.018  22.620  27.343  1.00  0.00     0.069 C 
BRANCH   8  14
ATOM     14  C   UNL A   1      31.064  26.333  25.879  1.00  0.00     0.069 A 
ATOM     15  C   UNL A   1      32.816  29.455  27.195  1.00  0.00     0.044 C 
ATOM     16  C   UNL A   1      31.954  28.539  26.375  1.00  0.00    -0.049 A 
ATOM     17  C   UNL A   1      31.350  29.030  25.212  1.00  0.00     0.004 A 
ATOM     18  C   UNL A   1      31.782  27.192  26.728  1.00  0.00     0.032 A 
ATOM     19  C   UNL A   1      30.636  28.180  24.370  1.00  0.00     0.006 A 
ATOM     20  C   UNL A   1      30.510  26.816  24.668  1.00  0.00    -0.025 A 
ATOM     21  C   UNL A   1      29.801  25.954  23.652  1.00  0.00     0.047 C 
ENDBRANCH   8  14
ENDBRANCH   6   7
BRANCH   5  22
ATOM     22  C   UNL A   1      34.033  19.671  24.946  1.00  0.00     0.107 C 
ATOM     23  N   UNL A   1      34.477  18.607  24.435  1.00  0.00    -0.192 NA
ENDBRANCH   5  22
ENDBRANCH   3   5
ENDBRANCH   2   3
ENDBRANCH   1   2
BRANCH   1  24
ATOM     24  C   UNL A   1      38.242  21.536  25.778  1.00  0.00     0.275 C 
BRANCH  24  25
ATOM     25  O   UNL A   1      39.321  22.487  25.855  1.00  0.00    -0.458 OA
BRANCH  25  26
ATOM     26  C   UNL A   1      40.015  22.511  27.020  1.00  0.00     0.338 C 
ATOM     27  O   UNL A   1      40.244  21.530  27.683  1.00  0.00    -0.246 OA
BRANCH  26  28
ATOM     28  C   UNL A   1      40.660  23.862  27.158  1.00  0.00     0.060 A 
ATOM     29  C   UNL A   1      40.078  25.015  26.588  1.00  0.00     0.016 A 
ATOM     30  C   UNL A   1      41.644  24.007  28.124  1.00  0.00     0.016 A 
ATOM     31  C   UNL A   1      40.414  26.287  27.007  1.00  0.00     0.010 A 
ATOM     32  C   UNL A   1      41.845  25.249  28.669  1.00  0.00     0.010 A 
ATOM     33  C   UNL A   1      41.252  26.382  28.100  1.00  0.00    -0.014 A 
BRANCH  33  34
ATOM     34  C   UNL A   1      41.458  27.674  28.721  1.00  0.00     0.031 A 
ATOM     35  C   UNL A   1      42.650  28.458  28.279  1.00  0.00     0.074 A 
ATOM     36  C   UNL A   1      40.474  28.159  29.498  1.00  0.00     0.049 A 
ATOM     37  N   UNL A   1      43.603  28.913  29.027  1.00  0.00    -0.248 NA
ATOM     38  C   UNL A   1      42.861  28.721  26.847  1.00  0.00     0.031 C 
ATOM     39  C   UNL A   1      39.167  27.538  29.759  1.00  0.00     0.029 A 
ATOM     40  N   UNL A   1      40.362  29.369  30.100  1.00  0.00    -0.354 N 
ATOM     41  C   UNL A   1      44.416  29.694  28.203  1.00  0.00     0.074 A 
ATOM     42  C   UNL A   1      43.997  29.425  26.856  1.00  0.00     0.031 C 
ATOM     43  C   UNL A   1      38.308  28.473  30.204  1.00  0.00     0.029 A 
ATOM     44  C   UNL A   1      39.061  29.684  30.459  1.00  0.00     0.049 A 
ATOM     45  H   UNL A   1      41.128  29.964  30.264  1.00  0.00     0.167 HD
ATOM     46  C   UNL A   1      45.165  30.700  28.743  1.00  0.00     0.037 A 
ATOM     47  C   UNL A   1      38.616  30.866  30.930  1.00  0.00     0.037 A 
ATOM     48  C   UNL A   1      45.289  30.512  30.168  1.00  0.00     0.049 A 
ATOM     49  C   UNL A   1      39.785  31.560  31.513  1.00  0.00     0.074 A 
ATOM     50  C   UNL A   1      45.919  29.626  31.012  1.00  0.00     0.029 A 
ATOM     51  N   UNL A   1      44.324  31.150  30.899  1.00  0.00    -0.354 N 
ATOM     52  N   UNL A   1      40.432  31.121  32.558  1.00  0.00    -0.248 NA
ATOM     53  C   UNL A   1      40.490  32.553  30.715  1.00  0.00     0.031 C 
ATOM     54  C   UNL A   1      45.101  29.563  32.183  1.00  0.00     0.029 A 
ATOM     55  C   UNL A   1      44.037  30.453  32.037  1.00  0.00     0.049 A 
ATOM     56  H   UNL A   1      43.895  31.997  30.638  1.00  0.00     0.167 HD
ATOM     57  C   UNL A   1      41.755  31.427  32.297  1.00  0.00     0.074 A 
ATOM     58  C   UNL A   1      41.702  32.466  31.273  1.00  0.00     0.031 C 
ATOM     59  C   UNL A   1      42.755  30.587  32.699  1.00  0.00     0.037 A 
BRANCH  46  60
ATOM     60  C   UNL A   1      45.305  32.099  28.149  1.00  0.00     0.064 A 
ATOM     61  C   UNL A   1      44.126  32.834  27.875  1.00  0.00     0.173 A 
ATOM     62  C   UNL A   1      46.468  32.575  27.505  1.00  0.00     0.173 A 
ATOM     63  F   UNL A   1      42.956  32.484  28.429  1.00  0.00    -0.203 F 
ATOM     64  C   UNL A   1      44.095  33.871  26.934  1.00  0.00     0.198 A 
ATOM     65  C   UNL A   1      46.439  33.637  26.600  1.00  0.00     0.198 A 
ATOM     66  F   UNL A   1      47.652  31.970  27.628  1.00  0.00    -0.203 F 
ATOM     67  F   UNL A   1      42.925  34.430  26.597  1.00  0.00    -0.200 F 
ATOM     68  C   UNL A   1      45.249  34.259  26.285  1.00  0.00     0.200 A 
ATOM     69  F   UNL A   1      47.566  33.990  25.965  1.00  0.00    -0.200 F 
ATOM     70  F   UNL A   1      45.211  35.193  25.325  1.00  0.00    -0.200 F 
ENDBRANCH  46  60
BRANCH  47  71
ATOM     71  C   UNL A   1      37.305  31.497  30.684  1.00  0.00     0.064 A 
ATOM     72  C   UNL A   1      36.372  31.635  31.718  1.00  0.00     0.173 A 
ATOM     73  C   UNL A   1      37.045  32.209  29.495  1.00  0.00     0.173 A 
ATOM     74  F   UNL A   1      36.567  31.011  32.889  1.00  0.00    -0.203 F 
ATOM     75  C   UNL A   1      35.260  32.472  31.589  1.00  0.00     0.198 A 
ATOM     76  C   UNL A   1      35.931  33.037  29.364  1.00  0.00     0.198 A 
ATOM     77  F   UNL A   1      37.913  32.189  28.473  1.00  0.00    -0.203 F 
ATOM     78  F   UNL A   1      34.425  32.635  32.624  1.00  0.00    -0.200 F 
ATOM     79  C   UNL A   1      35.049  33.182  30.418  1.00  0.00     0.200 A 
ATOM     80  F   UNL A   1      35.755  33.742  28.237  1.00  0.00    -0.200 F 
ATOM     81  F   UNL A   1      34.021  34.036  30.320  1.00  0.00    -0.200 F 
ENDBRANCH  47  71
BRANCH  59  82
ATOM     82  C   UNL A   1      42.441  29.618  33.802  1.00  0.00     0.064 A 
ATOM     83  C   UNL A   1      41.950  28.316  33.612  1.00  0.00     0.173 A 
ATOM     84  C   UNL A   1      42.731  30.009  35.116  1.00  0.00     0.173 A 
ATOM     85  F   UNL A   1      41.739  27.827  32.386  1.00  0.00    -0.203 F 
ATOM     86  C   UNL A   1      41.704  27.470  34.692  1.00  0.00     0.198 A 
ATOM     87  C   UNL A   1      42.523  29.150  36.189  1.00  0.00     0.198 A 
ATOM     88  F   UNL A   1      43.254  31.222  35.356  1.00  0.00    -0.203 F 
ATOM     89  F   UNL A   1      41.206  26.242  34.485  1.00  0.00    -0.200 F 
ATOM     90  C   UNL A   1      41.995  27.888  35.980  1.00  0.00     0.200 A 
ATOM     91  F   UNL A   1      42.853  29.542  37.428  1.00  0.00    -0.200 F 
ATOM     92  F   UNL A   1      41.784  27.065  37.017  1.00  0.00    -0.200 F 
ENDBRANCH  59  82
ENDBRANCH  33  34
ENDBRANCH  26  28
ENDBRANCH  25  26
ENDBRANCH  24  25
ENDBRANCH   1  24
TORSDOF 14
ENDMDL
MODEL 2
REMARK VINA RESULT:     -12.6      1.357      2.121
REMARK SMILES Cc1ccc(C)c(-n2nc(C)c(/C=C(/C#N)C(=O)OCCOC(=O)c3ccc(-c4c5nc(c(-c6c(F)c(F)c(F)c(F)c6F)c6ccc([nH]6)c(-c6c(F)c(F)c(F)c(F)c6F)c6nc(c(-c7c(F)c(F)c(F)c(F)c7F)c7ccc4[nH]7)C=C6)C=C5)cc3)c2Cl)c1
REMARK SMILES IDX 20 1 19 2 17 3 18 4 14 5 13 6 12 7 8 8 9 9 88 10 10 11 89 12
REMARK SMILES IDX 11 13 7 14 1 15 2 16 3 17 90 18 4 19 5 20 6 21 15 22 16 23
REMARK SMILES IDX 21 24 22 25 23 26 24 27 25 28 26 29 87 30 27 31 86 32 28 33
REMARK SMILES IDX 29 34 30 35 80 36 31 37 85 38 79 39 81 40 32 41 84 42 78 43
REMARK SMILES IDX 77 44 33 46 65 47 45 48 64 49 46 50 49 51 63 52 82 53 47 54
REMARK SMILES IDX 48 55 62 57 83 58 50 59 34 60 35 61 43 62 36 63 37 64 41 65
REMARK SMILES IDX 44 66 38 67 39 68 42 69 40 70 66 71 67 72 75 73 68 74 69 75
REMARK SMILES IDX 73 76 76 77 70 78 71 79 74 80 72 81 51 82 52 83 60 84 53 85
REMARK SMILES IDX 54 86 58 87 61 88 55 89 56 90 59 91 57 92
REMARK H PARENT 81 45 49 56
REMARK Flexibility Score: inf
ROOT
ATOM      1  C   UNL A   1      36.694  20.936  24.615  1.00  0.00     0.275 C 
ENDROOT
BRANCH   1   2
ATOM      2  O   UNL A   1      35.582  20.729  25.516  1.00  0.00    -0.458 OA
BRANCH   2   3
ATOM      3  C   UNL A   1      34.704  19.760  25.136  1.00  0.00     0.349 C 
ATOM      4  O   UNL A   1      35.019  18.746  24.524  1.00  0.00    -0.245 OA
BRANCH   3   5
ATOM      5  C   UNL A   1      33.317  20.255  25.057  1.00  0.00     0.138 C 
ATOM      6  C   UNL A   1      32.754  21.487  24.968  1.00  0.00     0.040 C 
BRANCH   6   7
ATOM      7  C   UNL A   1      33.127  22.923  24.759  1.00  0.00     0.037 A 
ATOM      8  N   UNL A   1      32.843  25.153  25.158  1.00  0.00    -0.221 N 
ATOM      9  N   UNL A   1      33.682  25.088  24.140  1.00  0.00    -0.171 NA
ATOM     10  C   UNL A   1      32.503  23.888  25.575  1.00  0.00     0.140 A 
ATOM     11  C   UNL A   1      34.024  23.809  24.000  1.00  0.00     0.069 A 
ATOM     12  Cl  UNL A   1      31.360  23.738  26.846  1.00  0.00    -0.061 Cl
ATOM     13  C   UNL A   1      35.252  23.817  23.152  1.00  0.00     0.069 C 
BRANCH   8  14
ATOM     14  C   UNL A   1      32.649  26.455  25.678  1.00  0.00     0.069 A 
ATOM     15  C   UNL A   1      34.873  29.208  27.099  1.00  0.00     0.044 C 
ATOM     16  C   UNL A   1      33.687  28.474  26.546  1.00  0.00    -0.049 A 
ATOM     17  C   UNL A   1      32.528  29.191  26.224  1.00  0.00     0.004 A 
ATOM     18  C   UNL A   1      33.734  27.093  26.304  1.00  0.00     0.032 A 
ATOM     19  C   UNL A   1      31.451  28.560  25.606  1.00  0.00     0.006 A 
ATOM     20  C   UNL A   1      31.504  27.195  25.292  1.00  0.00    -0.025 A 
ATOM     21  C   UNL A   1      30.330  26.618  24.540  1.00  0.00     0.047 C 
ENDBRANCH   8  14
ENDBRANCH   6   7
BRANCH   5  22
ATOM     22  C   UNL A   1      32.651  18.894  25.196  1.00  0.00     0.107 C 
ATOM     23  N   UNL A   1      32.099  17.767  25.312  1.00  0.00    -0.192 NA
ENDBRANCH   5  22
ENDBRANCH   3   5
ENDBRANCH   2   3
ENDBRANCH   1   2
BRANCH   1  24
ATOM     24  C   UNL A   1      38.035  20.817  25.357  1.00  0.00     0.275 C 
BRANCH  24  25
ATOM     25  O   UNL A   1      38.672  22.042  25.771  1.00  0.00    -0.458 OA
BRANCH  25  26
ATOM     26  C   UNL A   1      39.891  21.915  26.351  1.00  0.00     0.338 C 
ATOM     27  O   UNL A   1      40.739  21.149  25.967  1.00  0.00    -0.246 OA
BRANCH  26  28
ATOM     28  C   UNL A   1      40.076  23.055  27.315  1.00  0.00     0.060 A 
ATOM     29  C   UNL A   1      41.271  23.206  28.051  1.00  0.00     0.016 A 
ATOM     30  C   UNL A   1      39.199  24.123  27.221  1.00  0.00     0.016 A 
ATOM     31  C   UNL A   1      41.625  24.409  28.631  1.00  0.00     0.010 A 
ATOM     32  C   UNL A   1      39.629  25.359  27.632  1.00  0.00     0.010 A 
ATOM     33  C   UNL A   1      40.821  25.496  28.351  1.00  0.00    -0.014 A 
BRANCH  33  34
ATOM     34  C   UNL A   1      41.263  26.818  28.741  1.00  0.00     0.031 A 
ATOM     35  C   UNL A   1      42.502  27.340  28.092  1.00  0.00     0.074 A 
ATOM     36  C   UNL A   1      40.435  27.555  29.503  1.00  0.00     0.049 A 
ATOM     37  N   UNL A   1      43.577  27.751  28.684  1.00  0.00    -0.248 NA
ATOM     38  C   UNL A   1      42.607  27.355  26.624  1.00  0.00     0.031 C 
ATOM     39  C   UNL A   1      39.086  27.184  29.957  1.00  0.00     0.029 A 
ATOM     40  N   UNL A   1      40.549  28.843  29.911  1.00  0.00    -0.354 N 
ATOM     41  C   UNL A   1      44.406  28.271  27.688  1.00  0.00     0.074 A 
ATOM     42  C   UNL A   1      43.824  27.873  26.436  1.00  0.00     0.031 C 
ATOM     43  C   UNL A   1      38.412  28.292  30.310  1.00  0.00     0.029 A 
ATOM     44  C   UNL A   1      39.345  29.400  30.312  1.00  0.00     0.049 A 
ATOM     45  H   UNL A   1      41.403  29.333  29.920  1.00  0.00     0.167 HD
ATOM     46  C   UNL A   1      45.335  29.220  28.003  1.00  0.00     0.037 A 
ATOM     47  C   UNL A   1      39.115  30.692  30.620  1.00  0.00     0.037 A 
ATOM     48  C   UNL A   1      45.569  29.227  29.426  1.00  0.00     0.049 A 
ATOM     49  C   UNL A   1      40.419  31.280  30.996  1.00  0.00     0.074 A 
ATOM     50  C   UNL A   1      46.151  28.390  30.351  1.00  0.00     0.029 A 
ATOM     51  N   UNL A   1      44.777  30.104  30.116  1.00  0.00    -0.354 N 
ATOM     52  N   UNL A   1      41.099  30.906  32.046  1.00  0.00    -0.248 NA
ATOM     53  C   UNL A   1      41.174  32.027  29.999  1.00  0.00     0.031 C 
ATOM     54  C   UNL A   1      45.450  28.623  31.575  1.00  0.00     0.029 A 
ATOM     55  C   UNL A   1      44.509  29.633  31.369  1.00  0.00     0.049 A 
ATOM     56  H   UNL A   1      44.445  30.958  29.757  1.00  0.00     0.167 HD
ATOM     57  C   UNL A   1      42.419  30.967  31.641  1.00  0.00     0.074 A 
ATOM     58  C   UNL A   1      42.410  31.841  30.472  1.00  0.00     0.031 C 
ATOM     59  C   UNL A   1      43.329  30.054  32.096  1.00  0.00     0.037 A 
BRANCH  46  60
ATOM     60  C   UNL A   1      45.607  30.480  27.185  1.00  0.00     0.064 A 
ATOM     61  C   UNL A   1      46.953  30.868  26.977  1.00  0.00     0.173 A 
ATOM     62  C   UNL A   1      44.651  31.488  26.939  1.00  0.00     0.173 A 
ATOM     63  F   UNL A   1      47.955  29.999  27.175  1.00  0.00    -0.203 F 
ATOM     64  C   UNL A   1      47.311  32.189  26.679  1.00  0.00     0.198 A 
ATOM     65  C   UNL A   1      45.012  32.794  26.599  1.00  0.00     0.198 A 
ATOM     66  F   UNL A   1      43.343  31.295  27.125  1.00  0.00    -0.203 F 
ATOM     67  F   UNL A   1      48.605  32.538  26.646  1.00  0.00    -0.200 F 
ATOM     68  C   UNL A   1      46.340  33.154  26.508  1.00  0.00     0.200 A 
ATOM     69  F   UNL A   1      44.056  33.723  26.454  1.00  0.00    -0.200 F 
ATOM     70  F   UNL A   1      46.678  34.434  26.305  1.00  0.00    -0.200 F 
ENDBRANCH  46  60
BRANCH  47  71
ATOM     71  C   UNL A   1      37.886  31.471  30.376  1.00  0.00     0.064 A 
ATOM     72  C   UNL A   1      37.330  32.267  31.384  1.00  0.00     0.173 A 
ATOM     73  C   UNL A   1      37.379  31.652  29.072  1.00  0.00     0.173 A 
ATOM     74  F   UNL A   1      37.782  32.171  32.643  1.00  0.00    -0.203 F 
ATOM     75  C   UNL A   1      36.351  33.223  31.101  1.00  0.00     0.198 A 
ATOM     76  C   UNL A   1      36.396  32.600  28.792  1.00  0.00     0.198 A 
ATOM     77  F   UNL A   1      37.892  30.981  28.031  1.00  0.00    -0.203 F 
ATOM     78  F   UNL A   1      35.893  34.017  32.079  1.00  0.00    -0.200 F 
ATOM     79  C   UNL A   1      35.895  33.398  29.804  1.00  0.00     0.200 A 
ATOM     80  F   UNL A   1      35.986  32.781  27.528  1.00  0.00    -0.200 F 
ATOM     81  F   UNL A   1      35.007  34.361  29.522  1.00  0.00    -0.200 F 
ENDBRANCH  47  71
BRANCH  59  82
ATOM     82  C   UNL A   1      42.994  29.317  33.359  1.00  0.00     0.064 A 
ATOM     83  C   UNL A   1      42.366  28.061  33.415  1.00  0.00     0.173 A 
ATOM     84  C   UNL A   1      43.404  29.882  34.574  1.00  0.00     0.173 A 
ATOM     85  F   UNL A   1      42.030  27.405  32.300  1.00  0.00    -0.203 F 
ATOM     86  C   UNL A   1      42.109  27.433  34.632  1.00  0.00     0.198 A 
ATOM     87  C   UNL A   1      43.183  29.235  35.785  1.00  0.00     0.198 A 
ATOM     88  F   UNL A   1      44.057  31.054  34.581  1.00  0.00    -0.203 F 
ATOM     89  F   UNL A   1      41.481  26.248  34.657  1.00  0.00    -0.200 F 
ATOM     90  C   UNL A   1      42.521  28.020  35.815  1.00  0.00     0.200 A 
ATOM     91  F   UNL A   1      43.629  29.785  36.923  1.00  0.00    -0.200 F 
ATOM     92  F   UNL A   1      42.299  27.404  36.985  1.00  0.00    -0.200 F 
ENDBRANCH  59  82
ENDBRANCH  33  34
ENDBRANCH  26  28
ENDBRANCH  25  26
ENDBRANCH  24  25
ENDBRANCH   1  24
TORSDOF 14
ENDMDL
MODEL 3
REMARK VINA RESULT:     -12.4      5.404     10.915
REMARK SMILES Cc1ccc(C)c(-n2nc(C)c(/C=C(/C#N)C(=O)OCCOC(=O)c3ccc(-c4c5nc(c(-c6c(F)c(F)c(F)c(F)c6F)c6ccc([nH]6)c(-c6c(F)c(F)c(F)c(F)c6F)c6nc(c(-c7c(F)c(F)c(F)c(F)c7F)c7ccc4[nH]7)C=C6)C=C5)cc3)c2Cl)c1
REMARK SMILES IDX 20 1 19 2 17 3 18 4 14 5 13 6 12 7 8 8 9 9 88 10 10 11 89 12
REMARK SMILES IDX 11 13 7 14 1 15 2 16 3 17 90 18 4 19 5 20 6 21 15 22 16 23
REMARK SMILES IDX 21 24 22 25 23 26 24 27 25 28 26 29 87 30 27 31 86 32 28 33
REMARK SMILES IDX 29 34 30 35 80 36 31 37 85 38 79 39 81 40 32 41 84 42 78 43
REMARK SMILES IDX 77 44 33 46 65 47 45 48 64 49 46 50 49 51 63 52 82 53 47 54
REMARK SMILES IDX 48 55 62 57 83 58 50 59 34 60 35 61 43 62 36 63 37 64 41 65
REMARK SMILES IDX 44 66 38 67 39 68 42 69 40 70 66 71 67 72 75 73 68 74 69 75
REMARK SMILES IDX 73 76 76 77 70 78 71 79 74 80 72 81 51 82 52 83 60 84 53 85
REMARK SMILES IDX 54 86 58 87 61 88 55 89 56 90 59 91 57 92
REMARK H PARENT 81 45 49 56
REMARK Flexibility Score: inf
ROOT
ATOM      1  C   UNL A   1      34.863  34.645  29.476  1.00  0.00     0.275 C 
ENDROOT
BRANCH   1   2
ATOM      2  O   UNL A   1      33.875  34.253  30.457  1.00  0.00    -0.458 OA
BRANCH   2   3
ATOM      3  C   UNL A   1      34.360  33.548  31.516  1.00  0.00     0.349 C 
ATOM      4  O   UNL A   1      34.402  32.323  31.568  1.00  0.00    -0.245 OA
BRANCH   3   5
ATOM      5  C   UNL A   1      34.346  34.328  32.768  1.00  0.00     0.138 C 
ATOM      6  C   UNL A   1      35.212  34.475  33.801  1.00  0.00     0.040 C 
BRANCH   6   7
ATOM      7  C   UNL A   1      36.611  34.119  34.207  1.00  0.00     0.037 A 
ATOM      8  N   UNL A   1      38.824  33.811  33.738  1.00  0.00    -0.221 N 
ATOM      9  N   UNL A   1      38.655  33.315  34.950  1.00  0.00    -0.171 NA
ATOM     10  C   UNL A   1      37.639  34.322  33.264  1.00  0.00     0.140 A 
ATOM     11  C   UNL A   1      37.425  33.647  35.338  1.00  0.00     0.069 A 
ATOM     12  Cl  UNL A   1      37.613  34.955  31.669  1.00  0.00    -0.061 Cl
ATOM     13  C   UNL A   1      37.408  33.451  36.817  1.00  0.00     0.069 C 
BRANCH   8  14
ATOM     14  C   UNL A   1      40.171  33.868  33.308  1.00  0.00     0.069 A 
ATOM     15  C   UNL A   1      42.103  32.851  30.180  1.00  0.00     0.044 C 
ATOM     16  C   UNL A   1      41.747  33.468  31.502  1.00  0.00    -0.049 A 
ATOM     17  C   UNL A   1      42.634  34.375  32.093  1.00  0.00     0.004 A 
ATOM     18  C   UNL A   1      40.525  33.187  32.131  1.00  0.00     0.032 A 
ATOM     19  C   UNL A   1      42.286  35.049  33.262  1.00  0.00     0.006 A 
ATOM     20  C   UNL A   1      41.041  34.835  33.869  1.00  0.00    -0.025 A 
ATOM     21  C   UNL A   1      40.712  35.678  35.077  1.00  0.00     0.047 C 
ENDBRANCH   8  14
ENDBRANCH   6   7
BRANCH   5  22
ATOM     22  C   UNL A   1      32.946  34.896  32.589  1.00  0.00     0.107 C 
ATOM     23  N   UNL A   1      31.786  35.367  32.441  1.00  0.00    -0.192 NA
ENDBRANCH   5  22
ENDBRANCH   3   5
ENDBRANCH   2   3
ENDBRANCH   1   2
BRANCH   1  24
ATOM     24  C   UNL A   1      34.663  33.882  28.157  1.00  0.00     0.275 C 
BRANCH  24  25
ATOM     25  O   UNL A   1      35.642  32.881  27.817  1.00  0.00    -0.458 OA
BRANCH  25  26
ATOM     26  C   UNL A   1      35.334  31.605  28.154  1.00  0.00     0.338 C 
ATOM     27  O   UNL A   1      34.432  30.980  27.655  1.00  0.00    -0.246 OA
BRANCH  26  28
ATOM     28  C   UNL A   1      36.453  31.055  28.996  1.00  0.00     0.060 A 
ATOM     29  C   UNL A   1      36.546  29.677  29.283  1.00  0.00     0.016 A 
ATOM     30  C   UNL A   1      37.557  31.867  29.203  1.00  0.00     0.016 A 
ATOM     31  C   UNL A   1      37.725  29.096  29.707  1.00  0.00     0.010 A 
ATOM     32  C   UNL A   1      38.768  31.271  29.443  1.00  0.00     0.010 A 
ATOM     33  C   UNL A   1      38.848  29.900  29.715  1.00  0.00    -0.014 A 
BRANCH  33  34
ATOM     34  C   UNL A   1      40.146  29.297  29.930  1.00  0.00     0.031 A 
ATOM     35  C   UNL A   1      40.626  29.201  31.341  1.00  0.00     0.074 A 
ATOM     36  C   UNL A   1      40.740  28.698  28.882  1.00  0.00     0.049 A 
ATOM     37  N   UNL A   1      41.728  29.677  31.823  1.00  0.00    -0.248 NA
ATOM     38  C   UNL A   1      39.773  28.568  32.360  1.00  0.00     0.031 C 
ATOM     39  C   UNL A   1      40.190  28.540  27.527  1.00  0.00     0.029 A 
ATOM     40  N   UNL A   1      41.884  27.973  28.833  1.00  0.00    -0.354 N 
ATOM     41  C   UNL A   1      41.813  29.227  33.142  1.00  0.00     0.074 A 
ATOM     42  C   UNL A   1      40.525  28.675  33.459  1.00  0.00     0.031 C 
ATOM     43  C   UNL A   1      40.840  27.548  26.894  1.00  0.00     0.029 A 
ATOM     44  C   UNL A   1      41.973  27.164  27.712  1.00  0.00     0.049 A 
ATOM     45  H   UNL A   1      42.582  28.017  29.526  1.00  0.00     0.167 HD
ATOM     46  C   UNL A   1      43.033  29.102  33.741  1.00  0.00     0.037 A 
ATOM     47  C   UNL A   1      42.908  26.225  27.463  1.00  0.00     0.037 A 
ATOM     48  C   UNL A   1      44.020  29.861  33.011  1.00  0.00     0.049 A 
ATOM     49  C   UNL A   1      44.093  26.580  28.276  1.00  0.00     0.074 A 
ATOM     50  C   UNL A   1      44.298  31.189  32.784  1.00  0.00     0.029 A 
ATOM     51  N   UNL A   1      44.676  29.140  32.050  1.00  0.00    -0.354 N 
ATOM     52  N   UNL A   1      44.794  27.665  28.087  1.00  0.00    -0.248 NA
ATOM     53  C   UNL A   1      44.294  25.923  29.560  1.00  0.00     0.031 C 
ATOM     54  C   UNL A   1      44.902  31.240  31.490  1.00  0.00     0.029 A 
ATOM     55  C   UNL A   1      45.026  29.939  31.000  1.00  0.00     0.049 A 
ATOM     56  H   UNL A   1      44.868  28.176  32.109  1.00  0.00     0.167 HD
ATOM     57  C   UNL A   1      45.158  28.064  29.360  1.00  0.00     0.074 A 
ATOM     58  C   UNL A   1      45.002  26.870  30.184  1.00  0.00     0.031 C 
ATOM     59  C   UNL A   1      45.237  29.391  29.676  1.00  0.00     0.037 A 
BRANCH  46  60
ATOM     60  C   UNL A   1      43.470  27.914  34.593  1.00  0.00     0.064 A 
ATOM     61  C   UNL A   1      43.292  26.610  34.070  1.00  0.00     0.173 A 
ATOM     62  C   UNL A   1      43.683  27.973  35.987  1.00  0.00     0.173 A 
ATOM     63  F   UNL A   1      43.084  26.421  32.758  1.00  0.00    -0.203 F 
ATOM     64  C   UNL A   1      43.202  25.481  34.894  1.00  0.00     0.198 A 
ATOM     65  C   UNL A   1      43.635  26.838  36.799  1.00  0.00     0.198 A 
ATOM     66  F   UNL A   1      43.829  29.128  36.641  1.00  0.00    -0.203 F 
ATOM     67  F   UNL A   1      42.878  24.293  34.364  1.00  0.00    -0.200 F 
ATOM     68  C   UNL A   1      43.357  25.599  36.260  1.00  0.00     0.200 A 
ATOM     69  F   UNL A   1      43.771  26.974  38.127  1.00  0.00    -0.200 F 
ATOM     70  F   UNL A   1      43.191  24.538  37.061  1.00  0.00    -0.200 F 
ENDBRANCH  46  60
BRANCH  47  71
ATOM     71  C   UNL A   1      42.732  24.943  26.756  1.00  0.00     0.064 A 
ATOM     72  C   UNL A   1      43.384  24.699  25.542  1.00  0.00     0.173 A 
ATOM     73  C   UNL A   1      42.128  23.835  27.386  1.00  0.00     0.173 A 
ATOM     74  F   UNL A   1      44.007  25.698  24.900  1.00  0.00    -0.203 F 
ATOM     75  C   UNL A   1      43.466  23.411  25.005  1.00  0.00     0.198 A 
ATOM     76  C   UNL A   1      42.202  22.552  26.845  1.00  0.00     0.198 A 
ATOM     77  F   UNL A   1      41.535  23.958  28.582  1.00  0.00    -0.203 F 
ATOM     78  F   UNL A   1      44.158  23.203  23.876  1.00  0.00    -0.200 F 
ATOM     79  C   UNL A   1      42.887  22.338  25.663  1.00  0.00     0.200 A 
ATOM     80  F   UNL A   1      41.665  21.518  27.508  1.00  0.00    -0.200 F 
ATOM     81  F   UNL A   1      43.024  21.095  25.183  1.00  0.00    -0.200 F 
ENDBRANCH  47  71
BRANCH  59  82
ATOM     82  C   UNL A   1      45.391  30.363  28.542  1.00  0.00     0.064 A 
ATOM     83  C   UNL A   1      44.328  30.918  27.810  1.00  0.00     0.173 A 
ATOM     84  C   UNL A   1      46.683  30.811  28.236  1.00  0.00     0.173 A 
ATOM     85  F   UNL A   1      43.057  30.622  28.101  1.00  0.00    -0.203 F 
ATOM     86  C   UNL A   1      44.556  31.832  26.783  1.00  0.00     0.198 A 
ATOM     87  C   UNL A   1      46.905  31.753  27.238  1.00  0.00     0.198 A 
ATOM     88  F   UNL A   1      47.734  30.357  28.937  1.00  0.00    -0.203 F 
ATOM     89  F   UNL A   1      43.524  32.325  26.081  1.00  0.00    -0.200 F 
ATOM     90  C   UNL A   1      45.844  32.251  26.501  1.00  0.00     0.200 A 
ATOM     91  F   UNL A   1      48.149  32.192  27.003  1.00  0.00    -0.200 F 
ATOM     92  F   UNL A   1      46.062  33.151  25.531  1.00  0.00    -0.200 F 
ENDBRANCH  59  82
ENDBRANCH  33  34
ENDBRANCH  26  28
ENDBRANCH  25  26
ENDBRANCH  24  25
ENDBRANCH   1  24
TORSDOF 14
ENDMDL
