MODEL 1
REMARK VINA RESULT:     -10.4      0.000      0.000
REMARK SMILES Cc1nc(C(F)(F)F)c(C(=O)OCCOC(=O)c2ccc(-c3c4nc(c(-c5c(F)c(F)c(F)c(F)c5F)c5ccc([nH]5)c(-c5c(F)c(F)c(F)c(F)c5F)c5nc(c(-c6c(F)c(F)c(F)c(F)c6F)c6ccc3[nH]6)C=C5)C=C4)cc2)s1
REMARK SMILES IDX 14 1 13 2 12 3 10 4 11 5 9 6 1 7 2 8 3 9 81 10 4 11 5 12
REMARK SMILES IDX 6 13 7 14 8 15 15 16 16 17 17 18 18 19 19 20 80 21 20 22
REMARK SMILES IDX 79 23 21 24 22 25 23 26 73 27 24 28 78 29 72 30 74 31 25 32
REMARK SMILES IDX 77 33 71 34 70 35 26 37 58 38 38 39 57 40 39 41 42 42 56 43
REMARK SMILES IDX 75 44 40 45 41 46 55 48 76 49 43 50 27 51 28 52 36 53 29 54
REMARK SMILES IDX 30 55 34 56 37 57 31 58 32 59 35 60 33 61 59 62 60 63 68 64
REMARK SMILES IDX 61 65 62 66 66 67 69 68 63 69 64 70 67 71 65 72 44 73 45 74
REMARK SMILES IDX 53 75 46 76 47 77 51 78 54 79 48 80 49 81 52 82 50 83
REMARK H PARENT 74 36 42 47
REMARK Flexibility Score: inf
ROOT
ATOM      1  C   UNL A   1      32.905  36.072  29.705  1.00  0.00     0.275 C 
ENDROOT
BRANCH   1   2
ATOM      2  C   UNL A   1      33.866  35.236  28.853  1.00  0.00     0.275 C 
BRANCH   2   3
ATOM      3  O   UNL A   1      33.665  33.821  29.055  1.00  0.00    -0.458 OA
BRANCH   3   4
ATOM      4  C   UNL A   1      33.121  33.121  28.019  1.00  0.00     0.350 C 
ATOM      5  O   UNL A   1      32.131  33.473  27.398  1.00  0.00    -0.245 OA
BRANCH   4   6
ATOM      6  C   UNL A   1      33.946  31.971  27.705  1.00  0.00     0.145 A 
ATOM      7  C   UNL A   1      37.056  29.672  28.012  1.00  0.00     0.079 C 
ATOM      8  C   UNL A   1      35.784  30.380  27.700  1.00  0.00     0.091 A 
ATOM      9  N   UNL A   1      34.700  29.805  27.231  1.00  0.00    -0.236 NA
ATOM     10  S   UNL A   1      35.648  32.064  27.965  1.00  0.00    -0.111 S 
ATOM     11  C   UNL A   1      33.630  30.718  27.194  1.00  0.00     0.170 A 
BRANCH  11  12
ATOM     12  C   UNL A   1      32.299  30.300  26.640  1.00  0.00     0.435 C 
ATOM     13  F   UNL A   1      31.769  31.216  25.793  1.00  0.00    -0.164 F 
ATOM     14  F   UNL A   1      32.394  29.129  25.951  1.00  0.00    -0.164 F 
ATOM     15  F   UNL A   1      31.375  30.084  27.614  1.00  0.00    -0.164 F 
ENDBRANCH  11  12
ENDBRANCH   4   6
ENDBRANCH   3   4
ENDBRANCH   2   3
ENDBRANCH   1   2
BRANCH   1  16
ATOM     16  O   UNL A   1      32.390  35.325  30.824  1.00  0.00    -0.458 OA
BRANCH  16  17
ATOM     17  C   UNL A   1      32.716  35.822  32.039  1.00  0.00     0.338 C 
ATOM     18  O   UNL A   1      32.104  36.659  32.681  1.00  0.00    -0.246 OA
BRANCH  17  19
ATOM     19  C   UNL A   1      33.847  35.074  32.605  1.00  0.00     0.060 A 
ATOM     20  C   UNL A   1      35.107  35.652  32.468  1.00  0.00     0.016 A 
ATOM     21  C   UNL A   1      33.717  33.798  33.150  1.00  0.00     0.016 A 
ATOM     22  C   UNL A   1      36.251  34.962  32.848  1.00  0.00     0.010 A 
ATOM     23  C   UNL A   1      34.868  33.108  33.557  1.00  0.00     0.010 A 
ATOM     24  C   UNL A   1      36.145  33.680  33.395  1.00  0.00    -0.014 A 
BRANCH  24  25
ATOM     25  C   UNL A   1      37.385  32.939  33.746  1.00  0.00     0.031 A 
ATOM     26  C   UNL A   1      38.065  33.189  35.061  1.00  0.00     0.074 A 
ATOM     27  C   UNL A   1      37.866  32.001  32.907  1.00  0.00     0.049 A 
ATOM     28  N   UNL A   1      39.193  32.705  35.517  1.00  0.00    -0.248 NA
ATOM     29  C   UNL A   1      37.387  34.106  35.989  1.00  0.00     0.031 C 
ATOM     30  C   UNL A   1      37.261  31.621  31.630  1.00  0.00     0.029 A 
ATOM     31  N   UNL A   1      38.970  31.190  33.006  1.00  0.00    -0.354 N 
ATOM     32  C   UNL A   1      39.376  33.282  36.768  1.00  0.00     0.074 A 
ATOM     33  C   UNL A   1      38.249  34.162  36.995  1.00  0.00     0.031 C 
ATOM     34  C   UNL A   1      37.992  30.644  31.071  1.00  0.00     0.029 A 
ATOM     35  C   UNL A   1      39.152  30.374  31.916  1.00  0.00     0.049 A 
ATOM     36  H   UNL A   1      39.574  31.194  33.784  1.00  0.00     0.167 HD
ATOM     37  C   UNL A   1      40.392  33.091  37.644  1.00  0.00     0.037 A 
ATOM     38  C   UNL A   1      40.158  29.531  31.614  1.00  0.00     0.037 A 
ATOM     39  C   UNL A   1      41.496  32.191  37.423  1.00  0.00     0.049 A 
ATOM     40  C   UNL A   1      41.303  29.384  32.579  1.00  0.00     0.074 A 
ATOM     41  C   UNL A   1      42.569  31.921  38.254  1.00  0.00     0.029 A 
ATOM     42  N   UNL A   1      41.665  31.411  36.288  1.00  0.00    -0.354 N 
ATOM     43  N   UNL A   1      41.479  29.949  33.748  1.00  0.00    -0.248 NA
ATOM     44  C   UNL A   1      42.396  28.487  32.177  1.00  0.00     0.031 C 
ATOM     45  C   UNL A   1      43.411  31.014  37.602  1.00  0.00     0.029 A 
ATOM     46  C   UNL A   1      42.835  30.676  36.389  1.00  0.00     0.049 A 
ATOM     47  H   UNL A   1      41.045  31.383  35.524  1.00  0.00     0.167 HD
ATOM     48  C   UNL A   1      42.685  29.462  34.231  1.00  0.00     0.074 A 
ATOM     49  C   UNL A   1      43.190  28.539  33.236  1.00  0.00     0.031 C 
ATOM     50  C   UNL A   1      43.318  29.753  35.394  1.00  0.00     0.037 A 
BRANCH  37  51
ATOM     51  C   UNL A   1      40.381  33.896  38.910  1.00  0.00     0.064 A 
ATOM     52  C   UNL A   1      41.025  35.138  39.007  1.00  0.00     0.173 A 
ATOM     53  C   UNL A   1      39.677  33.435  40.033  1.00  0.00     0.173 A 
ATOM     54  F   UNL A   1      41.723  35.620  37.968  1.00  0.00    -0.203 F 
ATOM     55  C   UNL A   1      40.984  35.877  40.188  1.00  0.00     0.198 A 
ATOM     56  C   UNL A   1      39.612  34.188  41.203  1.00  0.00     0.198 A 
ATOM     57  F   UNL A   1      39.038  32.256  39.992  1.00  0.00    -0.203 F 
ATOM     58  F   UNL A   1      41.643  37.041  40.273  1.00  0.00    -0.200 F 
ATOM     59  C   UNL A   1      40.271  35.405  41.282  1.00  0.00     0.200 A 
ATOM     60  F   UNL A   1      38.912  33.737  42.252  1.00  0.00    -0.200 F 
ATOM     61  F   UNL A   1      40.225  36.121  42.414  1.00  0.00    -0.200 F 
ENDBRANCH  37  51
BRANCH  38  62
ATOM     62  C   UNL A   1      40.144  28.787  30.327  1.00  0.00     0.064 A 
ATOM     63  C   UNL A   1      40.737  29.320  29.174  1.00  0.00     0.173 A 
ATOM     64  C   UNL A   1      39.523  27.533  30.219  1.00  0.00     0.173 A 
ATOM     65  F   UNL A   1      41.320  30.526  29.218  1.00  0.00    -0.203 F 
ATOM     66  C   UNL A   1      40.694  28.635  27.961  1.00  0.00     0.198 A 
ATOM     67  C   UNL A   1      39.510  26.835  29.015  1.00  0.00     0.198 A 
ATOM     68  F   UNL A   1      38.938  26.979  31.292  1.00  0.00    -0.203 F 
ATOM     69  F   UNL A   1      41.224  29.190  26.863  1.00  0.00    -0.200 F 
ATOM     70  C   UNL A   1      40.087  27.390  27.884  1.00  0.00     0.200 A 
ATOM     71  F   UNL A   1      38.934  25.626  28.950  1.00  0.00    -0.200 F 
ATOM     72  F   UNL A   1      40.050  26.731  26.718  1.00  0.00    -0.200 F 
ENDBRANCH  38  62
BRANCH  50  73
ATOM     73  C   UNL A   1      44.608  29.035  35.673  1.00  0.00     0.064 A 
ATOM     74  C   UNL A   1      45.847  29.568  35.289  1.00  0.00     0.173 A 
ATOM     75  C   UNL A   1      44.603  27.814  36.365  1.00  0.00     0.173 A 
ATOM     76  F   UNL A   1      45.903  30.723  34.610  1.00  0.00    -0.203 F 
ATOM     77  C   UNL A   1      47.032  28.891  35.566  1.00  0.00     0.198 A 
ATOM     78  C   UNL A   1      45.791  27.157  36.667  1.00  0.00     0.198 A 
ATOM     79  F   UNL A   1      43.444  27.266  36.760  1.00  0.00    -0.203 F 
ATOM     80  F   UNL A   1      48.201  29.395  35.146  1.00  0.00    -0.200 F 
ATOM     81  C   UNL A   1      47.004  27.692  36.260  1.00  0.00     0.200 A 
ATOM     82  F   UNL A   1      45.763  26.004  37.350  1.00  0.00    -0.200 F 
ATOM     83  F   UNL A   1      48.146  27.046  36.531  1.00  0.00    -0.200 F 
ENDBRANCH  50  73
ENDBRANCH  24  25
ENDBRANCH  17  19
ENDBRANCH  16  17
ENDBRANCH   1  16
TORSDOF 12
ENDMDL
MODEL 2
REMARK VINA RESULT:     -10.4      0.129      2.088
REMARK SMILES Cc1nc(C(F)(F)F)c(C(=O)OCCOC(=O)c2ccc(-c3c4nc(c(-c5c(F)c(F)c(F)c(F)c5F)c5ccc([nH]5)c(-c5c(F)c(F)c(F)c(F)c5F)c5nc(c(-c6c(F)c(F)c(F)c(F)c6F)c6ccc3[nH]6)C=C5)C=C4)cc2)s1
REMARK SMILES IDX 14 1 13 2 12 3 10 4 11 5 9 6 1 7 2 8 3 9 81 10 4 11 5 12
REMARK SMILES IDX 6 13 7 14 8 15 15 16 16 17 17 18 18 19 19 20 80 21 20 22
REMARK SMILES IDX 79 23 21 24 22 25 23 26 73 27 24 28 78 29 72 30 74 31 25 32
REMARK SMILES IDX 77 33 71 34 70 35 26 37 58 38 38 39 57 40 39 41 42 42 56 43
REMARK SMILES IDX 75 44 40 45 41 46 55 48 76 49 43 50 27 51 28 52 36 53 29 54
REMARK SMILES IDX 30 55 34 56 37 57 31 58 32 59 35 60 33 61 59 62 60 63 68 64
REMARK SMILES IDX 61 65 62 66 66 67 69 68 63 69 64 70 67 71 65 72 44 73 45 74
REMARK SMILES IDX 53 75 46 76 47 77 51 78 54 79 48 80 49 81 52 82 50 83
REMARK H PARENT 74 36 42 47
REMARK Flexibility Score: inf
ROOT
ATOM      1  C   UNL A   1      32.908  36.029  29.615  1.00  0.00     0.275 C 
ENDROOT
BRANCH   1   2
ATOM      2  C   UNL A   1      33.886  35.192  28.783  1.00  0.00     0.275 C 
BRANCH   2   3
ATOM      3  O   UNL A   1      33.704  33.778  29.009  1.00  0.00    -0.458 OA
BRANCH   3   4
ATOM      4  C   UNL A   1      33.121  33.063  28.005  1.00  0.00     0.350 C 
ATOM      5  O   UNL A   1      32.114  33.411  27.411  1.00  0.00    -0.245 OA
BRANCH   4   6
ATOM      6  C   UNL A   1      33.928  31.901  27.686  1.00  0.00     0.145 A 
ATOM      7  C   UNL A   1      37.004  29.555  27.975  1.00  0.00     0.079 C 
ATOM      8  C   UNL A   1      35.741  30.283  27.670  1.00  0.00     0.091 A 
ATOM      9  N   UNL A   1      34.647  29.725  27.206  1.00  0.00    -0.236 NA
ATOM     10  S   UNL A   1      35.632  31.968  27.937  1.00  0.00    -0.111 S 
ATOM     11  C   UNL A   1      33.590  30.654  27.175  1.00  0.00     0.170 A 
BRANCH  11  12
ATOM     12  C   UNL A   1      32.251  30.256  26.627  1.00  0.00     0.435 C 
ATOM     13  F   UNL A   1      31.289  30.189  27.581  1.00  0.00    -0.164 F 
ATOM     14  F   UNL A   1      31.816  31.139  25.686  1.00  0.00    -0.164 F 
ATOM     15  F   UNL A   1      32.280  29.042  26.014  1.00  0.00    -0.164 F 
ENDBRANCH  11  12
ENDBRANCH   4   6
ENDBRANCH   3   4
ENDBRANCH   2   3
ENDBRANCH   1   2
BRANCH   1  16
ATOM     16  O   UNL A   1      32.367  35.281  30.722  1.00  0.00    -0.458 OA
BRANCH  16  17
ATOM     17  C   UNL A   1      32.684  35.765  31.945  1.00  0.00     0.338 C 
ATOM     18  O   UNL A   1      32.065  36.591  32.593  1.00  0.00    -0.246 OA
BRANCH  17  19
ATOM     19  C   UNL A   1      33.816  35.015  32.508  1.00  0.00     0.060 A 
ATOM     20  C   UNL A   1      35.068  35.620  32.424  1.00  0.00     0.016 A 
ATOM     21  C   UNL A   1      33.696  33.716  33.000  1.00  0.00     0.016 A 
ATOM     22  C   UNL A   1      36.215  34.936  32.805  1.00  0.00     0.010 A 
ATOM     23  C   UNL A   1      34.850  33.031  33.407  1.00  0.00     0.010 A 
ATOM     24  C   UNL A   1      36.120  33.631  33.298  1.00  0.00    -0.014 A 
BRANCH  24  25
ATOM     25  C   UNL A   1      37.365  32.900  33.649  1.00  0.00     0.031 A 
ATOM     26  C   UNL A   1      38.038  33.147  34.969  1.00  0.00     0.074 A 
ATOM     27  C   UNL A   1      37.858  31.971  32.807  1.00  0.00     0.049 A 
ATOM     28  N   UNL A   1      39.168  32.670  35.427  1.00  0.00    -0.248 NA
ATOM     29  C   UNL A   1      37.347  34.052  35.900  1.00  0.00     0.031 C 
ATOM     30  C   UNL A   1      37.261  31.594  31.525  1.00  0.00     0.029 A 
ATOM     31  N   UNL A   1      38.968  31.169  32.906  1.00  0.00    -0.354 N 
ATOM     32  C   UNL A   1      39.340  33.241  36.682  1.00  0.00     0.074 A 
ATOM     33  C   UNL A   1      38.204  34.109  36.910  1.00  0.00     0.031 C 
ATOM     34  C   UNL A   1      38.003  30.627  30.963  1.00  0.00     0.029 A 
ATOM     35  C   UNL A   1      39.161  30.362  31.811  1.00  0.00     0.049 A 
ATOM     36  H   UNL A   1      39.569  31.174  33.686  1.00  0.00     0.167 HD
ATOM     37  C   UNL A   1      40.354  33.053  37.561  1.00  0.00     0.037 A 
ATOM     38  C   UNL A   1      40.176  29.529  31.508  1.00  0.00     0.037 A 
ATOM     39  C   UNL A   1      41.467  32.165  37.339  1.00  0.00     0.049 A 
ATOM     40  C   UNL A   1      41.318  29.386  32.477  1.00  0.00     0.074 A 
ATOM     41  C   UNL A   1      42.539  31.898  38.173  1.00  0.00     0.029 A 
ATOM     42  N   UNL A   1      41.647  31.393  36.200  1.00  0.00    -0.354 N 
ATOM     43  N   UNL A   1      41.484  29.946  33.651  1.00  0.00    -0.248 NA
ATOM     44  C   UNL A   1      42.421  28.501  32.074  1.00  0.00     0.031 C 
ATOM     45  C   UNL A   1      43.392  31.003  37.519  1.00  0.00     0.029 A 
ATOM     46  C   UNL A   1      42.824  30.668  36.301  1.00  0.00     0.049 A 
ATOM     47  H   UNL A   1      41.030  31.365  35.433  1.00  0.00     0.167 HD
ATOM     48  C   UNL A   1      42.693  29.466  34.136  1.00  0.00     0.074 A 
ATOM     49  C   UNL A   1      43.210  28.553  33.137  1.00  0.00     0.031 C 
ATOM     50  C   UNL A   1      43.319  29.755  35.303  1.00  0.00     0.037 A 
BRANCH  37  51
ATOM     51  C   UNL A   1      40.331  33.851  38.832  1.00  0.00     0.064 A 
ATOM     52  C   UNL A   1      39.657  33.403  39.978  1.00  0.00     0.173 A 
ATOM     53  C   UNL A   1      41.031  35.064  38.917  1.00  0.00     0.173 A 
ATOM     54  F   UNL A   1      38.962  32.256  39.948  1.00  0.00    -0.203 F 
ATOM     55  C   UNL A   1      39.667  34.151  41.153  1.00  0.00     0.198 A 
ATOM     56  C   UNL A   1      41.064  35.795  40.102  1.00  0.00     0.198 A 
ATOM     57  F   UNL A   1      41.698  35.535  37.852  1.00  0.00    -0.203 F 
ATOM     58  F   UNL A   1      38.980  33.725  42.223  1.00  0.00    -0.200 F 
ATOM     59  C   UNL A   1      40.377  35.342  41.217  1.00  0.00     0.200 A 
ATOM     60  F   UNL A   1      41.761  36.938  40.164  1.00  0.00    -0.200 F 
ATOM     61  F   UNL A   1      40.392  36.056  42.351  1.00  0.00    -0.200 F 
ENDBRANCH  37  51
BRANCH  38  62
ATOM     62  C   UNL A   1      40.174  28.793  30.216  1.00  0.00     0.064 A 
ATOM     63  C   UNL A   1      39.548  27.545  30.092  1.00  0.00     0.173 A 
ATOM     64  C   UNL A   1      40.814  29.316  29.082  1.00  0.00     0.173 A 
ATOM     65  F   UNL A   1      38.946  26.990  31.154  1.00  0.00    -0.203 F 
ATOM     66  C   UNL A   1      39.576  26.842  28.889  1.00  0.00     0.198 A 
ATOM     67  C   UNL A   1      40.813  28.628  27.871  1.00  0.00     0.198 A 
ATOM     68  F   UNL A   1      41.431  30.506  29.148  1.00  0.00    -0.203 F 
ATOM     69  F   UNL A   1      39.014  25.629  28.812  1.00  0.00    -0.200 F 
ATOM     70  C   UNL A   1      40.202  27.388  27.778  1.00  0.00     0.200 A 
ATOM     71  F   UNL A   1      41.407  29.166  26.797  1.00  0.00    -0.200 F 
ATOM     72  F   UNL A   1      40.226  26.713  26.621  1.00  0.00    -0.200 F 
ENDBRANCH  38  62
BRANCH  50  73
ATOM     73  C   UNL A   1      44.613  29.047  35.583  1.00  0.00     0.064 A 
ATOM     74  C   UNL A   1      44.650  27.813  36.249  1.00  0.00     0.173 A 
ATOM     75  C   UNL A   1      45.829  29.595  35.146  1.00  0.00     0.173 A 
ATOM     76  F   UNL A   1      43.517  27.256  36.702  1.00  0.00    -0.203 F 
ATOM     77  C   UNL A   1      45.860  27.168  36.491  1.00  0.00     0.198 A 
ATOM     78  C   UNL A   1      47.033  28.932  35.362  1.00  0.00     0.198 A 
ATOM     79  F   UNL A   1      45.847  30.769  34.498  1.00  0.00    -0.203 F 
ATOM     80  F   UNL A   1      45.877  26.015  37.174  1.00  0.00    -0.200 F 
ATOM     81  C   UNL A   1      47.048  27.723  36.041  1.00  0.00     0.200 A 
ATOM     82  F   UNL A   1      48.179  29.464  34.914  1.00  0.00    -0.200 F 
ATOM     83  F   UNL A   1      48.211  27.097  36.269  1.00  0.00    -0.200 F 
ENDBRANCH  50  73
ENDBRANCH  24  25
ENDBRANCH  17  19
ENDBRANCH  16  17
ENDBRANCH   1  16
TORSDOF 12
ENDMDL
MODEL 3
REMARK VINA RESULT:     -10.4      3.193      8.959
REMARK SMILES Cc1nc(C(F)(F)F)c(C(=O)OCCOC(=O)c2ccc(-c3c4nc(c(-c5c(F)c(F)c(F)c(F)c5F)c5ccc([nH]5)c(-c5c(F)c(F)c(F)c(F)c5F)c5nc(c(-c6c(F)c(F)c(F)c(F)c6F)c6ccc3[nH]6)C=C5)C=C4)cc2)s1
REMARK SMILES IDX 14 1 13 2 12 3 10 4 11 5 9 6 1 7 2 8 3 9 81 10 4 11 5 12
REMARK SMILES IDX 6 13 7 14 8 15 15 16 16 17 17 18 18 19 19 20 80 21 20 22
REMARK SMILES IDX 79 23 21 24 22 25 23 26 73 27 24 28 78 29 72 30 74 31 25 32
REMARK SMILES IDX 77 33 71 34 70 35 26 37 58 38 38 39 57 40 39 41 42 42 56 43
REMARK SMILES IDX 75 44 40 45 41 46 55 48 76 49 43 50 27 51 28 52 36 53 29 54
REMARK SMILES IDX 30 55 34 56 37 57 31 58 32 59 35 60 33 61 59 62 60 63 68 64
REMARK SMILES IDX 61 65 62 66 66 67 69 68 63 69 64 70 67 71 65 72 44 73 45 74
REMARK SMILES IDX 53 75 46 76 47 77 51 78 54 79 48 80 49 81 52 82 50 83
REMARK H PARENT 74 36 42 47
REMARK Flexibility Score: inf
ROOT
ATOM      1  C   UNL A   1      31.770  29.709  26.033  1.00  0.00     0.275 C 
ENDROOT
BRANCH   1   2
ATOM      2  C   UNL A   1      31.104  29.660  24.653  1.00  0.00     0.275 C 
BRANCH   2   3
ATOM      3  O   UNL A   1      31.890  28.905  23.708  1.00  0.00    -0.458 OA
BRANCH   3   4
ATOM      4  C   UNL A   1      31.244  27.931  23.006  1.00  0.00     0.350 C 
ATOM      5  O   UNL A   1      30.405  28.147  22.146  1.00  0.00    -0.245 OA
BRANCH   4   6
ATOM      6  C   UNL A   1      31.774  26.627  23.356  1.00  0.00     0.145 A 
ATOM      7  C   UNL A   1      34.435  23.806  23.429  1.00  0.00     0.079 C 
ATOM      8  C   UNL A   1      33.258  24.711  23.537  1.00  0.00     0.091 A 
ATOM      9  N   UNL A   1      32.369  24.675  24.504  1.00  0.00    -0.236 NA
ATOM     10  S   UNL A   1      32.992  25.923  22.360  1.00  0.00    -0.111 S 
ATOM     11  C   UNL A   1      31.478  25.759  24.399  1.00  0.00     0.170 A 
BRANCH  11  12
ATOM     12  C   UNL A   1      30.338  25.895  25.366  1.00  0.00     0.435 C 
ATOM     13  F   UNL A   1      29.194  26.324  24.776  1.00  0.00    -0.164 F 
ATOM     14  F   UNL A   1      30.053  24.707  25.968  1.00  0.00    -0.164 F 
ATOM     15  F   UNL A   1      30.611  26.767  26.373  1.00  0.00    -0.164 F 
ENDBRANCH  11  12
ENDBRANCH   4   6
ENDBRANCH   3   4
ENDBRANCH   2   3
ENDBRANCH   1   2
BRANCH   1  16
ATOM     16  O   UNL A   1      33.091  30.282  25.971  1.00  0.00    -0.458 OA
BRANCH  16  17
ATOM     17  C   UNL A   1      33.343  31.234  26.900  1.00  0.00     0.338 C 
ATOM     18  O   UNL A   1      32.576  32.092  27.302  1.00  0.00    -0.246 OA
BRANCH  17  19
ATOM     19  C   UNL A   1      34.648  30.992  27.530  1.00  0.00     0.060 A 
ATOM     20  C   UNL A   1      34.913  29.685  27.934  1.00  0.00     0.016 A 
ATOM     21  C   UNL A   1      35.547  32.014  27.830  1.00  0.00     0.016 A 
ATOM     22  C   UNL A   1      36.059  29.383  28.658  1.00  0.00     0.010 A 
ATOM     23  C   UNL A   1      36.717  31.708  28.541  1.00  0.00     0.010 A 
ATOM     24  C   UNL A   1      36.974  30.392  28.973  1.00  0.00    -0.014 A 
BRANCH  24  25
ATOM     25  C   UNL A   1      38.166  30.056  29.794  1.00  0.00     0.031 A 
ATOM     26  C   UNL A   1      39.231  29.153  29.241  1.00  0.00     0.074 A 
ATOM     27  C   UNL A   1      38.319  30.608  31.013  1.00  0.00     0.049 A 
ATOM     28  N   UNL A   1      40.303  28.679  29.825  1.00  0.00    -0.248 NA
ATOM     29  C   UNL A   1      39.070  28.725  27.843  1.00  0.00     0.031 C 
ATOM     30  C   UNL A   1      37.387  31.550  31.635  1.00  0.00     0.029 A 
ATOM     31  N   UNL A   1      39.318  30.465  31.944  1.00  0.00    -0.354 N 
ATOM     32  C   UNL A   1      40.925  27.873  28.881  1.00  0.00     0.074 A 
ATOM     33  C   UNL A   1      40.106  27.911  27.687  1.00  0.00     0.031 C 
ATOM     34  C   UNL A   1      37.863  31.909  32.837  1.00  0.00     0.029 A 
ATOM     35  C   UNL A   1      39.098  31.175  33.099  1.00  0.00     0.049 A 
ATOM     36  H   UNL A   1      40.115  29.905  31.799  1.00  0.00     0.167 HD
ATOM     37  C   UNL A   1      42.076  27.168  29.001  1.00  0.00     0.037 A 
ATOM     38  C   UNL A   1      39.793  31.205  34.253  1.00  0.00     0.037 A 
ATOM     39  C   UNL A   1      42.902  27.157  30.182  1.00  0.00     0.049 A 
ATOM     40  C   UNL A   1      41.035  30.365  34.379  1.00  0.00     0.074 A 
ATOM     41  C   UNL A   1      44.091  26.483  30.399  1.00  0.00     0.029 A 
ATOM     42  N   UNL A   1      42.625  27.859  31.346  1.00  0.00    -0.354 N 
ATOM     43  N   UNL A   1      41.605  29.589  33.489  1.00  0.00    -0.248 NA
ATOM     44  C   UNL A   1      41.728  30.398  35.675  1.00  0.00     0.031 C 
ATOM     45  C   UNL A   1      44.508  26.739  31.709  1.00  0.00     0.029 A 
ATOM     46  C   UNL A   1      43.609  27.617  32.291  1.00  0.00     0.049 A 
ATOM     47  H   UNL A   1      41.844  28.444  31.481  1.00  0.00     0.167 HD
ATOM     48  C   UNL A   1      42.731  29.061  34.106  1.00  0.00     0.074 A 
ATOM     49  C   UNL A   1      42.775  29.620  35.441  1.00  0.00     0.031 C 
ATOM     50  C   UNL A   1      43.644  28.191  33.612  1.00  0.00     0.037 A 
BRANCH  37  51
ATOM     51  C   UNL A   1      42.498  26.317  27.839  1.00  0.00     0.064 A 
ATOM     52  C   UNL A   1      41.971  25.035  27.627  1.00  0.00     0.173 A 
ATOM     53  C   UNL A   1      43.414  26.812  26.898  1.00  0.00     0.173 A 
ATOM     54  F   UNL A   1      41.102  24.508  28.502  1.00  0.00    -0.203 F 
ATOM     55  C   UNL A   1      42.362  24.272  26.528  1.00  0.00     0.198 A 
ATOM     56  C   UNL A   1      43.781  26.060  25.785  1.00  0.00     0.198 A 
ATOM     57  F   UNL A   1      43.943  28.036  27.049  1.00  0.00    -0.203 F 
ATOM     58  F   UNL A   1      41.879  23.032  26.369  1.00  0.00    -0.200 F 
ATOM     59  C   UNL A   1      43.261  24.788  25.605  1.00  0.00     0.200 A 
ATOM     60  F   UNL A   1      44.638  26.566  24.888  1.00  0.00    -0.200 F 
ATOM     61  F   UNL A   1      43.630  24.055  24.545  1.00  0.00    -0.200 F 
ENDBRANCH  37  51
BRANCH  38  62
ATOM     62  C   UNL A   1      39.312  32.031  35.391  1.00  0.00     0.064 A 
ATOM     63  C   UNL A   1      38.487  31.487  36.385  1.00  0.00     0.173 A 
ATOM     64  C   UNL A   1      39.655  33.387  35.500  1.00  0.00     0.173 A 
ATOM     65  F   UNL A   1      38.109  30.203  36.313  1.00  0.00    -0.203 F 
ATOM     66  C   UNL A   1      38.010  32.272  37.434  1.00  0.00     0.198 A 
ATOM     67  C   UNL A   1      39.205  34.163  36.565  1.00  0.00     0.198 A 
ATOM     68  F   UNL A   1      40.439  33.958  34.573  1.00  0.00    -0.203 F 
ATOM     69  F   UNL A   1      37.182  31.740  38.342  1.00  0.00    -0.200 F 
ATOM     70  C   UNL A   1      38.376  33.607  37.526  1.00  0.00     0.200 A 
ATOM     71  F   UNL A   1      39.572  35.448  36.658  1.00  0.00    -0.200 F 
ATOM     72  F   UNL A   1      37.920  34.360  38.537  1.00  0.00    -0.200 F 
ENDBRANCH  38  62
BRANCH  50  73
ATOM     73  C   UNL A   1      44.794  27.821  34.505  1.00  0.00     0.064 A 
ATOM     74  C   UNL A   1      45.971  28.582  34.546  1.00  0.00     0.173 A 
ATOM     75  C   UNL A   1      44.700  26.709  35.356  1.00  0.00     0.173 A 
ATOM     76  F   UNL A   1      46.117  29.644  33.739  1.00  0.00    -0.203 F 
ATOM     77  C   UNL A   1      47.022  28.228  35.387  1.00  0.00     0.198 A 
ATOM     78  C   UNL A   1      45.740  26.376  36.218  1.00  0.00     0.198 A 
ATOM     79  F   UNL A   1      43.592  25.952  35.360  1.00  0.00    -0.203 F 
ATOM     80  F   UNL A   1      48.158  28.940  35.374  1.00  0.00    -0.200 F 
ATOM     81  C   UNL A   1      46.903  27.131  36.227  1.00  0.00     0.200 A 
ATOM     82  F   UNL A   1      45.618  25.325  37.039  1.00  0.00    -0.200 F 
ATOM     83  F   UNL A   1      47.913  26.796  37.041  1.00  0.00    -0.200 F 
ENDBRANCH  50  73
ENDBRANCH  24  25
ENDBRANCH  17  19
ENDBRANCH  16  17
ENDBRANCH   1  16
TORSDOF 12
ENDMDL
