MODEL 1
REMARK VINA RESULT:     -11.6      0.000      0.000
REMARK SMILES CCOc1ncnc(N[C@@H]2C=C[C@H](C(=O)OCCOC(=O)c3ccc(-c4c5nc(c(-c6c(F)c(F)c(F)c(F)c6F)c6ccc([nH]6)c(-c6c(F)c(F)c(F)c(F)c6F)c6nc(c(-c7c(F)c(F)c(F)c(F)c7F)c7ccc4[nH]7)C=C6)C=C5)cc3)C2)c1C
REMARK SMILES IDX 17 1 16 2 14 3 15 4 13 5 10 6 11 7 85 8 12 9 9 10 8 12 4 13
REMARK SMILES IDX 5 14 86 15 6 16 87 17 7 18 3 19 2 20 1 21 18 22 19 23 20 24
REMARK SMILES IDX 21 25 22 26 23 27 84 28 24 29 83 30 25 31 26 32 27 33 77 34
REMARK SMILES IDX 28 35 82 36 76 37 78 38 29 39 81 40 75 41 74 42 30 44 62 45
REMARK SMILES IDX 42 46 61 47 43 48 46 49 60 50 79 51 44 52 45 53 59 55 80 56
REMARK SMILES IDX 47 57 31 58 32 59 40 60 33 61 34 62 38 63 41 64 35 65 36 66
REMARK SMILES IDX 39 67 37 68 63 69 64 70 72 71 65 72 66 73 70 74 73 75 67 76
REMARK SMILES IDX 68 77 71 78 69 79 48 80 49 81 57 82 50 83 51 84 55 85 58 86
REMARK SMILES IDX 52 87 53 88 56 89 54 90
REMARK H PARENT 9 11 78 43 46 54
REMARK Flexibility Score: inf
ROOT
ATOM      1  C   UNL A   1      31.244  29.366  24.594  1.00  0.00     0.274 C 
ENDROOT
BRANCH   1   2
ATOM      2  O   UNL A   1      31.124  27.993  25.027  1.00  0.00    -0.462 OA
BRANCH   2   3
ATOM      3  C   UNL A   1      31.152  27.079  24.013  1.00  0.00     0.312 C 
ATOM      4  O   UNL A   1      31.940  27.153  23.082  1.00  0.00    -0.252 OA
BRANCH   3   5
ATOM      5  C   UNL A   1      30.097  25.989  24.200  1.00  0.00     0.124 C 
ATOM      6  C   UNL A   1      30.665  24.280  25.893  1.00  0.00     0.104 C 
ATOM      7  C   UNL A   1      30.854  23.774  24.508  1.00  0.00    -0.006 C 
ATOM      8  C   UNL A   1      29.879  25.579  25.669  1.00  0.00     0.048 C 
ATOM      9  C   UNL A   1      30.527  24.689  23.584  1.00  0.00    -0.014 C 
BRANCH   6  10
ATOM     10  N   UNL A   1      31.880  24.441  26.679  1.00  0.00    -0.363 N 
ATOM     11  H   UNL A   1      31.859  25.161  27.350  1.00  0.00     0.162 HD
BRANCH  10  12
ATOM     12  C   UNL A   1      33.060  23.722  26.611  1.00  0.00     0.136 A 
ATOM     13  C   UNL A   1      35.291  23.439  25.910  1.00  0.00     0.221 A 
ATOM     14  N   UNL A   1      35.346  22.183  26.368  1.00  0.00    -0.201 NA
ATOM     15  C   UNL A   1      34.173  24.261  25.970  1.00  0.00     0.054 A 
ATOM     16  C   UNL A   1      34.224  21.768  26.951  1.00  0.00     0.228 A 
ATOM     17  C   UNL A   1      34.223  25.665  25.453  1.00  0.00     0.054 C 
ATOM     18  N   UNL A   1      33.107  22.487  27.131  1.00  0.00    -0.219 NA
BRANCH  13  19
ATOM     19  O   UNL A   1      36.411  23.901  25.254  1.00  0.00    -0.478 OA
BRANCH  19  20
ATOM     20  C   UNL A   1      37.596  23.242  25.706  1.00  0.00     0.228 C 
ATOM     21  C   UNL A   1      38.416  24.241  26.507  1.00  0.00     0.049 C 
ENDBRANCH  19  20
ENDBRANCH  13  19
ENDBRANCH  10  12
ENDBRANCH   6  10
ENDBRANCH   3   5
ENDBRANCH   2   3
ENDBRANCH   1   2
BRANCH   1  22
ATOM     22  C   UNL A   1      31.550  30.350  25.732  1.00  0.00     0.275 C 
BRANCH  22  23
ATOM     23  O   UNL A   1      32.861  30.163  26.309  1.00  0.00    -0.458 OA
BRANCH  23  24
ATOM     24  C   UNL A   1      33.318  31.198  27.050  1.00  0.00     0.338 C 
ATOM     25  O   UNL A   1      32.688  32.182  27.407  1.00  0.00    -0.246 OA
BRANCH  24  26
ATOM     26  C   UNL A   1      34.708  30.976  27.489  1.00  0.00     0.060 A 
ATOM     27  C   UNL A   1      35.092  29.669  27.766  1.00  0.00     0.016 A 
ATOM     28  C   UNL A   1      35.548  32.027  27.848  1.00  0.00     0.016 A 
ATOM     29  C   UNL A   1      36.247  29.391  28.481  1.00  0.00     0.010 A 
ATOM     30  C   UNL A   1      36.762  31.746  28.499  1.00  0.00     0.010 A 
ATOM     31  C   UNL A   1      37.104  30.426  28.855  1.00  0.00    -0.014 A 
BRANCH  31  32
ATOM     32  C   UNL A   1      38.302  30.110  29.680  1.00  0.00     0.031 A 
ATOM     33  C   UNL A   1      39.390  29.240  29.116  1.00  0.00     0.074 A 
ATOM     34  C   UNL A   1      38.455  30.661  30.902  1.00  0.00     0.049 A 
ATOM     35  N   UNL A   1      40.427  28.712  29.717  1.00  0.00    -0.248 NA
ATOM     36  C   UNL A   1      39.300  28.919  27.682  1.00  0.00     0.031 C 
ATOM     37  C   UNL A   1      37.519  31.589  31.536  1.00  0.00     0.029 A 
ATOM     38  N   UNL A   1      39.462  30.528  31.827  1.00  0.00    -0.354 N 
ATOM     39  C   UNL A   1      41.082  27.959  28.750  1.00  0.00     0.074 A 
ATOM     40  C   UNL A   1      40.325  28.093  27.524  1.00  0.00     0.031 C 
ATOM     41  C   UNL A   1      38.004  31.963  32.729  1.00  0.00     0.029 A 
ATOM     42  C   UNL A   1      39.235  31.225  32.989  1.00  0.00     0.049 A 
ATOM     43  H   UNL A   1      40.270  29.986  31.672  1.00  0.00     0.167 HD
ATOM     44  C   UNL A   1      42.212  27.223  28.881  1.00  0.00     0.037 A 
ATOM     45  C   UNL A   1      39.907  31.225  34.156  1.00  0.00     0.037 A 
ATOM     46  C   UNL A   1      42.977  27.127  30.097  1.00  0.00     0.049 A 
ATOM     47  C   UNL A   1      41.121  30.347  34.295  1.00  0.00     0.074 A 
ATOM     48  C   UNL A   1      44.114  26.377  30.347  1.00  0.00     0.029 A 
ATOM     49  N   UNL A   1      42.693  27.822  31.263  1.00  0.00    -0.354 N 
ATOM     50  N   UNL A   1      41.685  29.568  33.405  1.00  0.00    -0.248 NA
ATOM     51  C   UNL A   1      41.781  30.332  35.609  1.00  0.00     0.031 C 
ATOM     52  C   UNL A   1      44.500  26.596  31.673  1.00  0.00     0.029 A 
ATOM     53  C   UNL A   1      43.631  27.518  32.236  1.00  0.00     0.049 A 
ATOM     54  H   UNL A   1      41.937  28.441  31.382  1.00  0.00     0.167 HD
ATOM     55  C   UNL A   1      42.771  28.983  34.042  1.00  0.00     0.074 A 
ATOM     56  C   UNL A   1      42.802  29.518  35.388  1.00  0.00     0.031 C 
ATOM     57  C   UNL A   1      43.655  28.076  33.563  1.00  0.00     0.037 A 
BRANCH  44  58
ATOM     58  C   UNL A   1      42.672  26.436  27.689  1.00  0.00     0.064 A 
ATOM     59  C   UNL A   1      43.632  26.935  26.798  1.00  0.00     0.173 A 
ATOM     60  C   UNL A   1      42.172  25.144  27.460  1.00  0.00     0.173 A 
ATOM     61  F   UNL A   1      44.130  28.170  26.965  1.00  0.00    -0.203 F 
ATOM     62  C   UNL A   1      44.063  26.177  25.711  1.00  0.00     0.198 A 
ATOM     63  C   UNL A   1      42.625  24.378  26.389  1.00  0.00     0.198 A 
ATOM     64  F   UNL A   1      41.254  24.617  28.284  1.00  0.00    -0.203 F 
ATOM     65  F   UNL A   1      44.953  26.689  24.851  1.00  0.00    -0.200 F 
ATOM     66  C   UNL A   1      43.566  24.897  25.512  1.00  0.00     0.200 A 
ATOM     67  F   UNL A   1      42.152  23.138  26.206  1.00  0.00    -0.200 F 
ATOM     68  F   UNL A   1      43.990  24.166  24.472  1.00  0.00    -0.200 F 
ENDBRANCH  44  58
BRANCH  45  69
ATOM     69  C   UNL A   1      39.409  32.024  35.309  1.00  0.00     0.064 A 
ATOM     70  C   UNL A   1      39.814  33.351  35.505  1.00  0.00     0.173 A 
ATOM     71  C   UNL A   1      38.539  31.464  36.258  1.00  0.00     0.173 A 
ATOM     72  F   UNL A   1      40.665  33.926  34.642  1.00  0.00    -0.203 F 
ATOM     73  C   UNL A   1      39.389  34.079  36.615  1.00  0.00     0.198 A 
ATOM     74  C   UNL A   1      38.083  32.204  37.346  1.00  0.00     0.198 A 
ATOM     75  F   UNL A   1      38.122  30.197  36.123  1.00  0.00    -0.203 F 
ATOM     76  F   UNL A   1      39.838  35.326  36.807  1.00  0.00    -0.200 F 
ATOM     77  C   UNL A   1      38.518  33.507  37.530  1.00  0.00     0.200 A 
ATOM     78  F   UNL A   1      37.229  31.652  38.219  1.00  0.00    -0.200 F 
ATOM     79  F   UNL A   1      38.106  34.209  38.596  1.00  0.00    -0.200 F 
ENDBRANCH  45  69
BRANCH  57  80
ATOM     80  C   UNL A   1      44.757  27.643  34.484  1.00  0.00     0.064 A 
ATOM     81  C   UNL A   1      45.968  28.346  34.563  1.00  0.00     0.173 A 
ATOM     82  C   UNL A   1      44.585  26.529  35.319  1.00  0.00     0.173 A 
ATOM     83  F   UNL A   1      46.187  29.407  33.771  1.00  0.00    -0.203 F 
ATOM     84  C   UNL A   1      46.978  27.931  35.426  1.00  0.00     0.198 A 
ATOM     85  C   UNL A   1      45.586  26.135  36.201  1.00  0.00     0.198 A 
ATOM     86  F   UNL A   1      43.441  25.827  35.284  1.00  0.00    -0.203 F 
ATOM     87  F   UNL A   1      48.147  28.587  35.450  1.00  0.00    -0.200 F 
ATOM     88  C   UNL A   1      46.784  26.831  36.249  1.00  0.00     0.200 A 
ATOM     89  F   UNL A   1      45.392  25.079  37.004  1.00  0.00    -0.200 F 
ATOM     90  F   UNL A   1      47.757  26.437  37.082  1.00  0.00    -0.200 F 
ENDBRANCH  57  80
ENDBRANCH  31  32
ENDBRANCH  24  26
ENDBRANCH  23  24
ENDBRANCH  22  23
ENDBRANCH   1  22
TORSDOF 15
ENDMDL
MODEL 2
REMARK VINA RESULT:     -11.5      0.120      1.615
REMARK SMILES CCOc1ncnc(N[C@@H]2C=C[C@H](C(=O)OCCOC(=O)c3ccc(-c4c5nc(c(-c6c(F)c(F)c(F)c(F)c6F)c6ccc([nH]6)c(-c6c(F)c(F)c(F)c(F)c6F)c6nc(c(-c7c(F)c(F)c(F)c(F)c7F)c7ccc4[nH]7)C=C6)C=C5)cc3)C2)c1C
REMARK SMILES IDX 17 1 16 2 14 3 15 4 13 5 10 6 11 7 85 8 12 9 9 10 8 12 4 13
REMARK SMILES IDX 5 14 86 15 6 16 87 17 7 18 3 19 2 20 1 21 18 22 19 23 20 24
REMARK SMILES IDX 21 25 22 26 23 27 84 28 24 29 83 30 25 31 26 32 27 33 77 34
REMARK SMILES IDX 28 35 82 36 76 37 78 38 29 39 81 40 75 41 74 42 30 44 62 45
REMARK SMILES IDX 42 46 61 47 43 48 46 49 60 50 79 51 44 52 45 53 59 55 80 56
REMARK SMILES IDX 47 57 31 58 32 59 40 60 33 61 34 62 38 63 41 64 35 65 36 66
REMARK SMILES IDX 39 67 37 68 63 69 64 70 72 71 65 72 66 73 70 74 73 75 67 76
REMARK SMILES IDX 68 77 71 78 69 79 48 80 49 81 57 82 50 83 51 84 55 85 58 86
REMARK SMILES IDX 52 87 53 88 56 89 54 90
REMARK H PARENT 9 11 78 43 46 54
REMARK Flexibility Score: inf
ROOT
ATOM      1  C   UNL A   1      31.397  29.420  24.631  1.00  0.00     0.274 C 
ENDROOT
BRANCH   1   2
ATOM      2  O   UNL A   1      31.067  28.079  25.054  1.00  0.00    -0.462 OA
BRANCH   2   3
ATOM      3  C   UNL A   1      31.082  27.154  24.050  1.00  0.00     0.312 C 
ATOM      4  O   UNL A   1      31.864  27.213  23.113  1.00  0.00    -0.252 OA
BRANCH   3   5
ATOM      5  C   UNL A   1      30.023  26.072  24.259  1.00  0.00     0.124 C 
ATOM      6  C   UNL A   1      30.591  24.383  25.971  1.00  0.00     0.104 C 
ATOM      7  C   UNL A   1      30.771  23.857  24.592  1.00  0.00    -0.006 C 
ATOM      8  C   UNL A   1      29.811  25.682  25.734  1.00  0.00     0.048 C 
ATOM      9  C   UNL A   1      30.443  24.761  23.657  1.00  0.00    -0.014 C 
BRANCH   6  10
ATOM     10  N   UNL A   1      31.811  24.548  26.748  1.00  0.00    -0.363 N 
ATOM     11  H   UNL A   1      31.806  25.293  27.393  1.00  0.00     0.162 HD
BRANCH  10  12
ATOM     12  C   UNL A   1      32.977  23.804  26.703  1.00  0.00     0.136 A 
ATOM     13  C   UNL A   1      35.190  23.439  25.985  1.00  0.00     0.221 A 
ATOM     14  N   UNL A   1      35.231  22.211  26.515  1.00  0.00    -0.201 NA
ATOM     15  C   UNL A   1      34.089  24.284  26.014  1.00  0.00     0.054 A 
ATOM     16  C   UNL A   1      34.111  21.852  27.140  1.00  0.00     0.228 A 
ATOM     17  C   UNL A   1      34.154  25.654  25.415  1.00  0.00     0.054 C 
ATOM     18  N   UNL A   1      33.011  22.601  27.294  1.00  0.00    -0.219 NA
BRANCH  13  19
ATOM     19  O   UNL A   1      36.307  23.840  25.285  1.00  0.00    -0.478 OA
BRANCH  19  20
ATOM     20  C   UNL A   1      37.482  23.162  25.735  1.00  0.00     0.228 C 
ATOM     21  C   UNL A   1      38.358  24.168  26.464  1.00  0.00     0.049 C 
ENDBRANCH  19  20
ENDBRANCH  13  19
ENDBRANCH  10  12
ENDBRANCH   6  10
ENDBRANCH   3   5
ENDBRANCH   2   3
ENDBRANCH   1   2
BRANCH   1  22
ATOM     22  C   UNL A   1      31.619  30.399  25.794  1.00  0.00     0.275 C 
BRANCH  22  23
ATOM     23  O   UNL A   1      32.856  30.169  26.504  1.00  0.00    -0.458 OA
BRANCH  23  24
ATOM     24  C   UNL A   1      33.362  31.247  27.144  1.00  0.00     0.338 C 
ATOM     25  O   UNL A   1      32.772  32.278  27.430  1.00  0.00    -0.246 OA
BRANCH  24  26
ATOM     26  C   UNL A   1      34.754  31.017  27.571  1.00  0.00     0.060 A 
ATOM     27  C   UNL A   1      35.138  29.706  27.830  1.00  0.00     0.016 A 
ATOM     28  C   UNL A   1      35.600  32.062  27.935  1.00  0.00     0.016 A 
ATOM     29  C   UNL A   1      36.297  29.417  28.534  1.00  0.00     0.010 A 
ATOM     30  C   UNL A   1      36.818  31.771  28.574  1.00  0.00     0.010 A 
ATOM     31  C   UNL A   1      37.159  30.446  28.913  1.00  0.00    -0.014 A 
BRANCH  31  32
ATOM     32  C   UNL A   1      38.362  30.118  29.726  1.00  0.00     0.031 A 
ATOM     33  C   UNL A   1      39.437  29.240  29.149  1.00  0.00     0.074 A 
ATOM     34  C   UNL A   1      38.532  30.665  30.947  1.00  0.00     0.049 A 
ATOM     35  N   UNL A   1      40.476  28.702  29.739  1.00  0.00    -0.248 NA
ATOM     36  C   UNL A   1      39.331  28.923  27.716  1.00  0.00     0.031 C 
ATOM     37  C   UNL A   1      37.610  31.600  31.592  1.00  0.00     0.029 A 
ATOM     38  N   UNL A   1      39.547  30.521  31.862  1.00  0.00    -0.354 N 
ATOM     39  C   UNL A   1      41.114  27.946  28.765  1.00  0.00     0.074 A 
ATOM     40  C   UNL A   1      40.347  28.089  27.546  1.00  0.00     0.031 C 
ATOM     41  C   UNL A   1      38.110  31.967  32.781  1.00  0.00     0.029 A 
ATOM     42  C   UNL A   1      39.336  31.218  33.028  1.00  0.00     0.049 A 
ATOM     43  H   UNL A   1      40.348  29.974  31.698  1.00  0.00     0.167 HD
ATOM     44  C   UNL A   1      42.239  27.199  28.883  1.00  0.00     0.037 A 
ATOM     45  C   UNL A   1      40.020  31.210  34.188  1.00  0.00     0.037 A 
ATOM     46  C   UNL A   1      43.016  27.094  30.092  1.00  0.00     0.049 A 
ATOM     47  C   UNL A   1      41.228  30.321  34.314  1.00  0.00     0.074 A 
ATOM     48  C   UNL A   1      44.148  26.334  30.329  1.00  0.00     0.029 A 
ATOM     49  N   UNL A   1      42.749  27.789  31.262  1.00  0.00    -0.354 N 
ATOM     50  N   UNL A   1      41.776  29.539  33.417  1.00  0.00    -0.248 NA
ATOM     51  C   UNL A   1      41.900  30.298  35.621  1.00  0.00     0.031 C 
ATOM     52  C   UNL A   1      44.549  26.548  31.652  1.00  0.00     0.029 A 
ATOM     53  C   UNL A   1      43.694  27.475  32.225  1.00  0.00     0.049 A 
ATOM     54  H   UNL A   1      41.999  28.414  31.389  1.00  0.00     0.167 HD
ATOM     55  C   UNL A   1      42.863  28.944  34.042  1.00  0.00     0.074 A 
ATOM     56  C   UNL A   1      42.912  29.476  35.388  1.00  0.00     0.031 C 
ATOM     57  C   UNL A   1      43.735  28.030  33.552  1.00  0.00     0.037 A 
BRANCH  44  58
ATOM     58  C   UNL A   1      42.681  26.411  27.686  1.00  0.00     0.064 A 
ATOM     59  C   UNL A   1      43.651  26.896  26.796  1.00  0.00     0.173 A 
ATOM     60  C   UNL A   1      42.154  25.132  27.448  1.00  0.00     0.173 A 
ATOM     61  F   UNL A   1      44.174  28.119  26.970  1.00  0.00    -0.203 F 
ATOM     62  C   UNL A   1      44.064  26.137  25.704  1.00  0.00     0.198 A 
ATOM     63  C   UNL A   1      42.590  24.364  26.371  1.00  0.00     0.198 A 
ATOM     64  F   UNL A   1      41.226  24.618  28.270  1.00  0.00    -0.203 F 
ATOM     65  F   UNL A   1      44.963  26.635  24.845  1.00  0.00    -0.200 F 
ATOM     66  C   UNL A   1      43.539  24.869  25.497  1.00  0.00     0.200 A 
ATOM     67  F   UNL A   1      42.091  23.135  26.181  1.00  0.00    -0.200 F 
ATOM     68  F   UNL A   1      43.947  24.136  24.451  1.00  0.00    -0.200 F 
ENDBRANCH  44  58
BRANCH  45  69
ATOM     69  C   UNL A   1      39.540  32.011  35.347  1.00  0.00     0.064 A 
ATOM     70  C   UNL A   1      38.630  31.480  36.272  1.00  0.00     0.173 A 
ATOM     71  C   UNL A   1      39.959  33.337  35.538  1.00  0.00     0.173 A 
ATOM     72  F   UNL A   1      38.177  30.226  36.122  1.00  0.00    -0.203 F 
ATOM     73  C   UNL A   1      38.141  32.250  37.325  1.00  0.00     0.198 A 
ATOM     74  C   UNL A   1      39.500  34.094  36.613  1.00  0.00     0.198 A 
ATOM     75  F   UNL A   1      40.826  33.898  34.681  1.00  0.00    -0.203 F 
ATOM     76  F   UNL A   1      37.227  31.737  38.160  1.00  0.00    -0.200 F 
ATOM     77  C   UNL A   1      38.581  33.554  37.499  1.00  0.00     0.200 A 
ATOM     78  F   UNL A   1      39.942  35.347  36.785  1.00  0.00    -0.200 F 
ATOM     79  F   UNL A   1      38.113  34.293  38.514  1.00  0.00    -0.200 F 
ENDBRANCH  45  69
BRANCH  57  80
ATOM     80  C   UNL A   1      44.842  27.586  34.462  1.00  0.00     0.064 A 
ATOM     81  C   UNL A   1      44.708  26.460  35.287  1.00  0.00     0.173 A 
ATOM     82  C   UNL A   1      46.061  28.280  34.485  1.00  0.00     0.173 A 
ATOM     83  F   UNL A   1      43.555  25.775  35.314  1.00  0.00    -0.203 F 
ATOM     84  C   UNL A   1      45.748  26.061  36.123  1.00  0.00     0.198 A 
ATOM     85  C   UNL A   1      47.107  27.861  35.300  1.00  0.00     0.198 A 
ATOM     86  F   UNL A   1      46.239  29.360  33.709  1.00  0.00    -0.203 F 
ATOM     87  F   UNL A   1      45.582  25.012  36.940  1.00  0.00    -0.200 F 
ATOM     88  C   UNL A   1      46.948  26.757  36.124  1.00  0.00     0.200 A 
ATOM     89  F   UNL A   1      48.270  28.527  35.290  1.00  0.00    -0.200 F 
ATOM     90  F   UNL A   1      47.948  26.368  36.926  1.00  0.00    -0.200 F 
ENDBRANCH  57  80
ENDBRANCH  31  32
ENDBRANCH  24  26
ENDBRANCH  23  24
ENDBRANCH  22  23
ENDBRANCH   1  22
TORSDOF 15
ENDMDL
MODEL 3
REMARK VINA RESULT:     -11.3      1.366      2.465
REMARK SMILES CCOc1ncnc(N[C@@H]2C=C[C@H](C(=O)OCCOC(=O)c3ccc(-c4c5nc(c(-c6c(F)c(F)c(F)c(F)c6F)c6ccc([nH]6)c(-c6c(F)c(F)c(F)c(F)c6F)c6nc(c(-c7c(F)c(F)c(F)c(F)c7F)c7ccc4[nH]7)C=C6)C=C5)cc3)C2)c1C
REMARK SMILES IDX 17 1 16 2 14 3 15 4 13 5 10 6 11 7 85 8 12 9 9 10 8 12 4 13
REMARK SMILES IDX 5 14 86 15 6 16 87 17 7 18 3 19 2 20 1 21 18 22 19 23 20 24
REMARK SMILES IDX 21 25 22 26 23 27 84 28 24 29 83 30 25 31 26 32 27 33 77 34
REMARK SMILES IDX 28 35 82 36 76 37 78 38 29 39 81 40 75 41 74 42 30 44 62 45
REMARK SMILES IDX 42 46 61 47 43 48 46 49 60 50 79 51 44 52 45 53 59 55 80 56
REMARK SMILES IDX 47 57 31 58 32 59 40 60 33 61 34 62 38 63 41 64 35 65 36 66
REMARK SMILES IDX 39 67 37 68 63 69 64 70 72 71 65 72 66 73 70 74 73 75 67 76
REMARK SMILES IDX 68 77 71 78 69 79 48 80 49 81 57 82 50 83 51 84 55 85 58 86
REMARK SMILES IDX 52 87 53 88 56 89 54 90
REMARK H PARENT 9 11 78 43 46 54
REMARK Flexibility Score: inf
ROOT
ATOM      1  C   UNL A   1      32.610  29.349  24.768  1.00  0.00     0.274 C 
ENDROOT
BRANCH   1   2
ATOM      2  O   UNL A   1      31.780  28.343  24.146  1.00  0.00    -0.462 OA
BRANCH   2   3
ATOM      3  C   UNL A   1      32.257  27.070  24.263  1.00  0.00     0.312 C 
ATOM      4  O   UNL A   1      32.540  26.382  23.294  1.00  0.00    -0.252 OA
BRANCH   3   5
ATOM      5  C   UNL A   1      32.385  26.642  25.725  1.00  0.00     0.124 C 
ATOM      6  C   UNL A   1      33.213  24.337  26.061  1.00  0.00     0.104 C 
ATOM      7  C   UNL A   1      31.745  24.438  26.282  1.00  0.00    -0.006 C 
ATOM      8  C   UNL A   1      33.646  25.809  26.023  1.00  0.00     0.048 C 
ATOM      9  C   UNL A   1      31.293  25.690  26.122  1.00  0.00    -0.014 C 
BRANCH   6  10
ATOM     10  N   UNL A   1      33.625  23.560  24.902  1.00  0.00    -0.363 N 
ATOM     11  H   UNL A   1      33.360  23.928  24.028  1.00  0.00     0.162 HD
BRANCH  10  12
ATOM     12  C   UNL A   1      34.338  22.374  24.860  1.00  0.00     0.136 A 
ATOM     13  C   UNL A   1      34.471  20.025  24.757  1.00  0.00     0.221 A 
ATOM     14  N   UNL A   1      35.797  20.025  24.935  1.00  0.00    -0.201 NA
ATOM     15  C   UNL A   1      33.669  21.159  24.736  1.00  0.00     0.054 A 
ATOM     16  C   UNL A   1      36.329  21.240  25.052  1.00  0.00     0.228 A 
ATOM     17  C   UNL A   1      32.195  21.054  24.501  1.00  0.00     0.054 C 
ATOM     18  N   UNL A   1      35.673  22.406  24.981  1.00  0.00    -0.219 NA
BRANCH  13  19
ATOM     19  O   UNL A   1      33.864  18.791  24.678  1.00  0.00    -0.478 OA
BRANCH  19  20
ATOM     20  C   UNL A   1      34.789  17.773  24.288  1.00  0.00     0.228 C 
ATOM     21  C   UNL A   1      34.002  16.642  23.643  1.00  0.00     0.049 C 
ENDBRANCH  19  20
ENDBRANCH  13  19
ENDBRANCH  10  12
ENDBRANCH   6  10
ENDBRANCH   3   5
ENDBRANCH   2   3
ENDBRANCH   1   2
BRANCH   1  22
ATOM     22  C   UNL A   1      31.850  30.271  25.732  1.00  0.00     0.275 C 
BRANCH  22  23
ATOM     23  O   UNL A   1      32.468  30.367  27.034  1.00  0.00    -0.458 OA
BRANCH  23  24
ATOM     24  C   UNL A   1      33.155  31.508  27.264  1.00  0.00     0.338 C 
ATOM     25  O   UNL A   1      32.721  32.650  27.217  1.00  0.00    -0.246 OA
BRANCH  24  26
ATOM     26  C   UNL A   1      34.538  31.230  27.689  1.00  0.00     0.060 A 
ATOM     27  C   UNL A   1      34.854  29.919  28.029  1.00  0.00     0.016 A 
ATOM     28  C   UNL A   1      35.444  32.248  27.976  1.00  0.00     0.016 A 
ATOM     29  C   UNL A   1      36.006  29.613  28.737  1.00  0.00     0.010 A 
ATOM     30  C   UNL A   1      36.654  31.932  28.619  1.00  0.00     0.010 A 
ATOM     31  C   UNL A   1      36.928  30.615  29.039  1.00  0.00    -0.014 A 
BRANCH  31  32
ATOM     32  C   UNL A   1      38.123  30.275  29.858  1.00  0.00     0.031 A 
ATOM     33  C   UNL A   1      39.202  29.402  29.280  1.00  0.00     0.074 A 
ATOM     34  C   UNL A   1      38.283  30.805  31.088  1.00  0.00     0.049 A 
ATOM     35  N   UNL A   1      40.234  28.855  29.871  1.00  0.00    -0.248 NA
ATOM     36  C   UNL A   1      39.107  29.104  27.841  1.00  0.00     0.031 C 
ATOM     37  C   UNL A   1      37.357  31.733  31.737  1.00  0.00     0.029 A 
ATOM     38  N   UNL A   1      39.290  30.648  32.010  1.00  0.00    -0.354 N 
ATOM     39  C   UNL A   1      40.880  28.110  28.893  1.00  0.00     0.074 A 
ATOM     40  C   UNL A   1      40.124  28.271  27.669  1.00  0.00     0.031 C 
ATOM     41  C   UNL A   1      37.847  32.084  32.935  1.00  0.00     0.029 A 
ATOM     42  C   UNL A   1      39.070  31.330  33.182  1.00  0.00     0.049 A 
ATOM     43  H   UNL A   1      40.091  30.101  31.846  1.00  0.00     0.167 HD
ATOM     44  C   UNL A   1      42.003  27.360  29.012  1.00  0.00     0.037 A 
ATOM     45  C   UNL A   1      39.744  31.305  34.349  1.00  0.00     0.037 A 
ATOM     46  C   UNL A   1      42.768  27.238  30.225  1.00  0.00     0.049 A 
ATOM     47  C   UNL A   1      40.949  30.412  34.474  1.00  0.00     0.074 A 
ATOM     48  C   UNL A   1      43.897  26.473  30.462  1.00  0.00     0.029 A 
ATOM     49  N   UNL A   1      42.492  27.918  31.402  1.00  0.00    -0.354 N 
ATOM     50  N   UNL A   1      41.504  29.641  33.571  1.00  0.00    -0.248 NA
ATOM     51  C   UNL A   1      41.609  30.371  35.786  1.00  0.00     0.031 C 
ATOM     52  C   UNL A   1      44.286  26.668  31.791  1.00  0.00     0.029 A 
ATOM     53  C   UNL A   1      43.428  27.590  32.369  1.00  0.00     0.049 A 
ATOM     54  H   UNL A   1      41.742  28.543  31.531  1.00  0.00     0.167 HD
ATOM     55  C   UNL A   1      42.584  29.036  34.198  1.00  0.00     0.074 A 
ATOM     56  C   UNL A   1      42.622  29.550  35.551  1.00  0.00     0.031 C 
ATOM     57  C   UNL A   1      43.459  28.127  33.704  1.00  0.00     0.037 A 
BRANCH  44  58
ATOM     58  C   UNL A   1      42.454  26.587  27.807  1.00  0.00     0.064 A 
ATOM     59  C   UNL A   1      41.950  25.312  27.514  1.00  0.00     0.173 A 
ATOM     60  C   UNL A   1      43.374  27.151  26.909  1.00  0.00     0.173 A 
ATOM     61  F   UNL A   1      41.080  24.723  28.348  1.00  0.00    -0.203 F 
ATOM     62  C   UNL A   1      42.365  24.622  26.377  1.00  0.00     0.198 A 
ATOM     63  C   UNL A   1      43.765  26.471  25.759  1.00  0.00     0.198 A 
ATOM     64  F   UNL A   1      43.884  28.371  27.140  1.00  0.00    -0.203 F 
ATOM     65  F   UNL A   1      41.900  23.388  26.138  1.00  0.00    -0.200 F 
ATOM     66  C   UNL A   1      43.265  25.205  25.497  1.00  0.00     0.200 A 
ATOM     67  F   UNL A   1      44.624  27.042  24.904  1.00  0.00    -0.200 F 
ATOM     68  F   UNL A   1      43.653  24.544  24.398  1.00  0.00    -0.200 F 
ENDBRANCH  44  58
BRANCH  45  69
ATOM     69  C   UNL A   1      39.255  32.091  35.514  1.00  0.00     0.064 A 
ATOM     70  C   UNL A   1      39.657  33.418  35.718  1.00  0.00     0.173 A 
ATOM     71  C   UNL A   1      38.397  31.520  36.468  1.00  0.00     0.173 A 
ATOM     72  F   UNL A   1      40.496  34.005  34.851  1.00  0.00    -0.203 F 
ATOM     73  C   UNL A   1      39.240  34.134  36.839  1.00  0.00     0.198 A 
ATOM     74  C   UNL A   1      37.950  32.248  37.567  1.00  0.00     0.198 A 
ATOM     75  F   UNL A   1      37.984  30.252  36.326  1.00  0.00    -0.203 F 
ATOM     76  F   UNL A   1      39.686  35.382  37.038  1.00  0.00    -0.200 F 
ATOM     77  C   UNL A   1      38.381  33.551  37.758  1.00  0.00     0.200 A 
ATOM     78  F   UNL A   1      37.108  31.684  38.444  1.00  0.00    -0.200 F 
ATOM     79  F   UNL A   1      37.978  34.241  38.834  1.00  0.00    -0.200 F 
ENDBRANCH  45  69
BRANCH  57  80
ATOM     80  C   UNL A   1      44.557  27.670  34.617  1.00  0.00     0.064 A 
ATOM     81  C   UNL A   1      44.437  26.500  35.382  1.00  0.00     0.173 A 
ATOM     82  C   UNL A   1      45.754  28.396  34.704  1.00  0.00     0.173 A 
ATOM     83  F   UNL A   1      43.304  25.782  35.347  1.00  0.00    -0.203 F 
ATOM     84  C   UNL A   1      45.468  26.089  36.223  1.00  0.00     0.198 A 
ATOM     85  C   UNL A   1      46.793  27.965  35.523  1.00  0.00     0.198 A 
ATOM     86  F   UNL A   1      45.918  29.518  33.988  1.00  0.00    -0.203 F 
ATOM     87  F   UNL A   1      45.314  24.996  36.983  1.00  0.00    -0.200 F 
ATOM     88  C   UNL A   1      46.647  26.818  36.287  1.00  0.00     0.200 A 
ATOM     89  F   UNL A   1      47.936  28.664  35.575  1.00  0.00    -0.200 F 
ATOM     90  F   UNL A   1      47.640  26.417  37.094  1.00  0.00    -0.200 F 
ENDBRANCH  57  80
ENDBRANCH  31  32
ENDBRANCH  24  26
ENDBRANCH  23  24
ENDBRANCH  22  23
ENDBRANCH   1  22
TORSDOF 15
ENDMDL
