MODEL 1
REMARK VINA RESULT:     -11.2      0.000      0.000
REMARK SMILES CCOC(=O)CS[C@H]1CC(=O)N(c2ccc(C(=O)OCCOC(=O)c3ccc(-c4c5nc(c(-c6c(F)c(F)c(F)c(F)c6F)c6ccc([nH]6)c(-c6c(F)c(F)c(F)c(F)c6F)c6nc(c(-c7c(F)c(F)c(F)c(F)c7F)c7ccc4[nH]7)C=C6)C=C5)cc3)c(O)c2)C1=O
REMARK SMILES IDX 17 1 18 2 16 3 13 4 14 5 90 6 15 7 88 8 12 9 8 10 9 11 91 12
REMARK SMILES IDX 10 13 92 14 11 15 7 16 6 17 4 18 5 19 3 20 2 21 1 22 89 23
REMARK SMILES IDX 19 25 20 26 21 27 22 28 23 29 24 30 25 31 26 32 87 33 27 34
REMARK SMILES IDX 86 35 28 36 29 37 30 38 80 39 31 40 85 41 79 42 81 43 32 44
REMARK SMILES IDX 84 45 78 46 77 47 33 49 65 50 45 51 64 52 46 53 49 54 63 55
REMARK SMILES IDX 82 56 47 57 48 58 62 60 83 61 50 62 34 63 35 64 43 65 36 66
REMARK SMILES IDX 37 67 41 68 44 69 38 70 39 71 42 72 40 73 66 74 67 75 75 76
REMARK SMILES IDX 68 77 69 78 73 79 76 80 70 81 71 82 74 83 72 84 51 85 52 86
REMARK SMILES IDX 60 87 53 88 54 89 58 90 61 91 55 92 56 93 59 94 57 95
REMARK H PARENT 89 24 81 48 49 59
REMARK Flexibility Score: inf
ROOT
ATOM      1  C   UNL A   1      34.073  32.869  28.573  1.00  0.00     0.342 C 
ATOM      2  O   UNL A   1      34.605  32.737  29.659  1.00  0.00    -0.246 OA
ENDROOT
BRANCH   1   3
ATOM      3  C   UNL A   1      33.627  31.714  27.752  1.00  0.00     0.101 A 
ATOM      4  C   UNL A   1      32.953  29.396  26.290  1.00  0.00     0.055 A 
ATOM      5  C   UNL A   1      34.135  29.447  27.032  1.00  0.00     0.028 A 
ATOM      6  C   UNL A   1      32.116  30.522  26.273  1.00  0.00     0.074 A 
ATOM      7  C   UNL A   1      34.496  30.616  27.700  1.00  0.00     0.022 A 
ATOM      8  C   UNL A   1      32.427  31.653  27.041  1.00  0.00     0.132 A 
BRANCH   4   9
ATOM      9  N   UNL A   1      32.658  28.231  25.544  1.00  0.00    -0.249 N 
ATOM     10  C   UNL A   1      31.534  26.327  24.786  1.00  0.00     0.146 C 
ATOM     11  C   UNL A   1      32.656  26.649  23.820  1.00  0.00     0.125 C 
ATOM     12  C   UNL A   1      31.773  27.262  25.952  1.00  0.00     0.247 C 
ATOM     13  C   UNL A   1      33.174  27.972  24.296  1.00  0.00     0.235 C 
ATOM     14  O   UNL A   1      31.186  27.179  27.023  1.00  0.00    -0.273 OA
ATOM     15  O   UNL A   1      34.007  28.617  23.672  1.00  0.00    -0.274 OA
BRANCH  10  16
ATOM     16  S   UNL A   1      29.898  26.700  24.036  1.00  0.00    -0.136 SA
BRANCH  16  17
ATOM     17  C   UNL A   1      30.435  27.565  22.521  1.00  0.00     0.192 C 
BRANCH  17  18
ATOM     18  C   UNL A   1      29.764  28.914  22.371  1.00  0.00     0.315 C 
ATOM     19  O   UNL A   1      30.104  29.764  21.559  1.00  0.00    -0.251 OA
BRANCH  18  20
ATOM     20  O   UNL A   1      28.709  29.025  23.225  1.00  0.00    -0.465 OA
BRANCH  20  21
ATOM     21  C   UNL A   1      27.645  29.896  22.821  1.00  0.00     0.229 C 
ATOM     22  C   UNL A   1      27.688  31.190  23.611  1.00  0.00     0.049 C 
ENDBRANCH  20  21
ENDBRANCH  18  20
ENDBRANCH  17  18
ENDBRANCH  16  17
ENDBRANCH  10  16
ENDBRANCH   4   9
BRANCH   8  23
ATOM     23  O   UNL A   1      31.501  32.660  27.032  1.00  0.00    -0.507 OA
ATOM     24  H   UNL A   1      30.589  32.458  27.112  1.00  0.00     0.293 HD
ENDBRANCH   8  23
ENDBRANCH   1   3
BRANCH   1  25
ATOM     25  O   UNL A   1      33.706  34.046  27.995  1.00  0.00    -0.458 OA
BRANCH  25  26
ATOM     26  C   UNL A   1      34.008  35.230  28.768  1.00  0.00     0.275 C 
BRANCH  26  27
ATOM     27  C   UNL A   1      32.765  35.747  29.496  1.00  0.00     0.275 C 
BRANCH  27  28
ATOM     28  O   UNL A   1      33.143  36.323  30.761  1.00  0.00    -0.458 OA
BRANCH  28  29
ATOM     29  C   UNL A   1      32.747  35.649  31.864  1.00  0.00     0.338 C 
ATOM     30  O   UNL A   1      31.616  35.536  32.303  1.00  0.00    -0.246 OA
BRANCH  29  31
ATOM     31  C   UNL A   1      33.908  34.972  32.466  1.00  0.00     0.060 A 
ATOM     32  C   UNL A   1      35.152  35.584  32.362  1.00  0.00     0.016 A 
ATOM     33  C   UNL A   1      33.807  33.687  32.997  1.00  0.00     0.016 A 
ATOM     34  C   UNL A   1      36.312  34.906  32.728  1.00  0.00     0.010 A 
ATOM     35  C   UNL A   1      34.968  33.026  33.429  1.00  0.00     0.010 A 
ATOM     36  C   UNL A   1      36.238  33.614  33.267  1.00  0.00    -0.014 A 
BRANCH  36  37
ATOM     37  C   UNL A   1      37.496  32.864  33.564  1.00  0.00     0.031 A 
ATOM     38  C   UNL A   1      38.195  33.051  34.888  1.00  0.00     0.074 A 
ATOM     39  C   UNL A   1      37.982  31.958  32.692  1.00  0.00     0.049 A 
ATOM     40  N   UNL A   1      39.341  32.565  35.301  1.00  0.00    -0.248 NA
ATOM     41  C   UNL A   1      37.518  33.903  35.878  1.00  0.00     0.031 C 
ATOM     42  C   UNL A   1      37.387  31.625  31.396  1.00  0.00     0.029 A 
ATOM     43  N   UNL A   1      39.077  31.130  32.773  1.00  0.00    -0.354 N 
ATOM     44  C   UNL A   1      39.537  33.083  36.576  1.00  0.00     0.074 A 
ATOM     45  C   UNL A   1      38.403  33.934  36.864  1.00  0.00     0.031 C 
ATOM     46  C   UNL A   1      38.090  30.632  30.830  1.00  0.00     0.029 A 
ATOM     47  C   UNL A   1      39.230  30.306  31.683  1.00  0.00     0.049 A 
ATOM     48  H   UNL A   1      39.693  31.127  33.540  1.00  0.00     0.167 HD
ATOM     49  C   UNL A   1      40.563  32.864  37.434  1.00  0.00     0.037 A 
ATOM     50  C   UNL A   1      40.189  29.407  31.390  1.00  0.00     0.037 A 
ATOM     51  C   UNL A   1      41.670  31.977  37.178  1.00  0.00     0.049 A 
ATOM     52  C   UNL A   1      41.335  29.208  32.346  1.00  0.00     0.074 A 
ATOM     53  C   UNL A   1      42.769  31.712  37.978  1.00  0.00     0.029 A 
ATOM     54  N   UNL A   1      41.805  31.191  36.044  1.00  0.00    -0.354 N 
ATOM     55  N   UNL A   1      41.544  29.758  33.517  1.00  0.00    -0.248 NA
ATOM     56  C   UNL A   1      42.390  28.272  31.928  1.00  0.00     0.031 C 
ATOM     57  C   UNL A   1      43.579  30.782  37.318  1.00  0.00     0.029 A 
ATOM     58  C   UNL A   1      42.967  30.440  36.125  1.00  0.00     0.049 A 
ATOM     59  H   UNL A   1      41.168  31.169  35.292  1.00  0.00     0.167 HD
ATOM     60  C   UNL A   1      42.739  29.225  33.981  1.00  0.00     0.074 A 
ATOM     61  C   UNL A   1      43.197  28.286  32.978  1.00  0.00     0.031 C 
ATOM     62  C   UNL A   1      43.404  29.497  35.129  1.00  0.00     0.037 A 
BRANCH  49  63
ATOM     63  C   UNL A   1      40.553  33.610  38.735  1.00  0.00     0.064 A 
ATOM     64  C   UNL A   1      41.319  34.770  38.926  1.00  0.00     0.173 A 
ATOM     65  C   UNL A   1      39.728  33.187  39.788  1.00  0.00     0.173 A 
ATOM     66  F   UNL A   1      42.134  35.208  37.955  1.00  0.00    -0.203 F 
ATOM     67  C   UNL A   1      41.270  35.468  40.130  1.00  0.00     0.198 A 
ATOM     68  C   UNL A   1      39.661  33.903  40.979  1.00  0.00     0.198 A 
ATOM     69  F   UNL A   1      38.970  32.088  39.653  1.00  0.00    -0.203 F 
ATOM     70  F   UNL A   1      42.036  36.554  40.305  1.00  0.00    -0.200 F 
ATOM     71  C   UNL A   1      40.436  35.039  41.152  1.00  0.00     0.200 A 
ATOM     72  F   UNL A   1      38.844  33.495  41.961  1.00  0.00    -0.200 F 
ATOM     73  F   UNL A   1      40.381  35.721  42.305  1.00  0.00    -0.200 F 
ENDBRANCH  49  63
BRANCH  50  74
ATOM     74  C   UNL A   1      40.135  28.637  30.118  1.00  0.00     0.064 A 
ATOM     75  C   UNL A   1      39.495  27.390  30.055  1.00  0.00     0.173 A 
ATOM     76  C   UNL A   1      40.758  29.108  28.953  1.00  0.00     0.173 A 
ATOM     77  F   UNL A   1      38.912  26.880  31.151  1.00  0.00    -0.203 F 
ATOM     78  C   UNL A   1      39.499  26.637  28.882  1.00  0.00     0.198 A 
ATOM     79  C   UNL A   1      40.732  28.369  27.773  1.00  0.00     0.198 A 
ATOM     80  F   UNL A   1      41.392  30.290  28.961  1.00  0.00    -0.203 F 
ATOM     81  F   UNL A   1      38.932  25.423  28.867  1.00  0.00    -0.200 F 
ATOM     82  C   UNL A   1      40.113  27.130  27.741  1.00  0.00     0.200 A 
ATOM     83  F   UNL A   1      41.319  28.853  26.669  1.00  0.00    -0.200 F 
ATOM     84  F   UNL A   1      40.119  26.404  26.614  1.00  0.00    -0.200 F 
ENDBRANCH  50  74
BRANCH  62  85
ATOM     85  C   UNL A   1      44.677  28.743  35.378  1.00  0.00     0.064 A 
ATOM     86  C   UNL A   1      44.682  27.515  36.057  1.00  0.00     0.173 A 
ATOM     87  C   UNL A   1      45.903  29.248  34.921  1.00  0.00     0.173 A 
ATOM     88  F   UNL A   1      43.536  26.999  36.527  1.00  0.00    -0.203 F 
ATOM     89  C   UNL A   1      45.874  26.838  36.301  1.00  0.00     0.198 A 
ATOM     90  C   UNL A   1      47.089  28.554  35.143  1.00  0.00     0.198 A 
ATOM     91  F   UNL A   1      45.951  30.414  34.261  1.00  0.00    -0.203 F 
ATOM     92  F   UNL A   1      45.862  25.694  37.000  1.00  0.00    -0.200 F 
ATOM     93  C   UNL A   1      47.076  27.356  35.840  1.00  0.00     0.200 A 
ATOM     94  F   UNL A   1      48.249  29.051  34.690  1.00  0.00    -0.200 F 
ATOM     95  F   UNL A   1      48.222  26.704  36.078  1.00  0.00    -0.200 F 
ENDBRANCH  62  85
ENDBRANCH  36  37
ENDBRANCH  29  31
ENDBRANCH  28  29
ENDBRANCH  27  28
ENDBRANCH  26  27
ENDBRANCH  25  26
ENDBRANCH   1  25
TORSDOF 18
ENDMDL
MODEL 2
REMARK VINA RESULT:     -11.2      4.686      9.723
REMARK SMILES CCOC(=O)CS[C@H]1CC(=O)N(c2ccc(C(=O)OCCOC(=O)c3ccc(-c4c5nc(c(-c6c(F)c(F)c(F)c(F)c6F)c6ccc([nH]6)c(-c6c(F)c(F)c(F)c(F)c6F)c6nc(c(-c7c(F)c(F)c(F)c(F)c7F)c7ccc4[nH]7)C=C6)C=C5)cc3)c(O)c2)C1=O
REMARK SMILES IDX 17 1 18 2 16 3 13 4 14 5 90 6 15 7 88 8 12 9 8 10 9 11 91 12
REMARK SMILES IDX 10 13 92 14 11 15 7 16 6 17 4 18 5 19 3 20 2 21 1 22 89 23
REMARK SMILES IDX 19 25 20 26 21 27 22 28 23 29 24 30 25 31 26 32 87 33 27 34
REMARK SMILES IDX 86 35 28 36 29 37 30 38 80 39 31 40 85 41 79 42 81 43 32 44
REMARK SMILES IDX 84 45 78 46 77 47 33 49 65 50 45 51 64 52 46 53 49 54 63 55
REMARK SMILES IDX 82 56 47 57 48 58 62 60 83 61 50 62 34 63 35 64 43 65 36 66
REMARK SMILES IDX 37 67 41 68 44 69 38 70 39 71 42 72 40 73 66 74 67 75 75 76
REMARK SMILES IDX 68 77 69 78 73 79 76 80 70 81 71 82 74 83 72 84 51 85 52 86
REMARK SMILES IDX 60 87 53 88 54 89 58 90 61 91 55 92 56 93 59 94 57 95
REMARK H PARENT 89 24 81 48 49 59
REMARK Flexibility Score: inf
ROOT
ATOM      1  C   UNL A   1      40.886  21.025  26.436  1.00  0.00     0.342 C 
ATOM      2  O   UNL A   1      41.145  20.154  27.245  1.00  0.00    -0.246 OA
ENDROOT
BRANCH   1   3
ATOM      3  C   UNL A   1      39.493  21.391  26.071  1.00  0.00     0.101 A 
ATOM      4  C   UNL A   1      36.906  22.310  25.416  1.00  0.00     0.055 A 
ATOM      5  C   UNL A   1      37.846  23.178  25.977  1.00  0.00     0.028 A 
ATOM      6  C   UNL A   1      37.267  20.972  25.199  1.00  0.00     0.074 A 
ATOM      7  C   UNL A   1      39.100  22.705  26.359  1.00  0.00     0.022 A 
ATOM      8  C   UNL A   1      38.568  20.530  25.476  1.00  0.00     0.132 A 
BRANCH   4   9
ATOM      9  N   UNL A   1      35.609  22.793  25.126  1.00  0.00    -0.249 N 
ATOM     10  C   UNL A   1      33.699  23.386  23.917  1.00  0.00     0.146 C 
ATOM     11  C   UNL A   1      33.374  23.433  25.396  1.00  0.00     0.125 C 
ATOM     12  C   UNL A   1      35.198  23.188  23.875  1.00  0.00     0.247 C 
ATOM     13  C   UNL A   1      34.594  22.859  26.051  1.00  0.00     0.235 C 
ATOM     14  O   UNL A   1      35.870  23.286  22.857  1.00  0.00    -0.273 OA
ATOM     15  O   UNL A   1      34.645  22.614  27.250  1.00  0.00    -0.274 OA
BRANCH  10  16
ATOM     16  S   UNL A   1      32.876  21.953  23.111  1.00  0.00    -0.136 SA
BRANCH  16  17
ATOM     17  C   UNL A   1      32.257  21.074  24.586  1.00  0.00     0.192 C 
BRANCH  17  18
ATOM     18  C   UNL A   1      33.006  19.781  24.831  1.00  0.00     0.315 C 
ATOM     19  O   UNL A   1      34.213  19.647  24.681  1.00  0.00    -0.251 OA
BRANCH  18  20
ATOM     20  O   UNL A   1      32.162  18.814  25.285  1.00  0.00    -0.465 OA
BRANCH  20  21
ATOM     21  C   UNL A   1      32.763  17.588  25.721  1.00  0.00     0.229 C 
ATOM     22  C   UNL A   1      32.945  16.639  24.551  1.00  0.00     0.049 C 
ENDBRANCH  20  21
ENDBRANCH  18  20
ENDBRANCH  17  18
ENDBRANCH  16  17
ENDBRANCH  10  16
ENDBRANCH   4   9
BRANCH   8  23
ATOM     23  O   UNL A   1      38.848  19.234  25.141  1.00  0.00    -0.507 OA
ATOM     24  H   UNL A   1      38.486  18.863  24.360  1.00  0.00     0.293 HD
ENDBRANCH   8  23
ENDBRANCH   1   3
BRANCH   1  25
ATOM     25  O   UNL A   1      41.780  21.857  25.835  1.00  0.00    -0.458 OA
BRANCH  25  26
ATOM     26  C   UNL A   1      43.130  21.347  25.746  1.00  0.00     0.275 C 
BRANCH  26  27
ATOM     27  C   UNL A   1      43.978  22.191  24.791  1.00  0.00     0.275 C 
BRANCH  27  28
ATOM     28  O   UNL A   1      43.382  23.492  24.627  1.00  0.00    -0.458 OA
BRANCH  28  29
ATOM     29  C   UNL A   1      44.139  24.545  25.007  1.00  0.00     0.338 C 
ATOM     30  O   UNL A   1      45.245  24.855  24.600  1.00  0.00    -0.246 OA
BRANCH  29  31
ATOM     31  C   UNL A   1      43.390  25.360  25.979  1.00  0.00     0.060 A 
ATOM     32  C   UNL A   1      43.796  26.674  26.185  1.00  0.00     0.016 A 
ATOM     33  C   UNL A   1      42.399  24.804  26.784  1.00  0.00     0.016 A 
ATOM     34  C   UNL A   1      43.264  27.427  27.229  1.00  0.00     0.010 A 
ATOM     35  C   UNL A   1      41.813  25.583  27.795  1.00  0.00     0.010 A 
ATOM     36  C   UNL A   1      42.264  26.892  28.053  1.00  0.00    -0.014 A 
BRANCH  36  37
ATOM     37  C   UNL A   1      41.774  27.677  29.225  1.00  0.00     0.031 A 
ATOM     38  C   UNL A   1      42.547  27.665  30.521  1.00  0.00     0.074 A 
ATOM     39  C   UNL A   1      40.683  28.464  29.122  1.00  0.00     0.049 A 
ATOM     40  N   UNL A   1      42.242  28.203  31.677  1.00  0.00    -0.248 NA
ATOM     41  C   UNL A   1      43.831  26.947  30.518  1.00  0.00     0.031 C 
ATOM     42  C   UNL A   1      39.864  28.624  27.920  1.00  0.00     0.029 A 
ATOM     43  N   UNL A   1      40.088  29.298  30.039  1.00  0.00    -0.354 N 
ATOM     44  C   UNL A   1      43.273  27.856  32.542  1.00  0.00     0.074 A 
ATOM     45  C   UNL A   1      44.203  27.047  31.786  1.00  0.00     0.031 C 
ATOM     46  C   UNL A   1      38.909  29.537  28.156  1.00  0.00     0.029 A 
ATOM     47  C   UNL A   1      38.997  29.975  29.546  1.00  0.00     0.049 A 
ATOM     48  H   UNL A   1      40.413  29.402  30.962  1.00  0.00     0.167 HD
ATOM     49  C   UNL A   1      43.436  28.188  33.847  1.00  0.00     0.037 A 
ATOM     50  C   UNL A   1      38.149  30.830  30.148  1.00  0.00     0.037 A 
ATOM     51  C   UNL A   1      42.543  29.036  34.594  1.00  0.00     0.049 A 
ATOM     52  C   UNL A   1      38.335  31.155  31.606  1.00  0.00     0.074 A 
ATOM     53  C   UNL A   1      42.615  29.406  35.927  1.00  0.00     0.029 A 
ATOM     54  N   UNL A   1      41.429  29.669  34.065  1.00  0.00    -0.354 N 
ATOM     55  N   UNL A   1      39.275  30.762  32.431  1.00  0.00    -0.248 NA
ATOM     56  C   UNL A   1      37.327  32.031  32.222  1.00  0.00     0.031 C 
ATOM     57  C   UNL A   1      41.531  30.245  36.210  1.00  0.00     0.029 A 
ATOM     58  C   UNL A   1      40.807  30.428  35.045  1.00  0.00     0.049 A 
ATOM     59  H   UNL A   1      41.125  29.592  33.132  1.00  0.00     0.167 HD
ATOM     60  C   UNL A   1      38.982  31.354  33.652  1.00  0.00     0.074 A 
ATOM     61  C   UNL A   1      37.793  32.155  33.456  1.00  0.00     0.031 C 
ATOM     62  C   UNL A   1      39.634  31.234  34.834  1.00  0.00     0.037 A 
BRANCH  49  63
ATOM     63  C   UNL A   1      44.622  27.616  34.566  1.00  0.00     0.064 A 
ATOM     64  C   UNL A   1      45.861  28.273  34.582  1.00  0.00     0.173 A 
ATOM     65  C   UNL A   1      44.502  26.422  35.292  1.00  0.00     0.173 A 
ATOM     66  F   UNL A   1      46.031  29.412  33.894  1.00  0.00    -0.203 F 
ATOM     67  C   UNL A   1      46.941  27.744  35.285  1.00  0.00     0.198 A 
ATOM     68  C   UNL A   1      45.575  25.910  36.015  1.00  0.00     0.198 A 
ATOM     69  F   UNL A   1      43.335  25.759  35.315  1.00  0.00    -0.203 F 
ATOM     70  F   UNL A   1      48.127  28.368  35.258  1.00  0.00    -0.200 F 
ATOM     71  C   UNL A   1      46.796  26.568  36.006  1.00  0.00     0.200 A 
ATOM     72  F   UNL A   1      45.429  24.782  36.723  1.00  0.00    -0.200 F 
ATOM     73  F   UNL A   1      47.834  26.068  36.692  1.00  0.00    -0.200 F 
ENDBRANCH  49  63
BRANCH  50  74
ATOM     74  C   UNL A   1      37.019  31.429  29.387  1.00  0.00     0.064 A 
ATOM     75  C   UNL A   1      37.003  32.796  29.075  1.00  0.00     0.173 A 
ATOM     76  C   UNL A   1      35.914  30.659  28.997  1.00  0.00     0.173 A 
ATOM     77  F   UNL A   1      38.020  33.583  29.455  1.00  0.00    -0.203 F 
ATOM     78  C   UNL A   1      35.915  33.372  28.420  1.00  0.00     0.198 A 
ATOM     79  C   UNL A   1      34.843  31.229  28.313  1.00  0.00     0.198 A 
ATOM     80  F   UNL A   1      35.875  29.348  29.278  1.00  0.00    -0.203 F 
ATOM     81  F   UNL A   1      35.899  34.692  28.187  1.00  0.00    -0.200 F 
ATOM     82  C   UNL A   1      34.839  32.587  28.035  1.00  0.00     0.200 A 
ATOM     83  F   UNL A   1      33.809  30.465  27.934  1.00  0.00    -0.200 F 
ATOM     84  F   UNL A   1      33.792  33.142  27.408  1.00  0.00    -0.200 F 
ENDBRANCH  50  74
BRANCH  62  85
ATOM     85  C   UNL A   1      39.095  32.018  35.994  1.00  0.00     0.064 A 
ATOM     86  C   UNL A   1      38.214  31.444  36.923  1.00  0.00     0.173 A 
ATOM     87  C   UNL A   1      39.473  33.355  36.185  1.00  0.00     0.173 A 
ATOM     88  F   UNL A   1      37.811  30.173  36.774  1.00  0.00    -0.203 F 
ATOM     89  C   UNL A   1      37.705  32.191  37.981  1.00  0.00     0.198 A 
ATOM     90  C   UNL A   1      38.982  34.091  37.260  1.00  0.00     0.198 A 
ATOM     91  F   UNL A   1      40.317  33.949  35.329  1.00  0.00    -0.203 F 
ATOM     92  F   UNL A   1      36.822  31.638  38.825  1.00  0.00    -0.200 F 
ATOM     93  C   UNL A   1      38.092  33.512  38.152  1.00  0.00     0.200 A 
ATOM     94  F   UNL A   1      39.365  35.365  37.430  1.00  0.00    -0.200 F 
ATOM     95  F   UNL A   1      37.598  34.230  39.169  1.00  0.00    -0.200 F 
ENDBRANCH  62  85
ENDBRANCH  36  37
ENDBRANCH  29  31
ENDBRANCH  28  29
ENDBRANCH  27  28
ENDBRANCH  26  27
ENDBRANCH  25  26
ENDBRANCH   1  25
TORSDOF 18
ENDMDL
MODEL 3
REMARK VINA RESULT:     -11.1      7.432     12.815
REMARK SMILES CCOC(=O)CS[C@H]1CC(=O)N(c2ccc(C(=O)OCCOC(=O)c3ccc(-c4c5nc(c(-c6c(F)c(F)c(F)c(F)c6F)c6ccc([nH]6)c(-c6c(F)c(F)c(F)c(F)c6F)c6nc(c(-c7c(F)c(F)c(F)c(F)c7F)c7ccc4[nH]7)C=C6)C=C5)cc3)c(O)c2)C1=O
REMARK SMILES IDX 17 1 18 2 16 3 13 4 14 5 90 6 15 7 88 8 12 9 8 10 9 11 91 12
REMARK SMILES IDX 10 13 92 14 11 15 7 16 6 17 4 18 5 19 3 20 2 21 1 22 89 23
REMARK SMILES IDX 19 25 20 26 21 27 22 28 23 29 24 30 25 31 26 32 87 33 27 34
REMARK SMILES IDX 86 35 28 36 29 37 30 38 80 39 31 40 85 41 79 42 81 43 32 44
REMARK SMILES IDX 84 45 78 46 77 47 33 49 65 50 45 51 64 52 46 53 49 54 63 55
REMARK SMILES IDX 82 56 47 57 48 58 62 60 83 61 50 62 34 63 35 64 43 65 36 66
REMARK SMILES IDX 37 67 41 68 44 69 38 70 39 71 42 72 40 73 66 74 67 75 75 76
REMARK SMILES IDX 68 77 69 78 73 79 76 80 70 81 71 82 74 83 72 84 51 85 52 86
REMARK SMILES IDX 60 87 53 88 54 89 58 90 61 91 55 92 56 93 59 94 57 95
REMARK H PARENT 89 24 81 48 49 59
REMARK Flexibility Score: inf
ROOT
ATOM      1  C   UNL A   1      40.569  21.290  26.236  1.00  0.00     0.342 C 
ATOM      2  O   UNL A   1      41.484  22.084  26.131  1.00  0.00    -0.246 OA
ENDROOT
BRANCH   1   3
ATOM      3  C   UNL A   1      39.163  21.639  25.903  1.00  0.00     0.101 A 
ATOM      4  C   UNL A   1      36.550  22.524  25.308  1.00  0.00     0.055 A 
ATOM      5  C   UNL A   1      37.493  23.405  25.842  1.00  0.00     0.028 A 
ATOM      6  C   UNL A   1      36.921  21.189  25.088  1.00  0.00     0.074 A 
ATOM      7  C   UNL A   1      38.762  22.949  26.195  1.00  0.00     0.022 A 
ATOM      8  C   UNL A   1      38.234  20.764  25.336  1.00  0.00     0.132 A 
BRANCH   4   9
ATOM      9  N   UNL A   1      35.241  22.991  25.049  1.00  0.00    -0.249 N 
ATOM     10  C   UNL A   1      33.273  23.502  23.896  1.00  0.00     0.146 C 
ATOM     11  C   UNL A   1      33.023  23.658  25.381  1.00  0.00     0.125 C 
ATOM     12  C   UNL A   1      34.769  23.295  23.793  1.00  0.00     0.247 C 
ATOM     13  C   UNL A   1      34.273  23.129  26.016  1.00  0.00     0.235 C 
ATOM     14  O   UNL A   1      35.389  23.316  22.739  1.00  0.00    -0.273 OA
ATOM     15  O   UNL A   1      34.383  22.971  27.225  1.00  0.00    -0.274 OA
BRANCH  10  16
ATOM     16  S   UNL A   1      32.410  22.018  23.239  1.00  0.00    -0.136 SA
BRANCH  16  17
ATOM     17  C   UNL A   1      32.021  21.161  24.802  1.00  0.00     0.192 C 
BRANCH  17  18
ATOM     18  C   UNL A   1      32.834  19.896  24.973  1.00  0.00     0.315 C 
ATOM     19  O   UNL A   1      33.932  19.852  25.511  1.00  0.00    -0.251 OA
BRANCH  18  20
ATOM     20  O   UNL A   1      32.155  18.818  24.492  1.00  0.00    -0.465 OA
BRANCH  20  21
ATOM     21  C   UNL A   1      32.526  18.354  23.187  1.00  0.00     0.229 C 
ATOM     22  C   UNL A   1      33.331  17.072  23.288  1.00  0.00     0.049 C 
ENDBRANCH  20  21
ENDBRANCH  18  20
ENDBRANCH  17  18
ENDBRANCH  16  17
ENDBRANCH  10  16
ENDBRANCH   4   9
BRANCH   8  23
ATOM     23  O   UNL A   1      38.521  19.470  24.999  1.00  0.00    -0.507 OA
ATOM     24  H   UNL A   1      39.266  19.279  24.462  1.00  0.00     0.293 HD
ENDBRANCH   8  23
ENDBRANCH   1   3
BRANCH   1  25
ATOM     25  O   UNL A   1      40.680  19.971  26.551  1.00  0.00    -0.458 OA
BRANCH  25  26
ATOM     26  C   UNL A   1      41.945  19.583  27.135  1.00  0.00     0.275 C 
BRANCH  26  27
ATOM     27  C   UNL A   1      42.693  18.601  26.231  1.00  0.00     0.275 C 
BRANCH  27  28
ATOM     28  O   UNL A   1      42.923  19.201  24.942  1.00  0.00    -0.458 OA
BRANCH  28  29
ATOM     29  C   UNL A   1      44.216  19.360  24.582  1.00  0.00     0.338 C 
ATOM     30  O   UNL A   1      44.958  18.536  24.077  1.00  0.00    -0.246 OA
BRANCH  29  31
ATOM     31  C   UNL A   1      44.623  20.755  24.826  1.00  0.00     0.060 A 
ATOM     32  C   UNL A   1      45.256  21.054  26.027  1.00  0.00     0.016 A 
ATOM     33  C   UNL A   1      44.260  21.781  23.957  1.00  0.00     0.016 A 
ATOM     34  C   UNL A   1      45.481  22.376  26.402  1.00  0.00     0.010 A 
ATOM     35  C   UNL A   1      44.546  23.112  24.303  1.00  0.00     0.010 A 
ATOM     36  C   UNL A   1      45.128  23.428  25.546  1.00  0.00    -0.014 A 
BRANCH  36  37
ATOM     37  C   UNL A   1      45.287  24.840  26.005  1.00  0.00     0.031 A 
ATOM     38  C   UNL A   1      46.606  25.550  25.827  1.00  0.00     0.074 A 
ATOM     39  C   UNL A   1      44.241  25.523  26.513  1.00  0.00     0.049 A 
ATOM     40  N   UNL A   1      46.974  26.740  26.238  1.00  0.00    -0.248 NA
ATOM     41  C   UNL A   1      47.654  24.824  25.092  1.00  0.00     0.031 C 
ATOM     42  C   UNL A   1      42.889  24.990  26.695  1.00  0.00     0.029 A 
ATOM     43  N   UNL A   1      44.143  26.824  26.948  1.00  0.00    -0.354 N 
ATOM     44  C   UNL A   1      48.299  26.885  25.848  1.00  0.00     0.074 A 
ATOM     45  C   UNL A   1      48.679  25.658  25.182  1.00  0.00     0.031 C 
ATOM     46  C   UNL A   1      42.090  25.966  27.153  1.00  0.00     0.029 A 
ATOM     47  C   UNL A   1      42.882  27.173  27.369  1.00  0.00     0.049 A 
ATOM     48  H   UNL A   1      44.905  27.447  26.955  1.00  0.00     0.167 HD
ATOM     49  C   UNL A   1      49.125  27.947  26.020  1.00  0.00     0.037 A 
ATOM     50  C   UNL A   1      42.419  28.325  27.892  1.00  0.00     0.037 A 
ATOM     51  C   UNL A   1      48.740  29.193  26.634  1.00  0.00     0.049 A 
ATOM     52  C   UNL A   1      43.365  29.477  28.102  1.00  0.00     0.074 A 
ATOM     53  C   UNL A   1      49.517  30.314  26.874  1.00  0.00     0.029 A 
ATOM     54  N   UNL A   1      47.462  29.490  27.082  1.00  0.00    -0.354 N 
ATOM     55  N   UNL A   1      44.635  29.574  27.793  1.00  0.00    -0.248 NA
ATOM     56  C   UNL A   1      42.814  30.675  28.753  1.00  0.00     0.031 C 
ATOM     57  C   UNL A   1      48.713  31.282  27.486  1.00  0.00     0.029 A 
ATOM     58  C   UNL A   1      47.429  30.777  27.594  1.00  0.00     0.049 A 
ATOM     59  H   UNL A   1      46.692  28.877  27.041  1.00  0.00     0.167 HD
ATOM     60  C   UNL A   1      45.028  30.844  28.194  1.00  0.00     0.074 A 
ATOM     61  C   UNL A   1      43.857  31.492  28.743  1.00  0.00     0.031 C 
ATOM     62  C   UNL A   1      46.254  31.418  28.123  1.00  0.00     0.037 A 
BRANCH  49  63
ATOM     63  C   UNL A   1      50.543  27.808  25.552  1.00  0.00     0.064 A 
ATOM     64  C   UNL A   1      50.894  27.969  24.203  1.00  0.00     0.173 A 
ATOM     65  C   UNL A   1      51.572  27.561  26.473  1.00  0.00     0.173 A 
ATOM     66  F   UNL A   1      49.946  28.195  23.281  1.00  0.00    -0.203 F 
ATOM     67  C   UNL A   1      52.221  27.870  23.793  1.00  0.00     0.198 A 
ATOM     68  C   UNL A   1      52.900  27.489  26.064  1.00  0.00     0.198 A 
ATOM     69  F   UNL A   1      51.290  27.406  27.776  1.00  0.00    -0.203 F 
ATOM     70  F   UNL A   1      52.530  27.992  22.495  1.00  0.00    -0.200 F 
ATOM     71  C   UNL A   1      53.224  27.639  24.724  1.00  0.00     0.200 A 
ATOM     72  F   UNL A   1      53.869  27.280  26.966  1.00  0.00    -0.200 F 
ATOM     73  F   UNL A   1      54.502  27.556  24.328  1.00  0.00    -0.200 F 
ENDBRANCH  49  63
BRANCH  50  74
ATOM     74  C   UNL A   1      40.990  28.451  28.288  1.00  0.00     0.064 A 
ATOM     75  C   UNL A   1      40.035  28.957  27.394  1.00  0.00     0.173 A 
ATOM     76  C   UNL A   1      40.558  28.110  29.578  1.00  0.00     0.173 A 
ATOM     77  F   UNL A   1      40.403  29.328  26.159  1.00  0.00    -0.203 F 
ATOM     78  C   UNL A   1      38.708  29.137  27.784  1.00  0.00     0.198 A 
ATOM     79  C   UNL A   1      39.225  28.259  29.955  1.00  0.00     0.198 A 
ATOM     80  F   UNL A   1      41.432  27.630  30.475  1.00  0.00    -0.203 F 
ATOM     81  F   UNL A   1      37.829  29.678  26.929  1.00  0.00    -0.200 F 
ATOM     82  C   UNL A   1      38.304  28.782  29.062  1.00  0.00     0.200 A 
ATOM     83  F   UNL A   1      38.837  27.907  31.188  1.00  0.00    -0.200 F 
ATOM     84  F   UNL A   1      37.030  28.958  29.436  1.00  0.00    -0.200 F 
ENDBRANCH  50  74
BRANCH  62  85
ATOM     85  C   UNL A   1      46.378  32.828  28.619  1.00  0.00     0.064 A 
ATOM     86  C   UNL A   1      46.695  33.112  29.956  1.00  0.00     0.173 A 
ATOM     87  C   UNL A   1      46.188  33.908  27.744  1.00  0.00     0.173 A 
ATOM     88  F   UNL A   1      46.871  32.113  30.834  1.00  0.00    -0.203 F 
ATOM     89  C   UNL A   1      46.785  34.426  30.406  1.00  0.00     0.198 A 
ATOM     90  C   UNL A   1      46.305  35.221  28.192  1.00  0.00     0.198 A 
ATOM     91  F   UNL A   1      45.889  33.690  26.455  1.00  0.00    -0.203 F 
ATOM     92  F   UNL A   1      47.035  34.674  31.699  1.00  0.00    -0.200 F 
ATOM     93  C   UNL A   1      46.593  35.479  29.524  1.00  0.00     0.200 A 
ATOM     94  F   UNL A   1      46.129  36.238  27.337  1.00  0.00    -0.200 F 
ATOM     95  F   UNL A   1      46.676  36.743  29.960  1.00  0.00    -0.200 F 
ENDBRANCH  62  85
ENDBRANCH  36  37
ENDBRANCH  29  31
ENDBRANCH  28  29
ENDBRANCH  27  28
ENDBRANCH  26  27
ENDBRANCH  25  26
ENDBRANCH   1  25
TORSDOF 18
ENDMDL
