MODEL 1
REMARK VINA RESULT:     -12.6      0.000      0.000
REMARK SMILES CSCC[C@@H](NC(=O)[C@@H]1CC(=O)N(C)C1)C(=O)OCCOC(=O)c1ccc(-c2c3nc(c(-c4c(F)c(F)c(F)c(F)c4F)c4ccc([nH]4)c(-c4c(F)c(F)c(F)c(F)c4F)c4nc(c(-c5c(F)c(F)c(F)c(F)c5F)c5ccc2[nH]5)C=C4)C=C3)cc1
REMARK SMILES IDX 19 1 18 2 16 3 17 4 5 5 4 6 3 7 2 8 1 9 6 10 7 11 8 13 9 14
REMARK SMILES IDX 10 15 15 16 11 17 13 18 12 19 14 20 20 21 21 22 22 23 23 24
REMARK SMILES IDX 24 25 25 26 86 27 26 28 85 29 27 30 28 31 29 32 79 33 30 34
REMARK SMILES IDX 84 35 78 36 80 37 31 38 83 39 77 40 76 41 32 43 64 44 44 45
REMARK SMILES IDX 63 46 45 47 48 48 62 49 81 50 46 51 47 52 61 54 82 55 49 56
REMARK SMILES IDX 33 57 34 58 42 59 35 60 36 61 40 62 43 63 37 64 38 65 41 66
REMARK SMILES IDX 39 67 65 68 66 69 74 70 67 71 68 72 72 73 75 74 69 75 70 76
REMARK SMILES IDX 73 77 71 78 50 79 51 80 59 81 52 82 53 83 57 84 60 85 54 86
REMARK SMILES IDX 55 87 58 88 56 89
REMARK H PARENT 6 12 80 42 48 53
REMARK Flexibility Score: inf
ROOT
ATOM      1  C   UNL A   1      31.730  28.177  27.597  1.00  0.00     0.274 C 
ENDROOT
BRANCH   1   2
ATOM      2  O   UNL A   1      31.687  26.283  26.833  1.00  0.00    -0.461 OA
BRANCH   2   3
ATOM      3  C   UNL A   1      32.344  25.241  26.058  1.00  0.00     0.328 C 
ATOM      4  O   UNL A   1      33.333  24.589  26.394  1.00  0.00    -0.250 OA
BRANCH   3   5
ATOM      5  C   UNL A   1      32.023  25.342  24.596  1.00  0.00     0.193 C 
BRANCH   5   6
ATOM      6  C   UNL A   1      30.749  26.205  24.547  1.00  0.00     0.048 C 
BRANCH   6   7
ATOM      7  C   UNL A   1      30.833  27.507  23.742  1.00  0.00     0.072 C 
BRANCH   7   8
ATOM      8  S   UNL A   1      29.272  28.156  23.041  1.00  0.00    -0.165 SA
ATOM      9  C   UNL A   1      29.851  29.656  22.209  1.00  0.00     0.085 C 
ENDBRANCH   7   8
ENDBRANCH   6   7
ENDBRANCH   5   6
BRANCH   5  10
ATOM     10  N   UNL A   1      33.146  25.754  23.773  1.00  0.00    -0.342 N 
ATOM     11  C   UNL A   1      33.404  25.207  22.535  1.00  0.00     0.226 C 
ATOM     12  H   UNL A   1      33.748  26.453  24.113  1.00  0.00     0.164 HD
ATOM     13  O   UNL A   1      33.795  25.959  21.642  1.00  0.00    -0.275 OA
BRANCH  11  14
ATOM     14  C   UNL A   1      33.381  23.676  22.307  1.00  0.00     0.107 C 
ATOM     15  C   UNL A   1      31.732  22.694  22.927  1.00  0.00     0.115 C 
ATOM     16  C   UNL A   1      34.854  22.999  23.428  1.00  0.00     0.133 C 
ATOM     17  C   UNL A   1      32.349  21.562  24.569  1.00  0.00     0.223 C 
ATOM     18  N   UNL A   1      34.145  21.819  24.711  1.00  0.00    -0.345 N 
ATOM     19  O   UNL A   1      31.754  20.853  25.363  1.00  0.00    -0.275 OA
ATOM     20  C   UNL A   1      34.943  21.292  25.787  1.00  0.00     0.146 C 
ENDBRANCH  11  14
ENDBRANCH   5  10
ENDBRANCH   3   5
ENDBRANCH   2   3
ENDBRANCH   1   2
BRANCH   1  21
ATOM     21  C   UNL A   1      31.742  29.672  26.575  1.00  0.00     0.275 C 
BRANCH  21  22
ATOM     22  O   UNL A   1      33.050  30.357  26.459  1.00  0.00    -0.458 OA
BRANCH  22  23
ATOM     23  C   UNL A   1      33.409  31.424  27.230  1.00  0.00     0.338 C 
ATOM     24  O   UNL A   1      32.786  32.466  27.343  1.00  0.00    -0.246 OA
BRANCH  23  25
ATOM     25  C   UNL A   1      34.777  31.215  27.835  1.00  0.00     0.060 A 
ATOM     26  C   UNL A   1      35.754  32.214  27.969  1.00  0.00     0.016 A 
ATOM     27  C   UNL A   1      35.117  29.933  28.260  1.00  0.00     0.016 A 
ATOM     28  C   UNL A   1      36.976  31.987  28.630  1.00  0.00     0.010 A 
ATOM     29  C   UNL A   1      36.335  29.695  28.922  1.00  0.00     0.010 A 
ATOM     30  C   UNL A   1      37.264  30.726  29.150  1.00  0.00    -0.014 A 
BRANCH  30  31
ATOM     31  C   UNL A   1      38.520  30.443  29.905  1.00  0.00     0.031 A 
ATOM     32  C   UNL A   1      39.531  29.489  29.335  1.00  0.00     0.074 A 
ATOM     33  C   UNL A   1      38.716  30.965  31.133  1.00  0.00     0.049 A 
ATOM     34  N   UNL A   1      40.534  28.886  29.922  1.00  0.00    -0.248 NA
ATOM     35  C   UNL A   1      39.377  29.158  27.911  1.00  0.00     0.031 C 
ATOM     36  C   UNL A   1      37.850  31.947  31.783  1.00  0.00     0.029 A 
ATOM     37  N   UNL A   1      39.690  30.712  32.072  1.00  0.00    -0.354 N 
ATOM     38  C   UNL A   1      41.103  28.068  28.951  1.00  0.00     0.074 A 
ATOM     39  C   UNL A   1      40.327  28.248  27.743  1.00  0.00     0.031 C 
ATOM     40  C   UNL A   1      38.314  32.196  33.019  1.00  0.00     0.029 A 
ATOM     41  C   UNL A   1      39.469  31.341  33.276  1.00  0.00     0.049 A 
ATOM     42  H   UNL A   1      40.470  30.136  31.899  1.00  0.00     0.167 HD
ATOM     43  C   UNL A   1      42.173  27.243  29.066  1.00  0.00     0.037 A 
ATOM     44  C   UNL A   1      40.089  31.203  34.465  1.00  0.00     0.037 A 
ATOM     45  C   UNL A   1      42.947  27.086  30.272  1.00  0.00     0.049 A 
ATOM     46  C   UNL A   1      41.228  30.224  34.590  1.00  0.00     0.074 A 
ATOM     47  C   UNL A   1      44.058  26.289  30.490  1.00  0.00     0.029 A 
ATOM     48  N   UNL A   1      42.686  27.739  31.469  1.00  0.00    -0.354 N 
ATOM     49  N   UNL A   1      41.753  29.443  33.677  1.00  0.00    -0.248 NA
ATOM     50  C   UNL A   1      41.857  30.100  35.914  1.00  0.00     0.031 C 
ATOM     51  C   UNL A   1      44.430  26.414  31.833  1.00  0.00     0.029 A 
ATOM     52  C   UNL A   1      43.599  27.344  32.434  1.00  0.00     0.049 A 
ATOM     53  H   UNL A   1      41.960  28.389  31.611  1.00  0.00     0.167 HD
ATOM     54  C   UNL A   1      42.791  28.764  34.303  1.00  0.00     0.074 A 
ATOM     55  C   UNL A   1      42.831  29.236  35.670  1.00  0.00     0.031 C 
ATOM     56  C   UNL A   1      43.635  27.834  33.791  1.00  0.00     0.037 A 
BRANCH  43  57
ATOM     57  C   UNL A   1      42.548  26.413  27.868  1.00  0.00     0.064 A 
ATOM     58  C   UNL A   1      41.956  25.167  27.610  1.00  0.00     0.173 A 
ATOM     59  C   UNL A   1      43.492  26.889  26.945  1.00  0.00     0.173 A 
ATOM     60  F   UNL A   1      41.050  24.660  28.461  1.00  0.00    -0.203 F 
ATOM     61  C   UNL A   1      42.319  24.416  26.495  1.00  0.00     0.198 A 
ATOM     62  C   UNL A   1      43.828  26.151  25.811  1.00  0.00     0.198 A 
ATOM     63  F   UNL A   1      44.083  28.078  27.133  1.00  0.00    -0.203 F 
ATOM     64  F   UNL A   1      41.778  23.205  26.298  1.00  0.00    -0.200 F 
ATOM     65  C   UNL A   1      43.249  24.911  25.593  1.00  0.00     0.200 A 
ATOM     66  F   UNL A   1      44.711  26.642  24.931  1.00  0.00    -0.200 F 
ATOM     67  F   UNL A   1      43.591  24.192  24.515  1.00  0.00    -0.200 F 
ENDBRANCH  43  57
BRANCH  44  68
ATOM     68  C   UNL A   1      39.631  31.986  35.648  1.00  0.00     0.064 A 
ATOM     69  C   UNL A   1      38.611  31.505  36.482  1.00  0.00     0.173 A 
ATOM     70  C   UNL A   1      40.183  33.239  35.960  1.00  0.00     0.173 A 
ATOM     71  F   UNL A   1      38.028  30.328  36.214  1.00  0.00    -0.203 F 
ATOM     72  C   UNL A   1      38.150  32.251  37.566  1.00  0.00     0.198 A 
ATOM     73  C   UNL A   1      39.747  33.967  37.066  1.00  0.00     0.198 A 
ATOM     74  F   UNL A   1      41.160  33.752  35.197  1.00  0.00    -0.203 F 
ATOM     75  F   UNL A   1      37.138  31.788  38.313  1.00  0.00    -0.200 F 
ATOM     76  C   UNL A   1      38.724  33.477  37.863  1.00  0.00     0.200 A 
ATOM     77  F   UNL A   1      40.317  35.145  37.358  1.00  0.00    -0.200 F 
ATOM     78  F   UNL A   1      38.286  34.190  38.909  1.00  0.00    -0.200 F 
ENDBRANCH  44  68
BRANCH  56  79
ATOM     79  C   UNL A   1      44.711  27.305  34.697  1.00  0.00     0.064 A 
ATOM     80  C   UNL A   1      45.955  27.941  34.823  1.00  0.00     0.173 A 
ATOM     81  C   UNL A   1      44.478  26.161  35.477  1.00  0.00     0.173 A 
ATOM     82  F   UNL A   1      46.236  29.028  34.090  1.00  0.00    -0.203 F 
ATOM     83  C   UNL A   1      46.935  27.434  35.675  1.00  0.00     0.198 A 
ATOM     84  C   UNL A   1      45.445  25.680  36.354  1.00  0.00     0.198 A 
ATOM     85  F   UNL A   1      43.304  25.517  35.400  1.00  0.00    -0.203 F 
ATOM     86  F   UNL A   1      48.136  28.025  35.735  1.00  0.00    -0.200 F 
ATOM     87  C   UNL A   1      46.676  26.310  36.445  1.00  0.00     0.200 A 
ATOM     88  F   UNL A   1      45.187  24.604  37.110  1.00  0.00    -0.200 F 
ATOM     89  F   UNL A   1      47.617  25.830  37.269  1.00  0.00    -0.200 F 
ENDBRANCH  56  79
ENDBRANCH  30  31
ENDBRANCH  23  25
ENDBRANCH  22  23
ENDBRANCH  21  22
ENDBRANCH   1  21
TORSDOF 16
ENDMDL
MODEL 2
REMARK VINA RESULT:     -12.5      1.369      3.060
REMARK SMILES CSCC[C@@H](NC(=O)[C@@H]1CC(=O)N(C)C1)C(=O)OCCOC(=O)c1ccc(-c2c3nc(c(-c4c(F)c(F)c(F)c(F)c4F)c4ccc([nH]4)c(-c4c(F)c(F)c(F)c(F)c4F)c4nc(c(-c5c(F)c(F)c(F)c(F)c5F)c5ccc2[nH]5)C=C4)C=C3)cc1
REMARK SMILES IDX 19 1 18 2 16 3 17 4 5 5 4 6 3 7 2 8 1 9 6 10 7 11 8 13 9 14
REMARK SMILES IDX 10 15 15 16 11 17 13 18 12 19 14 20 20 21 21 22 22 23 23 24
REMARK SMILES IDX 24 25 25 26 86 27 26 28 85 29 27 30 28 31 29 32 79 33 30 34
REMARK SMILES IDX 84 35 78 36 80 37 31 38 83 39 77 40 76 41 32 43 64 44 44 45
REMARK SMILES IDX 63 46 45 47 48 48 62 49 81 50 46 51 47 52 61 54 82 55 49 56
REMARK SMILES IDX 33 57 34 58 42 59 35 60 36 61 40 62 43 63 37 64 38 65 41 66
REMARK SMILES IDX 39 67 65 68 66 69 74 70 67 71 68 72 72 73 75 74 69 75 70 76
REMARK SMILES IDX 73 77 71 78 50 79 51 80 59 81 52 82 53 83 57 84 60 85 54 86
REMARK SMILES IDX 55 87 58 88 56 89
REMARK H PARENT 6 12 80 42 48 53
REMARK Flexibility Score: inf
ROOT
ATOM      1  C   UNL A   1      31.844  28.164  27.589  1.00  0.00     0.274 C 
ENDROOT
BRANCH   1   2
ATOM      2  O   UNL A   1      32.703  26.586  26.618  1.00  0.00    -0.461 OA
BRANCH   2   3
ATOM      3  C   UNL A   1      33.537  26.103  25.528  1.00  0.00     0.328 C 
ATOM      4  O   UNL A   1      33.958  26.763  24.577  1.00  0.00    -0.250 OA
BRANCH   3   5
ATOM      5  C   UNL A   1      33.458  24.613  25.377  1.00  0.00     0.193 C 
BRANCH   5   6
ATOM      6  C   UNL A   1      34.778  24.101  25.981  1.00  0.00     0.048 C 
BRANCH   6   7
ATOM      7  C   UNL A   1      35.967  23.970  25.022  1.00  0.00     0.072 C 
BRANCH   7   8
ATOM      8  S   UNL A   1      37.532  23.324  25.717  1.00  0.00    -0.165 SA
ATOM      9  C   UNL A   1      37.497  21.609  25.137  1.00  0.00     0.085 C 
ENDBRANCH   7   8
ENDBRANCH   6   7
ENDBRANCH   5   6
BRANCH   5  10
ATOM     10  N   UNL A   1      32.223  24.034  25.876  1.00  0.00    -0.342 N 
ATOM     11  C   UNL A   1      31.502  23.095  25.173  1.00  0.00     0.226 C 
ATOM     12  H   UNL A   1      31.887  24.327  26.754  1.00  0.00     0.164 HD
ATOM     13  O   UNL A   1      30.986  22.171  25.805  1.00  0.00    -0.275 OA
BRANCH  11  14
ATOM     14  C   UNL A   1      31.188  23.276  23.668  1.00  0.00     0.107 C 
ATOM     15  C   UNL A   1      32.770  23.456  22.430  1.00  0.00     0.115 C 
ATOM     16  C   UNL A   1      30.244  25.005  23.576  1.00  0.00     0.133 C 
ATOM     17  C   UNL A   1      32.741  25.440  21.783  1.00  0.00     0.223 C 
ATOM     18  N   UNL A   1      31.239  26.180  22.495  1.00  0.00    -0.345 N 
ATOM     19  O   UNL A   1      33.499  26.103  21.094  1.00  0.00    -0.275 OA
ATOM     20  C   UNL A   1      30.902  27.574  22.372  1.00  0.00     0.146 C 
ENDBRANCH  11  14
ENDBRANCH   5  10
ENDBRANCH   3   5
ENDBRANCH   2   3
ENDBRANCH   1   2
BRANCH   1  21
ATOM     21  C   UNL A   1      31.631  29.804  26.849  1.00  0.00     0.275 C 
BRANCH  21  22
ATOM     22  O   UNL A   1      32.882  30.531  26.534  1.00  0.00    -0.458 OA
BRANCH  22  23
ATOM     23  C   UNL A   1      33.303  31.632  27.223  1.00  0.00     0.338 C 
ATOM     24  O   UNL A   1      32.733  32.709  27.267  1.00  0.00    -0.246 OA
BRANCH  23  25
ATOM     25  C   UNL A   1      34.667  31.399  27.828  1.00  0.00     0.060 A 
ATOM     26  C   UNL A   1      35.655  32.384  27.978  1.00  0.00     0.016 A 
ATOM     27  C   UNL A   1      34.991  30.107  28.237  1.00  0.00     0.016 A 
ATOM     28  C   UNL A   1      36.872  32.134  28.639  1.00  0.00     0.010 A 
ATOM     29  C   UNL A   1      36.204  29.845  28.898  1.00  0.00     0.010 A 
ATOM     30  C   UNL A   1      37.144  30.863  29.143  1.00  0.00    -0.014 A 
BRANCH  30  31
ATOM     31  C   UNL A   1      38.395  30.555  29.897  1.00  0.00     0.031 A 
ATOM     32  C   UNL A   1      39.395  29.595  29.318  1.00  0.00     0.074 A 
ATOM     33  C   UNL A   1      38.595  31.060  31.131  1.00  0.00     0.049 A 
ATOM     34  N   UNL A   1      40.390  28.973  29.899  1.00  0.00    -0.248 NA
ATOM     35  C   UNL A   1      39.241  29.283  27.890  1.00  0.00     0.031 C 
ATOM     36  C   UNL A   1      37.740  32.045  31.791  1.00  0.00     0.029 A 
ATOM     37  N   UNL A   1      39.564  30.784  32.069  1.00  0.00    -0.354 N 
ATOM     38  C   UNL A   1      40.951  28.160  28.920  1.00  0.00     0.074 A 
ATOM     39  C   UNL A   1      40.179  28.364  27.713  1.00  0.00     0.031 C 
ATOM     40  C   UNL A   1      38.204  32.273  33.031  1.00  0.00     0.029 A 
ATOM     41  C   UNL A   1      39.348  31.400  33.281  1.00  0.00     0.049 A 
ATOM     42  H   UNL A   1      40.337  30.200  31.891  1.00  0.00     0.167 HD
ATOM     43  C   UNL A   1      42.010  27.320  29.027  1.00  0.00     0.037 A 
ATOM     44  C   UNL A   1      39.963  31.241  34.469  1.00  0.00     0.037 A 
ATOM     45  C   UNL A   1      42.779  27.139  30.233  1.00  0.00     0.049 A 
ATOM     46  C   UNL A   1      41.090  30.246  34.584  1.00  0.00     0.074 A 
ATOM     47  C   UNL A   1      43.879  26.326  30.443  1.00  0.00     0.029 A 
ATOM     48  N   UNL A   1      42.524  27.781  31.437  1.00  0.00    -0.354 N 
ATOM     49  N   UNL A   1      41.607  29.470  33.663  1.00  0.00    -0.248 NA
ATOM     50  C   UNL A   1      41.715  30.099  35.908  1.00  0.00     0.031 C 
ATOM     51  C   UNL A   1      44.251  26.430  31.788  1.00  0.00     0.029 A 
ATOM     52  C   UNL A   1      43.430  27.363  32.399  1.00  0.00     0.049 A 
ATOM     53  H   UNL A   1      41.806  28.438  31.585  1.00  0.00     0.167 HD
ATOM     54  C   UNL A   1      42.635  28.771  34.283  1.00  0.00     0.074 A 
ATOM     55  C   UNL A   1      42.679  29.225  35.656  1.00  0.00     0.031 C 
ATOM     56  C   UNL A   1      43.469  27.836  33.761  1.00  0.00     0.037 A 
BRANCH  43  57
ATOM     57  C   UNL A   1      42.377  26.500  27.820  1.00  0.00     0.064 A 
ATOM     58  C   UNL A   1      43.354  26.918  26.904  1.00  0.00     0.173 A 
ATOM     59  C   UNL A   1      41.762  25.258  27.595  1.00  0.00     0.173 A 
ATOM     60  F   UNL A   1      43.971  28.099  27.066  1.00  0.00    -0.203 F 
ATOM     61  C   UNL A   1      43.677  26.141  25.793  1.00  0.00     0.198 A 
ATOM     62  C   UNL A   1      42.113  24.467  26.503  1.00  0.00     0.198 A 
ATOM     63  F   UNL A   1      40.829  24.800  28.443  1.00  0.00    -0.203 F 
ATOM     64  F   UNL A   1      44.576  26.586  24.904  1.00  0.00    -0.200 F 
ATOM     65  C   UNL A   1      43.062  24.914  25.597  1.00  0.00     0.200 A 
ATOM     66  F   UNL A   1      41.531  23.272  26.328  1.00  0.00    -0.200 F 
ATOM     67  F   UNL A   1      43.380  24.164  24.533  1.00  0.00    -0.200 F 
ENDBRANCH  43  57
BRANCH  44  68
ATOM     68  C   UNL A   1      39.512  32.015  35.660  1.00  0.00     0.064 A 
ATOM     69  C   UNL A   1      40.080  33.260  35.970  1.00  0.00     0.173 A 
ATOM     70  C   UNL A   1      38.524  31.523  36.527  1.00  0.00     0.173 A 
ATOM     71  F   UNL A   1      41.048  33.765  35.192  1.00  0.00    -0.203 F 
ATOM     72  C   UNL A   1      39.691  33.971  37.105  1.00  0.00     0.198 A 
ATOM     73  C   UNL A   1      38.110  32.251  37.641  1.00  0.00     0.198 A 
ATOM     74  F   UNL A   1      37.947  30.337  36.284  1.00  0.00    -0.203 F 
ATOM     75  F   UNL A   1      40.289  35.132  37.402  1.00  0.00    -0.200 F 
ATOM     76  C   UNL A   1      38.700  33.470  37.935  1.00  0.00     0.200 A 
ATOM     77  F   UNL A   1      37.140  31.770  38.432  1.00  0.00    -0.200 F 
ATOM     78  F   UNL A   1      38.322  34.157  39.021  1.00  0.00    -0.200 F 
ENDBRANCH  44  68
BRANCH  56  79
ATOM     79  C   UNL A   1      44.536  27.282  34.663  1.00  0.00     0.064 A 
ATOM     80  C   UNL A   1      45.780  27.914  34.817  1.00  0.00     0.173 A 
ATOM     81  C   UNL A   1      44.295  26.120  35.412  1.00  0.00     0.173 A 
ATOM     82  F   UNL A   1      46.069  29.018  34.113  1.00  0.00    -0.203 F 
ATOM     83  C   UNL A   1      46.751  27.384  35.663  1.00  0.00     0.198 A 
ATOM     84  C   UNL A   1      45.254  25.615  36.285  1.00  0.00     0.198 A 
ATOM     85  F   UNL A   1      43.121  25.480  35.309  1.00  0.00    -0.203 F 
ATOM     86  F   UNL A   1      47.953  27.971  35.750  1.00  0.00    -0.200 F 
ATOM     87  C   UNL A   1      46.485  26.241  36.403  1.00  0.00     0.200 A 
ATOM     88  F   UNL A   1      44.987  24.521  37.012  1.00  0.00    -0.200 F 
ATOM     89  F   UNL A   1      47.418  25.739  37.222  1.00  0.00    -0.200 F 
ENDBRANCH  56  79
ENDBRANCH  30  31
ENDBRANCH  23  25
ENDBRANCH  22  23
ENDBRANCH  21  22
ENDBRANCH   1  21
TORSDOF 16
ENDMDL
MODEL 3
REMARK VINA RESULT:     -12.4      1.316      2.565
REMARK SMILES CSCC[C@@H](NC(=O)[C@@H]1CC(=O)N(C)C1)C(=O)OCCOC(=O)c1ccc(-c2c3nc(c(-c4c(F)c(F)c(F)c(F)c4F)c4ccc([nH]4)c(-c4c(F)c(F)c(F)c(F)c4F)c4nc(c(-c5c(F)c(F)c(F)c(F)c5F)c5ccc2[nH]5)C=C4)C=C3)cc1
REMARK SMILES IDX 19 1 18 2 16 3 17 4 5 5 4 6 3 7 2 8 1 9 6 10 7 11 8 13 9 14
REMARK SMILES IDX 10 15 15 16 11 17 13 18 12 19 14 20 20 21 21 22 22 23 23 24
REMARK SMILES IDX 24 25 25 26 86 27 26 28 85 29 27 30 28 31 29 32 79 33 30 34
REMARK SMILES IDX 84 35 78 36 80 37 31 38 83 39 77 40 76 41 32 43 64 44 44 45
REMARK SMILES IDX 63 46 45 47 48 48 62 49 81 50 46 51 47 52 61 54 82 55 49 56
REMARK SMILES IDX 33 57 34 58 42 59 35 60 36 61 40 62 43 63 37 64 38 65 41 66
REMARK SMILES IDX 39 67 65 68 66 69 74 70 67 71 68 72 72 73 75 74 69 75 70 76
REMARK SMILES IDX 73 77 71 78 50 79 51 80 59 81 52 82 53 83 57 84 60 85 54 86
REMARK SMILES IDX 55 87 58 88 56 89
REMARK H PARENT 6 12 80 42 48 53
REMARK Flexibility Score: inf
ROOT
ATOM      1  C   UNL A   1      31.816  27.818  27.321  1.00  0.00     0.274 C 
ENDROOT
BRANCH   1   2
ATOM      2  O   UNL A   1      32.168  25.922  26.650  1.00  0.00    -0.461 OA
BRANCH   2   3
ATOM      3  C   UNL A   1      31.742  24.533  26.571  1.00  0.00     0.328 C 
ATOM      4  O   UNL A   1      30.930  23.971  27.306  1.00  0.00    -0.250 OA
BRANCH   3   5
ATOM      5  C   UNL A   1      32.726  23.685  25.821  1.00  0.00     0.193 C 
BRANCH   5   6
ATOM      6  C   UNL A   1      33.883  23.478  26.817  1.00  0.00     0.048 C 
BRANCH   6   7
ATOM      7  C   UNL A   1      34.560  22.103  26.806  1.00  0.00     0.072 C 
BRANCH   7   8
ATOM      8  S   UNL A   1      36.011  21.897  25.709  1.00  0.00    -0.165 SA
ATOM      9  C   UNL A   1      35.679  20.273  24.981  1.00  0.00     0.085 C 
ENDBRANCH   7   8
ENDBRANCH   6   7
ENDBRANCH   5   6
BRANCH   5  10
ATOM     10  N   UNL A   1      32.144  22.501  25.215  1.00  0.00    -0.342 N 
ATOM     11  C   UNL A   1      32.340  22.167  23.893  1.00  0.00     0.226 C 
ATOM     12  H   UNL A   1      31.584  21.913  25.771  1.00  0.00     0.164 HD
ATOM     13  O   UNL A   1      32.496  20.977  23.615  1.00  0.00    -0.275 OA
BRANCH  11  14
ATOM     14  C   UNL A   1      32.192  23.215  22.763  1.00  0.00     0.107 C 
ATOM     15  C   UNL A   1      33.583  24.673  22.695  1.00  0.00     0.115 C 
ATOM     16  C   UNL A   1      30.490  24.125  23.168  1.00  0.00     0.133 C 
ATOM     17  C   UNL A   1      32.582  26.417  23.255  1.00  0.00     0.223 C 
ATOM     18  N   UNL A   1      30.835  25.950  23.463  1.00  0.00    -0.345 N 
ATOM     19  O   UNL A   1      32.951  27.562  23.456  1.00  0.00    -0.275 OA
ATOM     20  C   UNL A   1      29.823  26.850  23.949  1.00  0.00     0.146 C 
ENDBRANCH  11  14
ENDBRANCH   5  10
ENDBRANCH   3   5
ENDBRANCH   2   3
ENDBRANCH   1   2
BRANCH   1  21
ATOM     21  C   UNL A   1      31.760  29.271  26.240  1.00  0.00     0.275 C 
BRANCH  21  22
ATOM     22  O   UNL A   1      33.003  30.074  26.182  1.00  0.00    -0.458 OA
BRANCH  22  23
ATOM     23  C   UNL A   1      33.270  31.106  27.035  1.00  0.00     0.338 C 
ATOM     24  O   UNL A   1      32.566  32.085  27.216  1.00  0.00    -0.246 OA
BRANCH  23  25
ATOM     25  C   UNL A   1      34.645  30.961  27.642  1.00  0.00     0.060 A 
ATOM     26  C   UNL A   1      35.553  32.014  27.828  1.00  0.00     0.016 A 
ATOM     27  C   UNL A   1      35.065  29.686  28.015  1.00  0.00     0.016 A 
ATOM     28  C   UNL A   1      36.783  31.839  28.490  1.00  0.00     0.010 A 
ATOM     29  C   UNL A   1      36.292  29.499  28.676  1.00  0.00     0.010 A 
ATOM     30  C   UNL A   1      37.150  30.577  28.957  1.00  0.00    -0.014 A 
BRANCH  30  31
ATOM     31  C   UNL A   1      38.417  30.344  29.711  1.00  0.00     0.031 A 
ATOM     32  C   UNL A   1      39.450  29.404  29.156  1.00  0.00     0.074 A 
ATOM     33  C   UNL A   1      38.606  30.898  30.926  1.00  0.00     0.049 A 
ATOM     34  N   UNL A   1      40.473  28.841  29.750  1.00  0.00    -0.248 NA
ATOM     35  C   UNL A   1      39.297  29.038  27.741  1.00  0.00     0.031 C 
ATOM     36  C   UNL A   1      37.719  31.872  31.559  1.00  0.00     0.029 A 
ATOM     37  N   UNL A   1      39.592  30.692  31.864  1.00  0.00    -0.354 N 
ATOM     38  C   UNL A   1      41.057  28.018  28.794  1.00  0.00     0.074 A 
ATOM     39  C   UNL A   1      40.269  28.150  27.587  1.00  0.00     0.031 C 
ATOM     40  C   UNL A   1      38.183  32.160  32.787  1.00  0.00     0.029 A 
ATOM     41  C   UNL A   1      39.362  31.341  33.056  1.00  0.00     0.049 A 
ATOM     42  H   UNL A   1      40.386  30.133  31.699  1.00  0.00     0.167 HD
ATOM     43  C   UNL A   1      42.149  27.223  28.920  1.00  0.00     0.037 A 
ATOM     44  C   UNL A   1      39.991  31.247  34.243  1.00  0.00     0.037 A 
ATOM     45  C   UNL A   1      42.933  27.113  30.125  1.00  0.00     0.049 A 
ATOM     46  C   UNL A   1      41.157  30.300  34.382  1.00  0.00     0.074 A 
ATOM     47  C   UNL A   1      44.066  26.351  30.353  1.00  0.00     0.029 A 
ATOM     48  N   UNL A   1      42.662  27.786  31.309  1.00  0.00    -0.354 N 
ATOM     49  N   UNL A   1      41.697  29.514  33.484  1.00  0.00    -0.248 NA
ATOM     50  C   UNL A   1      41.796  30.223  35.705  1.00  0.00     0.031 C 
ATOM     51  C   UNL A   1      44.443  26.516  31.690  1.00  0.00     0.029 A 
ATOM     52  C   UNL A   1      43.591  27.437  32.277  1.00  0.00     0.049 A 
ATOM     53  H   UNL A   1      41.920  28.419  31.440  1.00  0.00     0.167 HD
ATOM     54  C   UNL A   1      42.756  28.876  34.118  1.00  0.00     0.074 A 
ATOM     55  C   UNL A   1      42.791  29.379  35.475  1.00  0.00     0.031 C 
ATOM     56  C   UNL A   1      43.621  27.957  33.621  1.00  0.00     0.037 A 
BRANCH  43  57
ATOM     57  C   UNL A   1      42.539  26.377  27.739  1.00  0.00     0.064 A 
ATOM     58  C   UNL A   1      41.929  25.141  27.474  1.00  0.00     0.173 A 
ATOM     59  C   UNL A   1      43.517  26.827  26.838  1.00  0.00     0.173 A 
ATOM     60  F   UNL A   1      40.991  24.659  28.304  1.00  0.00    -0.203 F 
ATOM     61  C   UNL A   1      42.306  24.375  26.374  1.00  0.00     0.198 A 
ATOM     62  C   UNL A   1      43.868  26.074  25.719  1.00  0.00     0.198 A 
ATOM     63  F   UNL A   1      44.126  28.006  27.033  1.00  0.00    -0.203 F 
ATOM     64  F   UNL A   1      41.747  23.174  26.171  1.00  0.00    -0.200 F 
ATOM     65  C   UNL A   1      43.270  24.844  25.494  1.00  0.00     0.200 A 
ATOM     66  F   UNL A   1      44.784  26.541  24.859  1.00  0.00    -0.200 F 
ATOM     67  F   UNL A   1      43.626  24.110  24.430  1.00  0.00    -0.200 F 
ENDBRANCH  43  57
BRANCH  44  68
ATOM     68  C   UNL A   1      39.519  32.044  35.412  1.00  0.00     0.064 A 
ATOM     69  C   UNL A   1      38.582  31.518  36.313  1.00  0.00     0.173 A 
ATOM     70  C   UNL A   1      39.975  33.352  35.642  1.00  0.00     0.173 A 
ATOM     71  F   UNL A   1      38.093  30.285  36.124  1.00  0.00    -0.203 F 
ATOM     72  C   UNL A   1      38.107  32.273  37.385  1.00  0.00     0.198 A 
ATOM     73  C   UNL A   1      39.527  34.092  36.734  1.00  0.00     0.198 A 
ATOM     74  F   UNL A   1      40.869  33.909  34.812  1.00  0.00    -0.203 F 
ATOM     75  F   UNL A   1      37.172  31.763  38.198  1.00  0.00    -0.200 F 
ATOM     76  C   UNL A   1      38.585  33.556  37.600  1.00  0.00     0.200 A 
ATOM     77  F   UNL A   1      40.005  35.326  36.948  1.00  0.00    -0.200 F 
ATOM     78  F   UNL A   1      38.133  34.278  38.634  1.00  0.00    -0.200 F 
ENDBRANCH  44  68
BRANCH  56  79
ATOM     79  C   UNL A   1      44.716  27.477  34.533  1.00  0.00     0.064 A 
ATOM     80  C   UNL A   1      45.942  28.151  34.641  1.00  0.00     0.173 A 
ATOM     81  C   UNL A   1      44.520  26.342  35.335  1.00  0.00     0.173 A 
ATOM     82  F   UNL A   1      46.188  29.231  33.886  1.00  0.00    -0.203 F 
ATOM     83  C   UNL A   1      46.939  27.689  35.497  1.00  0.00     0.198 A 
ATOM     84  C   UNL A   1      45.504  25.905  36.216  1.00  0.00     0.198 A 
ATOM     85  F   UNL A   1      43.364  25.663  35.275  1.00  0.00    -0.203 F 
ATOM     86  F   UNL A   1      48.123  28.315  35.542  1.00  0.00    -0.200 F 
ATOM     87  C   UNL A   1      46.716  26.572  36.290  1.00  0.00     0.200 A 
ATOM     88  F   UNL A   1      45.280  24.837  36.994  1.00  0.00    -0.200 F 
ATOM     89  F   UNL A   1      47.674  26.135  37.118  1.00  0.00    -0.200 F 
ENDBRANCH  56  79
ENDBRANCH  30  31
ENDBRANCH  23  25
ENDBRANCH  22  23
ENDBRANCH  21  22
ENDBRANCH   1  21
TORSDOF 16
ENDMDL
