MODEL 1
REMARK VINA RESULT:     -14.5      0.000      0.000
REMARK SMILES Cc1ccccc1OC1(C(=O)OCCOC(=O)c2ccc(-c3c4nc(c(-c5c(F)c(F)c(F)c(F)c5F)c5ccc([nH]5)c(-c5c(F)c(F)c(F)c(F)c5F)c5nc(c(-c6c(F)c(F)c(F)c(F)c6F)c6ccc3[nH]6)C=C5)C=C4)cc2)CCN(C(=O)[C@H]2CCCCO2)CC1
REMARK SMILES IDX 13 1 12 2 10 3 11 4 9 5 81 6 93 7 82 8 92 9 83 10 84 11
REMARK SMILES IDX 85 12 8 13 7 14 1 15 2 16 3 17 4 18 6 19 5 20 86 21 87 22
REMARK SMILES IDX 91 23 88 24 90 25 89 26 14 27 15 28 16 29 17 30 18 31 19 32
REMARK SMILES IDX 80 33 20 34 79 35 21 36 22 37 23 38 73 39 24 40 78 41 72 42
REMARK SMILES IDX 74 43 25 44 77 45 71 46 70 47 26 49 58 50 38 51 57 52 39 53
REMARK SMILES IDX 42 54 56 55 75 56 40 57 41 58 55 60 76 61 43 62 27 63 28 64
REMARK SMILES IDX 36 65 29 66 30 67 34 68 37 69 31 70 32 71 35 72 33 73 59 74
REMARK SMILES IDX 60 75 68 76 61 77 62 78 66 79 69 80 63 81 64 82 67 83 65 84
REMARK SMILES IDX 44 85 45 86 53 87 46 88 47 89 51 90 54 91 48 92 49 93 52 94
REMARK SMILES IDX 50 95
REMARK H PARENT 74 48 42 59
REMARK Flexibility Score: inf
ROOT
ATOM      1  C   UNL A   1      34.008  28.609  27.300  1.00  0.00     0.274 C 
ENDROOT
BRANCH   1   2
ATOM      2  O   UNL A   1      34.181  27.790  26.130  1.00  0.00    -0.459 OA
BRANCH   2   3
ATOM      3  C   UNL A   1      33.036  27.104  25.811  1.00  0.00     0.350 C 
ATOM      4  O   UNL A   1      32.433  26.432  26.649  1.00  0.00    -0.247 OA
BRANCH   3   5
ATOM      5  C   UNL A   1      32.695  27.079  24.273  1.00  0.00     0.209 C 
ATOM      6  C   UNL A   1      31.317  26.420  24.312  1.00  0.00     0.082 C 
ATOM      7  C   UNL A   1      32.786  28.557  23.838  1.00  0.00     0.082 C 
ATOM      8  C   UNL A   1      30.146  27.371  24.200  1.00  0.00     0.124 C 
ATOM      9  C   UNL A   1      31.618  29.084  23.041  1.00  0.00     0.124 C 
ATOM     10  N   UNL A   1      30.300  28.557  23.363  1.00  0.00    -0.340 N 
ATOM     11  C   UNL A   1      29.106  29.120  22.893  1.00  0.00     0.251 C 
ATOM     12  O   UNL A   1      28.023  28.584  23.157  1.00  0.00    -0.272 OA
BRANCH   5  13
ATOM     13  O   UNL A   1      33.596  26.239  23.520  1.00  0.00    -0.475 OA
BRANCH  13  14
ATOM     14  C   UNL A   1      33.719  24.867  23.599  1.00  0.00     0.123 A 
ATOM     15  C   UNL A   1      35.435  24.358  25.533  1.00  0.00     0.048 C 
ATOM     16  C   UNL A   1      34.440  24.020  24.464  1.00  0.00    -0.009 A 
ATOM     17  C   UNL A   1      34.377  22.608  24.274  1.00  0.00     0.007 A 
ATOM     18  C   UNL A   1      33.690  22.026  23.222  1.00  0.00     0.001 A 
ATOM     19  C   UNL A   1      33.056  24.239  22.521  1.00  0.00     0.047 A 
ATOM     20  C   UNL A   1      33.039  22.850  22.328  1.00  0.00     0.004 A 
ENDBRANCH  13  14
ENDBRANCH   5  13
BRANCH  11  21
ATOM     21  C   UNL A   1      29.162  30.423  22.055  1.00  0.00     0.207 C 
ATOM     22  C   UNL A   1      28.078  30.427  20.970  1.00  0.00     0.042 C 
ATOM     23  O   UNL A   1      28.969  31.520  22.961  1.00  0.00    -0.368 OA
ATOM     24  C   UNL A   1      27.935  31.791  20.306  1.00  0.00     0.006 C 
ATOM     25  C   UNL A   1      28.959  32.793  22.334  1.00  0.00     0.161 C 
ATOM     26  C   UNL A   1      27.803  32.882  21.354  1.00  0.00     0.029 C 
ENDBRANCH  11  21
ENDBRANCH   3   5
ENDBRANCH   2   3
ENDBRANCH   1   2
BRANCH   1  27
ATOM     27  C   UNL A   1      33.999  30.118  27.039  1.00  0.00     0.275 C 
BRANCH  27  28
ATOM     28  O   UNL A   1      35.088  30.957  27.505  1.00  0.00    -0.458 OA
BRANCH  28  29
ATOM     29  C   UNL A   1      35.755  30.892  28.674  1.00  0.00     0.338 C 
ATOM     30  O   UNL A   1      35.390  31.505  29.676  1.00  0.00    -0.246 OA
BRANCH  29  31
ATOM     31  C   UNL A   1      36.969  30.069  28.714  1.00  0.00     0.060 A 
ATOM     32  C   UNL A   1      37.139  29.175  29.781  1.00  0.00     0.016 A 
ATOM     33  C   UNL A   1      37.880  30.113  27.662  1.00  0.00     0.016 A 
ATOM     34  C   UNL A   1      38.172  28.247  29.762  1.00  0.00     0.010 A 
ATOM     35  C   UNL A   1      38.859  29.144  27.599  1.00  0.00     0.010 A 
ATOM     36  C   UNL A   1      39.020  28.226  28.652  1.00  0.00    -0.014 A 
BRANCH  36  37
ATOM     37  C   UNL A   1      40.294  27.525  28.656  1.00  0.00     0.031 A 
ATOM     38  C   UNL A   1      40.467  26.109  28.287  1.00  0.00     0.074 A 
ATOM     39  C   UNL A   1      41.319  28.329  29.004  1.00  0.00     0.049 A 
ATOM     40  N   UNL A   1      41.382  25.342  28.780  1.00  0.00    -0.248 NA
ATOM     41  C   UNL A   1      39.598  25.420  27.342  1.00  0.00     0.031 C 
ATOM     42  C   UNL A   1      42.751  28.113  28.934  1.00  0.00     0.029 A 
ATOM     43  N   UNL A   1      41.178  29.545  29.695  1.00  0.00    -0.354 N 
ATOM     44  C   UNL A   1      41.403  24.179  28.033  1.00  0.00     0.074 A 
ATOM     45  C   UNL A   1      40.201  24.228  27.233  1.00  0.00     0.031 C 
ATOM     46  C   UNL A   1      43.345  28.980  29.777  1.00  0.00     0.029 A 
ATOM     47  C   UNL A   1      42.286  29.642  30.535  1.00  0.00     0.049 A 
ATOM     48  H   UNL A   1      40.445  30.196  29.604  1.00  0.00     0.167 HD
ATOM     49  C   UNL A   1      42.525  23.397  28.033  1.00  0.00     0.037 A 
ATOM     50  C   UNL A   1      42.107  29.556  31.885  1.00  0.00     0.037 A 
ATOM     51  C   UNL A   1      43.561  24.020  28.846  1.00  0.00     0.049 A 
ATOM     52  C   UNL A   1      42.889  28.407  32.457  1.00  0.00     0.074 A 
ATOM     53  C   UNL A   1      44.562  24.908  28.488  1.00  0.00     0.029 A 
ATOM     54  N   UNL A   1      43.447  24.074  30.228  1.00  0.00    -0.354 N 
ATOM     55  N   UNL A   1      43.051  27.264  31.849  1.00  0.00    -0.248 NA
ATOM     56  C   UNL A   1      43.587  28.492  33.733  1.00  0.00     0.031 C 
ATOM     57  C   UNL A   1      44.998  25.566  29.659  1.00  0.00     0.029 A 
ATOM     58  C   UNL A   1      44.290  25.047  30.730  1.00  0.00     0.049 A 
ATOM     59  H   UNL A   1      42.854  23.505  30.769  1.00  0.00     0.167 HD
ATOM     60  C   UNL A   1      43.925  26.505  32.581  1.00  0.00     0.074 A 
ATOM     61  C   UNL A   1      44.210  27.302  33.762  1.00  0.00     0.031 C 
ATOM     62  C   UNL A   1      44.394  25.299  32.154  1.00  0.00     0.037 A 
BRANCH  49  63
ATOM     63  C   UNL A   1      42.831  22.305  27.023  1.00  0.00     0.064 A 
ATOM     64  C   UNL A   1      42.187  21.046  27.102  1.00  0.00     0.173 A 
ATOM     65  C   UNL A   1      43.771  22.416  25.984  1.00  0.00     0.173 A 
ATOM     66  F   UNL A   1      41.175  20.827  27.953  1.00  0.00    -0.203 F 
ATOM     67  C   UNL A   1      42.552  19.957  26.305  1.00  0.00     0.198 A 
ATOM     68  C   UNL A   1      44.162  21.314  25.208  1.00  0.00     0.198 A 
ATOM     69  F   UNL A   1      44.304  23.600  25.658  1.00  0.00    -0.203 F 
ATOM     70  F   UNL A   1      41.918  18.784  26.452  1.00  0.00    -0.200 F 
ATOM     71  C   UNL A   1      43.567  20.080  25.383  1.00  0.00     0.200 A 
ATOM     72  F   UNL A   1      45.126  21.458  24.286  1.00  0.00    -0.200 F 
ATOM     73  F   UNL A   1      43.949  19.026  24.649  1.00  0.00    -0.200 F 
ENDBRANCH  49  63
BRANCH  50  74
ATOM     74  C   UNL A   1      40.773  30.005  32.398  1.00  0.00     0.064 A 
ATOM     75  C   UNL A   1      40.436  31.376  32.355  1.00  0.00     0.173 A 
ATOM     76  C   UNL A   1      39.739  29.115  32.721  1.00  0.00     0.173 A 
ATOM     77  F   UNL A   1      41.377  32.290  32.065  1.00  0.00    -0.203 F 
ATOM     78  C   UNL A   1      39.125  31.823  32.536  1.00  0.00     0.198 A 
ATOM     79  C   UNL A   1      38.429  29.567  32.920  1.00  0.00     0.198 A 
ATOM     80  F   UNL A   1      39.972  27.798  32.792  1.00  0.00    -0.203 F 
ATOM     81  F   UNL A   1      38.839  33.126  32.407  1.00  0.00    -0.200 F 
ATOM     82  C   UNL A   1      38.119  30.914  32.807  1.00  0.00     0.200 A 
ATOM     83  F   UNL A   1      37.451  28.686  33.177  1.00  0.00    -0.200 F 
ATOM     84  F   UNL A   1      36.851  31.327  32.940  1.00  0.00    -0.200 F 
ENDBRANCH  50  74
BRANCH  62  85
ATOM     85  C   UNL A   1      45.133  24.307  33.008  1.00  0.00     0.064 A 
ATOM     86  C   UNL A   1      46.416  24.548  33.522  1.00  0.00     0.173 A 
ATOM     87  C   UNL A   1      44.490  23.137  33.478  1.00  0.00     0.173 A 
ATOM     88  F   UNL A   1      47.074  25.683  33.247  1.00  0.00    -0.203 F 
ATOM     89  C   UNL A   1      47.040  23.653  34.389  1.00  0.00     0.198 A 
ATOM     90  C   UNL A   1      45.092  22.277  34.392  1.00  0.00     0.198 A 
ATOM     91  F   UNL A   1      43.249  22.810  33.090  1.00  0.00    -0.203 F 
ATOM     92  F   UNL A   1      48.284  23.906  34.818  1.00  0.00    -0.200 F 
ATOM     93  C   UNL A   1      46.375  22.526  34.834  1.00  0.00     0.200 A 
ATOM     94  F   UNL A   1      44.413  21.220  34.859  1.00  0.00    -0.200 F 
ATOM     95  F   UNL A   1      46.959  21.696  35.707  1.00  0.00    -0.200 F 
ENDBRANCH  62  85
ENDBRANCH  36  37
ENDBRANCH  29  31
ENDBRANCH  28  29
ENDBRANCH  27  28
ENDBRANCH   1  27
TORSDOF 14
ENDMDL
MODEL 2
REMARK VINA RESULT:     -14.4      1.221      4.182
REMARK SMILES Cc1ccccc1OC1(C(=O)OCCOC(=O)c2ccc(-c3c4nc(c(-c5c(F)c(F)c(F)c(F)c5F)c5ccc([nH]5)c(-c5c(F)c(F)c(F)c(F)c5F)c5nc(c(-c6c(F)c(F)c(F)c(F)c6F)c6ccc3[nH]6)C=C5)C=C4)cc2)CCN(C(=O)[C@H]2CCCCO2)CC1
REMARK SMILES IDX 13 1 12 2 10 3 11 4 9 5 81 6 93 7 82 8 92 9 83 10 84 11
REMARK SMILES IDX 85 12 8 13 7 14 1 15 2 16 3 17 4 18 6 19 5 20 86 21 87 22
REMARK SMILES IDX 91 23 88 24 90 25 89 26 14 27 15 28 16 29 17 30 18 31 19 32
REMARK SMILES IDX 80 33 20 34 79 35 21 36 22 37 23 38 73 39 24 40 78 41 72 42
REMARK SMILES IDX 74 43 25 44 77 45 71 46 70 47 26 49 58 50 38 51 57 52 39 53
REMARK SMILES IDX 42 54 56 55 75 56 40 57 41 58 55 60 76 61 43 62 27 63 28 64
REMARK SMILES IDX 36 65 29 66 30 67 34 68 37 69 31 70 32 71 35 72 33 73 59 74
REMARK SMILES IDX 60 75 68 76 61 77 62 78 66 79 69 80 63 81 64 82 67 83 65 84
REMARK SMILES IDX 44 85 45 86 53 87 46 88 47 89 51 90 54 91 48 92 49 93 52 94
REMARK SMILES IDX 50 95
REMARK H PARENT 74 48 42 59
REMARK Flexibility Score: inf
ROOT
ATOM      1  C   UNL A   1      32.833  30.112  26.259  1.00  0.00     0.274 C 
ENDROOT
BRANCH   1   2
ATOM      2  O   UNL A   1      32.634  29.351  25.055  1.00  0.00    -0.459 OA
BRANCH   2   3
ATOM      3  C   UNL A   1      31.785  28.291  25.253  1.00  0.00     0.350 C 
ATOM      4  O   UNL A   1      31.219  28.112  26.332  1.00  0.00    -0.247 OA
BRANCH   3   5
ATOM      5  C   UNL A   1      31.770  27.236  24.083  1.00  0.00     0.209 C 
ATOM      6  C   UNL A   1      33.269  27.099  23.823  1.00  0.00     0.082 C 
ATOM      7  C   UNL A   1      31.015  26.025  24.670  1.00  0.00     0.082 C 
ATOM      8  C   UNL A   1      33.920  25.881  24.443  1.00  0.00     0.124 C 
ATOM      9  C   UNL A   1      31.682  24.683  24.494  1.00  0.00     0.124 C 
ATOM     10  N   UNL A   1      33.137  24.653  24.531  1.00  0.00    -0.340 N 
ATOM     11  C   UNL A   1      33.884  23.471  24.632  1.00  0.00     0.251 C 
ATOM     12  O   UNL A   1      35.119  23.514  24.597  1.00  0.00    -0.272 OA
BRANCH   5  13
ATOM     13  O   UNL A   1      31.132  27.743  22.890  1.00  0.00    -0.475 OA
BRANCH  13  14
ATOM     14  C   UNL A   1      29.961  28.468  22.814  1.00  0.00     0.123 A 
ATOM     15  C   UNL A   1      28.034  26.915  23.720  1.00  0.00     0.048 C 
ATOM     16  C   UNL A   1      28.636  28.186  23.200  1.00  0.00    -0.009 A 
ATOM     17  C   UNL A   1      27.617  29.157  22.968  1.00  0.00     0.007 A 
ATOM     18  C   UNL A   1      27.860  30.350  22.308  1.00  0.00     0.001 A 
ATOM     19  C   UNL A   1      30.163  29.680  22.118  1.00  0.00     0.047 A 
ATOM     20  C   UNL A   1      29.140  30.605  21.863  1.00  0.00     0.004 A 
ENDBRANCH  13  14
ENDBRANCH   5  13
BRANCH  11  21
ATOM     21  C   UNL A   1      33.143  22.120  24.802  1.00  0.00     0.207 C 
ATOM     22  C   UNL A   1      32.886  21.458  23.443  1.00  0.00     0.042 C 
ATOM     23  O   UNL A   1      33.970  21.280  25.621  1.00  0.00    -0.368 OA
ATOM     24  C   UNL A   1      32.400  20.021  23.586  1.00  0.00     0.006 C 
ATOM     25  C   UNL A   1      33.440  19.982  25.840  1.00  0.00     0.161 C 
ATOM     26  C   UNL A   1      33.309  19.242  24.521  1.00  0.00     0.029 C 
ENDBRANCH  11  21
ENDBRANCH   3   5
ENDBRANCH   2   3
ENDBRANCH   1   2
BRANCH   1  27
ATOM     27  C   UNL A   1      34.105  29.770  27.040  1.00  0.00     0.275 C 
BRANCH  27  28
ATOM     28  O   UNL A   1      34.992  30.819  27.509  1.00  0.00    -0.458 OA
BRANCH  28  29
ATOM     29  C   UNL A   1      35.721  30.855  28.642  1.00  0.00     0.338 C 
ATOM     30  O   UNL A   1      35.402  31.546  29.608  1.00  0.00    -0.246 OA
BRANCH  29  31
ATOM     31  C   UNL A   1      36.946  30.048  28.682  1.00  0.00     0.060 A 
ATOM     32  C   UNL A   1      37.117  29.142  29.738  1.00  0.00     0.016 A 
ATOM     33  C   UNL A   1      37.867  30.119  27.640  1.00  0.00     0.016 A 
ATOM     34  C   UNL A   1      38.163  28.228  29.717  1.00  0.00     0.010 A 
ATOM     35  C   UNL A   1      38.860  29.165  27.574  1.00  0.00     0.010 A 
ATOM     36  C   UNL A   1      39.022  28.235  28.616  1.00  0.00    -0.014 A 
BRANCH  36  37
ATOM     37  C   UNL A   1      40.306  27.550  28.623  1.00  0.00     0.031 A 
ATOM     38  C   UNL A   1      40.500  26.139  28.248  1.00  0.00     0.074 A 
ATOM     39  C   UNL A   1      41.318  28.367  28.980  1.00  0.00     0.049 A 
ATOM     40  N   UNL A   1      41.423  25.382  28.742  1.00  0.00    -0.248 NA
ATOM     41  C   UNL A   1      39.645  25.443  27.296  1.00  0.00     0.031 C 
ATOM     42  C   UNL A   1      42.753  28.170  28.916  1.00  0.00     0.029 A 
ATOM     43  N   UNL A   1      41.157  29.578  29.676  1.00  0.00    -0.354 N 
ATOM     44  C   UNL A   1      41.463  24.223  27.990  1.00  0.00     0.074 A 
ATOM     45  C   UNL A   1      40.265  24.259  27.184  1.00  0.00     0.031 C 
ATOM     46  C   UNL A   1      43.330  29.041  29.767  1.00  0.00     0.029 A 
ATOM     47  C   UNL A   1      42.259  29.685  30.523  1.00  0.00     0.049 A 
ATOM     48  H   UNL A   1      40.415  30.219  29.585  1.00  0.00     0.167 HD
ATOM     49  C   UNL A   1      42.596  23.456  27.992  1.00  0.00     0.037 A 
ATOM     50  C   UNL A   1      42.074  29.591  31.872  1.00  0.00     0.037 A 
ATOM     51  C   UNL A   1      43.619  24.090  28.814  1.00  0.00     0.049 A 
ATOM     52  C   UNL A   1      42.869  28.450  32.442  1.00  0.00     0.074 A 
ATOM     53  C   UNL A   1      44.610  24.993  28.465  1.00  0.00     0.029 A 
ATOM     54  N   UNL A   1      43.498  24.136  30.195  1.00  0.00    -0.354 N 
ATOM     55  N   UNL A   1      43.050  27.312  31.829  1.00  0.00    -0.248 NA
ATOM     56  C   UNL A   1      43.559  28.538  33.722  1.00  0.00     0.031 C 
ATOM     57  C   UNL A   1      45.031  25.651  29.641  1.00  0.00     0.029 A 
ATOM     58  C   UNL A   1      44.324  25.118  30.707  1.00  0.00     0.049 A 
ATOM     59  H   UNL A   1      42.909  23.556  30.731  1.00  0.00     0.167 HD
ATOM     60  C   UNL A   1      43.930  26.562  32.562  1.00  0.00     0.074 A 
ATOM     61  C   UNL A   1      44.197  27.356  33.749  1.00  0.00     0.031 C 
ATOM     62  C   UNL A   1      44.418  25.364  32.132  1.00  0.00     0.037 A 
BRANCH  49  63
ATOM     63  C   UNL A   1      42.922  22.374  26.979  1.00  0.00     0.064 A 
ATOM     64  C   UNL A   1      42.313  21.098  27.063  1.00  0.00     0.173 A 
ATOM     65  C   UNL A   1      43.849  22.510  25.931  1.00  0.00     0.173 A 
ATOM     66  F   UNL A   1      41.316  20.851  27.923  1.00  0.00    -0.203 F 
ATOM     67  C   UNL A   1      42.700  20.020  26.262  1.00  0.00     0.198 A 
ATOM     68  C   UNL A   1      44.263  21.421  25.150  1.00  0.00     0.198 A 
ATOM     69  F   UNL A   1      44.347  23.709  25.600  1.00  0.00    -0.203 F 
ATOM     70  F   UNL A   1      42.100  18.830  26.413  1.00  0.00    -0.200 F 
ATOM     71  C   UNL A   1      43.703  20.171  25.330  1.00  0.00     0.200 A 
ATOM     72  F   UNL A   1      45.214  21.591  24.220  1.00  0.00    -0.200 F 
ATOM     73  F   UNL A   1      44.106  19.128  24.592  1.00  0.00    -0.200 F 
ENDBRANCH  49  63
BRANCH  50  74
ATOM     74  C   UNL A   1      40.731  30.019  32.379  1.00  0.00     0.064 A 
ATOM     75  C   UNL A   1      40.363  31.381  32.312  1.00  0.00     0.173 A 
ATOM     76  C   UNL A   1      39.719  29.113  32.721  1.00  0.00     0.173 A 
ATOM     77  F   UNL A   1      41.284  32.311  32.003  1.00  0.00    -0.203 F 
ATOM     78  C   UNL A   1      39.044  31.802  32.489  1.00  0.00     0.198 A 
ATOM     79  C   UNL A   1      38.399  29.538  32.915  1.00  0.00     0.198 A 
ATOM     80  F   UNL A   1      39.981  27.802  32.816  1.00  0.00    -0.203 F 
ATOM     81  F   UNL A   1      38.728  33.096  32.337  1.00  0.00    -0.200 F 
ATOM     82  C   UNL A   1      38.059  30.875  32.778  1.00  0.00     0.200 A 
ATOM     83  F   UNL A   1      37.441  28.641  33.191  1.00  0.00    -0.200 F 
ATOM     84  F   UNL A   1      36.782  31.263  32.908  1.00  0.00    -0.200 F 
ENDBRANCH  50  74
BRANCH  62  85
ATOM     85  C   UNL A   1      45.166  24.378  32.985  1.00  0.00     0.064 A 
ATOM     86  C   UNL A   1      46.457  24.619  33.477  1.00  0.00     0.173 A 
ATOM     87  C   UNL A   1      44.525  23.215  33.477  1.00  0.00     0.173 A 
ATOM     88  F   UNL A   1      47.116  25.748  33.180  1.00  0.00    -0.203 F 
ATOM     89  C   UNL A   1      47.091  23.731  34.344  1.00  0.00     0.198 A 
ATOM     90  C   UNL A   1      45.138  22.363  34.391  1.00  0.00     0.198 A 
ATOM     91  F   UNL A   1      43.277  22.890  33.112  1.00  0.00    -0.203 F 
ATOM     92  F   UNL A   1      48.343  23.983  34.751  1.00  0.00    -0.200 F 
ATOM     93  C   UNL A   1      46.428  22.611  34.811  1.00  0.00     0.200 A 
ATOM     94  F   UNL A   1      44.462  21.314  34.880  1.00  0.00    -0.200 F 
ATOM     95  F   UNL A   1      47.022  21.788  35.684  1.00  0.00    -0.200 F 
ENDBRANCH  62  85
ENDBRANCH  36  37
ENDBRANCH  29  31
ENDBRANCH  28  29
ENDBRANCH  27  28
ENDBRANCH   1  27
TORSDOF 14
ENDMDL
MODEL 3
REMARK VINA RESULT:     -14.2      4.073     10.007
REMARK SMILES Cc1ccccc1OC1(C(=O)OCCOC(=O)c2ccc(-c3c4nc(c(-c5c(F)c(F)c(F)c(F)c5F)c5ccc([nH]5)c(-c5c(F)c(F)c(F)c(F)c5F)c5nc(c(-c6c(F)c(F)c(F)c(F)c6F)c6ccc3[nH]6)C=C5)C=C4)cc2)CCN(C(=O)[C@H]2CCCCO2)CC1
REMARK SMILES IDX 13 1 12 2 10 3 11 4 9 5 81 6 93 7 82 8 92 9 83 10 84 11
REMARK SMILES IDX 85 12 8 13 7 14 1 15 2 16 3 17 4 18 6 19 5 20 86 21 87 22
REMARK SMILES IDX 91 23 88 24 90 25 89 26 14 27 15 28 16 29 17 30 18 31 19 32
REMARK SMILES IDX 80 33 20 34 79 35 21 36 22 37 23 38 73 39 24 40 78 41 72 42
REMARK SMILES IDX 74 43 25 44 77 45 71 46 70 47 26 49 58 50 38 51 57 52 39 53
REMARK SMILES IDX 42 54 56 55 75 56 40 57 41 58 55 60 76 61 43 62 27 63 28 64
REMARK SMILES IDX 36 65 29 66 30 67 34 68 37 69 31 70 32 71 35 72 33 73 59 74
REMARK SMILES IDX 60 75 68 76 61 77 62 78 66 79 69 80 63 81 64 82 67 83 65 84
REMARK SMILES IDX 44 85 45 86 53 87 46 88 47 89 51 90 54 91 48 92 49 93 52 94
REMARK SMILES IDX 50 95
REMARK H PARENT 74 48 42 59
REMARK Flexibility Score: inf
ROOT
ATOM      1  C   UNL A   1      38.095  21.326  25.294  1.00  0.00     0.274 C 
ENDROOT
BRANCH   1   2
ATOM      2  O   UNL A   1      36.715  21.348  25.698  1.00  0.00    -0.459 OA
BRANCH   2   3
ATOM      3  C   UNL A   1      35.896  21.810  24.698  1.00  0.00     0.350 C 
ATOM      4  O   UNL A   1      36.354  22.320  23.675  1.00  0.00    -0.247 OA
BRANCH   3   5
ATOM      5  C   UNL A   1      34.364  21.827  25.062  1.00  0.00     0.209 C 
ATOM      6  C   UNL A   1      34.386  22.742  26.285  1.00  0.00     0.082 C 
ATOM      7  C   UNL A   1      33.672  22.336  23.780  1.00  0.00     0.082 C 
ATOM      8  C   UNL A   1      33.981  24.177  26.022  1.00  0.00     0.124 C 
ATOM      9  C   UNL A   1      32.677  23.455  23.966  1.00  0.00     0.124 C 
ATOM     10  N   UNL A   1      32.958  24.428  25.012  1.00  0.00    -0.340 N 
ATOM     11  C   UNL A   1      32.272  25.644  25.141  1.00  0.00     0.251 C 
ATOM     12  O   UNL A   1      32.521  26.397  26.090  1.00  0.00    -0.272 OA
BRANCH   5  13
ATOM     13  O   UNL A   1      33.875  20.527  25.459  1.00  0.00    -0.475 OA
BRANCH  13  14
ATOM     14  C   UNL A   1      33.759  19.403  24.668  1.00  0.00     0.123 A 
ATOM     15  C   UNL A   1      36.013  18.058  24.905  1.00  0.00     0.048 C 
ATOM     16  C   UNL A   1      34.609  18.303  24.440  1.00  0.00    -0.009 A 
ATOM     17  C   UNL A   1      34.205  17.283  23.528  1.00  0.00     0.007 A 
ATOM     18  C   UNL A   1      33.034  17.360  22.793  1.00  0.00     0.001 A 
ATOM     19  C   UNL A   1      32.589  19.461  23.878  1.00  0.00     0.047 A 
ATOM     20  C   UNL A   1      32.228  18.468  22.956  1.00  0.00     0.004 A 
ENDBRANCH  13  14
ENDBRANCH   5  13
BRANCH  11  21
ATOM     21  C   UNL A   1      31.216  26.034  24.075  1.00  0.00     0.207 C 
ATOM     22  C   UNL A   1      29.811  26.087  24.687  1.00  0.00     0.042 C 
ATOM     23  O   UNL A   1      31.588  27.320  23.558  1.00  0.00    -0.368 OA
ATOM     24  C   UNL A   1      28.796  26.717  23.741  1.00  0.00     0.006 C 
ATOM     25  C   UNL A   1      30.689  27.836  22.588  1.00  0.00     0.161 C 
ATOM     26  C   UNL A   1      29.317  28.039  23.204  1.00  0.00     0.029 C 
ENDBRANCH  11  21
ENDBRANCH   3   5
ENDBRANCH   2   3
ENDBRANCH   1   2
BRANCH   1  27
ATOM     27  C   UNL A   1      39.078  21.919  26.310  1.00  0.00     0.275 C 
BRANCH  27  28
ATOM     28  O   UNL A   1      39.338  23.347  26.342  1.00  0.00    -0.458 OA
BRANCH  28  29
ATOM     29  C   UNL A   1      40.469  23.984  26.703  1.00  0.00     0.338 C 
ATOM     30  O   UNL A   1      41.584  23.488  26.543  1.00  0.00    -0.246 OA
BRANCH  29  31
ATOM     31  C   UNL A   1      40.330  25.304  27.329  1.00  0.00     0.060 A 
ATOM     32  C   UNL A   1      40.474  26.444  26.526  1.00  0.00     0.016 A 
ATOM     33  C   UNL A   1      39.971  25.409  28.669  1.00  0.00     0.016 A 
ATOM     34  C   UNL A   1      40.166  27.701  27.031  1.00  0.00     0.010 A 
ATOM     35  C   UNL A   1      39.589  26.643  29.153  1.00  0.00     0.010 A 
ATOM     36  C   UNL A   1      39.704  27.789  28.346  1.00  0.00    -0.014 A 
BRANCH  36  37
ATOM     37  C   UNL A   1      39.644  29.049  29.070  1.00  0.00     0.031 A 
ATOM     38  C   UNL A   1      38.572  30.048  28.918  1.00  0.00     0.074 A 
ATOM     39  C   UNL A   1      40.670  29.191  29.933  1.00  0.00     0.049 A 
ATOM     40  N   UNL A   1      38.742  31.318  29.077  1.00  0.00    -0.248 NA
ATOM     41  C   UNL A   1      37.208  29.701  28.542  1.00  0.00     0.031 C 
ATOM     42  C   UNL A   1      40.887  30.164  30.986  1.00  0.00     0.029 A 
ATOM     43  N   UNL A   1      41.876  28.470  29.864  1.00  0.00    -0.354 N 
ATOM     44  C   UNL A   1      37.493  31.910  29.104  1.00  0.00     0.074 A 
ATOM     45  C   UNL A   1      36.584  30.883  28.649  1.00  0.00     0.031 C 
ATOM     46  C   UNL A   1      42.204  30.183  31.270  1.00  0.00     0.029 A 
ATOM     47  C   UNL A   1      42.875  29.350  30.276  1.00  0.00     0.049 A 
ATOM     48  H   UNL A   1      41.989  27.534  29.581  1.00  0.00     0.167 HD
ATOM     49  C   UNL A   1      37.340  33.138  29.688  1.00  0.00     0.037 A 
ATOM     50  C   UNL A   1      43.793  29.788  29.365  1.00  0.00     0.037 A 
ATOM     51  C   UNL A   1      38.613  33.583  30.241  1.00  0.00     0.049 A 
ATOM     52  C   UNL A   1      43.758  31.286  29.248  1.00  0.00     0.074 A 
ATOM     53  C   UNL A   1      39.150  33.398  31.505  1.00  0.00     0.029 A 
ATOM     54  N   UNL A   1      39.655  33.968  29.411  1.00  0.00    -0.354 N 
ATOM     55  N   UNL A   1      42.665  31.995  29.313  1.00  0.00    -0.248 NA
ATOM     56  C   UNL A   1      44.965  32.088  29.103  1.00  0.00     0.031 C 
ATOM     57  C   UNL A   1      40.545  33.594  31.416  1.00  0.00     0.029 A 
ATOM     58  C   UNL A   1      40.848  33.936  30.108  1.00  0.00     0.049 A 
ATOM     59  H   UNL A   1      39.560  34.226  28.465  1.00  0.00     0.167 HD
ATOM     60  C   UNL A   1      43.009  33.320  29.312  1.00  0.00     0.074 A 
ATOM     61  C   UNL A   1      44.453  33.329  29.151  1.00  0.00     0.031 C 
ATOM     62  C   UNL A   1      42.100  34.321  29.489  1.00  0.00     0.037 A 
BRANCH  49  63
ATOM     63  C   UNL A   1      36.015  33.751  30.102  1.00  0.00     0.064 A 
ATOM     64  C   UNL A   1      35.140  34.304  29.134  1.00  0.00     0.173 A 
ATOM     65  C   UNL A   1      35.564  33.864  31.428  1.00  0.00     0.173 A 
ATOM     66  F   UNL A   1      35.365  34.160  27.821  1.00  0.00    -0.203 F 
ATOM     67  C   UNL A   1      33.993  35.026  29.474  1.00  0.00     0.198 A 
ATOM     68  C   UNL A   1      34.432  34.618  31.773  1.00  0.00     0.198 A 
ATOM     69  F   UNL A   1      36.177  33.212  32.425  1.00  0.00    -0.203 F 
ATOM     70  F   UNL A   1      33.224  35.546  28.507  1.00  0.00    -0.200 F 
ATOM     71  C   UNL A   1      33.658  35.216  30.797  1.00  0.00     0.200 A 
ATOM     72  F   UNL A   1      34.096  34.763  33.063  1.00  0.00    -0.200 F 
ATOM     73  F   UNL A   1      32.584  35.945  31.127  1.00  0.00    -0.200 F 
ENDBRANCH  49  63
BRANCH  50  74
ATOM     74  C   UNL A   1      44.075  28.860  28.223  1.00  0.00     0.064 A 
ATOM     75  C   UNL A   1      44.821  27.682  28.451  1.00  0.00     0.173 A 
ATOM     76  C   UNL A   1      43.453  28.976  26.973  1.00  0.00     0.173 A 
ATOM     77  F   UNL A   1      45.456  27.506  29.622  1.00  0.00    -0.203 F 
ATOM     78  C   UNL A   1      44.870  26.645  27.518  1.00  0.00     0.198 A 
ATOM     79  C   UNL A   1      43.518  27.941  26.031  1.00  0.00     0.198 A 
ATOM     80  F   UNL A   1      42.732  30.063  26.668  1.00  0.00    -0.203 F 
ATOM     81  F   UNL A   1      45.526  25.512  27.811  1.00  0.00    -0.200 F 
ATOM     82  C   UNL A   1      44.206  26.771  26.311  1.00  0.00     0.200 A 
ATOM     83  F   UNL A   1      42.871  28.060  24.862  1.00  0.00    -0.200 F 
ATOM     84  F   UNL A   1      44.212  25.763  25.427  1.00  0.00    -0.200 F 
ENDBRANCH  50  74
BRANCH  62  85
ATOM     85  C   UNL A   1      42.360  35.779  29.238  1.00  0.00     0.064 A 
ATOM     86  C   UNL A   1      43.179  36.563  30.065  1.00  0.00     0.173 A 
ATOM     87  C   UNL A   1      41.919  36.398  28.043  1.00  0.00     0.173 A 
ATOM     88  F   UNL A   1      43.756  36.050  31.161  1.00  0.00    -0.203 F 
ATOM     89  C   UNL A   1      43.480  37.889  29.758  1.00  0.00     0.198 A 
ATOM     90  C   UNL A   1      42.274  37.701  27.709  1.00  0.00     0.198 A 
ATOM     91  F   UNL A   1      41.160  35.746  27.150  1.00  0.00    -0.203 F 
ATOM     92  F   UNL A   1      44.230  38.609  30.602  1.00  0.00    -0.200 F 
ATOM     93  C   UNL A   1      43.040  38.453  28.575  1.00  0.00     0.200 A 
ATOM     94  F   UNL A   1      41.889  38.215  26.532  1.00  0.00    -0.200 F 
ATOM     95  F   UNL A   1      43.375  39.711  28.259  1.00  0.00    -0.200 F 
ENDBRANCH  62  85
ENDBRANCH  36  37
ENDBRANCH  29  31
ENDBRANCH  28  29
ENDBRANCH  27  28
ENDBRANCH   1  27
TORSDOF 14
ENDMDL
