MODEL 1
REMARK VINA RESULT:     -12.6      0.000      0.000
REMARK SMILES CC(C)CC(=O)Nc1ccc(NC(=O)[C@@H]2CCCC[C@@H]2C(=O)OCCOC(=O)c2ccc(-c3c4nc(c(-c5c(F)c(F)c(F)c(F)c5F)c5ccc([nH]5)c(-c5c(F)c(F)c(F)c(F)c5F)c5nc(c(-c6c(F)c(F)c(F)c(F)c6F)c6ccc3[nH]6)C=C5)C=C4)cc2)cc1
REMARK SMILES IDX 23 1 21 2 22 3 20 4 15 5 16 6 17 7 19 8 18 9 13 10 12 11
REMARK SMILES IDX 14 13 11 14 8 15 9 16 93 17 10 18 92 19 7 20 5 21 6 22 4 24
REMARK SMILES IDX 2 25 1 26 3 27 24 28 25 29 26 30 27 31 28 32 29 33 30 34
REMARK SMILES IDX 91 35 31 36 90 37 32 38 33 39 34 40 84 41 35 42 89 43 83 44
REMARK SMILES IDX 85 45 36 46 88 47 82 48 81 49 37 51 69 52 49 53 68 54 50 55
REMARK SMILES IDX 53 56 67 57 86 58 51 59 52 60 66 62 87 63 54 64 38 65 39 66
REMARK SMILES IDX 47 67 40 68 41 69 45 70 48 71 42 72 43 73 46 74 44 75 70 76
REMARK SMILES IDX 71 77 79 78 72 79 73 80 77 81 80 82 74 83 75 84 78 85 76 86
REMARK SMILES IDX 55 87 56 88 64 89 57 90 58 91 62 92 65 93 59 94 60 95 63 96
REMARK SMILES IDX 61 97
REMARK H PARENT 12 12 7 23 85 50 53 61
REMARK Flexibility Score: inf
ROOT
ATOM      1  O   UNL A   1      32.870  28.271  25.206  1.00  0.00    -0.462 OA
ENDROOT
BRANCH   1   2
ATOM      2  C   UNL A   1      33.230  27.496  24.140  1.00  0.00     0.309 C 
ATOM      3  O   UNL A   1      34.158  27.740  23.386  1.00  0.00    -0.252 OA
BRANCH   2   4
ATOM      4  C   UNL A   1      32.323  26.268  24.065  1.00  0.00     0.111 C 
ATOM      5  C   UNL A   1      31.763  25.915  22.668  1.00  0.00     0.093 C 
ATOM      6  C   UNL A   1      30.895  27.055  22.113  1.00  0.00     0.014 C 
ATOM      7  C   UNL A   1      29.726  27.335  23.053  1.00  0.00     0.001 C 
ATOM      8  C   UNL A   1      31.117  26.448  25.002  1.00  0.00     0.016 C 
ATOM      9  C   UNL A   1      30.164  27.538  24.503  1.00  0.00     0.001 C 
BRANCH   5  10
ATOM     10  C   UNL A   1      32.766  25.421  21.643  1.00  0.00     0.228 C 
ATOM     11  N   UNL A   1      33.227  24.142  21.634  1.00  0.00    -0.326 N 
ATOM     12  H   UNL A   1      33.840  23.967  20.883  1.00  0.00     0.169 HD
ATOM     13  O   UNL A   1      33.214  26.167  20.767  1.00  0.00    -0.274 OA
BRANCH  11  14
ATOM     14  C   UNL A   1      33.037  23.016  22.442  1.00  0.00     0.041 A 
ATOM     15  C   UNL A   1      32.675  20.991  24.376  1.00  0.00     0.041 A 
ATOM     16  C   UNL A   1      32.060  20.897  23.127  1.00  0.00     0.028 A 
ATOM     17  C   UNL A   1      33.540  22.051  24.596  1.00  0.00     0.028 A 
ATOM     18  C   UNL A   1      32.237  21.909  22.165  1.00  0.00     0.028 A 
ATOM     19  C   UNL A   1      33.734  23.046  23.645  1.00  0.00     0.028 A 
BRANCH  15  20
ATOM     20  N   UNL A   1      32.493  19.969  25.321  1.00  0.00    -0.326 N 
ATOM     21  C   UNL A   1      32.987  18.689  25.365  1.00  0.00     0.224 C 
ATOM     22  O   UNL A   1      32.405  17.862  26.072  1.00  0.00    -0.275 OA
ATOM     23  H   UNL A   1      31.915  20.211  26.080  1.00  0.00     0.169 HD
BRANCH  21  24
ATOM     24  C   UNL A   1      34.324  18.344  24.716  1.00  0.00     0.103 C 
BRANCH  24  25
ATOM     25  C   UNL A   1      34.283  17.201  23.681  1.00  0.00    -0.008 C 
ATOM     26  C   UNL A   1      34.226  15.805  24.305  1.00  0.00     0.008 C 
ATOM     27  C   UNL A   1      33.056  17.375  22.780  1.00  0.00     0.008 C 
ENDBRANCH  24  25
ENDBRANCH  21  24
ENDBRANCH  15  20
ENDBRANCH  11  14
ENDBRANCH   5  10
ENDBRANCH   2   4
ENDBRANCH   1   2
BRANCH   1  28
ATOM     28  C   UNL A   1      32.919  29.702  25.032  1.00  0.00     0.274 C 
BRANCH  28  29
ATOM     29  C   UNL A   1      31.886  30.392  25.915  1.00  0.00     0.275 C 
BRANCH  29  30
ATOM     30  O   UNL A   1      32.440  30.602  27.224  1.00  0.00    -0.458 OA
BRANCH  30  31
ATOM     31  C   UNL A   1      33.162  31.727  27.393  1.00  0.00     0.338 C 
ATOM     32  O   UNL A   1      32.801  32.887  27.245  1.00  0.00    -0.246 OA
BRANCH  31  33
ATOM     33  C   UNL A   1      34.507  31.368  27.856  1.00  0.00     0.060 A 
ATOM     34  C   UNL A   1      34.768  30.040  28.173  1.00  0.00     0.016 A 
ATOM     35  C   UNL A   1      35.463  32.350  28.104  1.00  0.00     0.016 A 
ATOM     36  C   UNL A   1      35.953  29.699  28.819  1.00  0.00     0.010 A 
ATOM     37  C   UNL A   1      36.685  31.989  28.689  1.00  0.00     0.010 A 
ATOM     38  C   UNL A   1      36.925  30.666  29.103  1.00  0.00    -0.014 A 
BRANCH  38  39
ATOM     39  C   UNL A   1      38.128  30.302  29.912  1.00  0.00     0.031 A 
ATOM     40  C   UNL A   1      39.220  29.458  29.301  1.00  0.00     0.074 A 
ATOM     41  C   UNL A   1      38.302  30.776  31.163  1.00  0.00     0.049 A 
ATOM     42  N   UNL A   1      40.251  28.888  29.875  1.00  0.00    -0.248 NA
ATOM     43  C   UNL A   1      39.140  29.220  27.851  1.00  0.00     0.031 C 
ATOM     44  C   UNL A   1      37.387  31.675  31.868  1.00  0.00     0.029 A 
ATOM     45  N   UNL A   1      39.330  30.589  32.058  1.00  0.00    -0.354 N 
ATOM     46  C   UNL A   1      40.891  28.163  28.878  1.00  0.00     0.074 A 
ATOM     47  C   UNL A   1      40.145  28.377  27.656  1.00  0.00     0.031 C 
ATOM     48  C   UNL A   1      37.922  32.011  33.050  1.00  0.00     0.029 A 
ATOM     49  C   UNL A   1      39.163  31.268  33.241  1.00  0.00     0.049 A 
ATOM     50  H   UNL A   1      40.112  30.021  31.868  1.00  0.00     0.167 HD
ATOM     51  C   UNL A   1      41.995  27.383  28.975  1.00  0.00     0.037 A 
ATOM     52  C   UNL A   1      39.893  31.261  34.372  1.00  0.00     0.037 A 
ATOM     53  C   UNL A   1      42.786  27.234  30.169  1.00  0.00     0.049 A 
ATOM     54  C   UNL A   1      41.100  30.369  34.466  1.00  0.00     0.074 A 
ATOM     55  C   UNL A   1      43.920  26.462  30.363  1.00  0.00     0.029 A 
ATOM     56  N   UNL A   1      42.544  27.893  31.364  1.00  0.00    -0.354 N 
ATOM     57  N   UNL A   1      41.630  29.595  33.552  1.00  0.00    -0.248 NA
ATOM     58  C   UNL A   1      41.790  30.326  35.763  1.00  0.00     0.031 C 
ATOM     59  C   UNL A   1      44.347  26.632  31.684  1.00  0.00     0.029 A 
ATOM     60  C   UNL A   1      43.503  27.541  32.301  1.00  0.00     0.049 A 
ATOM     61  H   UNL A   1      41.799  28.518  31.524  1.00  0.00     0.167 HD
ATOM     62  C   UNL A   1      42.712  28.974  34.160  1.00  0.00     0.074 A 
ATOM     63  C   UNL A   1      42.782  29.483  35.513  1.00  0.00     0.031 C 
ATOM     64  C   UNL A   1      43.562  28.052  33.644  1.00  0.00     0.037 A 
BRANCH  51  65
ATOM     65  C   UNL A   1      42.392  26.587  27.766  1.00  0.00     0.064 A 
ATOM     66  C   UNL A   1      43.360  27.037  26.858  1.00  0.00     0.173 A 
ATOM     67  C   UNL A   1      41.815  25.326  27.540  1.00  0.00     0.173 A 
ATOM     68  F   UNL A   1      43.927  28.242  27.018  1.00  0.00    -0.203 F 
ATOM     69  C   UNL A   1      43.721  26.264  25.757  1.00  0.00     0.198 A 
ATOM     70  C   UNL A   1      42.197  24.545  26.455  1.00  0.00     0.198 A 
ATOM     71  F   UNL A   1      40.885  24.849  28.381  1.00  0.00    -0.203 F 
ATOM     72  F   UNL A   1      44.617  26.731  24.877  1.00  0.00    -0.200 F 
ATOM     73  C   UNL A   1      43.145  25.016  25.560  1.00  0.00     0.200 A 
ATOM     74  F   UNL A   1      41.648  23.335  26.274  1.00  0.00    -0.200 F 
ATOM     75  F   UNL A   1      43.501  24.271  24.505  1.00  0.00    -0.200 F 
ENDBRANCH  51  65
BRANCH  52  76
ATOM     76  C   UNL A   1      39.467  32.084  35.535  1.00  0.00     0.064 A 
ATOM     77  C   UNL A   1      39.950  33.386  35.717  1.00  0.00     0.173 A 
ATOM     78  C   UNL A   1      38.568  31.582  36.490  1.00  0.00     0.173 A 
ATOM     79  F   UNL A   1      40.838  33.898  34.851  1.00  0.00    -0.203 F 
ATOM     80  C   UNL A   1      39.555  34.154  36.811  1.00  0.00     0.198 A 
ATOM     81  C   UNL A   1      38.149  32.362  37.565  1.00  0.00     0.198 A 
ATOM     82  F   UNL A   1      38.086  30.337  36.370  1.00  0.00    -0.203 F 
ATOM     83  F   UNL A   1      40.068  35.380  36.986  1.00  0.00    -0.200 F 
ATOM     84  C   UNL A   1      38.648  33.644  37.728  1.00  0.00     0.200 A 
ATOM     85  F   UNL A   1      37.264  31.869  38.442  1.00  0.00    -0.200 F 
ATOM     86  F   UNL A   1      38.263  34.386  38.775  1.00  0.00    -0.200 F 
ENDBRANCH  52  76
BRANCH  64  87
ATOM     87  C   UNL A   1      44.653  27.550  34.543  1.00  0.00     0.064 A 
ATOM     88  C   UNL A   1      44.487  26.393  35.318  1.00  0.00     0.173 A 
ATOM     89  C   UNL A   1      45.885  28.216  34.608  1.00  0.00     0.173 A 
ATOM     90  F   UNL A   1      43.320  25.731  35.302  1.00  0.00    -0.203 F 
ATOM     91  C   UNL A   1      45.508  25.934  36.146  1.00  0.00     0.198 A 
ATOM     92  C   UNL A   1      46.913  27.740  35.418  1.00  0.00     0.198 A 
ATOM     93  F   UNL A   1      46.095  29.324  33.882  1.00  0.00    -0.203 F 
ATOM     94  F   UNL A   1      45.313  24.852  36.911  1.00  0.00    -0.200 F 
ATOM     95  C   UNL A   1      46.722  26.604  36.190  1.00  0.00     0.200 A 
ATOM     96  F   UNL A   1      48.089  28.383  35.453  1.00  0.00    -0.200 F 
ATOM     97  F   UNL A   1      47.705  26.160  36.985  1.00  0.00    -0.200 F 
ENDBRANCH  64  87
ENDBRANCH  38  39
ENDBRANCH  31  33
ENDBRANCH  30  31
ENDBRANCH  29  30
ENDBRANCH  28  29
ENDBRANCH   1  28
TORSDOF 16
ENDMDL
MODEL 2
REMARK VINA RESULT:     -12.6      1.591      2.788
REMARK SMILES CC(C)CC(=O)Nc1ccc(NC(=O)[C@@H]2CCCC[C@@H]2C(=O)OCCOC(=O)c2ccc(-c3c4nc(c(-c5c(F)c(F)c(F)c(F)c5F)c5ccc([nH]5)c(-c5c(F)c(F)c(F)c(F)c5F)c5nc(c(-c6c(F)c(F)c(F)c(F)c6F)c6ccc3[nH]6)C=C5)C=C4)cc2)cc1
REMARK SMILES IDX 23 1 21 2 22 3 20 4 15 5 16 6 17 7 19 8 18 9 13 10 12 11
REMARK SMILES IDX 14 13 11 14 8 15 9 16 93 17 10 18 92 19 7 20 5 21 6 22 4 24
REMARK SMILES IDX 2 25 1 26 3 27 24 28 25 29 26 30 27 31 28 32 29 33 30 34
REMARK SMILES IDX 91 35 31 36 90 37 32 38 33 39 34 40 84 41 35 42 89 43 83 44
REMARK SMILES IDX 85 45 36 46 88 47 82 48 81 49 37 51 69 52 49 53 68 54 50 55
REMARK SMILES IDX 53 56 67 57 86 58 51 59 52 60 66 62 87 63 54 64 38 65 39 66
REMARK SMILES IDX 47 67 40 68 41 69 45 70 48 71 42 72 43 73 46 74 44 75 70 76
REMARK SMILES IDX 71 77 79 78 72 79 73 80 77 81 80 82 74 83 75 84 78 85 76 86
REMARK SMILES IDX 55 87 56 88 64 89 57 90 58 91 62 92 65 93 59 94 60 95 63 96
REMARK SMILES IDX 61 97
REMARK H PARENT 12 12 7 23 85 50 53 61
REMARK Flexibility Score: inf
ROOT
ATOM      1  O   UNL A   1      30.980  28.152  24.765  1.00  0.00    -0.462 OA
ENDROOT
BRANCH   1   2
ATOM      2  C   UNL A   1      30.194  27.682  23.751  1.00  0.00     0.309 C 
ATOM      3  O   UNL A   1      29.271  28.298  23.244  1.00  0.00    -0.252 OA
BRANCH   2   4
ATOM      4  C   UNL A   1      30.674  26.293  23.329  1.00  0.00     0.111 C 
ATOM      5  C   UNL A   1      31.454  25.486  24.392  1.00  0.00     0.093 C 
ATOM      6  C   UNL A   1      32.740  26.215  24.809  1.00  0.00     0.014 C 
ATOM      7  C   UNL A   1      33.642  26.430  23.598  1.00  0.00     0.001 C 
ATOM      8  C   UNL A   1      31.580  26.405  22.092  1.00  0.00     0.016 C 
ATOM      9  C   UNL A   1      32.914  27.080  22.421  1.00  0.00     0.001 C 
BRANCH   5  10
ATOM     10  C   UNL A   1      30.662  25.010  25.594  1.00  0.00     0.228 C 
ATOM     11  N   UNL A   1      31.047  23.942  26.344  1.00  0.00    -0.326 N 
ATOM     12  H   UNL A   1      30.451  23.787  27.113  1.00  0.00     0.169 HD
ATOM     13  O   UNL A   1      29.621  25.574  25.946  1.00  0.00    -0.274 OA
BRANCH  11  14
ATOM     14  C   UNL A   1      32.090  23.013  26.279  1.00  0.00     0.041 A 
ATOM     15  C   UNL A   1      34.252  21.267  25.782  1.00  0.00     0.041 A 
ATOM     16  C   UNL A   1      34.030  21.773  27.063  1.00  0.00     0.028 A 
ATOM     17  C   UNL A   1      33.328  21.568  24.795  1.00  0.00     0.028 A 
ATOM     18  C   UNL A   1      32.955  22.648  27.309  1.00  0.00     0.028 A 
ATOM     19  C   UNL A   1      32.253  22.416  25.033  1.00  0.00     0.028 A 
BRANCH  15  20
ATOM     20  N   UNL A   1      35.326  20.390  25.557  1.00  0.00    -0.326 N 
ATOM     21  C   UNL A   1      36.631  20.638  25.213  1.00  0.00     0.224 C 
ATOM     22  O   UNL A   1      37.286  19.722  24.707  1.00  0.00    -0.275 OA
ATOM     23  H   UNL A   1      35.105  19.437  25.666  1.00  0.00     0.169 HD
BRANCH  21  24
ATOM     24  C   UNL A   1      37.312  21.942  25.618  1.00  0.00     0.103 C 
BRANCH  24  25
ATOM     25  C   UNL A   1      37.118  23.121  24.643  1.00  0.00    -0.008 C 
ATOM     26  C   UNL A   1      36.585  22.706  23.270  1.00  0.00     0.008 C 
ATOM     27  C   UNL A   1      36.140  24.129  25.254  1.00  0.00     0.008 C 
ENDBRANCH  24  25
ENDBRANCH  21  24
ENDBRANCH  15  20
ENDBRANCH  11  14
ENDBRANCH   5  10
ENDBRANCH   2   4
ENDBRANCH   1   2
BRANCH   1  28
ATOM     28  C   UNL A   1      31.153  29.581  24.861  1.00  0.00     0.274 C 
BRANCH  28  29
ATOM     29  C   UNL A   1      32.564  29.927  25.326  1.00  0.00     0.275 C 
BRANCH  29  30
ATOM     30  O   UNL A   1      32.548  30.199  26.737  1.00  0.00    -0.458 OA
BRANCH  30  31
ATOM     31  C   UNL A   1      33.143  31.343  27.129  1.00  0.00     0.338 C 
ATOM     32  O   UNL A   1      32.674  32.473  27.146  1.00  0.00    -0.246 OA
BRANCH  31  33
ATOM     33  C   UNL A   1      34.493  31.038  27.614  1.00  0.00     0.060 A 
ATOM     34  C   UNL A   1      34.799  29.723  27.947  1.00  0.00     0.016 A 
ATOM     35  C   UNL A   1      35.410  32.056  27.865  1.00  0.00     0.016 A 
ATOM     36  C   UNL A   1      35.986  29.432  28.612  1.00  0.00     0.010 A 
ATOM     37  C   UNL A   1      36.636  31.746  28.470  1.00  0.00     0.010 A 
ATOM     38  C   UNL A   1      36.919  30.436  28.900  1.00  0.00    -0.014 A 
BRANCH  38  39
ATOM     39  C   UNL A   1      38.123  30.125  29.728  1.00  0.00     0.031 A 
ATOM     40  C   UNL A   1      39.234  29.279  29.155  1.00  0.00     0.074 A 
ATOM     41  C   UNL A   1      38.281  30.647  30.962  1.00  0.00     0.049 A 
ATOM     42  N   UNL A   1      40.271  28.749  29.755  1.00  0.00    -0.248 NA
ATOM     43  C   UNL A   1      39.167  28.986  27.714  1.00  0.00     0.031 C 
ATOM     44  C   UNL A   1      37.345  31.554  31.628  1.00  0.00     0.029 A 
ATOM     45  N   UNL A   1      39.306  30.512  31.868  1.00  0.00    -0.354 N 
ATOM     46  C   UNL A   1      40.930  27.999  28.789  1.00  0.00     0.074 A 
ATOM     47  C   UNL A   1      40.187  28.155  27.555  1.00  0.00     0.031 C 
ATOM     48  C   UNL A   1      37.867  31.944  32.800  1.00  0.00     0.029 A 
ATOM     49  C   UNL A   1      39.119  31.230  33.025  1.00  0.00     0.049 A 
ATOM     50  H   UNL A   1      40.099  29.951  31.704  1.00  0.00     0.167 HD
ATOM     51  C   UNL A   1      42.047  27.244  28.921  1.00  0.00     0.037 A 
ATOM     52  C   UNL A   1      39.843  31.278  34.159  1.00  0.00     0.037 A 
ATOM     53  C   UNL A   1      42.833  27.153  30.123  1.00  0.00     0.049 A 
ATOM     54  C   UNL A   1      41.065  30.413  34.292  1.00  0.00     0.074 A 
ATOM     55  C   UNL A   1      43.979  26.410  30.352  1.00  0.00     0.029 A 
ATOM     56  N   UNL A   1      42.572  27.850  31.292  1.00  0.00    -0.354 N 
ATOM     57  N   UNL A   1      41.614  29.615  33.411  1.00  0.00    -0.248 NA
ATOM     58  C   UNL A   1      41.747  30.430  35.594  1.00  0.00     0.031 C 
ATOM     59  C   UNL A   1      44.395  26.636  31.668  1.00  0.00     0.029 A 
ATOM     60  C   UNL A   1      43.531  27.551  32.247  1.00  0.00     0.049 A 
ATOM     61  H   UNL A   1      41.815  28.467  31.425  1.00  0.00     0.167 HD
ATOM     62  C   UNL A   1      42.703  29.036  34.047  1.00  0.00     0.074 A 
ATOM     63  C   UNL A   1      42.756  29.596  35.381  1.00  0.00     0.031 C 
ATOM     64  C   UNL A   1      43.573  28.112  33.571  1.00  0.00     0.037 A 
BRANCH  51  65
ATOM     65  C   UNL A   1      42.465  26.411  27.744  1.00  0.00     0.064 A 
ATOM     66  C   UNL A   1      41.919  25.146  27.490  1.00  0.00     0.173 A 
ATOM     67  C   UNL A   1      43.406  26.916  26.831  1.00  0.00     0.173 A 
ATOM     68  F   UNL A   1      41.031  24.611  28.342  1.00  0.00    -0.203 F 
ATOM     69  C   UNL A   1      42.314  24.407  26.377  1.00  0.00     0.198 A 
ATOM     70  C   UNL A   1      43.777  26.188  25.705  1.00  0.00     0.198 A 
ATOM     71  F   UNL A   1      43.956  28.123  27.027  1.00  0.00    -0.203 F 
ATOM     72  F   UNL A   1      41.812  23.181  26.176  1.00  0.00    -0.200 F 
ATOM     73  C   UNL A   1      43.236  24.931  25.482  1.00  0.00     0.200 A 
ATOM     74  F   UNL A   1      44.660  26.701  24.837  1.00  0.00    -0.200 F 
ATOM     75  F   UNL A   1      43.607  24.222  24.407  1.00  0.00    -0.200 F 
ENDBRANCH  51  65
BRANCH  52  76
ATOM     76  C   UNL A   1      39.394  32.136  35.289  1.00  0.00     0.064 A 
ATOM     77  C   UNL A   1      38.563  31.629  36.297  1.00  0.00     0.173 A 
ATOM     78  C   UNL A   1      39.786  33.481  35.380  1.00  0.00     0.173 A 
ATOM     79  F   UNL A   1      38.132  30.361  36.235  1.00  0.00    -0.203 F 
ATOM     80  C   UNL A   1      38.138  32.437  37.351  1.00  0.00     0.198 A 
ATOM     81  C   UNL A   1      39.388  34.276  36.451  1.00  0.00     0.198 A 
ATOM     82  F   UNL A   1      40.571  34.018  34.435  1.00  0.00    -0.203 F 
ATOM     83  F   UNL A   1      37.307  31.940  38.278  1.00  0.00    -0.200 F 
ATOM     84  C   UNL A   1      38.559  33.755  37.432  1.00  0.00     0.200 A 
ATOM     85  F   UNL A   1      39.807  35.547  36.531  1.00  0.00    -0.200 F 
ATOM     86  F   UNL A   1      38.156  34.528  38.450  1.00  0.00    -0.200 F 
ENDBRANCH  52  76
BRANCH  64  87
ATOM     87  C   UNL A   1      44.667  27.663  34.493  1.00  0.00     0.064 A 
ATOM     88  C   UNL A   1      44.516  26.534  35.312  1.00  0.00     0.173 A 
ATOM     89  C   UNL A   1      45.888  28.351  34.538  1.00  0.00     0.173 A 
ATOM     90  F   UNL A   1      43.360  25.854  35.316  1.00  0.00    -0.203 F 
ATOM     91  C   UNL A   1      45.540  26.125  36.162  1.00  0.00     0.198 A 
ATOM     92  C   UNL A   1      46.919  27.924  35.371  1.00  0.00     0.198 A 
ATOM     93  F   UNL A   1      46.083  29.434  33.771  1.00  0.00    -0.203 F 
ATOM     94  F   UNL A   1      45.358  25.070  36.967  1.00  0.00    -0.200 F 
ATOM     95  C   UNL A   1      46.742  26.816  36.186  1.00  0.00     0.200 A 
ATOM     96  F   UNL A   1      48.084  28.587  35.386  1.00  0.00    -0.200 F 
ATOM     97  F   UNL A   1      47.728  26.419  37.002  1.00  0.00    -0.200 F 
ENDBRANCH  64  87
ENDBRANCH  38  39
ENDBRANCH  31  33
ENDBRANCH  30  31
ENDBRANCH  29  30
ENDBRANCH  28  29
ENDBRANCH   1  28
TORSDOF 16
ENDMDL
MODEL 3
REMARK VINA RESULT:     -12.4      4.322      9.999
REMARK SMILES CC(C)CC(=O)Nc1ccc(NC(=O)[C@@H]2CCCC[C@@H]2C(=O)OCCOC(=O)c2ccc(-c3c4nc(c(-c5c(F)c(F)c(F)c(F)c5F)c5ccc([nH]5)c(-c5c(F)c(F)c(F)c(F)c5F)c5nc(c(-c6c(F)c(F)c(F)c(F)c6F)c6ccc3[nH]6)C=C5)C=C4)cc2)cc1
REMARK SMILES IDX 23 1 21 2 22 3 20 4 15 5 16 6 17 7 19 8 18 9 13 10 12 11
REMARK SMILES IDX 14 13 11 14 8 15 9 16 93 17 10 18 92 19 7 20 5 21 6 22 4 24
REMARK SMILES IDX 2 25 1 26 3 27 24 28 25 29 26 30 27 31 28 32 29 33 30 34
REMARK SMILES IDX 91 35 31 36 90 37 32 38 33 39 34 40 84 41 35 42 89 43 83 44
REMARK SMILES IDX 85 45 36 46 88 47 82 48 81 49 37 51 69 52 49 53 68 54 50 55
REMARK SMILES IDX 53 56 67 57 86 58 51 59 52 60 66 62 87 63 54 64 38 65 39 66
REMARK SMILES IDX 47 67 40 68 41 69 45 70 48 71 42 72 43 73 46 74 44 75 70 76
REMARK SMILES IDX 71 77 79 78 72 79 73 80 77 81 80 82 74 83 75 84 78 85 76 86
REMARK SMILES IDX 55 87 56 88 64 89 57 90 58 91 62 92 65 93 59 94 60 95 63 96
REMARK SMILES IDX 61 97
REMARK H PARENT 12 12 7 23 85 50 53 61
REMARK Flexibility Score: inf
ROOT
ATOM      1  O   UNL A   1      34.463  20.634  25.590  1.00  0.00    -0.462 OA
ENDROOT
BRANCH   1   2
ATOM      2  C   UNL A   1      33.664  21.579  26.166  1.00  0.00     0.309 C 
ATOM      3  O   UNL A   1      33.451  21.674  27.365  1.00  0.00    -0.252 OA
BRANCH   2   4
ATOM      4  C   UNL A   1      33.115  22.517  25.090  1.00  0.00     0.111 C 
ATOM      5  C   UNL A   1      33.038  24.016  25.463  1.00  0.00     0.093 C 
ATOM      6  C   UNL A   1      32.108  24.241  26.665  1.00  0.00     0.014 C 
ATOM      7  C   UNL A   1      30.702  23.742  26.347  1.00  0.00     0.001 C 
ATOM      8  C   UNL A   1      31.698  22.078  24.685  1.00  0.00     0.016 C 
ATOM      9  C   UNL A   1      30.686  22.311  25.810  1.00  0.00     0.001 C 
BRANCH   5  10
ATOM     10  C   UNL A   1      34.360  24.739  25.631  1.00  0.00     0.228 C 
ATOM     11  N   UNL A   1      34.528  26.041  25.273  1.00  0.00    -0.326 N 
ATOM     12  H   UNL A   1      35.430  26.376  25.484  1.00  0.00     0.169 HD
ATOM     13  O   UNL A   1      35.351  24.172  26.101  1.00  0.00    -0.274 OA
BRANCH  11  14
ATOM     14  C   UNL A   1      33.721  27.014  24.676  1.00  0.00     0.041 A 
ATOM     15  C   UNL A   1      32.081  28.741  23.159  1.00  0.00     0.041 A 
ATOM     16  C   UNL A   1      31.951  28.677  24.547  1.00  0.00     0.028 A 
ATOM     17  C   UNL A   1      33.100  28.011  22.568  1.00  0.00     0.028 A 
ATOM     18  C   UNL A   1      32.765  27.812  25.302  1.00  0.00     0.028 A 
ATOM     19  C   UNL A   1      33.919  27.168  23.308  1.00  0.00     0.028 A 
BRANCH  15  20
ATOM     20  N   UNL A   1      31.266  29.616  22.423  1.00  0.00    -0.326 N 
ATOM     21  C   UNL A   1      29.969  29.485  21.992  1.00  0.00     0.224 C 
ATOM     22  O   UNL A   1      29.590  30.198  21.058  1.00  0.00    -0.275 OA
ATOM     23  H   UNL A   1      31.696  30.466  22.177  1.00  0.00     0.169 HD
BRANCH  21  24
ATOM     24  C   UNL A   1      28.971  28.628  22.765  1.00  0.00     0.103 C 
BRANCH  24  25
ATOM     25  C   UNL A   1      27.539  29.197  22.851  1.00  0.00    -0.008 C 
ATOM     26  C   UNL A   1      26.568  28.309  23.633  1.00  0.00     0.008 C 
ATOM     27  C   UNL A   1      27.579  30.574  23.522  1.00  0.00     0.008 C 
ENDBRANCH  24  25
ENDBRANCH  21  24
ENDBRANCH  15  20
ENDBRANCH  11  14
ENDBRANCH   5  10
ENDBRANCH   2   4
ENDBRANCH   1   2
BRANCH   1  28
ATOM     28  C   UNL A   1      35.452  21.089  24.645  1.00  0.00     0.274 C 
BRANCH  28  29
ATOM     29  C   UNL A   1      36.838  20.574  25.018  1.00  0.00     0.275 C 
BRANCH  29  30
ATOM     30  O   UNL A   1      37.676  21.682  25.387  1.00  0.00    -0.458 OA
BRANCH  30  31
ATOM     31  C   UNL A   1      38.853  21.372  25.966  1.00  0.00     0.338 C 
ATOM     32  O   UNL A   1      39.436  20.297  25.966  1.00  0.00    -0.246 OA
BRANCH  31  33
ATOM     33  C   UNL A   1      39.410  22.576  26.592  1.00  0.00     0.060 A 
ATOM     34  C   UNL A   1      38.900  23.815  26.221  1.00  0.00     0.016 A 
ATOM     35  C   UNL A   1      40.514  22.497  27.437  1.00  0.00     0.016 A 
ATOM     36  C   UNL A   1      39.545  24.981  26.623  1.00  0.00     0.010 A 
ATOM     37  C   UNL A   1      41.116  23.676  27.898  1.00  0.00     0.010 A 
ATOM     38  C   UNL A   1      40.670  24.935  27.454  1.00  0.00    -0.014 A 
BRANCH  38  39
ATOM     39  C   UNL A   1      41.422  26.188  27.765  1.00  0.00     0.031 A 
ATOM     40  C   UNL A   1      40.788  27.253  28.627  1.00  0.00     0.074 A 
ATOM     41  C   UNL A   1      42.696  26.363  27.356  1.00  0.00     0.049 A 
ATOM     42  N   UNL A   1      41.191  28.476  28.870  1.00  0.00    -0.248 NA
ATOM     43  C   UNL A   1      39.531  26.897  29.302  1.00  0.00     0.031 C 
ATOM     44  C   UNL A   1      43.485  25.395  26.593  1.00  0.00     0.029 A 
ATOM     45  N   UNL A   1      43.565  27.412  27.551  1.00  0.00    -0.354 N 
ATOM     46  C   UNL A   1      40.202  29.056  29.654  1.00  0.00     0.074 A 
ATOM     47  C   UNL A   1      39.185  28.047  29.864  1.00  0.00     0.031 C 
ATOM     48  C   UNL A   1      44.732  25.863  26.443  1.00  0.00     0.029 A 
ATOM     49  C   UNL A   1      44.806  27.210  26.997  1.00  0.00     0.049 A 
ATOM     50  H   UNL A   1      43.319  28.230  28.040  1.00  0.00     0.167 HD
ATOM     51  C   UNL A   1      40.144  30.317  30.147  1.00  0.00     0.037 A 
ATOM     52  C   UNL A   1      45.871  28.028  26.900  1.00  0.00     0.037 A 
ATOM     53  C   UNL A   1      41.191  31.296  30.009  1.00  0.00     0.049 A 
ATOM     54  C   UNL A   1      45.775  29.431  27.433  1.00  0.00     0.074 A 
ATOM     55  C   UNL A   1      41.219  32.601  30.473  1.00  0.00     0.029 A 
ATOM     56  N   UNL A   1      42.408  31.068  29.387  1.00  0.00    -0.354 N 
ATOM     57  N   UNL A   1      44.788  30.008  28.070  1.00  0.00    -0.248 NA
ATOM     58  C   UNL A   1      46.933  30.307  27.199  1.00  0.00     0.031 C 
ATOM     59  C   UNL A   1      42.442  33.171  30.105  1.00  0.00     0.029 A 
ATOM     60  C   UNL A   1      43.192  32.210  29.448  1.00  0.00     0.049 A 
ATOM     61  H   UNL A   1      42.676  30.221  28.962  1.00  0.00     0.167 HD
ATOM     62  C   UNL A   1      45.202  31.311  28.314  1.00  0.00     0.074 A 
ATOM     63  C   UNL A   1      46.542  31.432  27.782  1.00  0.00     0.031 C 
ATOM     64  C   UNL A   1      44.523  32.319  28.914  1.00  0.00     0.037 A 
BRANCH  51  65
ATOM     65  C   UNL A   1      38.881  30.732  30.845  1.00  0.00     0.064 A 
ATOM     66  C   UNL A   1      37.753  31.181  30.145  1.00  0.00     0.173 A 
ATOM     67  C   UNL A   1      38.793  30.638  32.243  1.00  0.00     0.173 A 
ATOM     68  F   UNL A   1      37.792  31.307  28.811  1.00  0.00    -0.203 F 
ATOM     69  C   UNL A   1      36.588  31.539  30.822  1.00  0.00     0.198 A 
ATOM     70  C   UNL A   1      37.621  30.969  32.914  1.00  0.00     0.198 A 
ATOM     71  F   UNL A   1      39.845  30.211  32.958  1.00  0.00    -0.203 F 
ATOM     72  F   UNL A   1      35.535  32.006  30.139  1.00  0.00    -0.200 F 
ATOM     73  C   UNL A   1      36.521  31.426  32.204  1.00  0.00     0.200 A 
ATOM     74  F   UNL A   1      37.555  30.849  34.247  1.00  0.00    -0.200 F 
ATOM     75  F   UNL A   1      35.397  31.763  32.851  1.00  0.00    -0.200 F 
ENDBRANCH  51  65
BRANCH  52  76
ATOM     76  C   UNL A   1      47.106  27.560  26.216  1.00  0.00     0.064 A 
ATOM     77  C   UNL A   1      48.178  27.026  26.942  1.00  0.00     0.173 A 
ATOM     78  C   UNL A   1      47.239  27.641  24.821  1.00  0.00     0.173 A 
ATOM     79  F   UNL A   1      48.115  26.961  28.281  1.00  0.00    -0.203 F 
ATOM     80  C   UNL A   1      49.338  26.595  26.300  1.00  0.00     0.198 A 
ATOM     81  C   UNL A   1      48.384  27.178  24.177  1.00  0.00     0.198 A 
ATOM     82  F   UNL A   1      46.247  28.155  24.080  1.00  0.00    -0.203 F 
ATOM     83  F   UNL A   1      50.367  26.130  27.022  1.00  0.00    -0.200 F 
ATOM     84  C   UNL A   1      49.435  26.662  24.919  1.00  0.00     0.200 A 
ATOM     85  F   UNL A   1      48.469  27.235  22.842  1.00  0.00    -0.200 F 
ATOM     86  F   UNL A   1      50.547  26.239  24.302  1.00  0.00    -0.200 F 
ENDBRANCH  52  76
BRANCH  64  87
ATOM     87  C   UNL A   1      45.228  33.637  29.042  1.00  0.00     0.064 A 
ATOM     88  C   UNL A   1      46.043  33.925  30.148  1.00  0.00     0.173 A 
ATOM     89  C   UNL A   1      45.112  34.608  28.038  1.00  0.00     0.173 A 
ATOM     90  F   UNL A   1      46.172  33.034  31.141  1.00  0.00    -0.203 F 
ATOM     91  C   UNL A   1      46.696  35.150  30.254  1.00  0.00     0.198 A 
ATOM     92  C   UNL A   1      45.786  35.822  28.136  1.00  0.00     0.198 A 
ATOM     93  F   UNL A   1      44.349  34.378  26.959  1.00  0.00    -0.203 F 
ATOM     94  F   UNL A   1      47.433  35.422  31.338  1.00  0.00    -0.200 F 
ATOM     95  C   UNL A   1      46.572  36.095  29.245  1.00  0.00     0.200 A 
ATOM     96  F   UNL A   1      45.673  36.731  27.156  1.00  0.00    -0.200 F 
ATOM     97  F   UNL A   1      47.203  37.272  29.348  1.00  0.00    -0.200 F 
ENDBRANCH  64  87
ENDBRANCH  38  39
ENDBRANCH  31  33
ENDBRANCH  30  31
ENDBRANCH  29  30
ENDBRANCH  28  29
ENDBRANCH   1  28
TORSDOF 16
ENDMDL
