MODEL 1
REMARK VINA RESULT:     -12.5      0.000      0.000
REMARK SMILES CC1=C(C)C[C@H](C(=O)OCCOC(=O)c2ccc(-c3c4nc(c(-c5c(F)c(F)c(F)c(F)c5F)c5ccc([nH]5)c(-c5c(F)c(F)c(F)c(F)c5F)c5nc(c(-c6c(F)c(F)c(F)c(F)c6F)c6ccc3[nH]6)C=C5)C=C4)cc2)[C@@H](C(=O)N[C@@H](C)CCc2ccccc2)C1
REMARK SMILES IDX 9 1 7 2 8 3 6 4 1 5 2 6 3 7 92 8 4 9 5 10 78 11 79 12 80 13
REMARK SMILES IDX 81 14 82 16 83 17 84 18 85 19 86 20 87 21 91 22 88 23 90 24
REMARK SMILES IDX 89 25 10 26 11 27 12 28 13 29 14 30 15 31 16 32 77 33 17 34
REMARK SMILES IDX 76 35 18 36 19 37 20 38 70 39 21 40 75 41 69 42 71 43 22 44
REMARK SMILES IDX 74 45 68 46 67 47 23 49 55 50 35 51 54 52 36 53 39 54 53 55
REMARK SMILES IDX 72 56 37 57 38 58 52 60 73 61 40 62 24 63 25 64 33 65 26 66
REMARK SMILES IDX 27 67 31 68 34 69 28 70 29 71 32 72 30 73 56 74 57 75 65 76
REMARK SMILES IDX 58 77 59 78 63 79 66 80 60 81 61 82 64 83 62 84 41 85 42 86
REMARK SMILES IDX 50 87 43 88 44 89 48 90 51 91 45 92 46 93 49 94 47 95
REMARK H PARENT 81 15 71 48 39 59
REMARK Flexibility Score: inf
ROOT
ATOM      1  O   UNL A   1      33.105  28.268  24.413  1.00  0.00    -0.462 OA
ENDROOT
BRANCH   1   2
ATOM      2  C   UNL A   1      33.430  27.304  23.507  1.00  0.00     0.310 C 
ATOM      3  O   UNL A   1      33.806  27.547  22.365  1.00  0.00    -0.252 OA
BRANCH   2   4
ATOM      4  C   UNL A   1      33.214  25.878  24.033  1.00  0.00     0.116 C 
ATOM      5  C   UNL A   1      35.763  22.997  26.383  1.00  0.00     0.039 C 
ATOM      6  C   UNL A   1      34.928  23.898  25.507  1.00  0.00    -0.074 C 
ATOM      7  C   UNL A   1      35.115  24.053  24.184  1.00  0.00    -0.073 C 
ATOM      8  C   UNL A   1      33.813  24.585  26.231  1.00  0.00     0.045 C 
ATOM      9  C   UNL A   1      36.195  23.347  23.403  1.00  0.00     0.039 C 
ATOM     10  C   UNL A   1      34.220  24.929  23.345  1.00  0.00     0.046 C 
ATOM     11  C   UNL A   1      33.158  25.807  25.575  1.00  0.00     0.097 C 
BRANCH  11  12
ATOM     12  C   UNL A   1      31.695  25.766  26.027  1.00  0.00     0.224 C 
ATOM     13  O   UNL A   1      31.157  26.738  26.565  1.00  0.00    -0.275 OA
ATOM     14  N   UNL A   1      30.895  24.702  25.744  1.00  0.00    -0.353 N 
ATOM     15  H   UNL A   1      29.929  24.887  25.797  1.00  0.00     0.163 HD
BRANCH  14  16
ATOM     16  C   UNL A   1      31.234  23.334  25.375  1.00  0.00     0.079 C 
ATOM     17  C   UNL A   1      30.418  22.387  26.262  1.00  0.00     0.031 C 
BRANCH  16  18
ATOM     18  C   UNL A   1      30.924  23.039  23.895  1.00  0.00     0.029 C 
BRANCH  18  19
ATOM     19  C   UNL A   1      32.047  22.362  23.096  1.00  0.00     0.037 C 
BRANCH  19  20
ATOM     20  C   UNL A   1      32.513  20.980  23.502  1.00  0.00    -0.048 A 
ATOM     21  C   UNL A   1      33.434  20.724  24.525  1.00  0.00     0.004 A 
ATOM     22  C   UNL A   1      32.023  19.885  22.765  1.00  0.00     0.004 A 
ATOM     23  C   UNL A   1      33.905  19.429  24.756  1.00  0.00     0.000 A 
ATOM     24  C   UNL A   1      32.476  18.588  23.013  1.00  0.00     0.000 A 
ATOM     25  C   UNL A   1      33.431  18.362  23.999  1.00  0.00     0.000 A 
ENDBRANCH  19  20
ENDBRANCH  18  19
ENDBRANCH  16  18
ENDBRANCH  14  16
ENDBRANCH  11  12
ENDBRANCH   2   4
ENDBRANCH   1   2
BRANCH   1  26
ATOM     26  C   UNL A   1      31.981  29.114  24.086  1.00  0.00     0.274 C 
BRANCH  26  27
ATOM     27  C   UNL A   1      31.569  29.944  25.300  1.00  0.00     0.275 C 
BRANCH  27  28
ATOM     28  O   UNL A   1      32.560  29.803  26.332  1.00  0.00    -0.458 OA
BRANCH  28  29
ATOM     29  C   UNL A   1      32.970  30.945  26.928  1.00  0.00     0.338 C 
ATOM     30  O   UNL A   1      32.364  31.999  27.003  1.00  0.00    -0.246 OA
BRANCH  29  31
ATOM     31  C   UNL A   1      34.324  30.750  27.483  1.00  0.00     0.060 A 
ATOM     32  C   UNL A   1      34.861  29.471  27.615  1.00  0.00     0.016 A 
ATOM     33  C   UNL A   1      35.029  31.852  27.966  1.00  0.00     0.016 A 
ATOM     34  C   UNL A   1      36.054  29.282  28.314  1.00  0.00     0.010 A 
ATOM     35  C   UNL A   1      36.272  31.667  28.581  1.00  0.00     0.010 A 
ATOM     36  C   UNL A   1      36.784  30.375  28.802  1.00  0.00    -0.014 A 
BRANCH  36  37
ATOM     37  C   UNL A   1      38.040  30.191  29.590  1.00  0.00     0.031 A 
ATOM     38  C   UNL A   1      39.175  29.381  29.011  1.00  0.00     0.074 A 
ATOM     39  C   UNL A   1      38.189  30.725  30.818  1.00  0.00     0.049 A 
ATOM     40  N   UNL A   1      40.208  28.848  29.613  1.00  0.00    -0.248 NA
ATOM     41  C   UNL A   1      39.126  29.119  27.564  1.00  0.00     0.031 C 
ATOM     42  C   UNL A   1      37.222  31.587  31.497  1.00  0.00     0.029 A 
ATOM     43  N   UNL A   1      39.222  30.616  31.719  1.00  0.00    -0.354 N 
ATOM     44  C   UNL A   1      40.879  28.116  28.641  1.00  0.00     0.074 A 
ATOM     45  C   UNL A   1      40.151  28.293  27.403  1.00  0.00     0.031 C 
ATOM     46  C   UNL A   1      37.722  31.963  32.683  1.00  0.00     0.029 A 
ATOM     47  C   UNL A   1      38.997  31.286  32.898  1.00  0.00     0.049 A 
ATOM     48  H   UNL A   1      40.046  30.108  31.538  1.00  0.00     0.167 HD
ATOM     49  C   UNL A   1      41.992  27.356  28.776  1.00  0.00     0.037 A 
ATOM     50  C   UNL A   1      39.701  31.312  34.046  1.00  0.00     0.037 A 
ATOM     51  C   UNL A   1      42.766  27.254  29.987  1.00  0.00     0.049 A 
ATOM     52  C   UNL A   1      40.942  30.475  34.173  1.00  0.00     0.074 A 
ATOM     53  C   UNL A   1      43.909  26.508  30.224  1.00  0.00     0.029 A 
ATOM     54  N   UNL A   1      42.495  27.951  31.154  1.00  0.00    -0.354 N 
ATOM     55  N   UNL A   1      41.499  29.686  33.288  1.00  0.00    -0.248 NA
ATOM     56  C   UNL A   1      41.633  30.505  35.470  1.00  0.00     0.031 C 
ATOM     57  C   UNL A   1      44.321  26.744  31.540  1.00  0.00     0.029 A 
ATOM     58  C   UNL A   1      43.453  27.659  32.112  1.00  0.00     0.049 A 
ATOM     59  H   UNL A   1      41.735  28.563  31.283  1.00  0.00     0.167 HD
ATOM     60  C   UNL A   1      42.604  29.130  33.916  1.00  0.00     0.074 A 
ATOM     61  C   UNL A   1      42.653  29.686  35.252  1.00  0.00     0.031 C 
ATOM     62  C   UNL A   1      43.493  28.229  33.431  1.00  0.00     0.037 A 
BRANCH  49  63
ATOM     63  C   UNL A   1      42.425  26.534  27.598  1.00  0.00     0.064 A 
ATOM     64  C   UNL A   1      43.420  26.967  26.711  1.00  0.00     0.173 A 
ATOM     65  C   UNL A   1      41.863  25.264  27.388  1.00  0.00     0.173 A 
ATOM     66  F   UNL A   1      43.976  28.177  26.860  1.00  0.00    -0.203 F 
ATOM     67  C   UNL A   1      43.823  26.165  25.645  1.00  0.00     0.198 A 
ATOM     68  C   UNL A   1      42.286  24.456  26.337  1.00  0.00     0.198 A 
ATOM     69  F   UNL A   1      40.911  24.801  28.213  1.00  0.00    -0.203 F 
ATOM     70  F   UNL A   1      44.750  26.614  24.786  1.00  0.00    -0.200 F 
ATOM     71  C   UNL A   1      43.263  24.909  25.463  1.00  0.00     0.200 A 
ATOM     72  F   UNL A   1      41.752  23.238  26.170  1.00  0.00    -0.200 F 
ATOM     73  F   UNL A   1      43.660  24.138  24.442  1.00  0.00    -0.200 F 
ENDBRANCH  49  63
BRANCH  50  74
ATOM     74  C   UNL A   1      39.213  32.129  35.187  1.00  0.00     0.064 A 
ATOM     75  C   UNL A   1      38.456  31.550  36.213  1.00  0.00     0.173 A 
ATOM     76  C   UNL A   1      39.516  33.496  35.286  1.00  0.00     0.173 A 
ATOM     77  F   UNL A   1      38.115  30.256  36.145  1.00  0.00    -0.203 F 
ATOM     78  C   UNL A   1      38.019  32.309  37.299  1.00  0.00     0.198 A 
ATOM     79  C   UNL A   1      39.105  34.245  36.385  1.00  0.00     0.198 A 
ATOM     80  F   UNL A   1      40.235  34.096  34.327  1.00  0.00    -0.203 F 
ATOM     81  F   UNL A   1      37.270  31.739  38.252  1.00  0.00    -0.200 F 
ATOM     82  C   UNL A   1      38.354  33.652  37.389  1.00  0.00     0.200 A 
ATOM     83  F   UNL A   1      39.442  35.538  36.476  1.00  0.00    -0.200 F 
ATOM     84  F   UNL A   1      37.949  34.376  38.441  1.00  0.00    -0.200 F 
ENDBRANCH  50  74
BRANCH  62  85
ATOM     85  C   UNL A   1      44.609  27.813  34.338  1.00  0.00     0.064 A 
ATOM     86  C   UNL A   1      44.488  26.700  35.183  1.00  0.00     0.173 A 
ATOM     87  C   UNL A   1      45.825  28.511  34.334  1.00  0.00     0.173 A 
ATOM     88  F   UNL A   1      43.337  26.012  35.231  1.00  0.00    -0.203 F 
ATOM     89  C   UNL A   1      45.543  26.310  36.003  1.00  0.00     0.198 A 
ATOM     90  C   UNL A   1      46.883  28.107  35.142  1.00  0.00     0.198 A 
ATOM     91  F   UNL A   1      45.988  29.580  33.539  1.00  0.00    -0.203 F 
ATOM     92  F   UNL A   1      45.397  25.263  36.827  1.00  0.00    -0.200 F 
ATOM     93  C   UNL A   1      46.741  27.011  35.979  1.00  0.00     0.200 A 
ATOM     94  F   UNL A   1      48.042  28.781  35.114  1.00  0.00    -0.200 F 
ATOM     95  F   UNL A   1      47.755  26.631  36.768  1.00  0.00    -0.200 F 
ENDBRANCH  62  85
ENDBRANCH  36  37
ENDBRANCH  29  31
ENDBRANCH  28  29
ENDBRANCH  27  28
ENDBRANCH  26  27
ENDBRANCH   1  26
TORSDOF 16
ENDMDL
MODEL 2
REMARK VINA RESULT:     -12.2      4.166      9.152
REMARK SMILES CC1=C(C)C[C@H](C(=O)OCCOC(=O)c2ccc(-c3c4nc(c(-c5c(F)c(F)c(F)c(F)c5F)c5ccc([nH]5)c(-c5c(F)c(F)c(F)c(F)c5F)c5nc(c(-c6c(F)c(F)c(F)c(F)c6F)c6ccc3[nH]6)C=C5)C=C4)cc2)[C@@H](C(=O)N[C@@H](C)CCc2ccccc2)C1
REMARK SMILES IDX 9 1 7 2 8 3 6 4 1 5 2 6 3 7 92 8 4 9 5 10 78 11 79 12 80 13
REMARK SMILES IDX 81 14 82 16 83 17 84 18 85 19 86 20 87 21 91 22 88 23 90 24
REMARK SMILES IDX 89 25 10 26 11 27 12 28 13 29 14 30 15 31 16 32 77 33 17 34
REMARK SMILES IDX 76 35 18 36 19 37 20 38 70 39 21 40 75 41 69 42 71 43 22 44
REMARK SMILES IDX 74 45 68 46 67 47 23 49 55 50 35 51 54 52 36 53 39 54 53 55
REMARK SMILES IDX 72 56 37 57 38 58 52 60 73 61 40 62 24 63 25 64 33 65 26 66
REMARK SMILES IDX 27 67 31 68 34 69 28 70 29 71 32 72 30 73 56 74 57 75 65 76
REMARK SMILES IDX 58 77 59 78 63 79 66 80 60 81 61 82 64 83 62 84 41 85 42 86
REMARK SMILES IDX 50 87 43 88 44 89 48 90 51 91 45 92 46 93 49 94 47 95
REMARK H PARENT 81 15 71 48 39 59
REMARK Flexibility Score: inf
ROOT
ATOM      1  O   UNL A   1      35.567  23.720  24.435  1.00  0.00    -0.462 OA
ENDROOT
BRANCH   1   2
ATOM      2  C   UNL A   1      34.413  24.068  23.801  1.00  0.00     0.310 C 
ATOM      3  O   UNL A   1      34.091  23.643  22.696  1.00  0.00    -0.252 OA
BRANCH   2   4
ATOM      4  C   UNL A   1      33.582  25.102  24.575  1.00  0.00     0.116 C 
ATOM      5  C   UNL A   1      30.141  27.797  23.474  1.00  0.00     0.039 C 
ATOM      6  C   UNL A   1      31.358  26.986  23.843  1.00  0.00    -0.074 C 
ATOM      7  C   UNL A   1      32.618  27.319  23.515  1.00  0.00    -0.073 C 
ATOM      8  C   UNL A   1      31.052  25.774  24.668  1.00  0.00     0.045 C 
ATOM      9  C   UNL A   1      32.980  28.552  22.725  1.00  0.00     0.039 C 
ATOM     10  C   UNL A   1      33.804  26.498  23.951  1.00  0.00     0.046 C 
ATOM     11  C   UNL A   1      32.111  24.670  24.766  1.00  0.00     0.097 C 
BRANCH  11  12
ATOM     12  C   UNL A   1      31.937  24.074  26.167  1.00  0.00     0.224 C 
ATOM     13  O   UNL A   1      31.449  24.729  27.092  1.00  0.00    -0.275 OA
ATOM     14  N   UNL A   1      32.201  22.763  26.418  1.00  0.00    -0.353 N 
ATOM     15  H   UNL A   1      31.782  22.407  27.235  1.00  0.00     0.163 HD
BRANCH  14  16
ATOM     16  C   UNL A   1      33.000  21.798  25.674  1.00  0.00     0.079 C 
ATOM     17  C   UNL A   1      33.963  21.122  26.655  1.00  0.00     0.031 C 
BRANCH  16  18
ATOM     18  C   UNL A   1      32.128  20.724  24.993  1.00  0.00     0.029 C 
BRANCH  18  19
ATOM     19  C   UNL A   1      32.835  19.847  23.951  1.00  0.00     0.037 C 
BRANCH  19  20
ATOM     20  C   UNL A   1      33.136  18.401  24.282  1.00  0.00    -0.048 A 
ATOM     21  C   UNL A   1      33.935  17.560  23.499  1.00  0.00     0.004 A 
ATOM     22  C   UNL A   1      32.527  17.856  25.428  1.00  0.00     0.004 A 
ATOM     23  C   UNL A   1      34.064  16.203  23.809  1.00  0.00     0.000 A 
ATOM     24  C   UNL A   1      32.676  16.505  25.751  1.00  0.00     0.000 A 
ATOM     25  C   UNL A   1      33.431  15.675  24.931  1.00  0.00     0.000 A 
ENDBRANCH  19  20
ENDBRANCH  18  19
ENDBRANCH  16  18
ENDBRANCH  14  16
ENDBRANCH  11  12
ENDBRANCH   2   4
ENDBRANCH   1   2
BRANCH   1  26
ATOM     26  C   UNL A   1      36.534  22.978  23.661  1.00  0.00     0.274 C 
BRANCH  26  27
ATOM     27  C   UNL A   1      36.820  21.629  24.316  1.00  0.00     0.275 C 
BRANCH  27  28
ATOM     28  O   UNL A   1      37.262  21.841  25.668  1.00  0.00    -0.458 OA
BRANCH  28  29
ATOM     29  C   UNL A   1      38.563  21.572  25.920  1.00  0.00     0.338 C 
ATOM     30  O   UNL A   1      39.147  20.517  25.747  1.00  0.00    -0.246 OA
BRANCH  29  31
ATOM     31  C   UNL A   1      39.212  22.773  26.484  1.00  0.00     0.060 A 
ATOM     32  C   UNL A   1      38.762  24.048  26.149  1.00  0.00     0.016 A 
ATOM     33  C   UNL A   1      40.344  22.624  27.285  1.00  0.00     0.016 A 
ATOM     34  C   UNL A   1      39.496  25.172  26.531  1.00  0.00     0.010 A 
ATOM     35  C   UNL A   1      41.022  23.757  27.746  1.00  0.00     0.010 A 
ATOM     36  C   UNL A   1      40.634  25.047  27.341  1.00  0.00    -0.014 A 
BRANCH  36  37
ATOM     37  C   UNL A   1      41.457  26.234  27.724  1.00  0.00     0.031 A 
ATOM     38  C   UNL A   1      40.862  27.307  28.603  1.00  0.00     0.074 A 
ATOM     39  C   UNL A   1      42.728  26.381  27.296  1.00  0.00     0.049 A 
ATOM     40  N   UNL A   1      41.269  28.534  28.810  1.00  0.00    -0.248 NA
ATOM     41  C   UNL A   1      39.631  26.956  29.328  1.00  0.00     0.031 C 
ATOM     42  C   UNL A   1      43.476  25.411  26.499  1.00  0.00     0.029 A 
ATOM     43  N   UNL A   1      43.616  27.414  27.477  1.00  0.00    -0.354 N 
ATOM     44  C   UNL A   1      40.301  29.126  29.611  1.00  0.00     0.074 A 
ATOM     45  C   UNL A   1      39.298  28.117  29.876  1.00  0.00     0.031 C 
ATOM     46  C   UNL A   1      44.719  25.871  26.295  1.00  0.00     0.029 A 
ATOM     47  C   UNL A   1      44.825  27.216  26.855  1.00  0.00     0.049 A 
ATOM     48  H   UNL A   1      43.407  28.220  28.002  1.00  0.00     0.167 HD
ATOM     49  C   UNL A   1      40.250  30.399  30.071  1.00  0.00     0.037 A 
ATOM     50  C   UNL A   1      45.882  28.035  26.699  1.00  0.00     0.037 A 
ATOM     51  C   UNL A   1      41.294  31.374  29.884  1.00  0.00     0.049 A 
ATOM     52  C   UNL A   1      45.814  29.440  27.230  1.00  0.00     0.074 A 
ATOM     53  C   UNL A   1      41.335  32.691  30.310  1.00  0.00     0.029 A 
ATOM     54  N   UNL A   1      42.498  31.124  29.245  1.00  0.00    -0.354 N 
ATOM     55  N   UNL A   1      44.841  30.032  27.877  1.00  0.00    -0.248 NA
ATOM     56  C   UNL A   1      46.979  30.301  26.978  1.00  0.00     0.031 C 
ATOM     57  C   UNL A   1      42.559  33.242  29.917  1.00  0.00     0.029 A 
ATOM     58  C   UNL A   1      43.293  32.259  29.273  1.00  0.00     0.049 A 
ATOM     59  H   UNL A   1      42.752  30.267  28.833  1.00  0.00     0.167 HD
ATOM     60  C   UNL A   1      45.275  31.329  28.113  1.00  0.00     0.074 A 
ATOM     61  C   UNL A   1      46.607  31.435  27.556  1.00  0.00     0.031 C 
ATOM     62  C   UNL A   1      44.620  32.344  28.726  1.00  0.00     0.037 A 
BRANCH  49  63
ATOM     63  C   UNL A   1      39.007  30.834  30.790  1.00  0.00     0.064 A 
ATOM     64  C   UNL A   1      37.891  31.341  30.111  1.00  0.00     0.173 A 
ATOM     65  C   UNL A   1      38.919  30.689  32.184  1.00  0.00     0.173 A 
ATOM     66  F   UNL A   1      37.931  31.512  28.781  1.00  0.00    -0.203 F 
ATOM     67  C   UNL A   1      36.739  31.704  30.804  1.00  0.00     0.198 A 
ATOM     68  C   UNL A   1      37.757  31.030  32.869  1.00  0.00     0.198 A 
ATOM     69  F   UNL A   1      39.958  30.203  32.880  1.00  0.00    -0.203 F 
ATOM     70  F   UNL A   1      35.695  32.222  30.139  1.00  0.00    -0.200 F 
ATOM     71  C   UNL A   1      36.669  31.542  32.180  1.00  0.00     0.200 A 
ATOM     72  F   UNL A   1      37.688  30.861  34.198  1.00  0.00    -0.200 F 
ATOM     73  F   UNL A   1      35.555  31.884  32.842  1.00  0.00    -0.200 F 
ENDBRANCH  49  63
BRANCH  50  74
ATOM     74  C   UNL A   1      47.079  27.557  25.961  1.00  0.00     0.064 A 
ATOM     75  C   UNL A   1      47.167  27.693  24.570  1.00  0.00     0.173 A 
ATOM     76  C   UNL A   1      48.167  26.978  26.634  1.00  0.00     0.173 A 
ATOM     77  F   UNL A   1      46.141  28.211  23.881  1.00  0.00    -0.203 F 
ATOM     78  C   UNL A   1      48.301  27.270  23.877  1.00  0.00     0.198 A 
ATOM     79  C   UNL A   1      49.309  26.583  25.944  1.00  0.00     0.198 A 
ATOM     80  F   UNL A   1      48.127  26.823  27.964  1.00  0.00    -0.203 F 
ATOM     81  F   UNL A   1      48.349  27.383  22.544  1.00  0.00    -0.200 F 
ATOM     82  C   UNL A   1      49.375  26.726  24.566  1.00  0.00     0.200 A 
ATOM     83  F   UNL A   1      50.350  26.070  26.615  1.00  0.00    -0.200 F 
ATOM     84  F   UNL A   1      50.471  26.334  23.902  1.00  0.00    -0.200 F 
ENDBRANCH  50  74
BRANCH  62  85
ATOM     85  C   UNL A   1      45.346  33.648  28.854  1.00  0.00     0.064 A 
ATOM     86  C   UNL A   1      45.230  34.648  27.878  1.00  0.00     0.173 A 
ATOM     87  C   UNL A   1      46.133  33.912  29.983  1.00  0.00     0.173 A 
ATOM     88  F   UNL A   1      44.501  34.431  26.774  1.00  0.00    -0.203 F 
ATOM     89  C   UNL A   1      45.892  35.864  28.022  1.00  0.00     0.198 A 
ATOM     90  C   UNL A   1      46.778  35.136  30.133  1.00  0.00     0.198 A 
ATOM     91  F   UNL A   1      46.270  32.986  30.945  1.00  0.00    -0.203 F 
ATOM     92  F   UNL A   1      45.795  36.795  27.063  1.00  0.00    -0.200 F 
ATOM     93  C   UNL A   1      46.661  36.109  29.152  1.00  0.00     0.200 A 
ATOM     94  F   UNL A   1      47.516  35.374  31.226  1.00  0.00    -0.200 F 
ATOM     95  F   UNL A   1      47.295  37.281  29.289  1.00  0.00    -0.200 F 
ENDBRANCH  62  85
ENDBRANCH  36  37
ENDBRANCH  29  31
ENDBRANCH  28  29
ENDBRANCH  27  28
ENDBRANCH  26  27
ENDBRANCH   1  26
TORSDOF 16
ENDMDL
MODEL 3
REMARK VINA RESULT:     -12.0      4.053      9.407
REMARK SMILES CC1=C(C)C[C@H](C(=O)OCCOC(=O)c2ccc(-c3c4nc(c(-c5c(F)c(F)c(F)c(F)c5F)c5ccc([nH]5)c(-c5c(F)c(F)c(F)c(F)c5F)c5nc(c(-c6c(F)c(F)c(F)c(F)c6F)c6ccc3[nH]6)C=C5)C=C4)cc2)[C@@H](C(=O)N[C@@H](C)CCc2ccccc2)C1
REMARK SMILES IDX 9 1 7 2 8 3 6 4 1 5 2 6 3 7 92 8 4 9 5 10 78 11 79 12 80 13
REMARK SMILES IDX 81 14 82 16 83 17 84 18 85 19 86 20 87 21 91 22 88 23 90 24
REMARK SMILES IDX 89 25 10 26 11 27 12 28 13 29 14 30 15 31 16 32 77 33 17 34
REMARK SMILES IDX 76 35 18 36 19 37 20 38 70 39 21 40 75 41 69 42 71 43 22 44
REMARK SMILES IDX 74 45 68 46 67 47 23 49 55 50 35 51 54 52 36 53 39 54 53 55
REMARK SMILES IDX 72 56 37 57 38 58 52 60 73 61 40 62 24 63 25 64 33 65 26 66
REMARK SMILES IDX 27 67 31 68 34 69 28 70 29 71 32 72 30 73 56 74 57 75 65 76
REMARK SMILES IDX 58 77 59 78 63 79 66 80 60 81 61 82 64 83 62 84 41 85 42 86
REMARK SMILES IDX 50 87 43 88 44 89 48 90 51 91 45 92 46 93 49 94 47 95
REMARK H PARENT 81 15 71 48 39 59
REMARK Flexibility Score: inf
ROOT
ATOM      1  O   UNL A   1      35.669  23.723  23.883  1.00  0.00    -0.462 OA
ENDROOT
BRANCH   1   2
ATOM      2  C   UNL A   1      34.529  23.838  23.148  1.00  0.00     0.310 C 
ATOM      3  O   UNL A   1      34.384  23.335  22.038  1.00  0.00    -0.252 OA
BRANCH   2   4
ATOM      4  C   UNL A   1      33.462  24.718  23.813  1.00  0.00     0.116 C 
ATOM      5  C   UNL A   1      30.923  28.160  22.390  1.00  0.00     0.039 C 
ATOM      6  C   UNL A   1      31.832  27.082  22.924  1.00  0.00    -0.074 C 
ATOM      7  C   UNL A   1      33.114  27.280  23.280  1.00  0.00    -0.073 C 
ATOM      8  C   UNL A   1      31.168  25.750  23.081  1.00  0.00     0.045 C 
ATOM      9  C   UNL A   1      33.813  28.614  23.183  1.00  0.00     0.039 C 
ATOM     10  C   UNL A   1      33.966  26.178  23.855  1.00  0.00     0.046 C 
ATOM     11  C   UNL A   1      32.050  24.504  23.222  1.00  0.00     0.097 C 
BRANCH  11  12
ATOM     12  C   UNL A   1      31.260  23.556  24.130  1.00  0.00     0.224 C 
ATOM     13  O   UNL A   1      31.224  22.340  23.919  1.00  0.00    -0.275 OA
ATOM     14  N   UNL A   1      30.668  23.997  25.272  1.00  0.00    -0.353 N 
ATOM     15  H   UNL A   1      30.456  23.291  25.926  1.00  0.00     0.163 HD
BRANCH  14  16
ATOM     16  C   UNL A   1      30.296  25.343  25.687  1.00  0.00     0.079 C 
ATOM     17  C   UNL A   1      29.031  25.242  26.546  1.00  0.00     0.031 C 
BRANCH  16  18
ATOM     18  C   UNL A   1      31.411  26.028  26.500  1.00  0.00     0.029 C 
BRANCH  18  19
ATOM     19  C   UNL A   1      31.165  27.497  26.873  1.00  0.00     0.037 C 
BRANCH  19  20
ATOM     20  C   UNL A   1      32.336  28.456  26.917  1.00  0.00    -0.048 A 
ATOM     21  C   UNL A   1      33.680  28.064  26.906  1.00  0.00     0.004 A 
ATOM     22  C   UNL A   1      32.049  29.829  27.027  1.00  0.00     0.004 A 
ATOM     23  C   UNL A   1      34.700  29.003  27.072  1.00  0.00     0.000 A 
ATOM     24  C   UNL A   1      33.071  30.770  27.168  1.00  0.00     0.000 A 
ATOM     25  C   UNL A   1      34.397  30.355  27.208  1.00  0.00     0.000 A 
ENDBRANCH  19  20
ENDBRANCH  18  19
ENDBRANCH  16  18
ENDBRANCH  14  16
ENDBRANCH  11  12
ENDBRANCH   2   4
ENDBRANCH   1   2
BRANCH   1  26
ATOM     26  C   UNL A   1      36.577  22.662  23.513  1.00  0.00     0.274 C 
BRANCH  26  27
ATOM     27  C   UNL A   1      36.398  21.461  24.438  1.00  0.00     0.275 C 
BRANCH  27  28
ATOM     28  O   UNL A   1      36.995  21.750  25.714  1.00  0.00    -0.458 OA
BRANCH  28  29
ATOM     29  C   UNL A   1      38.324  21.524  25.817  1.00  0.00     0.338 C 
ATOM     30  O   UNL A   1      38.932  20.520  25.488  1.00  0.00    -0.246 OA
BRANCH  29  31
ATOM     31  C   UNL A   1      38.975  22.697  26.433  1.00  0.00     0.060 A 
ATOM     32  C   UNL A   1      38.523  23.986  26.159  1.00  0.00     0.016 A 
ATOM     33  C   UNL A   1      40.111  22.512  27.221  1.00  0.00     0.016 A 
ATOM     34  C   UNL A   1      39.259  25.092  26.590  1.00  0.00     0.010 A 
ATOM     35  C   UNL A   1      40.791  23.623  27.730  1.00  0.00     0.010 A 
ATOM     36  C   UNL A   1      40.401  24.930  27.388  1.00  0.00    -0.014 A 
BRANCH  36  37
ATOM     37  C   UNL A   1      41.225  26.099  27.822  1.00  0.00     0.031 A 
ATOM     38  C   UNL A   1      40.615  27.161  28.703  1.00  0.00     0.074 A 
ATOM     39  C   UNL A   1      42.510  26.238  27.439  1.00  0.00     0.049 A 
ATOM     40  N   UNL A   1      41.029  28.378  28.949  1.00  0.00    -0.248 NA
ATOM     41  C   UNL A   1      39.356  26.811  29.380  1.00  0.00     0.031 C 
ATOM     42  C   UNL A   1      43.273  25.275  26.646  1.00  0.00     0.029 A 
ATOM     43  N   UNL A   1      43.405  27.256  27.669  1.00  0.00    -0.354 N 
ATOM     44  C   UNL A   1      40.043  28.966  29.730  1.00  0.00     0.074 A 
ATOM     45  C   UNL A   1      39.020  27.965  29.941  1.00  0.00     0.031 C 
ATOM     46  C   UNL A   1      44.527  25.724  26.492  1.00  0.00     0.029 A 
ATOM     47  C   UNL A   1      44.631  27.055  27.083  1.00  0.00     0.049 A 
ATOM     48  H   UNL A   1      43.189  28.054  28.204  1.00  0.00     0.167 HD
ATOM     49  C   UNL A   1      39.993  30.231  30.215  1.00  0.00     0.037 A 
ATOM     50  C   UNL A   1      45.702  27.864  26.978  1.00  0.00     0.037 A 
ATOM     51  C   UNL A   1      41.053  31.196  30.081  1.00  0.00     0.049 A 
ATOM     52  C   UNL A   1      45.634  29.259  27.535  1.00  0.00     0.074 A 
ATOM     53  C   UNL A   1      41.096  32.503  30.536  1.00  0.00     0.029 A 
ATOM     54  N   UNL A   1      42.275  30.944  29.477  1.00  0.00    -0.354 N 
ATOM     55  N   UNL A   1      44.648  29.849  28.162  1.00  0.00    -0.248 NA
ATOM     56  C   UNL A   1      46.816  30.110  27.339  1.00  0.00     0.031 C 
ATOM     57  C   UNL A   1      42.340  33.046  30.194  1.00  0.00     0.029 A 
ATOM     58  C   UNL A   1      43.081  32.067  29.553  1.00  0.00     0.049 A 
ATOM     59  H   UNL A   1      42.531  30.091  29.055  1.00  0.00     0.167 HD
ATOM     60  C   UNL A   1      45.089  31.135  28.439  1.00  0.00     0.074 A 
ATOM     61  C   UNL A   1      46.440  31.236  27.928  1.00  0.00     0.031 C 
ATOM     62  C   UNL A   1      44.427  32.147  29.051  1.00  0.00     0.037 A 
BRANCH  49  63
ATOM     63  C   UNL A   1      38.732  30.666  30.901  1.00  0.00     0.064 A 
ATOM     64  C   UNL A   1      38.612  30.689  32.297  1.00  0.00     0.173 A 
ATOM     65  C   UNL A   1      37.642  31.118  30.140  1.00  0.00     0.173 A 
ATOM     66  F   UNL A   1      39.619  30.253  33.068  1.00  0.00    -0.203 F 
ATOM     67  C   UNL A   1      37.439  31.131  32.905  1.00  0.00     0.198 A 
ATOM     68  C   UNL A   1      36.482  31.583  30.752  1.00  0.00     0.198 A 
ATOM     69  F   UNL A   1      37.709  31.123  28.800  1.00  0.00    -0.203 F 
ATOM     70  F   UNL A   1      37.331  31.109  34.242  1.00  0.00    -0.200 F 
ATOM     71  C   UNL A   1      36.379  31.584  32.134  1.00  0.00     0.200 A 
ATOM     72  F   UNL A   1      35.463  32.032  30.004  1.00  0.00    -0.200 F 
ATOM     73  F   UNL A   1      35.256  32.017  32.723  1.00  0.00    -0.200 F 
ENDBRANCH  49  63
BRANCH  50  74
ATOM     74  C   UNL A   1      46.917  27.386  26.269  1.00  0.00     0.064 A 
ATOM     75  C   UNL A   1      47.064  27.573  24.889  1.00  0.00     0.173 A 
ATOM     76  C   UNL A   1      47.963  26.756  26.961  1.00  0.00     0.173 A 
ATOM     77  F   UNL A   1      46.078  28.141  24.181  1.00  0.00    -0.203 F 
ATOM     78  C   UNL A   1      48.215  27.149  24.225  1.00  0.00     0.198 A 
ATOM     79  C   UNL A   1      49.124  26.360  26.302  1.00  0.00     0.198 A 
ATOM     80  F   UNL A   1      47.867  26.550  28.282  1.00  0.00    -0.203 F 
ATOM     81  F   UNL A   1      48.319  27.312  22.900  1.00  0.00    -0.200 F 
ATOM     82  C   UNL A   1      49.247  26.553  24.934  1.00  0.00     0.200 A 
ATOM     83  F   UNL A   1      50.125  25.797  26.992  1.00  0.00    -0.200 F 
ATOM     84  F   UNL A   1      50.360  26.161  24.299  1.00  0.00    -0.200 F 
ENDBRANCH  50  74
BRANCH  62  85
ATOM     85  C   UNL A   1      45.164  33.438  29.230  1.00  0.00     0.064 A 
ATOM     86  C   UNL A   1      45.943  33.684  30.369  1.00  0.00     0.173 A 
ATOM     87  C   UNL A   1      45.120  34.423  28.233  1.00  0.00     0.173 A 
ATOM     88  F   UNL A   1      46.000  32.776  31.356  1.00  0.00    -0.203 F 
ATOM     89  C   UNL A   1      46.641  34.879  30.511  1.00  0.00     0.198 A 
ATOM     90  C   UNL A   1      45.835  35.609  28.370  1.00  0.00     0.198 A 
ATOM     91  F   UNL A   1      44.391  34.230  27.123  1.00  0.00    -0.203 F 
ATOM     92  F   UNL A   1      47.355  35.109  31.622  1.00  0.00    -0.200 F 
ATOM     93  C   UNL A   1      46.591  35.839  29.509  1.00  0.00     0.200 A 
ATOM     94  F   UNL A   1      45.790  36.532  27.399  1.00  0.00    -0.200 F 
ATOM     95  F   UNL A   1      47.267  36.987  29.647  1.00  0.00    -0.200 F 
ENDBRANCH  62  85
ENDBRANCH  36  37
ENDBRANCH  29  31
ENDBRANCH  28  29
ENDBRANCH  27  28
ENDBRANCH  26  27
ENDBRANCH   1  26
TORSDOF 16
ENDMDL
