MODEL 1
REMARK VINA RESULT:     -10.0      0.000      0.000
REMARK SMILES N#C[C@H]1CN(C(=O)[C@H]([NH3+])CC(=O)OCCOC(=O)c2ccc(-c3c4nc(c(-c5c(F)c(F)c(F)c(F)c5F)c5ccc([nH]5)c(-c5c(F)c(F)c(F)c(F)c5F)c5nc(c(-c6c(F)c(F)c(F)c(F)c6F)c6ccc3[nH]6)C=C5)C=C4)cc2)CCO1
REMARK SMILES IDX 14 1 13 2 11 3 12 4 10 5 8 6 6 7 7 8 5 9 3 10 4 11 84 12
REMARK SMILES IDX 83 13 82 14 2 15 1 16 9 17 15 21 16 22 17 23 18 24 19 25
REMARK SMILES IDX 20 26 81 27 21 28 80 29 22 30 23 31 24 32 74 33 25 34 79 35
REMARK SMILES IDX 73 36 75 37 26 38 78 39 72 40 71 41 27 43 59 44 39 45 58 46
REMARK SMILES IDX 40 47 43 48 57 49 76 50 41 51 42 52 56 54 77 55 44 56 28 57
REMARK SMILES IDX 29 58 37 59 30 60 31 61 35 62 38 63 32 64 33 65 36 66 34 67
REMARK SMILES IDX 60 68 61 69 69 70 62 71 63 72 67 73 70 74 64 75 65 76 68 77
REMARK SMILES IDX 66 78 45 79 46 80 54 81 47 82 48 83 52 84 55 85 49 86 50 87
REMARK SMILES IDX 53 88 51 89
REMARK H PARENT 9 18 9 19 9 20 75 42 43 53
REMARK Flexibility Score: inf
ROOT
ATOM      1  C   UNL A   1      33.738  34.453  29.316  1.00  0.00     0.274 C 
ENDROOT
BRANCH   1   2
ATOM      2  O   UNL A   1      32.526  34.985  29.881  1.00  0.00    -0.462 OA
BRANCH   2   3
ATOM      3  C   UNL A   1      32.672  36.075  30.669  1.00  0.00     0.312 C 
ATOM      4  O   UNL A   1      32.959  37.199  30.271  1.00  0.00    -0.252 OA
BRANCH   3   5
ATOM      5  C   UNL A   1      32.591  35.756  32.134  1.00  0.00     0.198 C 
BRANCH   5   6
ATOM      6  C   UNL A   1      33.904  35.494  32.878  1.00  0.00     0.282 C 
BRANCH   6   7
ATOM      7  C   UNL A   1      34.125  33.963  33.032  1.00  0.00     0.281 C 
ATOM      8  O   UNL A   1      33.160  33.223  33.238  1.00  0.00    -0.268 OA
BRANCH   7   9
ATOM      9  N   UNL A   1      35.419  33.449  32.975  1.00  0.00    -0.332 N 
ATOM     10  C   UNL A   1      37.380  34.505  31.985  1.00  0.00     0.240 C 
ATOM     11  C   UNL A   1      36.312  33.407  31.809  1.00  0.00     0.167 C 
ATOM     12  O   UNL A   1      38.152  34.215  33.174  1.00  0.00    -0.360 OA
ATOM     13  C   UNL A   1      37.312  34.204  34.350  1.00  0.00     0.183 C 
ATOM     14  C   UNL A   1      36.150  33.201  34.222  1.00  0.00     0.148 C 
BRANCH  10  15
ATOM     15  C   UNL A   1      38.232  34.584  30.786  1.00  0.00     0.096 C 
ATOM     16  N   UNL A   1      38.928  34.578  29.861  1.00  0.00    -0.195 NA
ENDBRANCH  10  15
ENDBRANCH   7   9
ENDBRANCH   6   7
BRANCH   6  17
ATOM     17  N   UNL A   1      34.066  36.154  34.183  1.00  0.00    -0.347 N 
ATOM     18  H   UNL A   1      34.881  35.768  34.661  1.00  0.00     0.345 HD
ATOM     19  H   UNL A   1      33.232  35.994  34.750  1.00  0.00     0.345 HD
ATOM     20  H   UNL A   1      34.196  37.155  34.044  1.00  0.00     0.345 HD
ENDBRANCH   6  17
ENDBRANCH   5   6
ENDBRANCH   3   5
ENDBRANCH   2   3
ENDBRANCH   1   2
BRANCH   1  21
ATOM     21  C   UNL A   1      33.469  33.666  28.030  1.00  0.00     0.275 C 
BRANCH  21  22
ATOM     22  O   UNL A   1      34.625  32.917  27.598  1.00  0.00    -0.458 OA
BRANCH  22  23
ATOM     23  C   UNL A   1      34.550  31.583  27.816  1.00  0.00     0.338 C 
ATOM     24  O   UNL A   1      33.594  30.857  27.606  1.00  0.00    -0.246 OA
BRANCH  23  25
ATOM     25  C   UNL A   1      35.855  31.040  28.217  1.00  0.00     0.060 A 
ATOM     26  C   UNL A   1      35.882  29.751  28.753  1.00  0.00     0.016 A 
ATOM     27  C   UNL A   1      37.006  31.825  28.216  1.00  0.00     0.016 A 
ATOM     28  C   UNL A   1      37.048  29.242  29.306  1.00  0.00     0.010 A 
ATOM     29  C   UNL A   1      38.192  31.301  28.750  1.00  0.00     0.010 A 
ATOM     30  C   UNL A   1      38.218  30.009  29.309  1.00  0.00    -0.014 A 
BRANCH  30  31
ATOM     31  C   UNL A   1      39.446  29.440  29.917  1.00  0.00     0.031 A 
ATOM     32  C   UNL A   1      39.978  29.982  31.213  1.00  0.00     0.074 A 
ATOM     33  C   UNL A   1      40.049  28.394  29.322  1.00  0.00     0.049 A 
ATOM     34  N   UNL A   1      41.058  29.642  31.872  1.00  0.00    -0.248 NA
ATOM     35  C   UNL A   1      39.197  31.051  31.851  1.00  0.00     0.031 C 
ATOM     36  C   UNL A   1      39.598  27.756  28.083  1.00  0.00     0.029 A 
ATOM     37  N   UNL A   1      41.162  27.675  29.678  1.00  0.00    -0.354 N 
ATOM     38  C   UNL A   1      41.099  30.469  32.987  1.00  0.00     0.074 A 
ATOM     39  C   UNL A   1      39.950  31.345  32.901  1.00  0.00     0.031 C 
ATOM     40  C   UNL A   1      40.412  26.729  27.796  1.00  0.00     0.029 A 
ATOM     41  C   UNL A   1      41.479  26.679  28.789  1.00  0.00     0.049 A 
ATOM     42  H   UNL A   1      41.683  27.857  30.495  1.00  0.00     0.167 HD
ATOM     43  C   UNL A   1      42.012  30.488  33.988  1.00  0.00     0.037 A 
ATOM     44  C   UNL A   1      42.531  25.840  28.757  1.00  0.00     0.037 A 
ATOM     45  C   UNL A   1      43.147  29.601  34.067  1.00  0.00     0.049 A 
ATOM     46  C   UNL A   1      43.561  25.927  29.850  1.00  0.00     0.074 A 
ATOM     47  C   UNL A   1      44.122  29.530  35.046  1.00  0.00     0.029 A 
ATOM     48  N   UNL A   1      43.460  28.632  33.123  1.00  0.00    -0.354 N 
ATOM     49  N   UNL A   1      43.593  26.712  30.900  1.00  0.00    -0.248 NA
ATOM     50  C   UNL A   1      44.702  25.009  29.751  1.00  0.00     0.031 C 
ATOM     51  C   UNL A   1      45.059  28.563  34.664  1.00  0.00     0.029 A 
ATOM     52  C   UNL A   1      44.631  27.978  33.483  1.00  0.00     0.049 A 
ATOM     53  H   UNL A   1      42.930  28.436  32.317  1.00  0.00     0.167 HD
ATOM     54  C   UNL A   1      44.741  26.367  31.599  1.00  0.00     0.074 A 
ATOM     55  C   UNL A   1      45.361  25.280  30.867  1.00  0.00     0.031 C 
ATOM     56  C   UNL A   1      45.240  26.903  32.740  1.00  0.00     0.037 A 
BRANCH  43  57
ATOM     57  C   UNL A   1      41.847  31.528  35.062  1.00  0.00     0.064 A 
ATOM     58  C   UNL A   1      42.619  32.699  35.090  1.00  0.00     0.173 A 
ATOM     59  C   UNL A   1      40.875  31.364  36.061  1.00  0.00     0.173 A 
ATOM     60  F   UNL A   1      43.571  32.905  34.166  1.00  0.00    -0.203 F 
ATOM     61  C   UNL A   1      42.446  33.651  36.094  1.00  0.00     0.198 A 
ATOM     62  C   UNL A   1      40.680  32.333  37.043  1.00  0.00     0.198 A 
ATOM     63  F   UNL A   1      40.103  30.268  36.081  1.00  0.00    -0.203 F 
ATOM     64  F   UNL A   1      43.232  34.737  36.130  1.00  0.00    -0.200 F 
ATOM     65  C   UNL A   1      41.472  33.471  37.064  1.00  0.00     0.200 A 
ATOM     66  F   UNL A   1      39.726  32.164  37.968  1.00  0.00    -0.200 F 
ATOM     67  F   UNL A   1      41.300  34.391  38.023  1.00  0.00    -0.200 F 
ENDBRANCH  43  57
BRANCH  44  68
ATOM     68  C   UNL A   1      42.675  24.867  27.641  1.00  0.00     0.064 A 
ATOM     69  C   UNL A   1      43.435  25.174  26.504  1.00  0.00     0.173 A 
ATOM     70  C   UNL A   1      42.045  23.614  27.684  1.00  0.00     0.173 A 
ATOM     71  F   UNL A   1      44.040  26.367  26.405  1.00  0.00    -0.203 F 
ATOM     72  C   UNL A   1      43.538  24.276  25.443  1.00  0.00     0.198 A 
ATOM     73  C   UNL A   1      42.180  22.702  26.640  1.00  0.00     0.198 A 
ATOM     74  F   UNL A   1      41.307  23.268  28.749  1.00  0.00    -0.203 F 
ATOM     75  F   UNL A   1      44.224  24.619  24.344  1.00  0.00    -0.200 F 
ATOM     76  C   UNL A   1      42.917  23.039  25.515  1.00  0.00     0.200 A 
ATOM     77  F   UNL A   1      41.592  21.500  26.722  1.00  0.00    -0.200 F 
ATOM     78  F   UNL A   1      43.021  22.174  24.497  1.00  0.00    -0.200 F 
ENDBRANCH  44  68
BRANCH  56  79
ATOM     79  C   UNL A   1      46.501  26.289  33.283  1.00  0.00     0.064 A 
ATOM     80  C   UNL A   1      47.770  26.805  32.974  1.00  0.00     0.173 A 
ATOM     81  C   UNL A   1      46.441  25.162  34.117  1.00  0.00     0.173 A 
ATOM     82  F   UNL A   1      47.887  27.873  32.169  1.00  0.00    -0.203 F 
ATOM     83  C   UNL A   1      48.928  26.186  33.436  1.00  0.00     0.198 A 
ATOM     84  C   UNL A   1      47.600  24.570  34.611  1.00  0.00     0.198 A 
ATOM     85  F   UNL A   1      45.255  24.631  34.454  1.00  0.00    -0.203 F 
ATOM     86  F   UNL A   1      50.128  26.649  33.061  1.00  0.00    -0.200 F 
ATOM     87  C   UNL A   1      48.842  25.072  34.257  1.00  0.00     0.200 A 
ATOM     88  F   UNL A   1      47.514  23.505  35.421  1.00  0.00    -0.200 F 
ATOM     89  F   UNL A   1      49.958  24.475  34.697  1.00  0.00    -0.200 F 
ENDBRANCH  56  79
ENDBRANCH  30  31
ENDBRANCH  23  25
ENDBRANCH  22  23
ENDBRANCH  21  22
ENDBRANCH   1  21
TORSDOF 16
ENDMDL
MODEL 2
REMARK VINA RESULT:     -10.0      2.012      3.048
REMARK SMILES N#C[C@H]1CN(C(=O)[C@H]([NH3+])CC(=O)OCCOC(=O)c2ccc(-c3c4nc(c(-c5c(F)c(F)c(F)c(F)c5F)c5ccc([nH]5)c(-c5c(F)c(F)c(F)c(F)c5F)c5nc(c(-c6c(F)c(F)c(F)c(F)c6F)c6ccc3[nH]6)C=C5)C=C4)cc2)CCO1
REMARK SMILES IDX 14 1 13 2 11 3 12 4 10 5 8 6 6 7 7 8 5 9 3 10 4 11 84 12
REMARK SMILES IDX 83 13 82 14 2 15 1 16 9 17 15 21 16 22 17 23 18 24 19 25
REMARK SMILES IDX 20 26 81 27 21 28 80 29 22 30 23 31 24 32 74 33 25 34 79 35
REMARK SMILES IDX 73 36 75 37 26 38 78 39 72 40 71 41 27 43 59 44 39 45 58 46
REMARK SMILES IDX 40 47 43 48 57 49 76 50 41 51 42 52 56 54 77 55 44 56 28 57
REMARK SMILES IDX 29 58 37 59 30 60 31 61 35 62 38 63 32 64 33 65 36 66 34 67
REMARK SMILES IDX 60 68 61 69 69 70 62 71 63 72 67 73 70 74 64 75 65 76 68 77
REMARK SMILES IDX 66 78 45 79 46 80 54 81 47 82 48 83 52 84 55 85 49 86 50 87
REMARK SMILES IDX 53 88 51 89
REMARK H PARENT 9 18 9 19 9 20 75 42 43 53
REMARK Flexibility Score: inf
ROOT
ATOM      1  C   UNL A   1      33.933  33.514  28.414  1.00  0.00     0.274 C 
ENDROOT
BRANCH   1   2
ATOM      2  O   UNL A   1      32.790  34.361  28.631  1.00  0.00    -0.462 OA
BRANCH   2   3
ATOM      3  C   UNL A   1      32.959  35.362  29.524  1.00  0.00     0.312 C 
ATOM      4  O   UNL A   1      32.270  36.374  29.589  1.00  0.00    -0.252 OA
BRANCH   3   5
ATOM      5  C   UNL A   1      34.190  35.194  30.368  1.00  0.00     0.198 C 
BRANCH   5   6
ATOM      6  C   UNL A   1      33.996  34.971  31.872  1.00  0.00     0.282 C 
BRANCH   6   7
ATOM      7  C   UNL A   1      34.614  33.606  32.285  1.00  0.00     0.281 C 
ATOM      8  O   UNL A   1      34.049  32.556  31.965  1.00  0.00    -0.268 OA
BRANCH   7   9
ATOM      9  N   UNL A   1      35.778  33.584  33.050  1.00  0.00    -0.332 N 
ATOM     10  C   UNL A   1      37.578  31.944  32.943  1.00  0.00     0.240 C 
ATOM     11  C   UNL A   1      36.362  32.434  33.754  1.00  0.00     0.167 C 
ATOM     12  O   UNL A   1      38.560  33.007  32.892  1.00  0.00    -0.360 OA
ATOM     13  C   UNL A   1      38.022  34.180  32.242  1.00  0.00     0.183 C 
ATOM     14  C   UNL A   1      36.739  34.686  32.928  1.00  0.00     0.148 C 
BRANCH  10  15
ATOM     15  C   UNL A   1      38.131  30.718  33.544  1.00  0.00     0.096 C 
ATOM     16  N   UNL A   1      38.610  29.798  34.058  1.00  0.00    -0.195 NA
ENDBRANCH  10  15
ENDBRANCH   7   9
ENDBRANCH   6   7
BRANCH   6  17
ATOM     17  N   UNL A   1      32.620  35.070  32.381  1.00  0.00    -0.347 N 
ATOM     18  H   UNL A   1      32.475  34.368  33.106  1.00  0.00     0.345 HD
ATOM     19  H   UNL A   1      31.963  34.910  31.616  1.00  0.00     0.345 HD
ATOM     20  H   UNL A   1      32.468  36.000  32.772  1.00  0.00     0.345 HD
ENDBRANCH   6  17
ENDBRANCH   5   6
ENDBRANCH   3   5
ENDBRANCH   2   3
ENDBRANCH   1   2
BRANCH   1  21
ATOM     21  C   UNL A   1      33.525  32.120  27.929  1.00  0.00     0.275 C 
BRANCH  21  22
ATOM     22  O   UNL A   1      34.633  31.398  27.350  1.00  0.00    -0.458 OA
BRANCH  22  23
ATOM     23  C   UNL A   1      34.798  30.140  27.822  1.00  0.00     0.338 C 
ATOM     24  O   UNL A   1      33.991  29.227  27.779  1.00  0.00    -0.246 OA
BRANCH  23  25
ATOM     25  C   UNL A   1      36.176  29.928  28.288  1.00  0.00     0.060 A 
ATOM     26  C   UNL A   1      37.204  30.078  27.356  1.00  0.00     0.016 A 
ATOM     27  C   UNL A   1      36.449  29.441  29.565  1.00  0.00     0.016 A 
ATOM     28  C   UNL A   1      38.507  29.729  27.682  1.00  0.00     0.010 A 
ATOM     29  C   UNL A   1      37.770  29.115  29.905  1.00  0.00     0.010 A 
ATOM     30  C   UNL A   1      38.806  29.246  28.961  1.00  0.00    -0.014 A 
BRANCH  30  31
ATOM     31  C   UNL A   1      40.208  28.872  29.275  1.00  0.00     0.031 A 
ATOM     32  C   UNL A   1      41.062  29.766  30.128  1.00  0.00     0.074 A 
ATOM     33  C   UNL A   1      40.689  27.696  28.832  1.00  0.00     0.049 A 
ATOM     34  N   UNL A   1      42.319  29.628  30.472  1.00  0.00    -0.248 NA
ATOM     35  C   UNL A   1      40.424  30.978  30.660  1.00  0.00     0.031 C 
ATOM     36  C   UNL A   1      39.937  26.727  28.031  1.00  0.00     0.029 A 
ATOM     37  N   UNL A   1      41.917  27.108  28.997  1.00  0.00    -0.354 N 
ATOM     38  C   UNL A   1      42.627  30.743  31.240  1.00  0.00     0.074 A 
ATOM     39  C   UNL A   1      41.434  31.562  31.289  1.00  0.00     0.031 C 
ATOM     40  C   UNL A   1      40.711  25.658  27.794  1.00  0.00     0.029 A 
ATOM     41  C   UNL A   1      42.032  25.894  28.365  1.00  0.00     0.049 A 
ATOM     42  H   UNL A   1      42.646  27.517  29.519  1.00  0.00     0.167 HD
ATOM     43  C   UNL A   1      43.798  31.048  31.849  1.00  0.00     0.037 A 
ATOM     44  C   UNL A   1      43.094  25.078  28.231  1.00  0.00     0.037 A 
ATOM     45  C   UNL A   1      44.977  30.218  31.801  1.00  0.00     0.049 A 
ATOM     46  C   UNL A   1      44.398  25.474  28.866  1.00  0.00     0.074 A 
ATOM     47  C   UNL A   1      46.208  30.430  32.395  1.00  0.00     0.029 A 
ATOM     48  N   UNL A   1      45.070  29.015  31.115  1.00  0.00    -0.354 N 
ATOM     49  N   UNL A   1      44.682  26.530  29.590  1.00  0.00    -0.248 NA
ATOM     50  C   UNL A   1      45.531  24.562  28.665  1.00  0.00     0.031 C 
ATOM     51  C   UNL A   1      47.065  29.390  32.017  1.00  0.00     0.029 A 
ATOM     52  C   UNL A   1      46.348  28.489  31.246  1.00  0.00     0.049 A 
ATOM     53  H   UNL A   1      44.337  28.595  30.609  1.00  0.00     0.167 HD
ATOM     54  C   UNL A   1      46.015  26.399  29.950  1.00  0.00     0.074 A 
ATOM     55  C   UNL A   1      46.474  25.144  29.390  1.00  0.00     0.031 C 
ATOM     56  C   UNL A   1      46.792  27.241  30.676  1.00  0.00     0.037 A 
BRANCH  43  57
ATOM     57  C   UNL A   1      43.880  32.357  32.587  1.00  0.00     0.064 A 
ATOM     58  C   UNL A   1      43.629  32.453  33.964  1.00  0.00     0.173 A 
ATOM     59  C   UNL A   1      44.252  33.529  31.908  1.00  0.00     0.173 A 
ATOM     60  F   UNL A   1      43.262  31.367  34.662  1.00  0.00    -0.203 F 
ATOM     61  C   UNL A   1      43.716  33.676  34.627  1.00  0.00     0.198 A 
ATOM     62  C   UNL A   1      44.371  34.743  32.580  1.00  0.00     0.198 A 
ATOM     63  F   UNL A   1      44.510  33.496  30.593  1.00  0.00    -0.203 F 
ATOM     64  F   UNL A   1      43.421  33.752  35.932  1.00  0.00    -0.200 F 
ATOM     65  C   UNL A   1      44.094  34.817  33.937  1.00  0.00     0.200 A 
ATOM     66  F   UNL A   1      44.754  35.841  31.914  1.00  0.00    -0.200 F 
ATOM     67  F   UNL A   1      44.187  35.991  34.578  1.00  0.00    -0.200 F 
ENDBRANCH  43  57
BRANCH  44  68
ATOM     68  C   UNL A   1      42.974  23.821  27.444  1.00  0.00     0.064 A 
ATOM     69  C   UNL A   1      42.516  22.636  28.035  1.00  0.00     0.173 A 
ATOM     70  C   UNL A   1      43.326  23.777  26.087  1.00  0.00     0.173 A 
ATOM     71  F   UNL A   1      42.187  22.620  29.336  1.00  0.00    -0.203 F 
ATOM     72  C   UNL A   1      42.440  21.451  27.307  1.00  0.00     0.198 A 
ATOM     73  C   UNL A   1      43.213  22.601  25.349  1.00  0.00     0.198 A 
ATOM     74  F   UNL A   1      43.769  24.884  25.470  1.00  0.00    -0.203 F 
ATOM     75  F   UNL A   1      42.054  20.319  27.912  1.00  0.00    -0.200 F 
ATOM     76  C   UNL A   1      42.782  21.436  25.963  1.00  0.00     0.200 A 
ATOM     77  F   UNL A   1      43.527  22.597  24.046  1.00  0.00    -0.200 F 
ATOM     78  F   UNL A   1      42.703  20.297  25.262  1.00  0.00    -0.200 F 
ENDBRANCH  44  68
BRANCH  56  79
ATOM     79  C   UNL A   1      48.209  26.807  30.933  1.00  0.00     0.064 A 
ATOM     80  C   UNL A   1      49.269  27.206  30.103  1.00  0.00     0.173 A 
ATOM     81  C   UNL A   1      48.509  25.971  32.019  1.00  0.00     0.173 A 
ATOM     82  F   UNL A   1      49.037  27.994  29.042  1.00  0.00    -0.203 F 
ATOM     83  C   UNL A   1      50.563  26.743  30.322  1.00  0.00     0.198 A 
ATOM     84  C   UNL A   1      49.812  25.543  32.259  1.00  0.00     0.198 A 
ATOM     85  F   UNL A   1      47.537  25.565  32.851  1.00  0.00    -0.203 F 
ATOM     86  F   UNL A   1      51.543  27.072  29.469  1.00  0.00    -0.200 F 
ATOM     87  C   UNL A   1      50.835  25.916  31.401  1.00  0.00     0.200 A 
ATOM     88  F   UNL A   1      50.075  24.759  33.314  1.00  0.00    -0.200 F 
ATOM     89  F   UNL A   1      52.081  25.468  31.607  1.00  0.00    -0.200 F 
ENDBRANCH  56  79
ENDBRANCH  30  31
ENDBRANCH  23  25
ENDBRANCH  22  23
ENDBRANCH  21  22
ENDBRANCH   1  21
TORSDOF 16
ENDMDL
MODEL 3
REMARK VINA RESULT:     -10.0      4.054      9.681
REMARK SMILES N#C[C@H]1CN(C(=O)[C@H]([NH3+])CC(=O)OCCOC(=O)c2ccc(-c3c4nc(c(-c5c(F)c(F)c(F)c(F)c5F)c5ccc([nH]5)c(-c5c(F)c(F)c(F)c(F)c5F)c5nc(c(-c6c(F)c(F)c(F)c(F)c6F)c6ccc3[nH]6)C=C5)C=C4)cc2)CCO1
REMARK SMILES IDX 14 1 13 2 11 3 12 4 10 5 8 6 6 7 7 8 5 9 3 10 4 11 84 12
REMARK SMILES IDX 83 13 82 14 2 15 1 16 9 17 15 21 16 22 17 23 18 24 19 25
REMARK SMILES IDX 20 26 81 27 21 28 80 29 22 30 23 31 24 32 74 33 25 34 79 35
REMARK SMILES IDX 73 36 75 37 26 38 78 39 72 40 71 41 27 43 59 44 39 45 58 46
REMARK SMILES IDX 40 47 43 48 57 49 76 50 41 51 42 52 56 54 77 55 44 56 28 57
REMARK SMILES IDX 29 58 37 59 30 60 31 61 35 62 38 63 32 64 33 65 36 66 34 67
REMARK SMILES IDX 60 68 61 69 69 70 62 71 63 72 67 73 70 74 64 75 65 76 68 77
REMARK SMILES IDX 66 78 45 79 46 80 54 81 47 82 48 83 52 84 55 85 49 86 50 87
REMARK SMILES IDX 53 88 51 89
REMARK H PARENT 9 18 9 19 9 20 75 42 43 53
REMARK Flexibility Score: inf
ROOT
ATOM      1  C   UNL A   1      31.779  28.975  24.515  1.00  0.00     0.274 C 
ENDROOT
BRANCH   1   2
ATOM      2  O   UNL A   1      32.983  28.891  23.731  1.00  0.00    -0.462 OA
BRANCH   2   3
ATOM      3  C   UNL A   1      32.933  28.064  22.662  1.00  0.00     0.312 C 
ATOM      4  O   UNL A   1      33.800  27.973  21.799  1.00  0.00    -0.252 OA
BRANCH   3   5
ATOM      5  C   UNL A   1      31.622  27.343  22.538  1.00  0.00     0.198 C 
BRANCH   5   6
ATOM      6  C   UNL A   1      31.642  25.925  21.959  1.00  0.00     0.282 C 
BRANCH   6   7
ATOM      7  C   UNL A   1      32.466  24.989  22.888  1.00  0.00     0.281 C 
ATOM      8  O   UNL A   1      33.112  24.057  22.401  1.00  0.00    -0.268 OA
BRANCH   7   9
ATOM      9  N   UNL A   1      32.433  25.190  24.265  1.00  0.00    -0.332 N 
ATOM     10  C   UNL A   1      31.644  23.628  25.962  1.00  0.00     0.240 C 
ATOM     11  C   UNL A   1      31.317  24.916  25.181  1.00  0.00     0.167 C 
ATOM     12  O   UNL A   1      32.843  23.851  26.743  1.00  0.00    -0.360 OA
ATOM     13  C   UNL A   1      33.967  24.165  25.891  1.00  0.00     0.183 C 
ATOM     14  C   UNL A   1      33.691  25.386  24.995  1.00  0.00     0.148 C 
BRANCH  10  15
ATOM     15  C   UNL A   1      30.503  23.243  26.811  1.00  0.00     0.096 C 
ATOM     16  N   UNL A   1      29.579  23.009  27.467  1.00  0.00    -0.195 NA
ENDBRANCH  10  15
ENDBRANCH   7   9
ENDBRANCH   6   7
BRANCH   6  17
ATOM     17  N   UNL A   1      32.109  25.786  20.571  1.00  0.00    -0.347 N 
ATOM     18  H   UNL A   1      32.295  26.710  20.181  1.00  0.00     0.345 HD
ATOM     19  H   UNL A   1      31.390  25.321  20.016  1.00  0.00     0.345 HD
ATOM     20  H   UNL A   1      32.964  25.231  20.553  1.00  0.00     0.345 HD
ENDBRANCH   6  17
ENDBRANCH   5   6
ENDBRANCH   3   5
ENDBRANCH   2   3
ENDBRANCH   1   2
BRANCH   1  21
ATOM     21  C   UNL A   1      31.925  29.958  25.680  1.00  0.00     0.275 C 
BRANCH  21  22
ATOM     22  O   UNL A   1      33.296  30.358  25.889  1.00  0.00    -0.458 OA
BRANCH  22  23
ATOM     23  C   UNL A   1      33.496  31.157  26.962  1.00  0.00     0.338 C 
ATOM     24  O   UNL A   1      32.697  31.929  27.463  1.00  0.00    -0.246 OA
BRANCH  23  25
ATOM     25  C   UNL A   1      34.796  30.881  27.591  1.00  0.00     0.060 A 
ATOM     26  C   UNL A   1      35.036  29.579  28.034  1.00  0.00     0.016 A 
ATOM     27  C   UNL A   1      35.698  31.902  27.883  1.00  0.00     0.016 A 
ATOM     28  C   UNL A   1      36.166  29.288  28.784  1.00  0.00     0.010 A 
ATOM     29  C   UNL A   1      36.855  31.602  28.618  1.00  0.00     0.010 A 
ATOM     30  C   UNL A   1      37.091  30.295  29.083  1.00  0.00    -0.014 A 
BRANCH  30  31
ATOM     31  C   UNL A   1      38.285  29.953  29.896  1.00  0.00     0.031 A 
ATOM     32  C   UNL A   1      39.348  29.046  29.345  1.00  0.00     0.074 A 
ATOM     33  C   UNL A   1      38.431  30.509  31.113  1.00  0.00     0.049 A 
ATOM     34  N   UNL A   1      40.437  28.601  29.922  1.00  0.00    -0.248 NA
ATOM     35  C   UNL A   1      39.161  28.571  27.968  1.00  0.00     0.031 C 
ATOM     36  C   UNL A   1      37.484  31.438  31.734  1.00  0.00     0.029 A 
ATOM     37  N   UNL A   1      39.431  30.385  32.043  1.00  0.00    -0.354 N 
ATOM     38  C   UNL A   1      41.052  27.777  28.989  1.00  0.00     0.074 A 
ATOM     39  C   UNL A   1      40.201  27.763  27.818  1.00  0.00     0.031 C 
ATOM     40  C   UNL A   1      37.959  31.816  32.930  1.00  0.00     0.029 A 
ATOM     41  C   UNL A   1      39.206  31.106  33.189  1.00  0.00     0.049 A 
ATOM     42  H   UNL A   1      40.235  29.832  31.902  1.00  0.00     0.167 HD
ATOM     43  C   UNL A   1      42.220  27.102  29.103  1.00  0.00     0.037 A 
ATOM     44  C   UNL A   1      39.907  31.162  34.337  1.00  0.00     0.037 A 
ATOM     45  C   UNL A   1      43.064  27.133  30.272  1.00  0.00     0.049 A 
ATOM     46  C   UNL A   1      41.169  30.352  34.456  1.00  0.00     0.074 A 
ATOM     47  C   UNL A   1      44.274  26.496  30.483  1.00  0.00     0.029 A 
ATOM     48  N   UNL A   1      42.782  27.842  31.432  1.00  0.00    -0.354 N 
ATOM     49  N   UNL A   1      41.743  29.575  33.569  1.00  0.00    -0.248 NA
ATOM     50  C   UNL A   1      41.879  30.428  35.739  1.00  0.00     0.031 C 
ATOM     51  C   UNL A   1      44.692  26.766  31.791  1.00  0.00     0.029 A 
ATOM     52  C   UNL A   1      43.780  27.632  32.374  1.00  0.00     0.049 A 
ATOM     53  H   UNL A   1      41.989  28.410  31.568  1.00  0.00     0.167 HD
ATOM     54  C   UNL A   1      42.893  29.089  34.176  1.00  0.00     0.074 A 
ATOM     55  C   UNL A   1      42.949  29.685  35.496  1.00  0.00     0.031 C 
ATOM     56  C   UNL A   1      43.818  28.226  33.687  1.00  0.00     0.037 A 
BRANCH  43  57
ATOM     57  C   UNL A   1      42.639  26.233  27.948  1.00  0.00     0.064 A 
ATOM     58  C   UNL A   1      42.156  24.926  27.784  1.00  0.00     0.173 A 
ATOM     59  C   UNL A   1      43.514  26.732  26.969  1.00  0.00     0.173 A 
ATOM     60  F   UNL A   1      41.325  24.394  28.694  1.00  0.00    -0.203 F 
ATOM     61  C   UNL A   1      42.556  24.142  26.704  1.00  0.00     0.198 A 
ATOM     62  C   UNL A   1      43.884  25.958  25.872  1.00  0.00     0.198 A 
ATOM     63  F   UNL A   1      44.002  27.977  27.070  1.00  0.00    -0.203 F 
ATOM     64  F   UNL A   1      42.122  22.878  26.597  1.00  0.00    -0.200 F 
ATOM     65  C   UNL A   1      43.413  24.661  25.745  1.00  0.00     0.200 A 
ATOM     66  F   UNL A   1      44.698  26.470  24.938  1.00  0.00    -0.200 F 
ATOM     67  F   UNL A   1      43.789  23.909  24.701  1.00  0.00    -0.200 F 
ENDBRANCH  43  57
BRANCH  44  68
ATOM     68  C   UNL A   1      39.420  31.994  35.469  1.00  0.00     0.064 A 
ATOM     69  C   UNL A   1      39.835  33.324  35.624  1.00  0.00     0.173 A 
ATOM     70  C   UNL A   1      38.538  31.472  36.428  1.00  0.00     0.173 A 
ATOM     71  F   UNL A   1      40.694  33.864  34.747  1.00  0.00    -0.203 F 
ATOM     72  C   UNL A   1      39.406  34.090  36.706  1.00  0.00     0.198 A 
ATOM     73  C   UNL A   1      38.080  32.251  37.488  1.00  0.00     0.198 A 
ATOM     74  F   UNL A   1      38.108  30.205  36.328  1.00  0.00    -0.203 F 
ATOM     75  F   UNL A   1      39.864  35.341  36.860  1.00  0.00    -0.200 F 
ATOM     76  C   UNL A   1      38.524  33.556  37.633  1.00  0.00     0.200 A 
ATOM     77  F   UNL A   1      37.214  31.735  38.371  1.00  0.00    -0.200 F 
ATOM     78  F   UNL A   1      38.109  34.296  38.670  1.00  0.00    -0.200 F 
ENDBRANCH  44  68
BRANCH  56  79
ATOM     79  C   UNL A   1      44.987  27.908  34.578  1.00  0.00     0.064 A 
ATOM     80  C   UNL A   1      46.158  28.682  34.569  1.00  0.00     0.173 A 
ATOM     81  C   UNL A   1      44.940  26.806  35.445  1.00  0.00     0.173 A 
ATOM     82  F   UNL A   1      46.263  29.739  33.748  1.00  0.00    -0.203 F 
ATOM     83  C   UNL A   1      47.253  28.335  35.355  1.00  0.00     0.198 A 
ATOM     84  C   UNL A   1      46.022  26.486  36.261  1.00  0.00     0.198 A 
ATOM     85  F   UNL A   1      43.843  26.035  35.503  1.00  0.00    -0.203 F 
ATOM     86  F   UNL A   1      48.388  29.042  35.270  1.00  0.00    -0.200 F 
ATOM     87  C   UNL A   1      47.183  27.241  36.204  1.00  0.00     0.200 A 
ATOM     88  F   UNL A   1      45.944  25.439  37.095  1.00  0.00    -0.200 F 
ATOM     89  F   UNL A   1      48.239  26.906  36.957  1.00  0.00    -0.200 F 
ENDBRANCH  56  79
ENDBRANCH  30  31
ENDBRANCH  23  25
ENDBRANCH  22  23
ENDBRANCH  21  22
ENDBRANCH   1  21
TORSDOF 16
ENDMDL
