MODEL 1
REMARK VINA RESULT:     -11.9      0.000      0.000
REMARK SMILES O=C(CCc1cccnc1)Nc1ccsc1C(=O)OCCOC(=O)c1ccc(-c2c3nc(c(-c4c(F)c(F)c(F)c(F)c4F)c4ccc([nH]4)c(-c4c(F)c(F)c(F)c(F)c4F)c4nc(c(-c5c(F)c(F)c(F)c(F)c5F)c5ccc2[nH]5)C=C4)C=C3)cc1
REMARK SMILES IDX 20 1 19 2 17 3 18 4 16 5 12 6 13 7 14 8 15 9 11 10 1 11 2 12
REMARK SMILES IDX 3 14 4 15 5 16 6 17 10 18 7 19 9 20 8 21 21 22 22 23 23 24
REMARK SMILES IDX 24 25 25 26 26 27 87 28 27 29 86 30 28 31 29 32 30 33 80 34
REMARK SMILES IDX 31 35 85 36 79 37 81 38 32 39 84 40 78 41 77 42 33 44 65 45
REMARK SMILES IDX 45 46 64 47 46 48 49 49 63 50 82 51 47 52 48 53 62 55 83 56
REMARK SMILES IDX 50 57 34 58 35 59 43 60 36 61 37 62 41 63 44 64 38 65 39 66
REMARK SMILES IDX 42 67 40 68 66 69 67 70 75 71 68 72 69 73 73 74 76 75 70 76
REMARK SMILES IDX 71 77 74 78 72 79 51 80 52 81 60 82 53 83 54 84 58 85 61 86
REMARK SMILES IDX 55 87 56 88 59 89 57 90
REMARK H PARENT 11 13 81 43 49 54
REMARK Flexibility Score: inf
ROOT
ATOM      1  C   UNL A   1      32.219  29.299  25.301  1.00  0.00     0.275 C 
ENDROOT
BRANCH   1   2
ATOM      2  O   UNL A   1      31.965  28.114  26.098  1.00  0.00    -0.458 OA
BRANCH   2   3
ATOM      3  C   UNL A   1      32.871  27.097  25.979  1.00  0.00     0.350 C 
ATOM      4  O   UNL A   1      34.040  27.183  26.340  1.00  0.00    -0.245 OA
BRANCH   3   5
ATOM      5  C   UNL A   1      32.215  25.878  25.522  1.00  0.00     0.136 A 
ATOM      6  C   UNL A   1      31.060  25.644  24.780  1.00  0.00     0.066 A 
ATOM      7  C   UNL A   1      30.691  24.260  24.827  1.00  0.00     0.039 A 
ATOM      8  C   UNL A   1      31.626  23.475  25.460  1.00  0.00     0.068 A 
ATOM      9  S   UNL A   1      32.964  24.388  25.976  1.00  0.00    -0.135 S 
BRANCH   6  10
ATOM     10  N   UNL A   1      30.399  26.623  24.035  1.00  0.00    -0.325 N 
ATOM     11  O   UNL A   1      31.611  26.510  22.059  1.00  0.00    -0.275 OA
ATOM     12  C   UNL A   1      30.776  27.059  22.776  1.00  0.00     0.224 C 
ATOM     13  H   UNL A   1      29.600  27.034  24.436  1.00  0.00     0.169 HD
BRANCH  12  14
ATOM     14  C   UNL A   1      30.120  28.356  22.307  1.00  0.00     0.105 C 
BRANCH  14  15
ATOM     15  C   UNL A   1      28.803  28.729  22.995  1.00  0.00     0.047 C 
BRANCH  15  16
ATOM     16  C   UNL A   1      28.310  30.067  22.520  1.00  0.00    -0.029 A 
ATOM     17  C   UNL A   1      28.188  30.371  21.161  1.00  0.00     0.007 A 
ATOM     18  C   UNL A   1      28.143  31.102  23.421  1.00  0.00     0.114 A 
ATOM     19  C   UNL A   1      28.040  31.695  20.758  1.00  0.00     0.020 A 
ATOM     20  N   UNL A   1      28.046  32.391  23.046  1.00  0.00    -0.264 NA
ATOM     21  C   UNL A   1      28.020  32.671  21.731  1.00  0.00     0.111 A 
ENDBRANCH  15  16
ENDBRANCH  14  15
ENDBRANCH  12  14
ENDBRANCH   6  10
ENDBRANCH   3   5
ENDBRANCH   2   3
ENDBRANCH   1   2
BRANCH   1  22
ATOM     22  C   UNL A   1      31.984  30.561  26.140  1.00  0.00     0.275 C 
BRANCH  22  23
ATOM     23  O   UNL A   1      32.889  30.544  27.254  1.00  0.00    -0.458 OA
BRANCH  23  24
ATOM     24  C   UNL A   1      33.500  31.731  27.470  1.00  0.00     0.338 C 
ATOM     25  O   UNL A   1      33.000  32.836  27.506  1.00  0.00    -0.246 OA
BRANCH  24  26
ATOM     26  C   UNL A   1      34.847  31.416  27.961  1.00  0.00     0.060 A 
ATOM     27  C   UNL A   1      35.102  30.092  28.326  1.00  0.00     0.016 A 
ATOM     28  C   UNL A   1      35.835  32.391  28.042  1.00  0.00     0.016 A 
ATOM     29  C   UNL A   1      36.339  29.735  28.843  1.00  0.00     0.010 A 
ATOM     30  C   UNL A   1      37.078  32.036  28.550  1.00  0.00     0.010 A 
ATOM     31  C   UNL A   1      37.317  30.720  28.991  1.00  0.00    -0.014 A 
BRANCH  31  32
ATOM     32  C   UNL A   1      38.538  30.459  29.776  1.00  0.00     0.031 A 
ATOM     33  C   UNL A   1      39.538  29.502  29.198  1.00  0.00     0.074 A 
ATOM     34  C   UNL A   1      38.712  31.011  30.987  1.00  0.00     0.049 A 
ATOM     35  N   UNL A   1      40.515  28.864  29.781  1.00  0.00    -0.248 NA
ATOM     36  C   UNL A   1      39.384  29.196  27.765  1.00  0.00     0.031 C 
ATOM     37  C   UNL A   1      37.835  32.009  31.597  1.00  0.00     0.029 A 
ATOM     38  N   UNL A   1      39.670  30.774  31.936  1.00  0.00    -0.354 N 
ATOM     39  C   UNL A   1      41.053  28.039  28.803  1.00  0.00     0.074 A 
ATOM     40  C   UNL A   1      40.287  28.244  27.595  1.00  0.00     0.031 C 
ATOM     41  C   UNL A   1      38.281  32.279  32.835  1.00  0.00     0.029 A 
ATOM     42  C   UNL A   1      39.426  31.421  33.121  1.00  0.00     0.049 A 
ATOM     43  H   UNL A   1      40.454  30.199  31.783  1.00  0.00     0.167 HD
ATOM     44  C   UNL A   1      42.096  27.184  28.920  1.00  0.00     0.037 A 
ATOM     45  C   UNL A   1      40.031  31.281  34.315  1.00  0.00     0.037 A 
ATOM     46  C   UNL A   1      42.849  27.027  30.135  1.00  0.00     0.049 A 
ATOM     47  C   UNL A   1      41.155  30.286  34.438  1.00  0.00     0.074 A 
ATOM     48  C   UNL A   1      43.936  26.210  30.380  1.00  0.00     0.029 A 
ATOM     49  N   UNL A   1      42.588  27.718  31.312  1.00  0.00    -0.354 N 
ATOM     50  N   UNL A   1      41.653  29.482  33.528  1.00  0.00    -0.248 NA
ATOM     51  C   UNL A   1      41.798  30.173  35.753  1.00  0.00     0.031 C 
ATOM     52  C   UNL A   1      44.299  26.366  31.722  1.00  0.00     0.029 A 
ATOM     53  C   UNL A   1      43.484  27.333  32.293  1.00  0.00     0.049 A 
ATOM     54  H   UNL A   1      41.871  28.381  31.431  1.00  0.00     0.167 HD
ATOM     55  C   UNL A   1      42.694  28.800  34.145  1.00  0.00     0.074 A 
ATOM     56  C   UNL A   1      42.753  29.287  35.509  1.00  0.00     0.031 C 
ATOM     57  C   UNL A   1      43.529  27.863  33.634  1.00  0.00     0.037 A 
BRANCH  44  58
ATOM     58  C   UNL A   1      42.444  26.338  27.729  1.00  0.00     0.064 A 
ATOM     59  C   UNL A   1      41.795  25.122  27.461  1.00  0.00     0.173 A 
ATOM     60  C   UNL A   1      43.440  26.757  26.832  1.00  0.00     0.173 A 
ATOM     61  F   UNL A   1      40.848  24.663  28.293  1.00  0.00    -0.203 F 
ATOM     62  C   UNL A   1      42.153  24.344  26.361  1.00  0.00     0.198 A 
ATOM     63  C   UNL A   1      43.769  25.996  25.714  1.00  0.00     0.198 A 
ATOM     64  F   UNL A   1      44.093  27.910  27.039  1.00  0.00    -0.203 F 
ATOM     65  F   UNL A   1      41.560  23.160  26.160  1.00  0.00    -0.200 F 
ATOM     66  C   UNL A   1      43.132  24.787  25.485  1.00  0.00     0.200 A 
ATOM     67  F   UNL A   1      44.706  26.432  24.862  1.00  0.00    -0.200 F 
ATOM     68  F   UNL A   1      43.469  24.041  24.422  1.00  0.00    -0.200 F 
ENDBRANCH  44  58
BRANCH  45  69
ATOM     69  C   UNL A   1      39.572  32.082  35.481  1.00  0.00     0.064 A 
ATOM     70  C   UNL A   1      38.603  31.580  36.359  1.00  0.00     0.173 A 
ATOM     71  C   UNL A   1      40.094  33.356  35.748  1.00  0.00     0.173 A 
ATOM     72  F   UNL A   1      38.060  30.373  36.137  1.00  0.00    -0.203 F 
ATOM     73  C   UNL A   1      38.158  32.329  37.447  1.00  0.00     0.198 A 
ATOM     74  C   UNL A   1      39.672  34.091  36.854  1.00  0.00     0.198 A 
ATOM     75  F   UNL A   1      41.028  33.885  34.942  1.00  0.00    -0.203 F 
ATOM     76  F   UNL A   1      37.196  31.843  38.242  1.00  0.00    -0.200 F 
ATOM     77  C   UNL A   1      38.698  33.581  37.697  1.00  0.00     0.200 A 
ATOM     78  F   UNL A   1      40.209  35.295  37.102  1.00  0.00    -0.200 F 
ATOM     79  F   UNL A   1      38.274  34.298  38.747  1.00  0.00    -0.200 F 
ENDBRANCH  45  69
BRANCH  57  80
ATOM     80  C   UNL A   1      44.628  27.361  34.525  1.00  0.00     0.064 A 
ATOM     81  C   UNL A   1      45.863  28.015  34.624  1.00  0.00     0.173 A 
ATOM     82  C   UNL A   1      44.406  26.241  35.343  1.00  0.00     0.173 A 
ATOM     83  F   UNL A   1      46.127  29.081  33.854  1.00  0.00    -0.203 F 
ATOM     84  C   UNL A   1      46.846  27.551  35.492  1.00  0.00     0.198 A 
ATOM     85  C   UNL A   1      45.377  25.803  36.236  1.00  0.00     0.198 A 
ATOM     86  F   UNL A   1      43.235  25.587  35.292  1.00  0.00    -0.203 F 
ATOM     87  F   UNL A   1      48.038  28.162  35.538  1.00  0.00    -0.200 F 
ATOM     88  C   UNL A   1      46.599  26.454  36.305  1.00  0.00     0.200 A 
ATOM     89  F   UNL A   1      45.129  24.755  37.033  1.00  0.00    -0.200 F 
ATOM     90  F   UNL A   1      47.542  26.020  37.153  1.00  0.00    -0.200 F 
ENDBRANCH  57  80
ENDBRANCH  31  32
ENDBRANCH  24  26
ENDBRANCH  23  24
ENDBRANCH  22  23
ENDBRANCH   1  22
TORSDOF 15
ENDMDL
MODEL 2
REMARK VINA RESULT:     -11.8      4.779     10.134
REMARK SMILES O=C(CCc1cccnc1)Nc1ccsc1C(=O)OCCOC(=O)c1ccc(-c2c3nc(c(-c4c(F)c(F)c(F)c(F)c4F)c4ccc([nH]4)c(-c4c(F)c(F)c(F)c(F)c4F)c4nc(c(-c5c(F)c(F)c(F)c(F)c5F)c5ccc2[nH]5)C=C4)C=C3)cc1
REMARK SMILES IDX 20 1 19 2 17 3 18 4 16 5 12 6 13 7 14 8 15 9 11 10 1 11 2 12
REMARK SMILES IDX 3 14 4 15 5 16 6 17 10 18 7 19 9 20 8 21 21 22 22 23 23 24
REMARK SMILES IDX 24 25 25 26 26 27 87 28 27 29 86 30 28 31 29 32 30 33 80 34
REMARK SMILES IDX 31 35 85 36 79 37 81 38 32 39 84 40 78 41 77 42 33 44 65 45
REMARK SMILES IDX 45 46 64 47 46 48 49 49 63 50 82 51 47 52 48 53 62 55 83 56
REMARK SMILES IDX 50 57 34 58 35 59 43 60 36 61 37 62 41 63 44 64 38 65 39 66
REMARK SMILES IDX 42 67 40 68 66 69 67 70 75 71 68 72 69 73 73 74 76 75 70 76
REMARK SMILES IDX 71 77 74 78 72 79 51 80 52 81 60 82 53 83 54 84 58 85 61 86
REMARK SMILES IDX 55 87 56 88 59 89 57 90
REMARK H PARENT 11 13 81 43 49 54
REMARK Flexibility Score: inf
ROOT
ATOM      1  C   UNL A   1      33.793  33.964  28.372  1.00  0.00     0.275 C 
ENDROOT
BRANCH   1   2
ATOM      2  O   UNL A   1      33.264  34.325  29.674  1.00  0.00    -0.458 OA
BRANCH   2   3
ATOM      3  C   UNL A   1      33.036  35.656  29.888  1.00  0.00     0.350 C 
ATOM      4  O   UNL A   1      32.350  36.355  29.151  1.00  0.00    -0.245 OA
BRANCH   3   5
ATOM      5  C   UNL A   1      33.581  36.067  31.176  1.00  0.00     0.136 A 
ATOM      6  C   UNL A   1      34.318  35.398  32.151  1.00  0.00     0.066 A 
ATOM      7  C   UNL A   1      34.381  36.163  33.361  1.00  0.00     0.039 A 
ATOM      8  C   UNL A   1      33.834  37.418  33.235  1.00  0.00     0.068 A 
ATOM      9  S   UNL A   1      33.270  37.698  31.656  1.00  0.00    -0.135 S 
BRANCH   6  10
ATOM     10  N   UNL A   1      34.965  34.179  31.941  1.00  0.00    -0.325 N 
ATOM     11  O   UNL A   1      33.472  32.745  32.989  1.00  0.00    -0.275 OA
ATOM     12  C   UNL A   1      34.559  32.960  32.455  1.00  0.00     0.224 C 
ATOM     13  H   UNL A   1      35.776  34.187  31.381  1.00  0.00     0.169 HD
BRANCH  12  14
ATOM     14  C   UNL A   1      35.593  31.838  32.382  1.00  0.00     0.105 C 
BRANCH  14  15
ATOM     15  C   UNL A   1      37.060  32.271  32.474  1.00  0.00     0.047 C 
BRANCH  15  16
ATOM     16  C   UNL A   1      37.585  32.095  33.871  1.00  0.00    -0.029 A 
ATOM     17  C   UNL A   1      38.312  30.964  34.252  1.00  0.00     0.007 A 
ATOM     18  C   UNL A   1      37.196  32.968  34.870  1.00  0.00     0.114 A 
ATOM     19  C   UNL A   1      38.503  30.684  35.602  1.00  0.00     0.020 A 
ATOM     20  N   UNL A   1      37.332  32.689  36.180  1.00  0.00    -0.264 NA
ATOM     21  C   UNL A   1      37.957  31.549  36.526  1.00  0.00     0.111 A 
ENDBRANCH  15  16
ENDBRANCH  14  15
ENDBRANCH  12  14
ENDBRANCH   6  10
ENDBRANCH   3   5
ENDBRANCH   2   3
ENDBRANCH   1   2
BRANCH   1  22
ATOM     22  C   UNL A   1      35.164  33.295  28.526  1.00  0.00     0.275 C 
BRANCH  22  23
ATOM     23  O   UNL A   1      35.307  32.303  27.499  1.00  0.00    -0.458 OA
BRANCH  23  24
ATOM     24  C   UNL A   1      34.934  31.063  27.893  1.00  0.00     0.338 C 
ATOM     25  O   UNL A   1      33.847  30.536  27.781  1.00  0.00    -0.246 OA
BRANCH  24  26
ATOM     26  C   UNL A   1      36.173  30.344  28.210  1.00  0.00     0.060 A 
ATOM     27  C   UNL A   1      36.237  29.688  29.441  1.00  0.00     0.016 A 
ATOM     28  C   UNL A   1      37.235  30.300  27.313  1.00  0.00     0.016 A 
ATOM     29  C   UNL A   1      37.395  29.029  29.825  1.00  0.00     0.010 A 
ATOM     30  C   UNL A   1      38.395  29.633  27.689  1.00  0.00     0.010 A 
ATOM     31  C   UNL A   1      38.491  29.035  28.961  1.00  0.00    -0.014 A 
BRANCH  31  32
ATOM     32  C   UNL A   1      39.820  28.591  29.423  1.00  0.00     0.031 A 
ATOM     33  C   UNL A   1      40.601  29.535  30.286  1.00  0.00     0.074 A 
ATOM     34  C   UNL A   1      40.328  27.412  29.031  1.00  0.00     0.049 A 
ATOM     35  N   UNL A   1      41.875  29.546  30.569  1.00  0.00    -0.248 NA
ATOM     36  C   UNL A   1      39.839  30.647  30.882  1.00  0.00     0.031 C 
ATOM     37  C   UNL A   1      39.615  26.397  28.258  1.00  0.00     0.029 A 
ATOM     38  N   UNL A   1      41.584  26.893  29.200  1.00  0.00    -0.354 N 
ATOM     39  C   UNL A   1      42.076  30.695  31.324  1.00  0.00     0.074 A 
ATOM     40  C   UNL A   1      40.801  31.362  31.443  1.00  0.00     0.031 C 
ATOM     41  C   UNL A   1      40.456  25.384  27.992  1.00  0.00     0.029 A 
ATOM     42  C   UNL A   1      41.777  25.719  28.516  1.00  0.00     0.049 A 
ATOM     43  H   UNL A   1      42.277  27.317  29.755  1.00  0.00     0.167 HD
ATOM     44  C   UNL A   1      43.235  31.142  31.861  1.00  0.00     0.037 A 
ATOM     45  C   UNL A   1      42.913  25.032  28.294  1.00  0.00     0.037 A 
ATOM     46  C   UNL A   1      44.480  30.433  31.742  1.00  0.00     0.049 A 
ATOM     47  C   UNL A   1      44.201  25.574  28.857  1.00  0.00     0.074 A 
ATOM     48  C   UNL A   1      45.720  30.768  32.253  1.00  0.00     0.029 A 
ATOM     49  N   UNL A   1      44.635  29.232  31.060  1.00  0.00    -0.354 N 
ATOM     50  N   UNL A   1      44.406  26.672  29.548  1.00  0.00    -0.248 NA
ATOM     51  C   UNL A   1      45.416  24.789  28.605  1.00  0.00     0.031 C 
ATOM     52  C   UNL A   1      46.636  29.798  31.834  1.00  0.00     0.029 A 
ATOM     53  C   UNL A   1      45.954  28.820  31.123  1.00  0.00     0.049 A 
ATOM     54  H   UNL A   1      43.913  28.747  30.599  1.00  0.00     0.167 HD
ATOM     55  C   UNL A   1      45.761  26.687  29.850  1.00  0.00     0.074 A 
ATOM     56  C   UNL A   1      46.328  25.488  29.266  1.00  0.00     0.031 C 
ATOM     57  C   UNL A   1      46.474  27.603  30.551  1.00  0.00     0.037 A 
BRANCH  44  58
ATOM     58  C   UNL A   1      43.210  32.461  32.578  1.00  0.00     0.064 A 
ATOM     59  C   UNL A   1      42.996  32.555  33.962  1.00  0.00     0.173 A 
ATOM     60  C   UNL A   1      43.414  33.655  31.867  1.00  0.00     0.173 A 
ATOM     61  F   UNL A   1      42.777  31.449  34.689  1.00  0.00    -0.203 F 
ATOM     62  C   UNL A   1      42.955  33.794  34.600  1.00  0.00     0.198 A 
ATOM     63  C   UNL A   1      43.409  34.888  32.514  1.00  0.00     0.198 A 
ATOM     64  F   UNL A   1      43.622  33.625  30.543  1.00  0.00    -0.203 F 
ATOM     65  F   UNL A   1      42.690  33.860  35.912  1.00  0.00    -0.200 F 
ATOM     66  C   UNL A   1      43.171  34.957  33.877  1.00  0.00     0.200 A 
ATOM     67  F   UNL A   1      43.631  36.009  31.815  1.00  0.00    -0.200 F 
ATOM     68  F   UNL A   1      43.139  36.147  34.494  1.00  0.00    -0.200 F 
ENDBRANCH  44  58
BRANCH  45  69
ATOM     69  C   UNL A   1      42.883  23.781  27.492  1.00  0.00     0.064 A 
ATOM     70  C   UNL A   1      42.519  22.562  28.079  1.00  0.00     0.173 A 
ATOM     71  C   UNL A   1      43.206  23.774  26.127  1.00  0.00     0.173 A 
ATOM     72  F   UNL A   1      42.218  22.511  29.385  1.00  0.00    -0.203 F 
ATOM     73  C   UNL A   1      42.500  21.381  27.337  1.00  0.00     0.198 A 
ATOM     74  C   UNL A   1      43.156  22.600  25.379  1.00  0.00     0.198 A 
ATOM     75  F   UNL A   1      43.558  24.914  25.513  1.00  0.00    -0.203 F 
ATOM     76  F   UNL A   1      42.194  20.223  27.936  1.00  0.00    -0.200 F 
ATOM     77  C   UNL A   1      42.811  21.403  25.987  1.00  0.00     0.200 A 
ATOM     78  F   UNL A   1      43.442  22.628  24.070  1.00  0.00    -0.200 F 
ATOM     79  F   UNL A   1      42.787  20.269  25.273  1.00  0.00    -0.200 F 
ENDBRANCH  45  69
BRANCH  57  80
ATOM     80  C   UNL A   1      47.926  27.305  30.794  1.00  0.00     0.064 A 
ATOM     81  C   UNL A   1      48.937  27.808  29.965  1.00  0.00     0.173 A 
ATOM     82  C   UNL A   1      48.305  26.557  31.920  1.00  0.00     0.173 A 
ATOM     83  F   UNL A   1      48.623  28.517  28.869  1.00  0.00    -0.203 F 
ATOM     84  C   UNL A   1      50.276  27.551  30.240  1.00  0.00     0.198 A 
ATOM     85  C   UNL A   1      49.646  26.334  32.212  1.00  0.00     0.198 A 
ATOM     86  F   UNL A   1      47.374  26.064  32.751  1.00  0.00    -0.203 F 
ATOM     87  F   UNL A   1      51.227  28.000  29.409  1.00  0.00    -0.200 F 
ATOM     88  C   UNL A   1      50.630  26.826  31.369  1.00  0.00     0.200 A 
ATOM     89  F   UNL A   1      49.986  25.650  33.313  1.00  0.00    -0.200 F 
ATOM     90  F   UNL A   1      51.922  26.595  31.641  1.00  0.00    -0.200 F 
ENDBRANCH  57  80
ENDBRANCH  31  32
ENDBRANCH  24  26
ENDBRANCH  23  24
ENDBRANCH  22  23
ENDBRANCH   1  22
TORSDOF 15
ENDMDL
MODEL 3
REMARK VINA RESULT:     -11.6      5.915      9.943
REMARK SMILES O=C(CCc1cccnc1)Nc1ccsc1C(=O)OCCOC(=O)c1ccc(-c2c3nc(c(-c4c(F)c(F)c(F)c(F)c4F)c4ccc([nH]4)c(-c4c(F)c(F)c(F)c(F)c4F)c4nc(c(-c5c(F)c(F)c(F)c(F)c5F)c5ccc2[nH]5)C=C4)C=C3)cc1
REMARK SMILES IDX 20 1 19 2 17 3 18 4 16 5 12 6 13 7 14 8 15 9 11 10 1 11 2 12
REMARK SMILES IDX 3 14 4 15 5 16 6 17 10 18 7 19 9 20 8 21 21 22 22 23 23 24
REMARK SMILES IDX 24 25 25 26 26 27 87 28 27 29 86 30 28 31 29 32 30 33 80 34
REMARK SMILES IDX 31 35 85 36 79 37 81 38 32 39 84 40 78 41 77 42 33 44 65 45
REMARK SMILES IDX 45 46 64 47 46 48 49 49 63 50 82 51 47 52 48 53 62 55 83 56
REMARK SMILES IDX 50 57 34 58 35 59 43 60 36 61 37 62 41 63 44 64 38 65 39 66
REMARK SMILES IDX 42 67 40 68 66 69 67 70 75 71 68 72 69 73 73 74 76 75 70 76
REMARK SMILES IDX 71 77 74 78 72 79 51 80 52 81 60 82 53 83 54 84 58 85 61 86
REMARK SMILES IDX 55 87 56 88 59 89 57 90
REMARK H PARENT 11 13 81 43 49 54
REMARK Flexibility Score: inf
ROOT
ATOM      1  C   UNL A   1      40.890  20.024  26.508  1.00  0.00     0.275 C 
ENDROOT
BRANCH   1   2
ATOM      2  O   UNL A   1      42.027  20.133  25.615  1.00  0.00    -0.458 OA
BRANCH   2   3
ATOM      3  C   UNL A   1      42.939  19.115  25.666  1.00  0.00     0.350 C 
ATOM      4  O   UNL A   1      42.630  17.931  25.743  1.00  0.00    -0.245 OA
BRANCH   3   5
ATOM      5  C   UNL A   1      44.288  19.626  25.455  1.00  0.00     0.136 A 
ATOM      6  C   UNL A   1      44.798  20.909  25.276  1.00  0.00     0.066 A 
ATOM      7  C   UNL A   1      46.162  20.862  24.837  1.00  0.00     0.039 A 
ATOM      8  C   UNL A   1      46.684  19.590  24.836  1.00  0.00     0.068 A 
ATOM      9  S   UNL A   1      45.552  18.449  25.389  1.00  0.00    -0.135 S 
BRANCH   6  10
ATOM     10  N   UNL A   1      44.090  22.078  25.559  1.00  0.00    -0.325 N 
ATOM     11  O   UNL A   1      43.762  22.880  23.406  1.00  0.00    -0.275 OA
ATOM     12  C   UNL A   1      43.711  23.028  24.626  1.00  0.00     0.224 C 
ATOM     13  H   UNL A   1      43.838  22.239  26.497  1.00  0.00     0.169 HD
BRANCH  12  14
ATOM     14  C   UNL A   1      43.255  24.368  25.201  1.00  0.00     0.105 C 
BRANCH  14  15
ATOM     15  C   UNL A   1      44.239  25.063  26.146  1.00  0.00     0.047 C 
BRANCH  15  16
ATOM     16  C   UNL A   1      45.268  25.841  25.372  1.00  0.00    -0.029 A 
ATOM     17  C   UNL A   1      46.547  25.334  25.126  1.00  0.00     0.007 A 
ATOM     18  C   UNL A   1      45.032  27.163  25.045  1.00  0.00     0.114 A 
ATOM     19  C   UNL A   1      47.559  26.188  24.697  1.00  0.00     0.020 A 
ATOM     20  N   UNL A   1      46.010  28.010  24.674  1.00  0.00    -0.264 NA
ATOM     21  C   UNL A   1      47.255  27.522  24.529  1.00  0.00     0.111 A 
ENDBRANCH  15  16
ENDBRANCH  14  15
ENDBRANCH  12  14
ENDBRANCH   6  10
ENDBRANCH   3   5
ENDBRANCH   2   3
ENDBRANCH   1   2
BRANCH   1  22
ATOM     22  C   UNL A   1      40.831  21.240  27.440  1.00  0.00     0.275 C 
BRANCH  22  23
ATOM     23  O   UNL A   1      40.859  22.431  26.640  1.00  0.00    -0.458 OA
BRANCH  23  24
ATOM     24  C   UNL A   1      39.645  23.012  26.498  1.00  0.00     0.338 C 
ATOM     25  O   UNL A   1      38.590  22.484  26.216  1.00  0.00    -0.246 OA
BRANCH  24  26
ATOM     26  C   UNL A   1      39.772  24.366  27.049  1.00  0.00     0.060 A 
ATOM     27  C   UNL A   1      40.268  25.360  26.202  1.00  0.00     0.016 A 
ATOM     28  C   UNL A   1      39.395  24.654  28.357  1.00  0.00     0.016 A 
ATOM     29  C   UNL A   1      40.458  26.651  26.672  1.00  0.00     0.010 A 
ATOM     30  C   UNL A   1      39.574  25.949  28.829  1.00  0.00     0.010 A 
ATOM     31  C   UNL A   1      40.146  26.936  28.002  1.00  0.00    -0.014 A 
BRANCH  31  32
ATOM     32  C   UNL A   1      40.576  28.202  28.624  1.00  0.00     0.031 A 
ATOM     33  C   UNL A   1      41.993  28.290  29.103  1.00  0.00     0.074 A 
ATOM     34  C   UNL A   1      39.708  29.210  28.807  1.00  0.00     0.049 A 
ATOM     35  N   UNL A   1      42.541  29.129  29.939  1.00  0.00    -0.248 NA
ATOM     36  C   UNL A   1      42.912  27.256  28.593  1.00  0.00     0.031 C 
ATOM     37  C   UNL A   1      38.334  29.248  28.308  1.00  0.00     0.029 A 
ATOM     38  N   UNL A   1      39.850  30.382  29.501  1.00  0.00    -0.354 N 
ATOM     39  C   UNL A   1      43.849  28.690  30.099  1.00  0.00     0.074 A 
ATOM     40  C   UNL A   1      44.009  27.504  29.289  1.00  0.00     0.031 C 
ATOM     41  C   UNL A   1      37.747  30.376  28.739  1.00  0.00     0.029 A 
ATOM     42  C   UNL A   1      38.682  31.096  29.597  1.00  0.00     0.049 A 
ATOM     43  H   UNL A   1      40.703  30.682  29.891  1.00  0.00     0.167 HD
ATOM     44  C   UNL A   1      44.820  29.238  30.865  1.00  0.00     0.037 A 
ATOM     45  C   UNL A   1      38.396  32.176  30.348  1.00  0.00     0.037 A 
ATOM     46  C   UNL A   1      44.627  30.436  31.638  1.00  0.00     0.049 A 
ATOM     47  C   UNL A   1      39.476  32.740  31.234  1.00  0.00     0.074 A 
ATOM     48  C   UNL A   1      45.532  31.103  32.441  1.00  0.00     0.029 A 
ATOM     49  N   UNL A   1      43.435  31.147  31.694  1.00  0.00    -0.354 N 
ATOM     50  N   UNL A   1      40.706  32.317  31.414  1.00  0.00    -0.248 NA
ATOM     51  C   UNL A   1      39.129  33.927  32.026  1.00  0.00     0.031 C 
ATOM     52  C   UNL A   1      44.871  32.189  33.026  1.00  0.00     0.029 A 
ATOM     53  C   UNL A   1      43.576  32.240  32.531  1.00  0.00     0.049 A 
ATOM     54  H   UNL A   1      42.612  30.910  31.210  1.00  0.00     0.167 HD
ATOM     55  C   UNL A   1      41.292  33.208  32.303  1.00  0.00     0.074 A 
ATOM     56  C   UNL A   1      40.280  34.195  32.626  1.00  0.00     0.031 C 
ATOM     57  C   UNL A   1      42.551  33.217  32.805  1.00  0.00     0.037 A 
BRANCH  44  58
ATOM     58  C   UNL A   1      46.142  28.530  30.933  1.00  0.00     0.064 A 
ATOM     59  C   UNL A   1      47.209  28.856  30.081  1.00  0.00     0.173 A 
ATOM     60  C   UNL A   1      46.349  27.510  31.876  1.00  0.00     0.173 A 
ATOM     61  F   UNL A   1      47.062  29.809  29.149  1.00  0.00    -0.203 F 
ATOM     62  C   UNL A   1      48.419  28.167  30.149  1.00  0.00     0.198 A 
ATOM     63  C   UNL A   1      47.571  26.849  31.965  1.00  0.00     0.198 A 
ATOM     64  F   UNL A   1      45.365  27.155  32.715  1.00  0.00    -0.203 F 
ATOM     65  F   UNL A   1      49.401  28.457  29.285  1.00  0.00    -0.200 F 
ATOM     66  C   UNL A   1      48.601  27.172  31.096  1.00  0.00     0.200 A 
ATOM     67  F   UNL A   1      47.749  25.896  32.891  1.00  0.00    -0.200 F 
ATOM     68  F   UNL A   1      49.768  26.515  31.165  1.00  0.00    -0.200 F 
ENDBRANCH  44  58
BRANCH  45  69
ATOM     69  C   UNL A   1      37.035  32.772  30.307  1.00  0.00     0.064 A 
ATOM     70  C   UNL A   1      36.661  33.635  29.269  1.00  0.00     0.173 A 
ATOM     71  C   UNL A   1      36.079  32.489  31.293  1.00  0.00     0.173 A 
ATOM     72  F   UNL A   1      37.545  33.952  28.310  1.00  0.00    -0.203 F 
ATOM     73  C   UNL A   1      35.391  34.208  29.229  1.00  0.00     0.198 A 
ATOM     74  C   UNL A   1      34.799  33.037  31.236  1.00  0.00     0.198 A 
ATOM     75  F   UNL A   1      36.382  31.666  32.309  1.00  0.00    -0.203 F 
ATOM     76  F   UNL A   1      35.077  35.067  28.250  1.00  0.00    -0.200 F 
ATOM     77  C   UNL A   1      34.459  33.903  30.209  1.00  0.00     0.200 A 
ATOM     78  F   UNL A   1      33.896  32.727  32.177  1.00  0.00    -0.200 F 
ATOM     79  F   UNL A   1      33.237  34.450  30.167  1.00  0.00    -0.200 F 
ENDBRANCH  45  69
BRANCH  57  80
ATOM     80  C   UNL A   1      42.931  34.369  33.689  1.00  0.00     0.064 A 
ATOM     81  C   UNL A   1      43.327  35.608  33.168  1.00  0.00     0.173 A 
ATOM     82  C   UNL A   1      42.830  34.241  35.084  1.00  0.00     0.173 A 
ATOM     83  F   UNL A   1      43.452  35.775  31.843  1.00  0.00    -0.203 F 
ATOM     84  C   UNL A   1      43.631  36.671  34.013  1.00  0.00     0.198 A 
ATOM     85  C   UNL A   1      43.099  35.316  35.923  1.00  0.00     0.198 A 
ATOM     86  F   UNL A   1      42.445  33.077  35.630  1.00  0.00    -0.203 F 
ATOM     87  F   UNL A   1      44.053  37.834  33.497  1.00  0.00    -0.200 F 
ATOM     88  C   UNL A   1      43.506  36.528  35.387  1.00  0.00     0.200 A 
ATOM     89  F   UNL A   1      42.959  35.181  37.249  1.00  0.00    -0.200 F 
ATOM     90  F   UNL A   1      43.782  37.559  36.198  1.00  0.00    -0.200 F 
ENDBRANCH  57  80
ENDBRANCH  31  32
ENDBRANCH  24  26
ENDBRANCH  23  24
ENDBRANCH  22  23
ENDBRANCH   1  22
TORSDOF 15
ENDMDL
