MODEL 1
REMARK VINA RESULT:     -12.0      0.000      0.000
REMARK SMILES CCCc1nn(-c2ccc(OC)cc2)c2sc(C(=O)OCCOC(=O)c3ccc(-c4c5nc(c(-c6c(F)c(F)c(F)c(F)c6F)c6ccc([nH]6)c(-c6c(F)c(F)c(F)c(F)c6F)c6nc(c(-c7c(F)c(F)c(F)c(F)c7F)c7ccc4[nH]7)C=C6)C=C5)cc3)cc12
REMARK SMILES IDX 21 1 20 2 18 3 19 4 17 5 4 6 5 7 90 8 6 9 15 10 89 11 16 12
REMARK SMILES IDX 3 13 2 14 1 15 7 16 8 17 14 18 9 19 13 20 10 21 11 22 12 23
REMARK SMILES IDX 22 24 23 25 24 26 25 27 26 28 27 29 88 30 28 31 87 32 29 33
REMARK SMILES IDX 30 34 31 35 81 36 32 37 86 38 80 39 82 40 33 41 85 42 79 43
REMARK SMILES IDX 78 44 34 46 66 47 46 48 65 49 47 50 50 51 64 52 83 53 48 54
REMARK SMILES IDX 49 55 63 57 84 58 51 59 35 60 36 61 44 62 37 63 38 64 42 65
REMARK SMILES IDX 45 66 39 67 40 68 43 69 41 70 67 71 68 72 76 73 69 74 70 75
REMARK SMILES IDX 74 76 77 77 71 78 72 79 75 80 73 81 52 82 53 83 61 84 54 85
REMARK SMILES IDX 55 86 59 87 62 88 56 89 57 90 60 91 58 92
REMARK H PARENT 82 45 50 56
REMARK Flexibility Score: inf
ROOT
ATOM      1  C   UNL A   1      41.068  20.172  26.928  1.00  0.00     0.275 C 
ENDROOT
BRANCH   1   2
ATOM      2  O   UNL A   1      39.936  20.539  26.126  1.00  0.00    -0.458 OA
BRANCH   2   3
ATOM      3  C   UNL A   1      39.478  21.829  26.143  1.00  0.00     0.348 C 
ATOM      4  O   UNL A   1      40.171  22.808  26.405  1.00  0.00    -0.245 OA
BRANCH   3   5
ATOM      5  C   UNL A   1      38.084  21.874  25.725  1.00  0.00     0.115 A 
ATOM      6  C   UNL A   1      34.633  20.974  24.794  1.00  0.00     0.072 A 
ATOM      7  N   UNL A   1      33.841  22.067  24.603  1.00  0.00    -0.171 NA
ATOM      8  C   UNL A   1      35.925  21.383  25.136  1.00  0.00     0.036 A 
ATOM      9  N   UNL A   1      34.697  23.132  24.702  1.00  0.00    -0.223 N 
ATOM     10  C   UNL A   1      35.930  22.711  25.076  1.00  0.00     0.128 A 
ATOM     11  C   UNL A   1      37.167  20.833  25.480  1.00  0.00     0.040 A 
ATOM     12  S   UNL A   1      37.344  23.434  25.528  1.00  0.00    -0.108 S 
BRANCH   6  13
ATOM     13  C   UNL A   1      34.087  19.603  24.555  1.00  0.00     0.058 C 
BRANCH  13  14
ATOM     14  C   UNL A   1      32.703  19.539  23.904  1.00  0.00     0.003 C 
ATOM     15  C   UNL A   1      32.436  18.257  23.128  1.00  0.00     0.004 C 
ENDBRANCH  13  14
ENDBRANCH   6  13
BRANCH   9  16
ATOM     16  C   UNL A   1      34.348  24.481  24.477  1.00  0.00     0.066 A 
ATOM     17  C   UNL A   1      34.106  25.295  25.593  1.00  0.00     0.032 A 
ATOM     18  C   UNL A   1      34.049  24.934  23.195  1.00  0.00     0.032 A 
ATOM     19  C   UNL A   1      33.470  26.518  25.441  1.00  0.00     0.048 A 
ATOM     20  C   UNL A   1      33.391  26.166  23.052  1.00  0.00     0.048 A 
ATOM     21  C   UNL A   1      33.083  26.948  24.175  1.00  0.00     0.119 A 
BRANCH  21  22
ATOM     22  O   UNL A   1      32.398  28.129  24.190  1.00  0.00    -0.497 OA
ATOM     23  C   UNL A   1      33.014  29.223  24.846  1.00  0.00     0.278 C 
ENDBRANCH  21  22
ENDBRANCH   9  16
ENDBRANCH   3   5
ENDBRANCH   2   3
ENDBRANCH   1   2
BRANCH   1  24
ATOM     24  C   UNL A   1      42.220  19.695  26.058  1.00  0.00     0.275 C 
BRANCH  24  25
ATOM     25  O   UNL A   1      42.689  20.775  25.261  1.00  0.00    -0.458 OA
BRANCH  25  26
ATOM     26  C   UNL A   1      44.026  20.963  25.245  1.00  0.00     0.338 C 
ATOM     27  O   UNL A   1      44.898  20.114  25.212  1.00  0.00    -0.246 OA
BRANCH  26  28
ATOM     28  C   UNL A   1      44.287  22.392  25.426  1.00  0.00     0.060 A 
ATOM     29  C   UNL A   1      45.291  22.755  26.329  1.00  0.00     0.016 A 
ATOM     30  C   UNL A   1      43.349  23.312  24.938  1.00  0.00     0.016 A 
ATOM     31  C   UNL A   1      45.212  23.994  26.920  1.00  0.00     0.010 A 
ATOM     32  C   UNL A   1      43.261  24.537  25.539  1.00  0.00     0.010 A 
ATOM     33  C   UNL A   1      44.131  24.814  26.589  1.00  0.00    -0.014 A 
BRANCH  33  34
ATOM     34  C   UNL A   1      43.907  26.015  27.356  1.00  0.00     0.031 A 
ATOM     35  C   UNL A   1      44.859  27.101  27.038  1.00  0.00     0.074 A 
ATOM     36  C   UNL A   1      42.814  26.126  28.135  1.00  0.00     0.049 A 
ATOM     37  N   UNL A   1      45.690  27.693  27.829  1.00  0.00    -0.248 NA
ATOM     38  C   UNL A   1      45.011  27.472  25.619  1.00  0.00     0.031 C 
ATOM     39  C   UNL A   1      41.681  25.201  28.256  1.00  0.00     0.029 A 
ATOM     40  N   UNL A   1      42.429  27.173  28.906  1.00  0.00    -0.354 N 
ATOM     41  C   UNL A   1      46.341  28.639  27.044  1.00  0.00     0.074 A 
ATOM     42  C   UNL A   1      46.022  28.336  25.675  1.00  0.00     0.031 C 
ATOM     43  C   UNL A   1      40.648  25.835  28.856  1.00  0.00     0.029 A 
ATOM     44  C   UNL A   1      41.091  27.152  29.275  1.00  0.00     0.049 A 
ATOM     45  H   UNL A   1      43.047  27.889  29.182  1.00  0.00     0.167 HD
ATOM     46  C   UNL A   1      46.884  29.757  27.594  1.00  0.00     0.037 A 
ATOM     47  C   UNL A   1      40.406  28.207  29.782  1.00  0.00     0.037 A 
ATOM     48  C   UNL A   1      47.103  29.593  29.006  1.00  0.00     0.049 A 
ATOM     49  C   UNL A   1      41.415  29.183  30.281  1.00  0.00     0.074 A 
ATOM     50  C   UNL A   1      47.879  28.739  29.765  1.00  0.00     0.029 A 
ATOM     51  N   UNL A   1      46.177  30.124  29.869  1.00  0.00    -0.354 N 
ATOM     52  N   UNL A   1      42.206  28.952  31.293  1.00  0.00    -0.248 NA
ATOM     53  C   UNL A   1      41.875  30.203  29.347  1.00  0.00     0.031 C 
ATOM     54  C   UNL A   1      47.082  28.434  30.907  1.00  0.00     0.029 A 
ATOM     55  C   UNL A   1      45.897  29.164  30.808  1.00  0.00     0.049 A 
ATOM     56  H   UNL A   1      45.786  31.027  29.823  1.00  0.00     0.167 HD
ATOM     57  C   UNL A   1      43.432  29.489  30.920  1.00  0.00     0.074 A 
ATOM     58  C   UNL A   1      43.151  30.299  29.736  1.00  0.00     0.031 C 
ATOM     59  C   UNL A   1      44.601  28.997  31.421  1.00  0.00     0.037 A 
BRANCH  46  60
ATOM     60  C   UNL A   1      46.863  31.104  26.925  1.00  0.00     0.064 A 
ATOM     61  C   UNL A   1      48.046  31.865  26.881  1.00  0.00     0.173 A 
ATOM     62  C   UNL A   1      45.676  31.796  26.596  1.00  0.00     0.173 A 
ATOM     63  F   UNL A   1      49.226  31.311  27.198  1.00  0.00    -0.203 F 
ATOM     64  C   UNL A   1      48.028  33.233  26.601  1.00  0.00     0.198 A 
ATOM     65  C   UNL A   1      45.670  33.147  26.261  1.00  0.00     0.198 A 
ATOM     66  F   UNL A   1      44.466  31.233  26.698  1.00  0.00    -0.203 F 
ATOM     67  F   UNL A   1      49.159  33.945  26.696  1.00  0.00    -0.200 F 
ATOM     68  C   UNL A   1      46.840  33.874  26.296  1.00  0.00     0.200 A 
ATOM     69  F   UNL A   1      44.505  33.752  25.986  1.00  0.00    -0.200 F 
ATOM     70  F   UNL A   1      46.813  35.196  26.089  1.00  0.00    -0.200 F 
ENDBRANCH  46  60
BRANCH  47  71
ATOM     71  C   UNL A   1      39.002  28.584  29.489  1.00  0.00     0.064 A 
ATOM     72  C   UNL A   1      38.074  28.787  30.522  1.00  0.00     0.173 A 
ATOM     73  C   UNL A   1      38.611  29.013  28.204  1.00  0.00     0.173 A 
ATOM     74  F   UNL A   1      38.388  28.456  31.783  1.00  0.00    -0.203 F 
ATOM     75  C   UNL A   1      36.834  29.394  30.285  1.00  0.00     0.198 A 
ATOM     76  C   UNL A   1      37.372  29.612  27.967  1.00  0.00     0.198 A 
ATOM     77  F   UNL A   1      39.459  28.945  27.167  1.00  0.00    -0.203 F 
ATOM     78  F   UNL A   1      35.995  29.622  31.305  1.00  0.00    -0.200 F 
ATOM     79  C   UNL A   1      36.489  29.813  29.010  1.00  0.00     0.200 A 
ATOM     80  F   UNL A   1      37.069  30.047  26.736  1.00  0.00    -0.200 F 
ATOM     81  F   UNL A   1      35.326  30.445  28.793  1.00  0.00    -0.200 F 
ENDBRANCH  47  71
BRANCH  59  82
ATOM     82  C   UNL A   1      44.523  28.005  32.548  1.00  0.00     0.064 A 
ATOM     83  C   UNL A   1      44.357  28.367  33.896  1.00  0.00     0.173 A 
ATOM     84  C   UNL A   1      44.419  26.645  32.228  1.00  0.00     0.173 A 
ATOM     85  F   UNL A   1      44.345  29.654  34.266  1.00  0.00    -0.203 F 
ATOM     86  C   UNL A   1      44.124  27.407  34.880  1.00  0.00     0.198 A 
ATOM     87  C   UNL A   1      44.152  25.692  33.206  1.00  0.00     0.198 A 
ATOM     88  F   UNL A   1      44.512  26.249  30.949  1.00  0.00    -0.203 F 
ATOM     89  F   UNL A   1      43.964  27.779  36.159  1.00  0.00    -0.200 F 
ATOM     90  C   UNL A   1      44.011  26.072  34.532  1.00  0.00     0.200 A 
ATOM     91  F   UNL A   1      43.993  24.408  32.858  1.00  0.00    -0.200 F 
ATOM     92  F   UNL A   1      43.733  25.154  35.468  1.00  0.00    -0.200 F 
ENDBRANCH  59  82
ENDBRANCH  33  34
ENDBRANCH  26  28
ENDBRANCH  25  26
ENDBRANCH  24  25
ENDBRANCH   1  24
TORSDOF 15
ENDMDL
MODEL 2
REMARK VINA RESULT:     -12.0      3.744      6.945
REMARK SMILES CCCc1nn(-c2ccc(OC)cc2)c2sc(C(=O)OCCOC(=O)c3ccc(-c4c5nc(c(-c6c(F)c(F)c(F)c(F)c6F)c6ccc([nH]6)c(-c6c(F)c(F)c(F)c(F)c6F)c6nc(c(-c7c(F)c(F)c(F)c(F)c7F)c7ccc4[nH]7)C=C6)C=C5)cc3)cc12
REMARK SMILES IDX 21 1 20 2 18 3 19 4 17 5 4 6 5 7 90 8 6 9 15 10 89 11 16 12
REMARK SMILES IDX 3 13 2 14 1 15 7 16 8 17 14 18 9 19 13 20 10 21 11 22 12 23
REMARK SMILES IDX 22 24 23 25 24 26 25 27 26 28 27 29 88 30 28 31 87 32 29 33
REMARK SMILES IDX 30 34 31 35 81 36 32 37 86 38 80 39 82 40 33 41 85 42 79 43
REMARK SMILES IDX 78 44 34 46 66 47 46 48 65 49 47 50 50 51 64 52 83 53 48 54
REMARK SMILES IDX 49 55 63 57 84 58 51 59 35 60 36 61 44 62 37 63 38 64 42 65
REMARK SMILES IDX 45 66 39 67 40 68 43 69 41 70 67 71 68 72 76 73 69 74 70 75
REMARK SMILES IDX 74 76 77 77 71 78 72 79 75 80 73 81 52 82 53 83 61 84 54 85
REMARK SMILES IDX 55 86 59 87 62 88 56 89 57 90 60 91 58 92
REMARK H PARENT 82 45 50 56
REMARK Flexibility Score: inf
ROOT
ATOM      1  C   UNL A   1      42.222  20.247  26.153  1.00  0.00     0.275 C 
ENDROOT
BRANCH   1   2
ATOM      2  O   UNL A   1      42.901  21.447  25.756  1.00  0.00    -0.458 OA
BRANCH   2   3
ATOM      3  C   UNL A   1      44.240  21.411  25.477  1.00  0.00     0.348 C 
ATOM      4  O   UNL A   1      44.781  20.561  24.776  1.00  0.00    -0.245 OA
BRANCH   3   5
ATOM      5  C   UNL A   1      44.906  22.568  26.058  1.00  0.00     0.115 A 
ATOM      6  C   UNL A   1      46.290  25.054  28.402  1.00  0.00     0.072 A 
ATOM      7  N   UNL A   1      47.052  25.995  27.777  1.00  0.00    -0.171 NA
ATOM      8  C   UNL A   1      45.790  24.150  27.460  1.00  0.00     0.036 A 
ATOM      9  N   UNL A   1      46.898  25.728  26.441  1.00  0.00    -0.223 N 
ATOM     10  C   UNL A   1      46.187  24.588  26.269  1.00  0.00     0.128 A 
ATOM     11  C   UNL A   1      45.010  22.988  27.399  1.00  0.00     0.040 A 
ATOM     12  S   UNL A   1      45.784  23.623  24.991  1.00  0.00    -0.108 S 
BRANCH   6  13
ATOM     13  C   UNL A   1      46.041  25.148  29.874  1.00  0.00     0.058 C 
BRANCH  13  14
ATOM     14  C   UNL A   1      44.912  26.090  30.301  1.00  0.00     0.003 C 
ATOM     15  C   UNL A   1      44.149  25.632  31.536  1.00  0.00     0.004 C 
ENDBRANCH  13  14
ENDBRANCH   6  13
BRANCH   9  16
ATOM     16  C   UNL A   1      47.427  26.507  25.390  1.00  0.00     0.066 A 
ATOM     17  C   UNL A   1      46.647  27.562  24.892  1.00  0.00     0.032 A 
ATOM     18  C   UNL A   1      48.588  26.115  24.728  1.00  0.00     0.032 A 
ATOM     19  C   UNL A   1      46.967  28.156  23.681  1.00  0.00     0.048 A 
ATOM     20  C   UNL A   1      48.894  26.711  23.494  1.00  0.00     0.048 A 
ATOM     21  C   UNL A   1      48.074  27.715  22.961  1.00  0.00     0.119 A 
BRANCH  21  22
ATOM     22  O   UNL A   1      48.216  28.337  21.753  1.00  0.00    -0.497 OA
ATOM     23  C   UNL A   1      49.276  27.896  20.923  1.00  0.00     0.278 C 
ENDBRANCH  21  22
ENDBRANCH   9  16
ENDBRANCH   3   5
ENDBRANCH   2   3
ENDBRANCH   1   2
BRANCH   1  24
ATOM     24  C   UNL A   1      40.785  20.542  26.557  1.00  0.00     0.275 C 
BRANCH  24  25
ATOM     25  O   UNL A   1      40.743  21.747  27.309  1.00  0.00    -0.458 OA
BRANCH  25  26
ATOM     26  C   UNL A   1      39.946  22.722  26.824  1.00  0.00     0.338 C 
ATOM     27  O   UNL A   1      38.894  22.595  26.224  1.00  0.00    -0.246 OA
BRANCH  26  28
ATOM     28  C   UNL A   1      40.630  24.003  27.006  1.00  0.00     0.060 A 
ATOM     29  C   UNL A   1      41.600  24.079  28.011  1.00  0.00     0.016 A 
ATOM     30  C   UNL A   1      40.091  25.145  26.397  1.00  0.00     0.016 A 
ATOM     31  C   UNL A   1      41.861  25.310  28.567  1.00  0.00     0.010 A 
ATOM     32  C   UNL A   1      40.337  26.365  26.961  1.00  0.00     0.010 A 
ATOM     33  C   UNL A   1      41.138  26.410  28.098  1.00  0.00    -0.014 A 
BRANCH  33  34
ATOM     34  C   UNL A   1      41.232  27.660  28.812  1.00  0.00     0.031 A 
ATOM     35  C   UNL A   1      42.405  28.472  28.422  1.00  0.00     0.074 A 
ATOM     36  C   UNL A   1      40.224  28.062  29.608  1.00  0.00     0.049 A 
ATOM     37  N   UNL A   1      43.378  28.879  29.166  1.00  0.00    -0.248 NA
ATOM     38  C   UNL A   1      42.596  28.737  26.985  1.00  0.00     0.031 C 
ATOM     39  C   UNL A   1      38.907  27.442  29.798  1.00  0.00     0.029 A 
ATOM     40  N   UNL A   1      40.125  29.202  30.337  1.00  0.00    -0.354 N 
ATOM     41  C   UNL A   1      44.211  29.608  28.323  1.00  0.00     0.074 A 
ATOM     42  C   UNL A   1      43.785  29.335  26.978  1.00  0.00     0.031 C 
ATOM     43  C   UNL A   1      38.075  28.329  30.389  1.00  0.00     0.029 A 
ATOM     44  C   UNL A   1      38.833  29.517  30.735  1.00  0.00     0.049 A 
ATOM     45  H   UNL A   1      40.904  29.759  30.566  1.00  0.00     0.167 HD
ATOM     46  C   UNL A   1      45.023  30.584  28.808  1.00  0.00     0.037 A 
ATOM     47  C   UNL A   1      38.436  30.726  31.206  1.00  0.00     0.037 A 
ATOM     48  C   UNL A   1      45.242  30.431  30.221  1.00  0.00     0.049 A 
ATOM     49  C   UNL A   1      39.664  31.451  31.636  1.00  0.00     0.074 A 
ATOM     50  C   UNL A   1      45.816  29.447  31.003  1.00  0.00     0.029 A 
ATOM     51  N   UNL A   1      44.498  31.204  31.077  1.00  0.00    -0.354 N 
ATOM     52  N   UNL A   1      40.410  31.079  32.641  1.00  0.00    -0.248 NA
ATOM     53  C   UNL A   1      40.325  32.291  30.645  1.00  0.00     0.031 C 
ATOM     54  C   UNL A   1      45.006  29.389  32.175  1.00  0.00     0.029 A 
ATOM     55  C   UNL A   1      44.027  30.379  32.067  1.00  0.00     0.049 A 
ATOM     56  H   UNL A   1      44.333  32.171  30.997  1.00  0.00     0.167 HD
ATOM     57  C   UNL A   1      41.716  31.290  32.216  1.00  0.00     0.074 A 
ATOM     58  C   UNL A   1      41.598  32.094  31.002  1.00  0.00     0.031 C 
ATOM     59  C   UNL A   1      42.750  30.552  32.715  1.00  0.00     0.037 A 
BRANCH  46  60
ATOM     60  C   UNL A   1      45.302  31.868  28.076  1.00  0.00     0.064 A 
ATOM     61  C   UNL A   1      44.227  32.712  27.739  1.00  0.00     0.173 A 
ATOM     62  C   UNL A   1      46.529  32.155  27.437  1.00  0.00     0.173 A 
ATOM     63  F   UNL A   1      43.012  32.513  28.270  1.00  0.00    -0.203 F 
ATOM     64  C   UNL A   1      44.357  33.717  26.778  1.00  0.00     0.198 A 
ATOM     65  C   UNL A   1      46.669  33.196  26.523  1.00  0.00     0.198 A 
ATOM     66  F   UNL A   1      47.609  31.376  27.576  1.00  0.00    -0.203 F 
ATOM     67  F   UNL A   1      43.277  34.412  26.395  1.00  0.00    -0.200 F 
ATOM     68  C   UNL A   1      45.576  33.955  26.168  1.00  0.00     0.200 A 
ATOM     69  F   UNL A   1      47.855  33.396  25.930  1.00  0.00    -0.200 F 
ATOM     70  F   UNL A   1      45.686  34.876  25.203  1.00  0.00    -0.200 F 
ENDBRANCH  46  60
BRANCH  47  71
ATOM     71  C   UNL A   1      37.155  31.417  30.926  1.00  0.00     0.064 A 
ATOM     72  C   UNL A   1      36.245  31.706  31.955  1.00  0.00     0.173 A 
ATOM     73  C   UNL A   1      36.915  32.045  29.686  1.00  0.00     0.173 A 
ATOM     74  F   UNL A   1      36.429  31.191  33.180  1.00  0.00    -0.203 F 
ATOM     75  C   UNL A   1      35.169  32.580  31.758  1.00  0.00     0.198 A 
ATOM     76  C   UNL A   1      35.839  32.911  29.489  1.00  0.00     0.198 A 
ATOM     77  F   UNL A   1      37.775  31.905  28.666  1.00  0.00    -0.203 F 
ATOM     78  F   UNL A   1      34.352  32.875  32.779  1.00  0.00    -0.200 F 
ATOM     79  C   UNL A   1      34.972  33.187  30.529  1.00  0.00     0.200 A 
ATOM     80  F   UNL A   1      35.685  33.520  28.305  1.00  0.00    -0.200 F 
ATOM     81  F   UNL A   1      33.976  34.068  30.356  1.00  0.00    -0.200 F 
ENDBRANCH  47  71
BRANCH  59  82
ATOM     82  C   UNL A   1      42.473  29.655  33.889  1.00  0.00     0.064 A 
ATOM     83  C   UNL A   1      41.980  28.344  33.770  1.00  0.00     0.173 A 
ATOM     84  C   UNL A   1      42.903  30.069  35.156  1.00  0.00     0.173 A 
ATOM     85  F   UNL A   1      41.641  27.844  32.575  1.00  0.00    -0.203 F 
ATOM     86  C   UNL A   1      41.899  27.498  34.875  1.00  0.00     0.198 A 
ATOM     87  C   UNL A   1      42.854  29.212  36.251  1.00  0.00     0.198 A 
ATOM     88  F   UNL A   1      43.437  31.291  35.316  1.00  0.00    -0.203 F 
ATOM     89  F   UNL A   1      41.429  26.249  34.733  1.00  0.00    -0.200 F 
ATOM     90  C   UNL A   1      42.346  27.929  36.112  1.00  0.00     0.200 A 
ATOM     91  F   UNL A   1      43.335  29.615  37.434  1.00  0.00    -0.200 F 
ATOM     92  F   UNL A   1      42.319  27.100  37.164  1.00  0.00    -0.200 F 
ENDBRANCH  59  82
ENDBRANCH  33  34
ENDBRANCH  26  28
ENDBRANCH  25  26
ENDBRANCH  24  25
ENDBRANCH   1  24
TORSDOF 15
ENDMDL
MODEL 3
REMARK VINA RESULT:     -11.9      3.594      6.835
REMARK SMILES CCCc1nn(-c2ccc(OC)cc2)c2sc(C(=O)OCCOC(=O)c3ccc(-c4c5nc(c(-c6c(F)c(F)c(F)c(F)c6F)c6ccc([nH]6)c(-c6c(F)c(F)c(F)c(F)c6F)c6nc(c(-c7c(F)c(F)c(F)c(F)c7F)c7ccc4[nH]7)C=C6)C=C5)cc3)cc12
REMARK SMILES IDX 21 1 20 2 18 3 19 4 17 5 4 6 5 7 90 8 6 9 15 10 89 11 16 12
REMARK SMILES IDX 3 13 2 14 1 15 7 16 8 17 14 18 9 19 13 20 10 21 11 22 12 23
REMARK SMILES IDX 22 24 23 25 24 26 25 27 26 28 27 29 88 30 28 31 87 32 29 33
REMARK SMILES IDX 30 34 31 35 81 36 32 37 86 38 80 39 82 40 33 41 85 42 79 43
REMARK SMILES IDX 78 44 34 46 66 47 46 48 65 49 47 50 50 51 64 52 83 53 48 54
REMARK SMILES IDX 49 55 63 57 84 58 51 59 35 60 36 61 44 62 37 63 38 64 42 65
REMARK SMILES IDX 45 66 39 67 40 68 43 69 41 70 67 71 68 72 76 73 69 74 70 75
REMARK SMILES IDX 74 76 77 77 71 78 72 79 75 80 73 81 52 82 53 83 61 84 54 85
REMARK SMILES IDX 55 86 59 87 62 88 56 89 57 90 60 91 58 92
REMARK H PARENT 82 45 50 56
REMARK Flexibility Score: inf
ROOT
ATOM      1  C   UNL A   1      42.049  20.247  26.144  1.00  0.00     0.275 C 
ENDROOT
BRANCH   1   2
ATOM      2  O   UNL A   1      42.649  21.342  25.437  1.00  0.00    -0.458 OA
BRANCH   2   3
ATOM      3  C   UNL A   1      44.012  21.453  25.383  1.00  0.00     0.348 C 
ATOM      4  O   UNL A   1      44.762  20.596  24.925  1.00  0.00    -0.245 OA
BRANCH   3   5
ATOM      5  C   UNL A   1      44.430  22.761  25.869  1.00  0.00     0.115 A 
ATOM      6  C   UNL A   1      45.334  26.326  26.117  1.00  0.00     0.072 A 
ATOM      7  N   UNL A   1      45.551  26.722  27.403  1.00  0.00    -0.171 NA
ATOM      8  C   UNL A   1      45.004  24.968  26.091  1.00  0.00     0.036 A 
ATOM      9  N   UNL A   1      45.481  25.565  28.134  1.00  0.00    -0.223 N 
ATOM     10  C   UNL A   1      45.097  24.533  27.344  1.00  0.00     0.128 A 
ATOM     11  C   UNL A   1      44.647  23.968  25.176  1.00  0.00     0.040 A 
ATOM     12  S   UNL A   1      44.666  22.956  27.580  1.00  0.00    -0.108 S 
BRANCH   6  13
ATOM     13  C   UNL A   1      45.537  27.290  24.992  1.00  0.00     0.058 C 
BRANCH  13  14
ATOM     14  C   UNL A   1      46.780  28.177  25.090  1.00  0.00     0.003 C 
ATOM     15  C   UNL A   1      48.083  27.469  24.748  1.00  0.00     0.004 C 
ENDBRANCH  13  14
ENDBRANCH   6  13
BRANCH   9  16
ATOM     16  C   UNL A   1      45.740  25.460  29.517  1.00  0.00     0.066 A 
ATOM     17  C   UNL A   1      44.651  25.269  30.381  1.00  0.00     0.032 A 
ATOM     18  C   UNL A   1      47.004  25.744  30.028  1.00  0.00     0.032 A 
ATOM     19  C   UNL A   1      44.798  25.465  31.745  1.00  0.00     0.048 A 
ATOM     20  C   UNL A   1      47.140  25.956  31.410  1.00  0.00     0.048 A 
ATOM     21  C   UNL A   1      46.034  25.837  32.265  1.00  0.00     0.119 A 
BRANCH  21  22
ATOM     22  O   UNL A   1      46.008  26.072  33.610  1.00  0.00    -0.497 OA
ATOM     23  C   UNL A   1      45.950  24.940  34.460  1.00  0.00     0.278 C 
ENDBRANCH  21  22
ENDBRANCH   9  16
ENDBRANCH   3   5
ENDBRANCH   2   3
ENDBRANCH   1   2
BRANCH   1  24
ATOM     24  C   UNL A   1      40.629  20.587  26.570  1.00  0.00     0.275 C 
BRANCH  24  25
ATOM     25  O   UNL A   1      40.628  21.827  27.265  1.00  0.00    -0.458 OA
BRANCH  25  26
ATOM     26  C   UNL A   1      39.676  22.712  26.899  1.00  0.00     0.338 C 
ATOM     27  O   UNL A   1      38.564  22.473  26.463  1.00  0.00    -0.246 OA
BRANCH  26  28
ATOM     28  C   UNL A   1      40.251  24.056  26.973  1.00  0.00     0.060 A 
ATOM     29  C   UNL A   1      41.481  24.197  27.623  1.00  0.00     0.016 A 
ATOM     30  C   UNL A   1      39.432  25.153  26.671  1.00  0.00     0.016 A 
ATOM     31  C   UNL A   1      41.784  25.418  28.177  1.00  0.00     0.010 A 
ATOM     32  C   UNL A   1      39.725  26.362  27.238  1.00  0.00     0.010 A 
ATOM     33  C   UNL A   1      40.842  26.444  28.063  1.00  0.00    -0.014 A 
BRANCH  33  34
ATOM     34  C   UNL A   1      41.037  27.656  28.822  1.00  0.00     0.031 A 
ATOM     35  C   UNL A   1      42.110  28.519  28.284  1.00  0.00     0.074 A 
ATOM     36  C   UNL A   1      40.175  27.986  29.802  1.00  0.00     0.049 A 
ATOM     37  N   UNL A   1      43.190  28.912  28.872  1.00  0.00    -0.248 NA
ATOM     38  C   UNL A   1      42.044  28.867  26.853  1.00  0.00     0.031 C 
ATOM     39  C   UNL A   1      38.922  27.321  30.180  1.00  0.00     0.029 A 
ATOM     40  N   UNL A   1      40.184  29.081  30.603  1.00  0.00    -0.354 N 
ATOM     41  C   UNL A   1      43.851  29.708  27.942  1.00  0.00     0.074 A 
ATOM     42  C   UNL A   1      43.203  29.497  26.677  1.00  0.00     0.031 C 
ATOM     43  C   UNL A   1      38.190  28.151  30.956  1.00  0.00     0.029 A 
ATOM     44  C   UNL A   1      38.976  29.339  31.235  1.00  0.00     0.049 A 
ATOM     45  H   UNL A   1      40.981  29.646  30.726  1.00  0.00     0.167 HD
ATOM     46  C   UNL A   1      44.718  30.678  28.336  1.00  0.00     0.037 A 
ATOM     47  C   UNL A   1      38.646  30.509  31.837  1.00  0.00     0.037 A 
ATOM     48  C   UNL A   1      45.181  30.454  29.678  1.00  0.00     0.049 A 
ATOM     49  C   UNL A   1      39.917  31.243  32.090  1.00  0.00     0.074 A 
ATOM     50  C   UNL A   1      45.899  29.445  30.291  1.00  0.00     0.029 A 
ATOM     51  N   UNL A   1      44.584  31.158  30.694  1.00  0.00    -0.354 N 
ATOM     52  N   UNL A   1      40.832  30.837  32.928  1.00  0.00    -0.248 NA
ATOM     53  C   UNL A   1      40.381  32.153  31.051  1.00  0.00     0.031 C 
ATOM     54  C   UNL A   1      45.306  29.301  31.580  1.00  0.00     0.029 A 
ATOM     55  C   UNL A   1      44.306  30.268  31.700  1.00  0.00     0.049 A 
ATOM     56  H   UNL A   1      44.390  32.123  30.700  1.00  0.00     0.167 HD
ATOM     57  C   UNL A   1      42.040  31.106  32.298  1.00  0.00     0.074 A 
ATOM     58  C   UNL A   1      41.700  31.972  31.171  1.00  0.00     0.031 C 
ATOM     59  C   UNL A   1      43.158  30.371  32.568  1.00  0.00     0.037 A 
BRANCH  46  60
ATOM     60  C   UNL A   1      44.844  32.007  27.643  1.00  0.00     0.064 A 
ATOM     61  C   UNL A   1      45.990  32.270  26.869  1.00  0.00     0.173 A 
ATOM     62  C   UNL A   1      44.040  33.128  27.947  1.00  0.00     0.173 A 
ATOM     63  F   UNL A   1      46.835  31.280  26.544  1.00  0.00    -0.203 F 
ATOM     64  C   UNL A   1      46.340  33.569  26.494  1.00  0.00     0.198 A 
ATOM     65  C   UNL A   1      44.362  34.414  27.521  1.00  0.00     0.198 A 
ATOM     66  F   UNL A   1      42.980  33.050  28.761  1.00  0.00    -0.203 F 
ATOM     67  F   UNL A   1      47.504  33.788  25.869  1.00  0.00    -0.200 F 
ATOM     68  C   UNL A   1      45.528  34.640  26.825  1.00  0.00     0.200 A 
ATOM     69  F   UNL A   1      43.570  35.439  27.869  1.00  0.00    -0.200 F 
ATOM     70  F   UNL A   1      45.893  35.891  26.520  1.00  0.00    -0.200 F 
ENDBRANCH  46  60
BRANCH  47  71
ATOM     71  C   UNL A   1      37.323  31.179  31.823  1.00  0.00     0.064 A 
ATOM     72  C   UNL A   1      36.737  31.656  33.005  1.00  0.00     0.173 A 
ATOM     73  C   UNL A   1      36.728  31.602  30.616  1.00  0.00     0.173 A 
ATOM     74  F   UNL A   1      37.273  31.343  34.194  1.00  0.00    -0.203 F 
ATOM     75  C   UNL A   1      35.631  32.514  32.982  1.00  0.00     0.198 A 
ATOM     76  C   UNL A   1      35.622  32.453  30.594  1.00  0.00     0.198 A 
ATOM     77  F   UNL A   1      37.266  31.275  29.432  1.00  0.00    -0.203 F 
ATOM     78  F   UNL A   1      35.132  32.994  34.130  1.00  0.00    -0.200 F 
ATOM     79  C   UNL A   1      35.081  32.918  31.776  1.00  0.00     0.200 A 
ATOM     80  F   UNL A   1      35.125  32.866  29.419  1.00  0.00    -0.200 F 
ATOM     81  F   UNL A   1      34.058  33.785  31.752  1.00  0.00    -0.200 F 
ENDBRANCH  47  71
BRANCH  59  82
ATOM     82  C   UNL A   1      43.105  29.404  33.717  1.00  0.00     0.064 A 
ATOM     83  C   UNL A   1      42.729  28.055  33.586  1.00  0.00     0.173 A 
ATOM     84  C   UNL A   1      43.636  29.808  34.949  1.00  0.00     0.173 A 
ATOM     85  F   UNL A   1      42.305  27.572  32.412  1.00  0.00    -0.203 F 
ATOM     86  C   UNL A   1      42.856  27.162  34.648  1.00  0.00     0.198 A 
ATOM     87  C   UNL A   1      43.794  28.906  35.997  1.00  0.00     0.198 A 
ATOM     88  F   UNL A   1      44.065  31.070  35.112  1.00  0.00    -0.203 F 
ATOM     89  F   UNL A   1      42.495  25.879  34.495  1.00  0.00    -0.200 F 
ATOM     90  C   UNL A   1      43.399  27.586  35.849  1.00  0.00     0.200 A 
ATOM     91  F   UNL A   1      44.367  29.309  37.139  1.00  0.00    -0.200 F 
ATOM     92  F   UNL A   1      43.573  26.716  36.853  1.00  0.00    -0.200 F 
ENDBRANCH  59  82
ENDBRANCH  33  34
ENDBRANCH  26  28
ENDBRANCH  25  26
ENDBRANCH  24  25
ENDBRANCH   1  24
TORSDOF 15
ENDMDL
