MODEL 1
REMARK VINA RESULT:     -14.2      0.000      0.000
REMARK SMILES C[C@@H](CCC(=O)OCCOC(=O)c1ccc(-c2c3nc(c(-c4c(F)c(F)c(F)c(F)c4F)c4ccc([nH]4)c(-c4c(F)c(F)c(F)c(F)c4F)c4nc(c(-c5c(F)c(F)c(F)c(F)c5F)c5ccc2[nH]5)C=C4)C=C3)cc1)[C@@H]1CC[C@H]2[C@@H]3CC[C@H]4CC(=O)CC[C@@]4(C)[C@H]3CC(=O)[C@@]21C
REMARK SMILES IDX 8 1 7 2 5 3 6 4 4 5 3 6 2 7 1 8 76 9 77 10 95 11 78 12 79 13
REMARK SMILES IDX 93 14 96 15 80 16 92 17 94 18 81 19 91 20 82 21 89 22 83 23
REMARK SMILES IDX 88 24 90 25 84 26 87 27 85 28 86 29 9 30 10 31 11 32 12 33
REMARK SMILES IDX 13 34 14 35 75 36 15 37 74 38 16 39 17 40 18 41 68 42 19 43
REMARK SMILES IDX 73 44 67 45 69 46 20 47 72 48 66 49 65 50 21 52 53 53 33 54
REMARK SMILES IDX 52 55 34 56 37 57 51 58 70 59 35 60 36 61 50 63 71 64 38 65
REMARK SMILES IDX 22 66 23 67 31 68 24 69 25 70 29 71 32 72 26 73 27 74 30 75
REMARK SMILES IDX 28 76 54 77 55 78 63 79 56 80 57 81 61 82 64 83 58 84 59 85
REMARK SMILES IDX 62 86 60 87 39 88 40 89 48 90 41 91 42 92 46 93 49 94 43 95
REMARK SMILES IDX 44 96 47 97 45 98
REMARK H PARENT 69 51 37 62
REMARK Flexibility Score: inf
ROOT
ATOM      1  C   UNL A   1      31.661  30.686  26.170  1.00  0.00     0.274 C 
ENDROOT
BRANCH   1   2
ATOM      2  O   UNL A   1      32.424  29.602  26.772  1.00  0.00    -0.462 OA
BRANCH   2   3
ATOM      3  C   UNL A   1      31.773  28.452  27.063  1.00  0.00     0.305 C 
ATOM      4  O   UNL A   1      31.330  28.195  28.179  1.00  0.00    -0.252 OA
BRANCH   3   5
ATOM      5  C   UNL A   1      31.758  27.426  25.931  1.00  0.00     0.123 C 
BRANCH   5   6
ATOM      6  C   UNL A   1      32.407  26.030  26.056  1.00  0.00     0.015 C 
BRANCH   6   7
ATOM      7  C   UNL A   1      33.829  25.754  25.413  1.00  0.00    -0.010 C 
ATOM      8  C   UNL A   1      33.941  26.374  24.035  1.00  0.00     0.008 C 
BRANCH   7   9
ATOM      9  C   UNL A   1      34.181  24.259  25.557  1.00  0.00     0.005 C 
ATOM     10  C   UNL A   1      35.706  24.020  25.626  1.00  0.00     0.005 C 
ATOM     11  C   UNL A   1      33.543  22.953  24.950  1.00  0.00     0.032 C 
ATOM     12  C   UNL A   1      35.825  22.522  25.827  1.00  0.00     0.005 C 
ATOM     13  C   UNL A   1      34.778  22.004  24.859  1.00  0.00     0.006 C 
ATOM     14  C   UNL A   1      32.896  22.670  23.598  1.00  0.00     0.139 C 
ATOM     15  C   UNL A   1      32.422  22.548  25.914  1.00  0.00     0.020 C 
ATOM     16  C   UNL A   1      34.430  20.524  24.983  1.00  0.00    -0.003 C 
ATOM     17  C   UNL A   1      32.403  21.190  23.426  1.00  0.00     0.080 C 
ATOM     18  O   UNL A   1      32.742  23.515  22.724  1.00  0.00    -0.299 OA
ATOM     19  C   UNL A   1      35.713  19.678  24.918  1.00  0.00     0.004 C 
ATOM     20  C   UNL A   1      33.472  20.124  23.833  1.00  0.00     0.006 C 
ATOM     21  C   UNL A   1      35.478  18.187  24.742  1.00  0.00     0.005 C 
ATOM     22  C   UNL A   1      33.057  18.589  23.965  1.00  0.00    -0.025 C 
ATOM     23  C   UNL A   1      34.392  17.827  23.694  1.00  0.00     0.002 C 
ATOM     24  C   UNL A   1      32.477  18.096  25.339  1.00  0.00     0.015 C 
ATOM     25  C   UNL A   1      31.982  18.273  22.902  1.00  0.00     0.012 C 
ATOM     26  C   UNL A   1      34.186  16.320  23.634  1.00  0.00     0.079 C 
ATOM     27  C   UNL A   1      32.864  16.673  25.835  1.00  0.00     0.076 C 
ATOM     28  C   UNL A   1      33.800  15.824  24.993  1.00  0.00     0.133 C 
ATOM     29  O   UNL A   1      34.218  14.741  25.406  1.00  0.00    -0.300 OA
ENDBRANCH   7   9
ENDBRANCH   6   7
ENDBRANCH   5   6
ENDBRANCH   3   5
ENDBRANCH   2   3
ENDBRANCH   1   2
BRANCH   1  30
ATOM     30  C   UNL A   1      31.726  32.039  26.907  1.00  0.00     0.275 C 
BRANCH  30  31
ATOM     31  O   UNL A   1      33.058  32.362  27.307  1.00  0.00    -0.458 OA
BRANCH  31  32
ATOM     32  C   UNL A   1      33.153  33.482  28.045  1.00  0.00     0.338 C 
ATOM     33  O   UNL A   1      32.418  34.449  28.076  1.00  0.00    -0.246 OA
BRANCH  32  34
ATOM     34  C   UNL A   1      34.294  33.408  28.905  1.00  0.00     0.060 A 
ATOM     35  C   UNL A   1      34.194  32.664  30.081  1.00  0.00     0.016 A 
ATOM     36  C   UNL A   1      35.445  34.076  28.507  1.00  0.00     0.016 A 
ATOM     37  C   UNL A   1      35.331  32.455  30.822  1.00  0.00     0.010 A 
ATOM     38  C   UNL A   1      36.588  33.849  29.235  1.00  0.00     0.010 A 
ATOM     39  C   UNL A   1      36.530  32.986  30.344  1.00  0.00    -0.014 A 
BRANCH  39  40
ATOM     40  C   UNL A   1      37.793  32.519  30.903  1.00  0.00     0.031 A 
ATOM     41  C   UNL A   1      38.513  31.431  30.208  1.00  0.00     0.074 A 
ATOM     42  C   UNL A   1      38.138  33.015  32.103  1.00  0.00     0.049 A 
ATOM     43  N   UNL A   1      39.514  30.716  30.630  1.00  0.00    -0.248 NA
ATOM     44  C   UNL A   1      38.012  31.068  28.872  1.00  0.00     0.031 C 
ATOM     45  C   UNL A   1      37.415  34.074  32.817  1.00  0.00     0.029 A 
ATOM     46  N   UNL A   1      39.146  32.666  32.951  1.00  0.00    -0.354 N 
ATOM     47  C   UNL A   1      39.754  29.800  29.623  1.00  0.00     0.074 A 
ATOM     48  C   UNL A   1      38.773  30.024  28.584  1.00  0.00     0.031 C 
ATOM     49  C   UNL A   1      37.996  34.275  34.009  1.00  0.00     0.029 A 
ATOM     50  C   UNL A   1      39.084  33.320  34.156  1.00  0.00     0.049 A 
ATOM     51  H   UNL A   1      39.846  32.012  32.723  1.00  0.00     0.167 HD
ATOM     52  C   UNL A   1      40.720  28.856  29.599  1.00  0.00     0.037 A 
ATOM     53  C   UNL A   1      39.807  33.121  35.270  1.00  0.00     0.037 A 
ATOM     54  C   UNL A   1      41.645  28.671  30.684  1.00  0.00     0.049 A 
ATOM     55  C   UNL A   1      40.861  32.055  35.222  1.00  0.00     0.074 A 
ATOM     56  C   UNL A   1      42.699  27.786  30.781  1.00  0.00     0.029 A 
ATOM     57  N   UNL A   1      41.604  29.387  31.880  1.00  0.00    -0.354 N 
ATOM     58  N   UNL A   1      41.141  31.219  34.248  1.00  0.00    -0.248 NA
ATOM     59  C   UNL A   1      41.703  31.903  36.410  1.00  0.00     0.031 C 
ATOM     60  C   UNL A   1      43.253  27.919  32.060  1.00  0.00     0.029 A 
ATOM     61  C   UNL A   1      42.596  28.940  32.734  1.00  0.00     0.049 A 
ATOM     62  H   UNL A   1      40.962  30.104  32.085  1.00  0.00     0.167 HD
ATOM     63  C   UNL A   1      42.208  30.457  34.690  1.00  0.00     0.074 A 
ATOM     64  C   UNL A   1      42.527  30.937  36.023  1.00  0.00     0.031 C 
ATOM     65  C   UNL A   1      42.871  29.458  34.055  1.00  0.00     0.037 A 
BRANCH  52  66
ATOM     66  C   UNL A   1      40.760  27.952  28.403  1.00  0.00     0.064 A 
ATOM     67  C   UNL A   1      40.088  26.719  28.381  1.00  0.00     0.173 A 
ATOM     68  C   UNL A   1      41.523  28.301  27.280  1.00  0.00     0.173 A 
ATOM     69  F   UNL A   1      39.362  26.324  29.439  1.00  0.00    -0.203 F 
ATOM     70  C   UNL A   1      40.220  25.849  27.301  1.00  0.00     0.198 A 
ATOM     71  C   UNL A   1      41.621  27.445  26.185  1.00  0.00     0.198 A 
ATOM     72  F   UNL A   1      42.192  29.462  27.249  1.00  0.00    -0.203 F 
ATOM     73  F   UNL A   1      39.637  24.643  27.340  1.00  0.00    -0.200 F 
ATOM     74  C   UNL A   1      40.982  26.215  26.203  1.00  0.00     0.200 A 
ATOM     75  F   UNL A   1      42.352  27.805  25.121  1.00  0.00    -0.200 F 
ATOM     76  F   UNL A   1      41.116  25.375  25.168  1.00  0.00    -0.200 F 
ENDBRANCH  52  66
BRANCH  53  77
ATOM     77  C   UNL A   1      39.540  33.945  36.473  1.00  0.00     0.064 A 
ATOM     78  C   UNL A   1      38.760  33.449  37.526  1.00  0.00     0.173 A 
ATOM     79  C   UNL A   1      40.121  35.213  36.633  1.00  0.00     0.173 A 
ATOM     80  F   UNL A   1      38.184  32.243  37.421  1.00  0.00    -0.203 F 
ATOM     81  C   UNL A   1      38.561  34.194  38.687  1.00  0.00     0.198 A 
ATOM     82  C   UNL A   1      39.943  35.946  37.806  1.00  0.00     0.198 A 
ATOM     83  F   UNL A   1      40.894  35.725  35.664  1.00  0.00    -0.203 F 
ATOM     84  F   UNL A   1      37.791  33.706  39.669  1.00  0.00    -0.200 F 
ATOM     85  C   UNL A   1      39.160  35.437  38.830  1.00  0.00     0.200 A 
ATOM     86  F   UNL A   1      40.545  37.135  37.949  1.00  0.00    -0.200 F 
ATOM     87  F   UNL A   1      38.981  36.145  39.953  1.00  0.00    -0.200 F 
ENDBRANCH  53  77
BRANCH  65  88
ATOM     88  C   UNL A   1      44.033  28.853  34.782  1.00  0.00     0.064 A 
ATOM     89  C   UNL A   1      45.333  29.357  34.646  1.00  0.00     0.173 A 
ATOM     90  C   UNL A   1      43.818  27.806  35.692  1.00  0.00     0.173 A 
ATOM     91  F   UNL A   1      45.588  30.344  33.775  1.00  0.00    -0.203 F 
ATOM     92  C   UNL A   1      46.382  28.826  35.388  1.00  0.00     0.198 A 
ATOM     93  C   UNL A   1      44.862  27.303  36.459  1.00  0.00     0.198 A 
ATOM     94  F   UNL A   1      42.588  27.297  35.858  1.00  0.00    -0.203 F 
ATOM     95  F   UNL A   1      47.626  29.294  35.218  1.00  0.00    -0.200 F 
ATOM     96  C   UNL A   1      46.143  27.809  36.303  1.00  0.00     0.200 A 
ATOM     97  F   UNL A   1      44.625  26.337  37.356  1.00  0.00    -0.200 F 
ATOM     98  F   UNL A   1      47.151  27.317  37.036  1.00  0.00    -0.200 F 
ENDBRANCH  65  88
ENDBRANCH  39  40
ENDBRANCH  32  34
ENDBRANCH  31  32
ENDBRANCH  30  31
ENDBRANCH   1  30
TORSDOF 14
ENDMDL
MODEL 2
REMARK VINA RESULT:     -14.1      4.575     10.766
REMARK SMILES C[C@@H](CCC(=O)OCCOC(=O)c1ccc(-c2c3nc(c(-c4c(F)c(F)c(F)c(F)c4F)c4ccc([nH]4)c(-c4c(F)c(F)c(F)c(F)c4F)c4nc(c(-c5c(F)c(F)c(F)c(F)c5F)c5ccc2[nH]5)C=C4)C=C3)cc1)[C@@H]1CC[C@H]2[C@@H]3CC[C@H]4CC(=O)CC[C@@]4(C)[C@H]3CC(=O)[C@@]21C
REMARK SMILES IDX 8 1 7 2 5 3 6 4 4 5 3 6 2 7 1 8 76 9 77 10 95 11 78 12 79 13
REMARK SMILES IDX 93 14 96 15 80 16 92 17 94 18 81 19 91 20 82 21 89 22 83 23
REMARK SMILES IDX 88 24 90 25 84 26 87 27 85 28 86 29 9 30 10 31 11 32 12 33
REMARK SMILES IDX 13 34 14 35 75 36 15 37 74 38 16 39 17 40 18 41 68 42 19 43
REMARK SMILES IDX 73 44 67 45 69 46 20 47 72 48 66 49 65 50 21 52 53 53 33 54
REMARK SMILES IDX 52 55 34 56 37 57 51 58 70 59 35 60 36 61 50 63 71 64 38 65
REMARK SMILES IDX 22 66 23 67 31 68 24 69 25 70 29 71 32 72 26 73 27 74 30 75
REMARK SMILES IDX 28 76 54 77 55 78 63 79 56 80 57 81 61 82 64 83 58 84 59 85
REMARK SMILES IDX 62 86 60 87 39 88 40 89 48 90 41 91 42 92 46 93 49 94 43 95
REMARK SMILES IDX 44 96 47 97 45 98
REMARK H PARENT 69 51 37 62
REMARK Flexibility Score: inf
ROOT
ATOM      1  C   UNL A   1      36.164  20.839  25.321  1.00  0.00     0.274 C 
ENDROOT
BRANCH   1   2
ATOM      2  O   UNL A   1      35.373  21.492  24.288  1.00  0.00    -0.462 OA
BRANCH   2   3
ATOM      3  C   UNL A   1      34.033  21.310  24.304  1.00  0.00     0.305 C 
ATOM      4  O   UNL A   1      33.506  20.214  24.468  1.00  0.00    -0.252 OA
BRANCH   3   5
ATOM      5  C   UNL A   1      33.219  22.555  23.953  1.00  0.00     0.123 C 
BRANCH   5   6
ATOM      6  C   UNL A   1      33.859  23.945  23.745  1.00  0.00     0.015 C 
BRANCH   6   7
ATOM      7  C   UNL A   1      34.131  24.889  24.988  1.00  0.00    -0.010 C 
ATOM      8  C   UNL A   1      33.789  24.197  26.292  1.00  0.00     0.008 C 
BRANCH   7   9
ATOM      9  C   UNL A   1      33.511  26.277  24.730  1.00  0.00     0.005 C 
ATOM     10  C   UNL A   1      33.909  27.308  25.811  1.00  0.00     0.005 C 
ATOM     11  C   UNL A   1      32.112  26.729  24.164  1.00  0.00     0.032 C 
ATOM     12  C   UNL A   1      33.257  28.592  25.338  1.00  0.00     0.005 C 
ATOM     13  C   UNL A   1      31.897  28.093  24.890  1.00  0.00     0.006 C 
ATOM     14  C   UNL A   1      30.716  26.133  24.310  1.00  0.00     0.139 C 
ATOM     15  C   UNL A   1      32.269  26.767  22.640  1.00  0.00     0.020 C 
ATOM     16  C   UNL A   1      31.050  29.086  24.100  1.00  0.00    -0.003 C 
ATOM     17  C   UNL A   1      29.597  26.946  23.568  1.00  0.00     0.080 C 
ATOM     18  O   UNL A   1      30.474  25.099  24.922  1.00  0.00    -0.299 OA
ATOM     19  C   UNL A   1      30.927  30.406  24.881  1.00  0.00     0.004 C 
ATOM     20  C   UNL A   1      29.644  28.482  23.857  1.00  0.00     0.006 C 
ATOM     21  C   UNL A   1      29.880  31.365  24.339  1.00  0.00     0.005 C 
ATOM     22  C   UNL A   1      28.752  29.483  22.994  1.00  0.00    -0.025 C 
ATOM     23  C   UNL A   1      28.535  30.695  23.952  1.00  0.00     0.002 C 
ATOM     24  C   UNL A   1      29.343  30.022  21.641  1.00  0.00     0.015 C 
ATOM     25  C   UNL A   1      27.422  28.781  22.636  1.00  0.00     0.012 C 
ATOM     26  C   UNL A   1      27.577  31.723  23.365  1.00  0.00     0.079 C 
ATOM     27  C   UNL A   1      29.043  31.495  21.240  1.00  0.00     0.076 C 
ATOM     28  C   UNL A   1      28.216  32.363  22.172  1.00  0.00     0.133 C 
ATOM     29  O   UNL A   1      28.054  33.563  21.943  1.00  0.00    -0.300 OA
ENDBRANCH   7   9
ENDBRANCH   6   7
ENDBRANCH   5   6
ENDBRANCH   3   5
ENDBRANCH   2   3
ENDBRANCH   1   2
BRANCH   1  30
ATOM     30  C   UNL A   1      37.651  20.613  24.983  1.00  0.00     0.275 C 
BRANCH  30  31
ATOM     31  O   UNL A   1      38.450  21.748  25.315  1.00  0.00    -0.458 OA
BRANCH  31  32
ATOM     32  C   UNL A   1      39.496  21.469  26.112  1.00  0.00     0.338 C 
ATOM     33  O   UNL A   1      40.115  20.430  26.236  1.00  0.00    -0.246 OA
BRANCH  32  34
ATOM     34  C   UNL A   1      39.875  22.634  26.851  1.00  0.00     0.060 A 
ATOM     35  C   UNL A   1      40.853  22.507  27.838  1.00  0.00     0.016 A 
ATOM     36  C   UNL A   1      39.252  23.833  26.529  1.00  0.00     0.016 A 
ATOM     37  C   UNL A   1      41.336  23.648  28.431  1.00  0.00     0.010 A 
ATOM     38  C   UNL A   1      39.750  24.977  27.104  1.00  0.00     0.010 A 
ATOM     39  C   UNL A   1      40.832  24.875  27.997  1.00  0.00    -0.014 A 
BRANCH  39  40
ATOM     40  C   UNL A   1      41.536  26.103  28.347  1.00  0.00     0.031 A 
ATOM     41  C   UNL A   1      40.779  27.187  29.008  1.00  0.00     0.074 A 
ATOM     42  C   UNL A   1      42.799  26.217  27.903  1.00  0.00     0.049 A 
ATOM     43  N   UNL A   1      41.131  28.423  29.205  1.00  0.00    -0.248 NA
ATOM     44  C   UNL A   1      39.426  26.844  29.476  1.00  0.00     0.031 C 
ATOM     45  C   UNL A   1      43.551  25.160  27.217  1.00  0.00     0.029 A 
ATOM     46  N   UNL A   1      43.652  27.280  27.915  1.00  0.00    -0.354 N 
ATOM     47  C   UNL A   1      40.034  29.020  29.799  1.00  0.00     0.074 A 
ATOM     48  C   UNL A   1      38.993  28.021  29.900  1.00  0.00     0.031 C 
ATOM     49  C   UNL A   1      44.751  25.637  26.858  1.00  0.00     0.029 A 
ATOM     50  C   UNL A   1      44.819  27.040  27.235  1.00  0.00     0.049 A 
ATOM     51  H   UNL A   1      43.451  28.133  28.366  1.00  0.00     0.167 HD
ATOM     52  C   UNL A   1      39.934  30.302  30.213  1.00  0.00     0.037 A 
ATOM     53  C   UNL A   1      45.807  27.891  26.914  1.00  0.00     0.037 A 
ATOM     54  C   UNL A   1      41.003  31.250  30.053  1.00  0.00     0.049 A 
ATOM     55  C   UNL A   1      45.662  29.313  27.369  1.00  0.00     0.074 A 
ATOM     56  C   UNL A   1      41.060  32.567  30.460  1.00  0.00     0.029 A 
ATOM     57  N   UNL A   1      42.208  30.972  29.411  1.00  0.00    -0.354 N 
ATOM     58  N   UNL A   1      44.652  29.878  27.991  1.00  0.00    -0.248 NA
ATOM     59  C   UNL A   1      46.782  30.214  27.093  1.00  0.00     0.031 C 
ATOM     60  C   UNL A   1      42.269  33.104  30.004  1.00  0.00     0.029 A 
ATOM     61  C   UNL A   1      43.003  32.104  29.381  1.00  0.00     0.049 A 
ATOM     62  H   UNL A   1      42.457  30.097  29.032  1.00  0.00     0.167 HD
ATOM     63  C   UNL A   1      45.020  31.194  28.207  1.00  0.00     0.074 A 
ATOM     64  C   UNL A   1      46.354  31.340  27.649  1.00  0.00     0.031 C 
ATOM     65  C   UNL A   1      44.329  32.191  28.814  1.00  0.00     0.037 A 
BRANCH  52  66
ATOM     66  C   UNL A   1      38.623  30.727  30.803  1.00  0.00     0.064 A 
ATOM     67  C   UNL A   1      37.550  31.152  30.003  1.00  0.00     0.173 A 
ATOM     68  C   UNL A   1      38.452  30.757  32.194  1.00  0.00     0.173 A 
ATOM     69  F   UNL A   1      37.666  31.166  28.665  1.00  0.00    -0.203 F 
ATOM     70  C   UNL A   1      36.376  31.638  30.574  1.00  0.00     0.198 A 
ATOM     71  C   UNL A   1      37.262  31.208  32.762  1.00  0.00     0.198 A 
ATOM     72  F   UNL A   1      39.445  30.371  33.008  1.00  0.00    -0.203 F 
ATOM     73  F   UNL A   1      35.400  32.116  29.791  1.00  0.00    -0.200 F 
ATOM     74  C   UNL A   1      36.233  31.661  31.952  1.00  0.00     0.200 A 
ATOM     75  F   UNL A   1      37.122  31.221  34.095  1.00  0.00    -0.200 F 
ATOM     76  F   UNL A   1      35.107  32.137  32.502  1.00  0.00    -0.200 F 
ENDBRANCH  52  66
BRANCH  53  77
ATOM     77  C   UNL A   1      46.974  27.401  26.142  1.00  0.00     0.064 A 
ATOM     78  C   UNL A   1      47.048  27.586  24.755  1.00  0.00     0.173 A 
ATOM     79  C   UNL A   1      48.075  26.810  26.781  1.00  0.00     0.173 A 
ATOM     80  F   UNL A   1      46.021  28.147  24.100  1.00  0.00    -0.203 F 
ATOM     81  C   UNL A   1      48.172  27.186  24.035  1.00  0.00     0.198 A 
ATOM     82  C   UNL A   1      49.210  26.434  26.063  1.00  0.00     0.198 A 
ATOM     83  F   UNL A   1      48.065  26.630  28.110  1.00  0.00    -0.203 F 
ATOM     84  F   UNL A   1      48.206  27.352  22.706  1.00  0.00    -0.200 F 
ATOM     85  C   UNL A   1      49.255  26.619  24.690  1.00  0.00     0.200 A 
ATOM     86  F   UNL A   1      50.264  25.911  26.705  1.00  0.00    -0.200 F 
ATOM     87  F   UNL A   1      50.342  26.251  23.999  1.00  0.00    -0.200 F 
ENDBRANCH  53  77
BRANCH  65  88
ATOM     88  C   UNL A   1      45.026  33.511  28.942  1.00  0.00     0.064 A 
ATOM     89  C   UNL A   1      44.867  34.526  27.989  1.00  0.00     0.173 A 
ATOM     90  C   UNL A   1      45.796  33.787  30.083  1.00  0.00     0.173 A 
ATOM     91  F   UNL A   1      44.155  34.301  26.875  1.00  0.00    -0.203 F 
ATOM     92  C   UNL A   1      45.465  35.769  28.168  1.00  0.00     0.198 A 
ATOM     93  C   UNL A   1      46.361  35.041  30.276  1.00  0.00     0.198 A 
ATOM     94  F   UNL A   1      45.970  32.846  31.023  1.00  0.00    -0.203 F 
ATOM     95  F   UNL A   1      45.333  36.715  27.228  1.00  0.00    -0.200 F 
ATOM     96  C   UNL A   1      46.199  36.029  29.316  1.00  0.00     0.200 A 
ATOM     97  F   UNL A   1      47.052  35.296  31.394  1.00  0.00    -0.200 F 
ATOM     98  F   UNL A   1      46.753  37.236  29.499  1.00  0.00    -0.200 F 
ENDBRANCH  65  88
ENDBRANCH  39  40
ENDBRANCH  32  34
ENDBRANCH  31  32
ENDBRANCH  30  31
ENDBRANCH   1  30
TORSDOF 14
ENDMDL
MODEL 3
REMARK VINA RESULT:     -14.1      0.632      1.720
REMARK SMILES C[C@@H](CCC(=O)OCCOC(=O)c1ccc(-c2c3nc(c(-c4c(F)c(F)c(F)c(F)c4F)c4ccc([nH]4)c(-c4c(F)c(F)c(F)c(F)c4F)c4nc(c(-c5c(F)c(F)c(F)c(F)c5F)c5ccc2[nH]5)C=C4)C=C3)cc1)[C@@H]1CC[C@H]2[C@@H]3CC[C@H]4CC(=O)CC[C@@]4(C)[C@H]3CC(=O)[C@@]21C
REMARK SMILES IDX 8 1 7 2 5 3 6 4 4 5 3 6 2 7 1 8 76 9 77 10 95 11 78 12 79 13
REMARK SMILES IDX 93 14 96 15 80 16 92 17 94 18 81 19 91 20 82 21 89 22 83 23
REMARK SMILES IDX 88 24 90 25 84 26 87 27 85 28 86 29 9 30 10 31 11 32 12 33
REMARK SMILES IDX 13 34 14 35 75 36 15 37 74 38 16 39 17 40 18 41 68 42 19 43
REMARK SMILES IDX 73 44 67 45 69 46 20 47 72 48 66 49 65 50 21 52 53 53 33 54
REMARK SMILES IDX 52 55 34 56 37 57 51 58 70 59 35 60 36 61 50 63 71 64 38 65
REMARK SMILES IDX 22 66 23 67 31 68 24 69 25 70 29 71 32 72 26 73 27 74 30 75
REMARK SMILES IDX 28 76 54 77 55 78 63 79 56 80 57 81 61 82 64 83 58 84 59 85
REMARK SMILES IDX 62 86 60 87 39 88 40 89 48 90 41 91 42 92 46 93 49 94 43 95
REMARK SMILES IDX 44 96 47 97 45 98
REMARK H PARENT 69 51 37 62
REMARK Flexibility Score: inf
ROOT
ATOM      1  C   UNL A   1      31.773  30.863  26.534  1.00  0.00     0.274 C 
ENDROOT
BRANCH   1   2
ATOM      2  O   UNL A   1      32.924  30.250  25.886  1.00  0.00    -0.462 OA
BRANCH   2   3
ATOM      3  C   UNL A   1      32.694  29.311  24.939  1.00  0.00     0.305 C 
ATOM      4  O   UNL A   1      31.652  29.249  24.294  1.00  0.00    -0.252 OA
BRANCH   3   5
ATOM      5  C   UNL A   1      33.776  28.237  24.834  1.00  0.00     0.123 C 
BRANCH   5   6
ATOM      6  C   UNL A   1      33.755  26.941  25.674  1.00  0.00     0.015 C 
BRANCH   6   7
ATOM      7  C   UNL A   1      32.598  25.878  25.468  1.00  0.00    -0.010 C 
ATOM      8  C   UNL A   1      31.371  26.233  26.283  1.00  0.00     0.008 C 
BRANCH   7   9
ATOM      9  C   UNL A   1      33.170  24.454  25.617  1.00  0.00     0.005 C 
ATOM     10  C   UNL A   1      34.708  24.451  25.772  1.00  0.00     0.005 C 
ATOM     11  C   UNL A   1      32.777  23.077  24.961  1.00  0.00     0.032 C 
ATOM     12  C   UNL A   1      35.046  22.986  25.964  1.00  0.00     0.005 C 
ATOM     13  C   UNL A   1      34.147  22.331  24.933  1.00  0.00     0.006 C 
ATOM     14  C   UNL A   1      32.258  22.723  23.572  1.00  0.00     0.139 C 
ATOM     15  C   UNL A   1      31.680  22.485  25.855  1.00  0.00     0.020 C 
ATOM     16  C   UNL A   1      34.027  20.813  25.021  1.00  0.00    -0.003 C 
ATOM     17  C   UNL A   1      32.011  21.187  23.357  1.00  0.00     0.080 C 
ATOM     18  O   UNL A   1      32.023  23.550  22.699  1.00  0.00    -0.299 OA
ATOM     19  C   UNL A   1      35.428  20.177  25.021  1.00  0.00     0.004 C 
ATOM     20  C   UNL A   1      33.208  20.292  23.813  1.00  0.00     0.006 C 
ATOM     21  C   UNL A   1      35.438  18.671  24.817  1.00  0.00     0.005 C 
ATOM     22  C   UNL A   1      33.030  18.709  23.906  1.00  0.00    -0.025 C 
ATOM     23  C   UNL A   1      34.480  18.168  23.705  1.00  0.00     0.002 C 
ATOM     24  C   UNL A   1      32.458  18.106  25.239  1.00  0.00     0.015 C 
ATOM     25  C   UNL A   1      32.078  18.251  22.779  1.00  0.00     0.012 C 
ATOM     26  C   UNL A   1      34.514  16.648  23.618  1.00  0.00     0.079 C 
ATOM     27  C   UNL A   1      33.033  16.751  25.743  1.00  0.00     0.076 C 
ATOM     28  C   UNL A   1      34.135  16.073  24.948  1.00  0.00     0.133 C 
ATOM     29  O   UNL A   1      34.692  15.060  25.373  1.00  0.00    -0.300 OA
ENDBRANCH   7   9
ENDBRANCH   6   7
ENDBRANCH   5   6
ENDBRANCH   3   5
ENDBRANCH   2   3
ENDBRANCH   1   2
BRANCH   1  30
ATOM     30  C   UNL A   1      31.922  32.355  26.889  1.00  0.00     0.275 C 
BRANCH  30  31
ATOM     31  O   UNL A   1      33.240  32.665  27.343  1.00  0.00    -0.458 OA
BRANCH  31  32
ATOM     32  C   UNL A   1      33.297  33.702  28.197  1.00  0.00     0.338 C 
ATOM     33  O   UNL A   1      32.535  34.641  28.321  1.00  0.00    -0.246 OA
BRANCH  32  34
ATOM     34  C   UNL A   1      34.431  33.566  29.058  1.00  0.00     0.060 A 
ATOM     35  C   UNL A   1      34.308  32.777  30.203  1.00  0.00     0.016 A 
ATOM     36  C   UNL A   1      35.600  34.224  28.694  1.00  0.00     0.016 A 
ATOM     37  C   UNL A   1      35.436  32.513  30.939  1.00  0.00     0.010 A 
ATOM     38  C   UNL A   1      36.733  33.942  29.417  1.00  0.00     0.010 A 
ATOM     39  C   UNL A   1      36.650  33.035  30.489  1.00  0.00    -0.014 A 
BRANCH  39  40
ATOM     40  C   UNL A   1      37.899  32.517  31.034  1.00  0.00     0.031 A 
ATOM     41  C   UNL A   1      38.582  31.422  30.314  1.00  0.00     0.074 A 
ATOM     42  C   UNL A   1      38.262  32.976  32.243  1.00  0.00     0.049 A 
ATOM     43  N   UNL A   1      39.561  30.668  30.718  1.00  0.00    -0.248 NA
ATOM     44  C   UNL A   1      38.067  31.104  28.972  1.00  0.00     0.031 C 
ATOM     45  C   UNL A   1      37.575  34.042  32.982  1.00  0.00     0.029 A 
ATOM     46  N   UNL A   1      39.261  32.579  33.080  1.00  0.00    -0.354 N 
ATOM     47  C   UNL A   1      39.770  29.765  29.691  1.00  0.00     0.074 A 
ATOM     48  C   UNL A   1      38.793  30.042  28.660  1.00  0.00     0.031 C 
ATOM     49  C   UNL A   1      38.165  34.199  34.176  1.00  0.00     0.029 A 
ATOM     50  C   UNL A   1      39.223  33.208  34.299  1.00  0.00     0.049 A 
ATOM     51  H   UNL A   1      39.940  31.908  32.837  1.00  0.00     0.167 HD
ATOM     52  C   UNL A   1      40.706  28.793  29.643  1.00  0.00     0.037 A 
ATOM     53  C   UNL A   1      39.941  32.963  35.406  1.00  0.00     0.037 A 
ATOM     54  C   UNL A   1      41.627  28.556  30.722  1.00  0.00     0.049 A 
ATOM     55  C   UNL A   1      40.961  31.866  35.333  1.00  0.00     0.074 A 
ATOM     56  C   UNL A   1      42.653  27.636  30.797  1.00  0.00     0.029 A 
ATOM     57  N   UNL A   1      41.612  29.247  31.932  1.00  0.00    -0.354 N 
ATOM     58  N   UNL A   1      41.212  31.042  34.340  1.00  0.00    -0.248 NA
ATOM     59  C   UNL A   1      41.801  31.663  36.514  1.00  0.00     0.031 C 
ATOM     60  C   UNL A   1      43.214  27.725  32.076  1.00  0.00     0.029 A 
ATOM     61  C   UNL A   1      42.592  28.751  32.774  1.00  0.00     0.049 A 
ATOM     62  H   UNL A   1      40.994  29.980  32.155  1.00  0.00     0.167 HD
ATOM     63  C   UNL A   1      42.256  30.238  34.762  1.00  0.00     0.074 A 
ATOM     64  C   UNL A   1      42.593  30.680  36.105  1.00  0.00     0.031 C 
ATOM     65  C   UNL A   1      42.886  29.233  34.104  1.00  0.00     0.037 A 
BRANCH  52  66
ATOM     66  C   UNL A   1      40.714  27.914  28.429  1.00  0.00     0.064 A 
ATOM     67  C   UNL A   1      40.023  26.692  28.391  1.00  0.00     0.173 A 
ATOM     68  C   UNL A   1      41.466  28.273  27.302  1.00  0.00     0.173 A 
ATOM     69  F   UNL A   1      39.305  26.286  29.451  1.00  0.00    -0.203 F 
ATOM     70  C   UNL A   1      40.125  25.843  27.291  1.00  0.00     0.198 A 
ATOM     71  C   UNL A   1      41.535  27.439  26.189  1.00  0.00     0.198 A 
ATOM     72  F   UNL A   1      42.153  29.424  27.286  1.00  0.00    -0.203 F 
ATOM     73  F   UNL A   1      39.524  24.645  27.314  1.00  0.00    -0.200 F 
ATOM     74  C   UNL A   1      40.878  26.220  26.191  1.00  0.00     0.200 A 
ATOM     75  F   UNL A   1      42.257  27.810  25.122  1.00  0.00    -0.200 F 
ATOM     76  F   UNL A   1      40.983  25.399  25.137  1.00  0.00    -0.200 F 
ENDBRANCH  52  66
BRANCH  53  77
ATOM     77  C   UNL A   1      39.703  33.769  36.627  1.00  0.00     0.064 A 
ATOM     78  C   UNL A   1      40.287  35.034  36.780  1.00  0.00     0.173 A 
ATOM     79  C   UNL A   1      38.827  33.330  37.633  1.00  0.00     0.173 A 
ATOM     80  F   UNL A   1      41.130  35.498  35.847  1.00  0.00    -0.203 F 
ATOM     81  C   UNL A   1      40.013  35.823  37.896  1.00  0.00     0.198 A 
ATOM     82  C   UNL A   1      38.534  34.130  38.735  1.00  0.00     0.198 A 
ATOM     83  F   UNL A   1      38.225  32.136  37.525  1.00  0.00    -0.203 F 
ATOM     84  F   UNL A   1      40.604  37.018  38.029  1.00  0.00    -0.200 F 
ATOM     85  C   UNL A   1      39.131  35.374  38.868  1.00  0.00     0.200 A 
ATOM     86  F   UNL A   1      37.661  33.704  39.658  1.00  0.00    -0.200 F 
ATOM     87  F   UNL A   1      38.856  36.141  39.932  1.00  0.00    -0.200 F 
ENDBRANCH  53  77
BRANCH  65  88
ATOM     88  C   UNL A   1      44.030  28.576  34.815  1.00  0.00     0.064 A 
ATOM     89  C   UNL A   1      43.862  27.397  35.553  1.00  0.00     0.173 A 
ATOM     90  C   UNL A   1      45.327  29.096  34.681  1.00  0.00     0.173 A 
ATOM     91  F   UNL A   1      42.638  26.876  35.724  1.00  0.00    -0.203 F 
ATOM     92  C   UNL A   1      44.952  26.767  36.143  1.00  0.00     0.198 A 
ATOM     93  C   UNL A   1      46.418  28.444  35.240  1.00  0.00     0.198 A 
ATOM     94  F   UNL A   1      45.535  30.220  33.978  1.00  0.00    -0.203 F 
ATOM     95  F   UNL A   1      44.767  25.661  36.877  1.00  0.00    -0.200 F 
ATOM     96  C   UNL A   1      46.229  27.283  35.975  1.00  0.00     0.200 A 
ATOM     97  F   UNL A   1      47.652  28.931  35.059  1.00  0.00    -0.200 F 
ATOM     98  F   UNL A   1      47.282  26.659  36.522  1.00  0.00    -0.200 F 
ENDBRANCH  65  88
ENDBRANCH  39  40
ENDBRANCH  32  34
ENDBRANCH  31  32
ENDBRANCH  30  31
ENDBRANCH   1  30
TORSDOF 14
ENDMDL
