MODEL 1
REMARK VINA RESULT:     -10.7      0.000      0.000
REMARK SMILES O=C(COCCNC(=O)c1ccn[nH]1)OCCOC(=O)c1ccc(-c2c3nc(c(-c4c(F)c(F)c(F)c(F)c4F)c4ccc([nH]4)c(-c4c(F)c(F)c(F)c(F)c4F)c4nc(c(-c5c(F)c(F)c(F)c(F)c5F)c5ccc2[nH]5)C=C4)C=C3)cc1
REMARK SMILES IDX 15 1 2 2 1 3 3 4 4 5 5 6 6 7 7 8 8 9 9 11 10 12 11 13 14 14
REMARK SMILES IDX 12 15 13 16 16 18 17 19 18 20 19 21 20 22 21 23 22 24 83 25
REMARK SMILES IDX 23 26 82 27 24 28 25 29 26 30 76 31 27 32 81 33 75 34 77 35
REMARK SMILES IDX 28 36 80 37 74 38 73 39 29 41 61 42 41 43 60 44 42 45 45 46
REMARK SMILES IDX 59 47 78 48 43 49 44 50 58 52 79 53 46 54 30 55 31 56 39 57
REMARK SMILES IDX 32 58 33 59 37 60 40 61 34 62 35 63 38 64 36 65 62 66 63 67
REMARK SMILES IDX 71 68 64 69 65 70 69 71 72 72 66 73 67 74 70 75 68 76 47 77
REMARK SMILES IDX 48 78 56 79 49 80 50 81 54 82 57 83 51 84 52 85 55 86 53 87
REMARK H PARENT 7 10 14 17 77 40 45 51
REMARK Flexibility Score: inf
ROOT
ATOM      1  O   UNL A   1      37.802  21.283  24.915  1.00  0.00    -0.460 OA
ENDROOT
BRANCH   1   2
ATOM      2  C   UNL A   1      36.771  21.969  24.366  1.00  0.00     0.332 C 
ATOM      3  O   UNL A   1      36.965  22.670  23.373  1.00  0.00    -0.250 OA
BRANCH   2   4
ATOM      4  C   UNL A   1      35.379  21.878  25.003  1.00  0.00     0.282 C 
BRANCH   4   5
ATOM      5  O   UNL A   1      34.520  20.839  24.566  1.00  0.00    -0.368 OA
BRANCH   5   6
ATOM      6  C   UNL A   1      33.163  20.921  25.014  1.00  0.00     0.182 C 
BRANCH   6   7
ATOM      7  C   UNL A   1      32.474  19.552  25.119  1.00  0.00     0.144 C 
BRANCH   7   8
ATOM      8  N   UNL A   1      32.185  18.949  23.825  1.00  0.00    -0.348 N 
ATOM      9  C   UNL A   1      32.754  17.859  23.221  1.00  0.00     0.269 C 
ATOM     10  H   UNL A   1      31.474  19.393  23.305  1.00  0.00     0.163 HD
ATOM     11  O   UNL A   1      32.566  17.702  22.016  1.00  0.00    -0.268 OA
BRANCH   9  12
ATOM     12  C   UNL A   1      33.545  16.951  23.994  1.00  0.00     0.122 A 
ATOM     13  C   UNL A   1      34.851  16.988  24.440  1.00  0.00     0.055 A 
ATOM     14  N   UNL A   1      33.006  15.829  24.566  1.00  0.00    -0.273 N 
ATOM     15  C   UNL A   1      35.008  15.826  25.217  1.00  0.00     0.135 A 
ATOM     16  N   UNL A   1      33.890  15.104  25.275  1.00  0.00    -0.183 NA
ATOM     17  H   UNL A   1      32.059  15.576  24.467  1.00  0.00     0.190 HD
ENDBRANCH   9  12
ENDBRANCH   7   8
ENDBRANCH   6   7
ENDBRANCH   5   6
ENDBRANCH   4   5
ENDBRANCH   2   4
ENDBRANCH   1   2
BRANCH   1  18
ATOM     18  C   UNL A   1      37.895  19.847  25.006  1.00  0.00     0.274 C 
BRANCH  18  19
ATOM     19  C   UNL A   1      39.245  19.410  25.580  1.00  0.00     0.275 C 
BRANCH  19  20
ATOM     20  O   UNL A   1      40.097  20.548  25.826  1.00  0.00    -0.458 OA
BRANCH  20  21
ATOM     21  C   UNL A   1      40.737  20.547  27.024  1.00  0.00     0.338 C 
ATOM     22  O   UNL A   1      41.088  19.566  27.660  1.00  0.00    -0.246 OA
BRANCH  21  23
ATOM     23  C   UNL A   1      41.093  21.932  27.411  1.00  0.00     0.060 A 
ATOM     24  C   UNL A   1      40.611  22.977  26.618  1.00  0.00     0.016 A 
ATOM     25  C   UNL A   1      41.895  22.214  28.523  1.00  0.00     0.016 A 
ATOM     26  C   UNL A   1      40.950  24.299  26.916  1.00  0.00     0.010 A 
ATOM     27  C   UNL A   1      42.237  23.542  28.819  1.00  0.00     0.010 A 
ATOM     28  C   UNL A   1      41.782  24.593  28.005  1.00  0.00    -0.014 A 
BRANCH  28  29
ATOM     29  C   UNL A   1      42.239  25.990  28.216  1.00  0.00     0.031 A 
ATOM     30  C   UNL A   1      43.565  26.427  27.659  1.00  0.00     0.074 A 
ATOM     31  C   UNL A   1      41.461  26.884  28.852  1.00  0.00     0.049 A 
ATOM     32  N   UNL A   1      44.105  27.620  27.643  1.00  0.00    -0.248 NA
ATOM     33  C   UNL A   1      44.394  25.381  27.044  1.00  0.00     0.031 C 
ATOM     34  C   UNL A   1      40.162  26.594  29.450  1.00  0.00     0.029 A 
ATOM     35  N   UNL A   1      41.651  28.222  29.095  1.00  0.00    -0.354 N 
ATOM     36  C   UNL A   1      45.318  27.476  26.986  1.00  0.00     0.074 A 
ATOM     37  C   UNL A   1      45.463  26.070  26.671  1.00  0.00     0.031 C 
ATOM     38  C   UNL A   1      39.662  27.723  29.983  1.00  0.00     0.029 A 
ATOM     39  C   UNL A   1      40.615  28.811  29.778  1.00  0.00     0.049 A 
ATOM     40  H   UNL A   1      42.455  28.713  28.807  1.00  0.00     0.167 HD
ATOM     41  C   UNL A   1      46.220  28.431  26.652  1.00  0.00     0.037 A 
ATOM     42  C   UNL A   1      40.456  30.083  30.193  1.00  0.00     0.037 A 
ATOM     43  C   UNL A   1      46.102  29.825  26.988  1.00  0.00     0.049 A 
ATOM     44  C   UNL A   1      41.506  31.113  29.864  1.00  0.00     0.074 A 
ATOM     45  C   UNL A   1      46.972  30.861  26.693  1.00  0.00     0.029 A 
ATOM     46  N   UNL A   1      45.052  30.379  27.704  1.00  0.00    -0.354 N 
ATOM     47  N   UNL A   1      42.620  30.978  29.188  1.00  0.00    -0.248 NA
ATOM     48  C   UNL A   1      41.264  32.481  30.349  1.00  0.00     0.031 C 
ATOM     49  C   UNL A   1      46.470  32.034  27.268  1.00  0.00     0.029 A 
ATOM     50  C   UNL A   1      45.264  31.738  27.880  1.00  0.00     0.049 A 
ATOM     51  H   UNL A   1      44.271  29.882  28.038  1.00  0.00     0.167 HD
ATOM     52  C   UNL A   1      43.196  32.240  29.143  1.00  0.00     0.074 A 
ATOM     53  C   UNL A   1      42.299  33.136  29.841  1.00  0.00     0.031 C 
ATOM     54  C   UNL A   1      44.366  32.623  28.576  1.00  0.00     0.037 A 
BRANCH  41  55
ATOM     55  C   UNL A   1      47.426  27.992  25.876  1.00  0.00     0.064 A 
ATOM     56  C   UNL A   1      48.642  27.719  26.520  1.00  0.00     0.173 A 
ATOM     57  C   UNL A   1      47.355  27.801  24.489  1.00  0.00     0.173 A 
ATOM     58  F   UNL A   1      48.761  27.900  27.843  1.00  0.00    -0.203 F 
ATOM     59  C   UNL A   1      49.752  27.288  25.798  1.00  0.00     0.198 A 
ATOM     60  C   UNL A   1      48.460  27.346  23.774  1.00  0.00     0.198 A 
ATOM     61  F   UNL A   1      46.213  28.046  23.829  1.00  0.00    -0.203 F 
ATOM     62  F   UNL A   1      50.915  27.069  26.427  1.00  0.00    -0.200 F 
ATOM     63  C   UNL A   1      49.657  27.095  24.427  1.00  0.00     0.200 A 
ATOM     64  F   UNL A   1      48.366  27.150  22.452  1.00  0.00    -0.200 F 
ATOM     65  F   UNL A   1      50.724  26.672  23.735  1.00  0.00    -0.200 F 
ENDBRANCH  41  55
BRANCH  42  66
ATOM     66  C   UNL A   1      39.253  30.467  30.976  1.00  0.00     0.064 A 
ATOM     67  C   UNL A   1      38.126  31.022  30.352  1.00  0.00     0.173 A 
ATOM     68  C   UNL A   1      39.228  30.336  32.372  1.00  0.00     0.173 A 
ATOM     69  F   UNL A   1      38.113  31.192  29.022  1.00  0.00    -0.203 F 
ATOM     70  C   UNL A   1      37.034  31.459  31.099  1.00  0.00     0.198 A 
ATOM     71  C   UNL A   1      38.123  30.746  33.114  1.00  0.00     0.198 A 
ATOM     72  F   UNL A   1      40.281  29.810  33.016  1.00  0.00    -0.203 F 
ATOM     73  F   UNL A   1      35.995  32.040  30.484  1.00  0.00    -0.200 F 
ATOM     74  C   UNL A   1      37.033  31.319  32.478  1.00  0.00     0.200 A 
ATOM     75  F   UNL A   1      38.122  30.598  34.446  1.00  0.00    -0.200 F 
ATOM     76  F   UNL A   1      35.984  31.745  33.196  1.00  0.00    -0.200 F 
ENDBRANCH  42  66
BRANCH  54  77
ATOM     77  C   UNL A   1      44.732  34.078  28.668  1.00  0.00     0.064 A 
ATOM     78  C   UNL A   1      44.302  35.007  27.709  1.00  0.00     0.173 A 
ATOM     79  C   UNL A   1      45.508  34.552  29.737  1.00  0.00     0.173 A 
ATOM     80  F   UNL A   1      43.570  34.604  26.660  1.00  0.00    -0.203 F 
ATOM     81  C   UNL A   1      44.662  36.350  27.799  1.00  0.00     0.198 A 
ATOM     82  C   UNL A   1      45.842  35.900  29.839  1.00  0.00     0.198 A 
ATOM     83  F   UNL A   1      45.941  33.708  30.686  1.00  0.00    -0.203 F 
ATOM     84  F   UNL A   1      44.286  37.208  26.841  1.00  0.00    -0.200 F 
ATOM     85  C   UNL A   1      45.427  36.796  28.866  1.00  0.00     0.200 A 
ATOM     86  F   UNL A   1      46.571  36.332  30.878  1.00  0.00    -0.200 F 
ATOM     87  F   UNL A   1      45.774  38.088  28.950  1.00  0.00    -0.200 F 
ENDBRANCH  54  77
ENDBRANCH  28  29
ENDBRANCH  21  23
ENDBRANCH  20  21
ENDBRANCH  19  20
ENDBRANCH  18  19
ENDBRANCH   1  18
TORSDOF 16
ENDMDL
MODEL 2
REMARK VINA RESULT:     -10.6      6.399     12.248
REMARK SMILES O=C(COCCNC(=O)c1ccn[nH]1)OCCOC(=O)c1ccc(-c2c3nc(c(-c4c(F)c(F)c(F)c(F)c4F)c4ccc([nH]4)c(-c4c(F)c(F)c(F)c(F)c4F)c4nc(c(-c5c(F)c(F)c(F)c(F)c5F)c5ccc2[nH]5)C=C4)C=C3)cc1
REMARK SMILES IDX 15 1 2 2 1 3 3 4 4 5 5 6 6 7 7 8 8 9 9 11 10 12 11 13 14 14
REMARK SMILES IDX 12 15 13 16 16 18 17 19 18 20 19 21 20 22 21 23 22 24 83 25
REMARK SMILES IDX 23 26 82 27 24 28 25 29 26 30 76 31 27 32 81 33 75 34 77 35
REMARK SMILES IDX 28 36 80 37 74 38 73 39 29 41 61 42 41 43 60 44 42 45 45 46
REMARK SMILES IDX 59 47 78 48 43 49 44 50 58 52 79 53 46 54 30 55 31 56 39 57
REMARK SMILES IDX 32 58 33 59 37 60 40 61 34 62 35 63 38 64 36 65 62 66 63 67
REMARK SMILES IDX 71 68 64 69 65 70 69 71 72 72 66 73 67 74 70 75 68 76 47 77
REMARK SMILES IDX 48 78 56 79 49 80 50 81 54 82 57 83 51 84 52 85 55 86 53 87
REMARK H PARENT 7 10 14 17 77 40 45 51
REMARK Flexibility Score: inf
ROOT
ATOM      1  O   UNL A   1      35.926  33.210  30.229  1.00  0.00    -0.460 OA
ENDROOT
BRANCH   1   2
ATOM      2  C   UNL A   1      36.989  33.192  31.067  1.00  0.00     0.332 C 
ATOM      3  O   UNL A   1      38.076  33.623  30.683  1.00  0.00    -0.250 OA
BRANCH   2   4
ATOM      4  C   UNL A   1      36.829  32.614  32.479  1.00  0.00     0.282 C 
BRANCH   4   5
ATOM      5  O   UNL A   1      36.456  33.503  33.518  1.00  0.00    -0.368 OA
BRANCH   5   6
ATOM      6  C   UNL A   1      35.067  33.843  33.580  1.00  0.00     0.182 C 
BRANCH   6   7
ATOM      7  C   UNL A   1      34.762  35.253  33.054  1.00  0.00     0.144 C 
BRANCH   7   8
ATOM      8  N   UNL A   1      33.374  35.654  33.245  1.00  0.00    -0.348 N 
ATOM      9  C   UNL A   1      32.538  36.339  32.404  1.00  0.00     0.269 C 
ATOM     10  H   UNL A   1      32.979  35.395  34.110  1.00  0.00     0.163 HD
ATOM     11  O   UNL A   1      31.512  36.823  32.876  1.00  0.00    -0.268 OA
BRANCH   9  12
ATOM     12  C   UNL A   1      32.878  36.475  31.020  1.00  0.00     0.122 A 
ATOM     13  C   UNL A   1      32.796  35.616  29.943  1.00  0.00     0.055 A 
ATOM     14  N   UNL A   1      33.280  37.673  30.489  1.00  0.00    -0.273 N 
ATOM     15  C   UNL A   1      33.218  36.372  28.835  1.00  0.00     0.135 A 
ATOM     16  N   UNL A   1      33.538  37.622  29.169  1.00  0.00    -0.183 NA
ATOM     17  H   UNL A   1      33.371  38.495  31.023  1.00  0.00     0.190 HD
ENDBRANCH   9  12
ENDBRANCH   7   8
ENDBRANCH   6   7
ENDBRANCH   5   6
ENDBRANCH   4   5
ENDBRANCH   2   4
ENDBRANCH   1   2
BRANCH   1  18
ATOM     18  C   UNL A   1      35.875  33.889  28.958  1.00  0.00     0.274 C 
BRANCH  18  19
ATOM     19  C   UNL A   1      34.879  33.221  28.008  1.00  0.00     0.275 C 
BRANCH  19  20
ATOM     20  O   UNL A   1      34.328  32.023  28.590  1.00  0.00    -0.458 OA
BRANCH  20  21
ATOM     21  C   UNL A   1      34.495  30.890  27.860  1.00  0.00     0.338 C 
ATOM     22  O   UNL A   1      33.757  30.476  26.981  1.00  0.00    -0.246 OA
BRANCH  21  23
ATOM     23  C   UNL A   1      35.803  30.269  28.176  1.00  0.00     0.060 A 
ATOM     24  C   UNL A   1      35.967  29.700  29.443  1.00  0.00     0.016 A 
ATOM     25  C   UNL A   1      36.862  30.250  27.261  1.00  0.00     0.016 A 
ATOM     26  C   UNL A   1      37.192  29.137  29.806  1.00  0.00     0.010 A 
ATOM     27  C   UNL A   1      38.092  29.686  27.629  1.00  0.00     0.010 A 
ATOM     28  C   UNL A   1      38.272  29.143  28.912  1.00  0.00    -0.014 A 
BRANCH  28  29
ATOM     29  C   UNL A   1      39.601  28.665  29.372  1.00  0.00     0.031 A 
ATOM     30  C   UNL A   1      40.329  29.423  30.446  1.00  0.00     0.074 A 
ATOM     31  C   UNL A   1      40.138  27.535  28.879  1.00  0.00     0.049 A 
ATOM     32  N   UNL A   1      41.447  29.124  31.059  1.00  0.00    -0.248 NA
ATOM     33  C   UNL A   1      39.720  30.687  30.884  1.00  0.00     0.031 C 
ATOM     34  C   UNL A   1      39.548  26.711  27.829  1.00  0.00     0.029 A 
ATOM     35  N   UNL A   1      41.302  26.883  29.203  1.00  0.00    -0.354 N 
ATOM     36  C   UNL A   1      41.656  30.142  31.980  1.00  0.00     0.074 A 
ATOM     37  C   UNL A   1      40.582  31.097  31.803  1.00  0.00     0.031 C 
ATOM     38  C   UNL A   1      40.346  25.653  27.601  1.00  0.00     0.029 A 
ATOM     39  C   UNL A   1      41.513  25.736  28.477  1.00  0.00     0.049 A 
ATOM     40  H   UNL A   1      41.927  27.207  29.891  1.00  0.00     0.167 HD
ATOM     41  C   UNL A   1      42.640  30.259  32.904  1.00  0.00     0.037 A 
ATOM     42  C   UNL A   1      42.532  24.856  28.512  1.00  0.00     0.037 A 
ATOM     43  C   UNL A   1      43.729  29.333  33.067  1.00  0.00     0.049 A 
ATOM     44  C   UNL A   1      43.647  25.045  29.508  1.00  0.00     0.074 A 
ATOM     45  C   UNL A   1      44.773  29.378  33.975  1.00  0.00     0.029 A 
ATOM     46  N   UNL A   1      43.923  28.198  32.294  1.00  0.00    -0.354 N 
ATOM     47  N   UNL A   1      43.803  25.978  30.415  1.00  0.00    -0.248 NA
ATOM     48  C   UNL A   1      44.726  24.044  29.491  1.00  0.00     0.031 C 
ATOM     49  C   UNL A   1      45.622  28.294  33.725  1.00  0.00     0.029 A 
ATOM     50  C   UNL A   1      45.082  27.548  32.691  1.00  0.00     0.049 A 
ATOM     51  H   UNL A   1      43.327  27.898  31.571  1.00  0.00     0.167 HD
ATOM     52  C   UNL A   1      44.975  25.664  31.090  1.00  0.00     0.074 A 
ATOM     53  C   UNL A   1      45.482  24.442  30.504  1.00  0.00     0.031 C 
ATOM     54  C   UNL A   1      45.579  26.331  32.103  1.00  0.00     0.037 A 
BRANCH  41  55
ATOM     55  C   UNL A   1      42.579  31.444  33.820  1.00  0.00     0.064 A 
ATOM     56  C   UNL A   1      41.736  31.450  34.942  1.00  0.00     0.173 A 
ATOM     57  C   UNL A   1      43.398  32.561  33.603  1.00  0.00     0.173 A 
ATOM     58  F   UNL A   1      40.925  30.411  35.183  1.00  0.00    -0.203 F 
ATOM     59  C   UNL A   1      41.702  32.543  35.804  1.00  0.00     0.198 A 
ATOM     60  C   UNL A   1      43.379  33.642  34.481  1.00  0.00     0.198 A 
ATOM     61  F   UNL A   1      44.223  32.601  32.546  1.00  0.00    -0.203 F 
ATOM     62  F   UNL A   1      40.864  32.545  36.849  1.00  0.00    -0.200 F 
ATOM     63  C   UNL A   1      42.529  33.634  35.577  1.00  0.00     0.200 A 
ATOM     64  F   UNL A   1      44.184  34.691  34.268  1.00  0.00    -0.200 F 
ATOM     65  F   UNL A   1      42.501  34.681  36.412  1.00  0.00    -0.200 F 
ENDBRANCH  41  55
BRANCH  42  66
ATOM     66  C   UNL A   1      42.558  23.706  27.571  1.00  0.00     0.064 A 
ATOM     67  C   UNL A   1      42.170  22.422  27.981  1.00  0.00     0.173 A 
ATOM     68  C   UNL A   1      43.025  23.860  26.258  1.00  0.00     0.173 A 
ATOM     69  F   UNL A   1      41.742  22.221  29.235  1.00  0.00    -0.203 F 
ATOM     70  C   UNL A   1      42.276  21.331  27.121  1.00  0.00     0.198 A 
ATOM     71  C   UNL A   1      43.103  22.773  25.390  1.00  0.00     0.198 A 
ATOM     72  F   UNL A   1      43.408  25.068  25.818  1.00  0.00    -0.203 F 
ATOM     73  F   UNL A   1      41.954  20.105  27.555  1.00  0.00    -0.200 F 
ATOM     74  C   UNL A   1      42.740  21.508  25.826  1.00  0.00     0.200 A 
ATOM     75  F   UNL A   1      43.541  22.950  24.136  1.00  0.00    -0.200 F 
ATOM     76  F   UNL A   1      42.848  20.457  25.002  1.00  0.00    -0.200 F 
ENDBRANCH  42  66
BRANCH  54  77
ATOM     77  C   UNL A   1      46.845  25.740  32.659  1.00  0.00     0.064 A 
ATOM     78  C   UNL A   1      46.825  24.812  33.710  1.00  0.00     0.173 A 
ATOM     79  C   UNL A   1      48.093  26.093  32.121  1.00  0.00     0.173 A 
ATOM     80  F   UNL A   1      45.659  24.450  34.268  1.00  0.00    -0.203 F 
ATOM     81  C   UNL A   1      48.006  24.284  34.225  1.00  0.00     0.198 A 
ATOM     82  C   UNL A   1      49.270  25.542  32.619  1.00  0.00     0.198 A 
ATOM     83  F   UNL A   1      48.170  26.972  31.110  1.00  0.00    -0.203 F 
ATOM     84  F   UNL A   1      47.964  23.442  35.266  1.00  0.00    -0.200 F 
ATOM     85  C   UNL A   1      49.227  24.646  33.676  1.00  0.00     0.200 A 
ATOM     86  F   UNL A   1      50.449  25.883  32.079  1.00  0.00    -0.200 F 
ATOM     87  F   UNL A   1      50.364  24.138  34.173  1.00  0.00    -0.200 F 
ENDBRANCH  54  77
ENDBRANCH  28  29
ENDBRANCH  21  23
ENDBRANCH  20  21
ENDBRANCH  19  20
ENDBRANCH  18  19
ENDBRANCH   1  18
TORSDOF 16
ENDMDL
MODEL 3
REMARK VINA RESULT:     -10.5      1.040      1.728
REMARK SMILES O=C(COCCNC(=O)c1ccn[nH]1)OCCOC(=O)c1ccc(-c2c3nc(c(-c4c(F)c(F)c(F)c(F)c4F)c4ccc([nH]4)c(-c4c(F)c(F)c(F)c(F)c4F)c4nc(c(-c5c(F)c(F)c(F)c(F)c5F)c5ccc2[nH]5)C=C4)C=C3)cc1
REMARK SMILES IDX 15 1 2 2 1 3 3 4 4 5 5 6 6 7 7 8 8 9 9 11 10 12 11 13 14 14
REMARK SMILES IDX 12 15 13 16 16 18 17 19 18 20 19 21 20 22 21 23 22 24 83 25
REMARK SMILES IDX 23 26 82 27 24 28 25 29 26 30 76 31 27 32 81 33 75 34 77 35
REMARK SMILES IDX 28 36 80 37 74 38 73 39 29 41 61 42 41 43 60 44 42 45 45 46
REMARK SMILES IDX 59 47 78 48 43 49 44 50 58 52 79 53 46 54 30 55 31 56 39 57
REMARK SMILES IDX 32 58 33 59 37 60 40 61 34 62 35 63 38 64 36 65 62 66 63 67
REMARK SMILES IDX 71 68 64 69 65 70 69 71 72 72 66 73 67 74 70 75 68 76 47 77
REMARK SMILES IDX 48 78 56 79 49 80 50 81 54 82 57 83 51 84 52 85 55 86 53 87
REMARK H PARENT 7 10 14 17 77 40 45 51
REMARK Flexibility Score: inf
ROOT
ATOM      1  O   UNL A   1      35.321  22.253  23.448  1.00  0.00    -0.460 OA
ENDROOT
BRANCH   1   2
ATOM      2  C   UNL A   1      34.298  23.135  23.352  1.00  0.00     0.332 C 
ATOM      3  O   UNL A   1      34.265  23.933  22.415  1.00  0.00    -0.250 OA
BRANCH   2   4
ATOM      4  C   UNL A   1      33.202  23.140  24.426  1.00  0.00     0.282 C 
BRANCH   4   5
ATOM      5  O   UNL A   1      32.124  22.234  24.273  1.00  0.00    -0.368 OA
BRANCH   5   6
ATOM      6  C   UNL A   1      32.097  21.134  25.189  1.00  0.00     0.182 C 
BRANCH   6   7
ATOM      7  C   UNL A   1      32.941  19.937  24.727  1.00  0.00     0.144 C 
BRANCH   7   8
ATOM      8  N   UNL A   1      32.400  19.267  23.552  1.00  0.00    -0.348 N 
ATOM      9  C   UNL A   1      32.678  18.024  23.049  1.00  0.00     0.269 C 
ATOM     10  H   UNL A   1      31.735  19.786  23.042  1.00  0.00     0.163 HD
ATOM     11  O   UNL A   1      32.332  17.775  21.896  1.00  0.00    -0.268 OA
BRANCH   9  12
ATOM     12  C   UNL A   1      33.360  17.064  23.864  1.00  0.00     0.122 A 
ATOM     13  C   UNL A   1      34.674  16.941  24.270  1.00  0.00     0.055 A 
ATOM     14  N   UNL A   1      32.688  16.073  24.529  1.00  0.00    -0.273 N 
ATOM     15  C   UNL A   1      34.692  15.823  25.124  1.00  0.00     0.135 A 
ATOM     16  N   UNL A   1      33.485  15.276  25.264  1.00  0.00    -0.183 NA
ATOM     17  H   UNL A   1      31.712  15.953  24.474  1.00  0.00     0.190 HD
ENDBRANCH   9  12
ENDBRANCH   7   8
ENDBRANCH   6   7
ENDBRANCH   5   6
ENDBRANCH   4   5
ENDBRANCH   2   4
ENDBRANCH   1   2
BRANCH   1  18
ATOM     18  C   UNL A   1      36.649  22.563  23.918  1.00  0.00     0.274 C 
BRANCH  18  19
ATOM     19  C   UNL A   1      37.323  21.336  24.535  1.00  0.00     0.275 C 
BRANCH  19  20
ATOM     20  O   UNL A   1      37.717  21.591  25.899  1.00  0.00    -0.458 OA
BRANCH  20  21
ATOM     21  C   UNL A   1      39.035  21.405  26.168  1.00  0.00     0.338 C 
ATOM     22  O   UNL A   1      39.703  20.422  25.888  1.00  0.00    -0.246 OA
BRANCH  21  23
ATOM     23  C   UNL A   1      39.617  22.642  26.740  1.00  0.00     0.060 A 
ATOM     24  C   UNL A   1      39.072  23.866  26.341  1.00  0.00     0.016 A 
ATOM     25  C   UNL A   1      40.686  22.616  27.644  1.00  0.00     0.016 A 
ATOM     26  C   UNL A   1      39.610  25.063  26.819  1.00  0.00     0.010 A 
ATOM     27  C   UNL A   1      41.225  23.819  28.121  1.00  0.00     0.010 A 
ATOM     28  C   UNL A   1      40.703  25.052  27.697  1.00  0.00    -0.014 A 
BRANCH  28  29
ATOM     29  C   UNL A   1      41.342  26.337  28.079  1.00  0.00     0.031 A 
ATOM     30  C   UNL A   1      42.757  26.616  27.657  1.00  0.00     0.074 A 
ATOM     31  C   UNL A   1      40.655  27.277  28.753  1.00  0.00     0.049 A 
ATOM     32  N   UNL A   1      43.466  27.708  27.799  1.00  0.00    -0.248 NA
ATOM     33  C   UNL A   1      43.470  25.516  26.992  1.00  0.00     0.031 C 
ATOM     34  C   UNL A   1      39.285  27.136  29.234  1.00  0.00     0.029 A 
ATOM     35  N   UNL A   1      41.019  28.542  29.144  1.00  0.00    -0.354 N 
ATOM     36  C   UNL A   1      44.693  27.441  27.209  1.00  0.00     0.074 A 
ATOM     37  C   UNL A   1      44.655  26.064  26.762  1.00  0.00     0.031 C 
ATOM     38  C   UNL A   1      38.914  28.274  29.846  1.00  0.00     0.029 A 
ATOM     39  C   UNL A   1      40.030  29.218  29.817  1.00  0.00     0.049 A 
ATOM     40  H   UNL A   1      41.906  28.928  28.961  1.00  0.00     0.167 HD
ATOM     41  C   UNL A   1      45.748  28.272  27.035  1.00  0.00     0.037 A 
ATOM     42  C   UNL A   1      40.027  30.456  30.350  1.00  0.00     0.037 A 
ATOM     43  C   UNL A   1      45.810  29.631  27.504  1.00  0.00     0.049 A 
ATOM     44  C   UNL A   1      41.238  31.338  30.196  1.00  0.00     0.074 A 
ATOM     45  C   UNL A   1      46.842  30.544  27.375  1.00  0.00     0.029 A 
ATOM     46  N   UNL A   1      44.799  30.271  28.205  1.00  0.00    -0.354 N 
ATOM     47  N   UNL A   1      42.371  31.096  29.584  1.00  0.00    -0.248 NA
ATOM     48  C   UNL A   1      41.162  32.676  30.803  1.00  0.00     0.031 C 
ATOM     49  C   UNL A   1      46.474  31.722  28.034  1.00  0.00     0.029 A 
ATOM     50  C   UNL A   1      45.193  31.559  28.534  1.00  0.00     0.049 A 
ATOM     51  H   UNL A   1      43.929  29.871  28.435  1.00  0.00     0.167 HD
ATOM     52  C   UNL A   1      43.127  32.254  29.706  1.00  0.00     0.074 A 
ATOM     53  C   UNL A   1      42.318  33.208  30.434  1.00  0.00     0.031 C 
ATOM     54  C   UNL A   1      44.382  32.503  29.258  1.00  0.00     0.037 A 
BRANCH  41  55
ATOM     55  C   UNL A   1      46.934  27.727  26.297  1.00  0.00     0.064 A 
ATOM     56  C   UNL A   1      46.993  27.760  24.895  1.00  0.00     0.173 A 
ATOM     57  C   UNL A   1      48.036  27.210  26.992  1.00  0.00     0.173 A 
ATOM     58  F   UNL A   1      45.958  28.234  24.187  1.00  0.00    -0.203 F 
ATOM     59  C   UNL A   1      48.107  27.276  24.216  1.00  0.00     0.198 A 
ATOM     60  C   UNL A   1      49.159  26.749  26.310  1.00  0.00     0.198 A 
ATOM     61  F   UNL A   1      48.028  27.160  28.333  1.00  0.00    -0.203 F 
ATOM     62  F   UNL A   1      48.129  27.283  22.876  1.00  0.00    -0.200 F 
ATOM     63  C   UNL A   1      49.192  26.778  24.924  1.00  0.00     0.200 A 
ATOM     64  F   UNL A   1      50.210  26.277  26.993  1.00  0.00    -0.200 F 
ATOM     65  F   UNL A   1      50.267  26.320  24.268  1.00  0.00    -0.200 F 
ENDBRANCH  41  55
BRANCH  42  66
ATOM     66  C   UNL A   1      38.834  30.945  31.089  1.00  0.00     0.064 A 
ATOM     67  C   UNL A   1      37.802  31.630  30.432  1.00  0.00     0.173 A 
ATOM     68  C   UNL A   1      38.731  30.785  32.478  1.00  0.00     0.173 A 
ATOM     69  F   UNL A   1      37.869  31.832  29.108  1.00  0.00    -0.203 F 
ATOM     70  C   UNL A   1      36.727  32.162  31.141  1.00  0.00     0.198 A 
ATOM     71  C   UNL A   1      37.641  31.292  33.182  1.00  0.00     0.198 A 
ATOM     72  F   UNL A   1      39.692  30.137  33.153  1.00  0.00    -0.203 F 
ATOM     73  F   UNL A   1      35.784  32.864  30.498  1.00  0.00    -0.200 F 
ATOM     74  C   UNL A   1      36.647  31.991  32.515  1.00  0.00     0.200 A 
ATOM     75  F   UNL A   1      37.561  31.115  34.508  1.00  0.00    -0.200 F 
ATOM     76  F   UNL A   1      35.616  32.508  33.197  1.00  0.00    -0.200 F 
ENDBRANCH  42  66
BRANCH  54  77
ATOM     77  C   UNL A   1      44.948  33.870  29.522  1.00  0.00     0.064 A 
ATOM     78  C   UNL A   1      44.752  34.934  28.630  1.00  0.00     0.173 A 
ATOM     79  C   UNL A   1      45.683  34.124  30.692  1.00  0.00     0.173 A 
ATOM     80  F   UNL A   1      44.069  34.742  27.491  1.00  0.00    -0.203 F 
ATOM     81  C   UNL A   1      45.296  36.192  28.881  1.00  0.00     0.198 A 
ATOM     82  C   UNL A   1      46.201  35.389  30.953  1.00  0.00     0.198 A 
ATOM     83  F   UNL A   1      45.895  33.144  31.583  1.00  0.00    -0.203 F 
ATOM     84  F   UNL A   1      45.142  37.177  27.986  1.00  0.00    -0.200 F 
ATOM     85  C   UNL A   1      46.015  36.420  30.044  1.00  0.00     0.200 A 
ATOM     86  F   UNL A   1      46.885  35.611  32.084  1.00  0.00    -0.200 F 
ATOM     87  F   UNL A   1      46.539  37.630  30.284  1.00  0.00    -0.200 F 
ENDBRANCH  54  77
ENDBRANCH  28  29
ENDBRANCH  21  23
ENDBRANCH  20  21
ENDBRANCH  19  20
ENDBRANCH  18  19
ENDBRANCH   1  18
TORSDOF 16
ENDMDL
