MODEL 1
REMARK VINA RESULT:     -12.9      0.000      0.000
REMARK SMILES O=C(OCCOC(=O)c1[nH]ncc1C[N@H+]1CCC[C@H](C(=O)c2ccc3ccccc3c2)C1)c1ccc(-c2c3nc(c(-c4c(F)c(F)c(F)c(F)c4F)c4ccc([nH]4)c(-c4c(F)c(F)c(F)c(F)c4F)c4nc(c(-c5c(F)c(F)c(F)c(F)c5F)c5ccc2[nH]5)C=C4)C=C3)cc1
REMARK SMILES IDX 5 1 4 2 3 3 2 4 1 5 33 6 34 7 95 8 35 9 94 10 36 11 37 12
REMARK SMILES IDX 38 13 88 14 39 15 93 16 87 17 89 18 40 19 92 20 86 21 85 22
REMARK SMILES IDX 41 24 73 25 53 26 72 27 54 28 57 29 71 30 90 31 55 32 56 33
REMARK SMILES IDX 70 35 91 36 58 37 42 38 43 39 51 40 44 41 45 42 49 43 52 44
REMARK SMILES IDX 46 45 47 46 50 47 48 48 74 49 75 50 83 51 76 52 77 53 81 54
REMARK SMILES IDX 84 55 78 56 79 57 82 58 80 59 59 60 60 61 68 62 61 63 62 64
REMARK SMILES IDX 66 65 69 66 63 67 64 68 67 69 65 70 6 71 7 72 8 73 9 74
REMARK SMILES IDX 10 75 13 76 11 77 12 79 14 80 15 81 16 82 32 83 17 85 19 86
REMARK SMILES IDX 18 87 20 88 21 89 22 90 23 91 31 92 24 93 30 94 25 95 29 96
REMARK SMILES IDX 26 97 28 98 27 99
REMARK H PARENT 89 23 57 34 10 78 15 84
REMARK Flexibility Score: inf
ROOT
ATOM      1  C   UNL A   1      33.808  28.568  25.667  1.00  0.00     0.275 C 
ENDROOT
BRANCH   1   2
ATOM      2  C   UNL A   1      33.304  29.004  27.044  1.00  0.00     0.275 C 
BRANCH   2   3
ATOM      3  O   UNL A   1      33.679  30.355  27.379  1.00  0.00    -0.458 OA
BRANCH   3   4
ATOM      4  C   UNL A   1      34.569  30.870  28.256  1.00  0.00     0.338 C 
ATOM      5  O   UNL A   1      34.291  31.960  28.759  1.00  0.00    -0.246 OA
BRANCH   4   6
ATOM      6  C   UNL A   1      35.899  30.269  28.631  1.00  0.00     0.060 A 
ATOM      7  C   UNL A   1      36.234  29.621  29.824  1.00  0.00     0.016 A 
ATOM      8  C   UNL A   1      36.903  30.350  27.643  1.00  0.00     0.016 A 
ATOM      9  C   UNL A   1      37.518  29.086  30.031  1.00  0.00     0.010 A 
ATOM     10  C   UNL A   1      38.177  29.805  27.834  1.00  0.00     0.010 A 
ATOM     11  C   UNL A   1      38.499  29.187  29.042  1.00  0.00    -0.014 A 
BRANCH  11  12
ATOM     12  C   UNL A   1      39.903  28.807  29.323  1.00  0.00     0.031 A 
ATOM     13  C   UNL A   1      40.749  29.769  30.089  1.00  0.00     0.074 A 
ATOM     14  C   UNL A   1      40.429  27.652  28.879  1.00  0.00     0.049 A 
ATOM     15  N   UNL A   1      42.009  29.680  30.418  1.00  0.00    -0.248 NA
ATOM     16  C   UNL A   1      40.084  31.002  30.538  1.00  0.00     0.031 C 
ATOM     17  C   UNL A   1      39.687  26.662  28.124  1.00  0.00     0.029 A 
ATOM     18  N   UNL A   1      41.689  27.118  28.971  1.00  0.00    -0.354 N 
ATOM     19  C   UNL A   1      42.295  30.850  31.098  1.00  0.00     0.074 A 
ATOM     20  C   UNL A   1      41.085  31.645  31.115  1.00  0.00     0.031 C 
ATOM     21  C   UNL A   1      40.494  25.641  27.805  1.00  0.00     0.029 A 
ATOM     22  C   UNL A   1      41.826  25.917  28.316  1.00  0.00     0.049 A 
ATOM     23  H   UNL A   1      42.425  27.554  29.459  1.00  0.00     0.167 HD
ATOM     24  C   UNL A   1      43.469  31.225  31.654  1.00  0.00     0.037 A 
ATOM     25  C   UNL A   1      42.900  25.127  28.128  1.00  0.00     0.037 A 
ATOM     26  C   UNL A   1      44.669  30.439  31.582  1.00  0.00     0.049 A 
ATOM     27  C   UNL A   1      44.201  25.569  28.729  1.00  0.00     0.074 A 
ATOM     28  C   UNL A   1      45.920  30.720  32.097  1.00  0.00     0.029 A 
ATOM     29  N   UNL A   1      44.770  29.217  30.925  1.00  0.00    -0.354 N 
ATOM     30  N   UNL A   1      44.454  26.662  29.409  1.00  0.00    -0.248 NA
ATOM     31  C   UNL A   1      45.359  24.689  28.544  1.00  0.00     0.031 C 
ATOM     32  C   UNL A   1      46.788  29.690  31.712  1.00  0.00     0.029 A 
ATOM     33  C   UNL A   1      46.067  28.739  31.004  1.00  0.00     0.049 A 
ATOM     34  H   UNL A   1      44.026  28.758  30.471  1.00  0.00     0.167 HD
ATOM     35  C   UNL A   1      45.794  26.599  29.750  1.00  0.00     0.074 A 
ATOM     36  C   UNL A   1      46.300  25.351  29.207  1.00  0.00     0.031 C 
ATOM     37  C   UNL A   1      46.536  27.492  30.449  1.00  0.00     0.037 A 
BRANCH  24  38
ATOM     38  C   UNL A   1      43.486  32.571  32.314  1.00  0.00     0.064 A 
ATOM     39  C   UNL A   1      43.161  32.731  33.671  1.00  0.00     0.173 A 
ATOM     40  C   UNL A   1      43.730  33.724  31.556  1.00  0.00     0.173 A 
ATOM     41  F   UNL A   1      42.886  31.659  34.430  1.00  0.00    -0.203 F 
ATOM     42  C   UNL A   1      43.022  33.999  34.228  1.00  0.00     0.198 A 
ATOM     43  C   UNL A   1      43.622  34.990  32.125  1.00  0.00     0.198 A 
ATOM     44  F   UNL A   1      44.036  33.627  30.254  1.00  0.00    -0.203 F 
ATOM     45  F   UNL A   1      42.622  34.129  35.500  1.00  0.00    -0.200 F 
ATOM     46  C   UNL A   1      43.252  35.127  33.455  1.00  0.00     0.200 A 
ATOM     47  F   UNL A   1      43.843  36.080  31.378  1.00  0.00    -0.200 F 
ATOM     48  F   UNL A   1      43.093  36.348  33.985  1.00  0.00    -0.200 F 
ENDBRANCH  24  38
BRANCH  25  49
ATOM     49  C   UNL A   1      42.760  23.859  27.358  1.00  0.00     0.064 A 
ATOM     50  C   UNL A   1      43.126  23.782  26.006  1.00  0.00     0.173 A 
ATOM     51  C   UNL A   1      42.334  22.672  27.977  1.00  0.00     0.173 A 
ATOM     52  F   UNL A   1      43.525  24.888  25.361  1.00  0.00    -0.203 F 
ATOM     53  C   UNL A   1      43.067  22.575  25.306  1.00  0.00     0.198 A 
ATOM     54  C   UNL A   1      42.303  21.461  27.286  1.00  0.00     0.198 A 
ATOM     55  F   UNL A   1      41.983  22.682  29.272  1.00  0.00    -0.203 F 
ATOM     56  F   UNL A   1      43.384  22.545  24.005  1.00  0.00    -0.200 F 
ATOM     57  C   UNL A   1      42.666  21.413  25.949  1.00  0.00     0.200 A 
ATOM     58  F   UNL A   1      41.929  20.341  27.920  1.00  0.00    -0.200 F 
ATOM     59  F   UNL A   1      42.610  20.254  25.280  1.00  0.00    -0.200 F 
ENDBRANCH  25  49
BRANCH  37  60
ATOM     60  C   UNL A   1      47.970  27.138  30.690  1.00  0.00     0.064 A 
ATOM     61  C   UNL A   1      48.993  27.614  29.859  1.00  0.00     0.173 A 
ATOM     62  C   UNL A   1      48.326  26.373  31.810  1.00  0.00     0.173 A 
ATOM     63  F   UNL A   1      48.697  28.335  28.767  1.00  0.00    -0.203 F 
ATOM     64  C   UNL A   1      50.326  27.332  30.140  1.00  0.00     0.198 A 
ATOM     65  C   UNL A   1      49.661  26.114  32.101  1.00  0.00     0.198 A 
ATOM     66  F   UNL A   1      47.379  25.899  32.633  1.00  0.00    -0.203 F 
ATOM     67  F   UNL A   1      51.290  27.774  29.320  1.00  0.00    -0.200 F 
ATOM     68  C   UNL A   1      50.659  26.592  31.265  1.00  0.00     0.200 A 
ATOM     69  F   UNL A   1      49.981  25.409  33.194  1.00  0.00    -0.200 F 
ATOM     70  F   UNL A   1      51.945  26.336  31.544  1.00  0.00    -0.200 F 
ENDBRANCH  37  60
ENDBRANCH  11  12
ENDBRANCH   4   6
ENDBRANCH   3   4
ENDBRANCH   2   3
ENDBRANCH   1   2
BRANCH   1  71
ATOM     71  O   UNL A   1      33.234  29.361  24.624  1.00  0.00    -0.457 OA
BRANCH  71  72
ATOM     72  C   UNL A   1      33.069  28.727  23.423  1.00  0.00     0.356 C 
ATOM     73  O   UNL A   1      33.906  28.060  22.852  1.00  0.00    -0.244 OA
BRANCH  72  74
ATOM     74  C   UNL A   1      31.693  28.830  23.032  1.00  0.00     0.152 A 
ATOM     75  N   UNL A   1      31.302  29.648  22.005  1.00  0.00    -0.271 N 
ATOM     76  C   UNL A   1      30.540  28.207  23.487  1.00  0.00     0.059 A 
ATOM     77  N   UNL A   1      30.005  29.532  21.690  1.00  0.00    -0.183 NA
ATOM     78  H   UNL A   1      31.917  30.262  21.543  1.00  0.00     0.190 HD
ATOM     79  C   UNL A   1      29.542  28.661  22.588  1.00  0.00     0.145 A 
BRANCH  76  80
ATOM     80  C   UNL A   1      30.403  27.331  24.698  1.00  0.00     0.303 C 
BRANCH  80  81
ATOM     81  N   UNL A   1      30.993  25.994  24.511  1.00  0.00    -0.330 N 
ATOM     82  C   UNL A   1      30.430  24.989  25.415  1.00  0.00     0.262 C 
ATOM     83  C   UNL A   1      30.995  25.565  23.116  1.00  0.00     0.274 C 
ATOM     84  H   UNL A   1      31.974  26.086  24.776  1.00  0.00     0.348 HD
ATOM     85  C   UNL A   1      31.168  23.665  25.332  1.00  0.00     0.062 C 
ATOM     86  C   UNL A   1      31.714  24.237  22.875  1.00  0.00     0.116 C 
ATOM     87  C   UNL A   1      31.349  23.162  23.901  1.00  0.00     0.023 C 
BRANCH  86  88
ATOM     88  C   UNL A   1      33.202  24.456  22.578  1.00  0.00     0.171 C 
ATOM     89  O   UNL A   1      33.572  25.011  21.543  1.00  0.00    -0.294 OA
BRANCH  88  90
ATOM     90  C   UNL A   1      34.203  24.174  23.629  1.00  0.00     0.019 A 
ATOM     91  C   UNL A   1      34.403  25.060  24.680  1.00  0.00     0.012 A 
ATOM     92  C   UNL A   1      34.996  23.029  23.507  1.00  0.00     0.020 A 
ATOM     93  C   UNL A   1      35.503  24.897  25.521  1.00  0.00     0.009 A 
ATOM     94  C   UNL A   1      36.084  22.831  24.372  1.00  0.00    -0.018 A 
ATOM     95  C   UNL A   1      36.368  23.804  25.360  1.00  0.00    -0.018 A 
ATOM     96  C   UNL A   1      36.912  21.703  24.264  1.00  0.00     0.009 A 
ATOM     97  C   UNL A   1      37.507  23.655  26.165  1.00  0.00     0.009 A 
ATOM     98  C   UNL A   1      38.028  21.558  25.090  1.00  0.00     0.001 A 
ATOM     99  C   UNL A   1      38.335  22.541  26.026  1.00  0.00     0.001 A 
ENDBRANCH  88  90
ENDBRANCH  86  88
ENDBRANCH  80  81
ENDBRANCH  76  80
ENDBRANCH  72  74
ENDBRANCH  71  72
ENDBRANCH   1  71
TORSDOF 15
ENDMDL
MODEL 2
REMARK VINA RESULT:     -12.9      4.468      9.456
REMARK SMILES O=C(OCCOC(=O)c1[nH]ncc1C[N@H+]1CCC[C@H](C(=O)c2ccc3ccccc3c2)C1)c1ccc(-c2c3nc(c(-c4c(F)c(F)c(F)c(F)c4F)c4ccc([nH]4)c(-c4c(F)c(F)c(F)c(F)c4F)c4nc(c(-c5c(F)c(F)c(F)c(F)c5F)c5ccc2[nH]5)C=C4)C=C3)cc1
REMARK SMILES IDX 5 1 4 2 3 3 2 4 1 5 33 6 34 7 95 8 35 9 94 10 36 11 37 12
REMARK SMILES IDX 38 13 88 14 39 15 93 16 87 17 89 18 40 19 92 20 86 21 85 22
REMARK SMILES IDX 41 24 73 25 53 26 72 27 54 28 57 29 71 30 90 31 55 32 56 33
REMARK SMILES IDX 70 35 91 36 58 37 42 38 43 39 51 40 44 41 45 42 49 43 52 44
REMARK SMILES IDX 46 45 47 46 50 47 48 48 74 49 75 50 83 51 76 52 77 53 81 54
REMARK SMILES IDX 84 55 78 56 79 57 82 58 80 59 59 60 60 61 68 62 61 63 62 64
REMARK SMILES IDX 66 65 69 66 63 67 64 68 67 69 65 70 6 71 7 72 8 73 9 74
REMARK SMILES IDX 10 75 13 76 11 77 12 79 14 80 15 81 16 82 32 83 17 85 19 86
REMARK SMILES IDX 18 87 20 88 21 89 22 90 23 91 31 92 24 93 30 94 25 95 29 96
REMARK SMILES IDX 26 97 28 98 27 99
REMARK H PARENT 89 23 57 34 10 78 15 84
REMARK Flexibility Score: inf
ROOT
ATOM      1  C   UNL A   1      42.671  20.855  25.832  1.00  0.00     0.275 C 
ENDROOT
BRANCH   1   2
ATOM      2  C   UNL A   1      43.882  21.739  25.528  1.00  0.00     0.275 C 
BRANCH   2   3
ATOM      3  O   UNL A   1      43.517  23.037  25.017  1.00  0.00    -0.458 OA
BRANCH   3   4
ATOM      4  C   UNL A   1      44.019  24.276  25.217  1.00  0.00     0.338 C 
ATOM      5  O   UNL A   1      45.037  24.574  24.592  1.00  0.00    -0.246 OA
BRANCH   4   6
ATOM      6  C   UNL A   1      43.488  25.306  26.180  1.00  0.00     0.060 A 
ATOM      7  C   UNL A   1      43.742  26.681  26.181  1.00  0.00     0.016 A 
ATOM      8  C   UNL A   1      42.610  24.817  27.172  1.00  0.00     0.016 A 
ATOM      9  C   UNL A   1      43.158  27.533  27.134  1.00  0.00     0.010 A 
ATOM     10  C   UNL A   1      42.010  25.661  28.112  1.00  0.00     0.010 A 
ATOM     11  C   UNL A   1      42.300  27.026  28.113  1.00  0.00    -0.014 A 
BRANCH  11  12
ATOM     12  C   UNL A   1      41.839  27.875  29.236  1.00  0.00     0.031 A 
ATOM     13  C   UNL A   1      42.586  27.797  30.525  1.00  0.00     0.074 A 
ATOM     14  C   UNL A   1      40.763  28.673  29.127  1.00  0.00     0.049 A 
ATOM     15  N   UNL A   1      42.349  28.406  31.655  1.00  0.00    -0.248 NA
ATOM     16  C   UNL A   1      43.753  26.901  30.545  1.00  0.00     0.031 C 
ATOM     17  C   UNL A   1      39.974  28.809  27.919  1.00  0.00     0.029 A 
ATOM     18  N   UNL A   1      40.132  29.495  30.025  1.00  0.00    -0.354 N 
ATOM     19  C   UNL A   1      43.326  27.958  32.526  1.00  0.00     0.074 A 
ATOM     20  C   UNL A   1      44.145  27.008  31.803  1.00  0.00     0.031 C 
ATOM     21  C   UNL A   1      38.955  29.652  28.138  1.00  0.00     0.029 A 
ATOM     22  C   UNL A   1      39.005  30.101  29.519  1.00  0.00     0.049 A 
ATOM     23  H   UNL A   1      40.455  29.638  30.945  1.00  0.00     0.167 HD
ATOM     24  C   UNL A   1      43.515  28.311  33.818  1.00  0.00     0.037 A 
ATOM     25  C   UNL A   1      38.100  30.913  30.096  1.00  0.00     0.037 A 
ATOM     26  C   UNL A   1      42.659  29.220  34.527  1.00  0.00     0.049 A 
ATOM     27  C   UNL A   1      38.309  31.274  31.537  1.00  0.00     0.074 A 
ATOM     28  C   UNL A   1      42.744  29.645  35.839  1.00  0.00     0.029 A 
ATOM     29  N   UNL A   1      41.535  29.830  33.979  1.00  0.00    -0.354 N 
ATOM     30  N   UNL A   1      39.263  30.877  32.345  1.00  0.00    -0.248 NA
ATOM     31  C   UNL A   1      37.334  32.181  32.149  1.00  0.00     0.031 C 
ATOM     32  C   UNL A   1      41.646  30.474  36.098  1.00  0.00     0.029 A 
ATOM     33  C   UNL A   1      40.905  30.613  34.932  1.00  0.00     0.049 A 
ATOM     34  H   UNL A   1      41.232  29.723  33.048  1.00  0.00     0.167 HD
ATOM     35  C   UNL A   1      39.018  31.496  33.559  1.00  0.00     0.074 A 
ATOM     36  C   UNL A   1      37.826  32.304  33.377  1.00  0.00     0.031 C 
ATOM     37  C   UNL A   1      39.717  31.403  34.716  1.00  0.00     0.037 A 
BRANCH  24  38
ATOM     38  C   UNL A   1      44.654  27.639  34.524  1.00  0.00     0.064 A 
ATOM     39  C   UNL A   1      44.481  26.430  35.217  1.00  0.00     0.173 A 
ATOM     40  C   UNL A   1      45.906  28.264  34.595  1.00  0.00     0.173 A 
ATOM     41  F   UNL A   1      43.291  25.810  35.206  1.00  0.00    -0.203 F 
ATOM     42  C   UNL A   1      45.503  25.902  36.001  1.00  0.00     0.198 A 
ATOM     43  C   UNL A   1      46.936  27.717  35.355  1.00  0.00     0.198 A 
ATOM     44  F   UNL A   1      46.120  29.425  33.959  1.00  0.00    -0.203 F 
ATOM     45  F   UNL A   1      45.286  24.796  36.726  1.00  0.00    -0.200 F 
ATOM     46  C   UNL A   1      46.729  26.547  36.070  1.00  0.00     0.200 A 
ATOM     47  F   UNL A   1      48.120  28.340  35.422  1.00  0.00    -0.200 F 
ATOM     48  F   UNL A   1      47.704  26.053  36.847  1.00  0.00    -0.200 F 
ENDBRANCH  24  38
BRANCH  25  49
ATOM     49  C   UNL A   1      36.951  31.427  29.298  1.00  0.00     0.064 A 
ATOM     50  C   UNL A   1      35.861  30.606  28.975  1.00  0.00     0.173 A 
ATOM     51  C   UNL A   1      36.879  32.774  28.908  1.00  0.00     0.173 A 
ATOM     52  F   UNL A   1      35.885  29.308  29.309  1.00  0.00    -0.203 F 
ATOM     53  C   UNL A   1      34.751  31.109  28.293  1.00  0.00     0.198 A 
ATOM     54  C   UNL A   1      35.759  33.284  28.253  1.00  0.00     0.198 A 
ATOM     55  F   UNL A   1      37.888  33.611  29.200  1.00  0.00    -0.203 F 
ATOM     56  F   UNL A   1      33.745  30.289  27.963  1.00  0.00    -0.200 F 
ATOM     57  C   UNL A   1      34.696  32.450  27.942  1.00  0.00     0.200 A 
ATOM     58  F   UNL A   1      35.707  34.584  27.932  1.00  0.00    -0.200 F 
ATOM     59  F   UNL A   1      33.631  32.935  27.289  1.00  0.00    -0.200 F 
ENDBRANCH  25  49
BRANCH  37  60
ATOM     60  C   UNL A   1      39.225  32.219  35.871  1.00  0.00     0.064 A 
ATOM     61  C   UNL A   1      38.337  31.690  36.817  1.00  0.00     0.173 A 
ATOM     62  C   UNL A   1      39.708  33.520  36.068  1.00  0.00     0.173 A 
ATOM     63  F   UNL A   1      37.836  30.456  36.658  1.00  0.00    -0.203 F 
ATOM     64  C   UNL A   1      37.945  32.440  37.921  1.00  0.00     0.198 A 
ATOM     65  C   UNL A   1      39.334  34.258  37.185  1.00  0.00     0.198 A 
ATOM     66  F   UNL A   1      40.561  34.065  35.188  1.00  0.00    -0.203 F 
ATOM     67  F   UNL A   1      37.076  31.928  38.802  1.00  0.00    -0.200 F 
ATOM     68  C   UNL A   1      38.452  33.718  38.110  1.00  0.00     0.200 A 
ATOM     69  F   UNL A   1      39.833  35.487  37.373  1.00  0.00    -0.200 F 
ATOM     70  F   UNL A   1      38.088  34.432  39.184  1.00  0.00    -0.200 F 
ENDBRANCH  37  60
ENDBRANCH  11  12
ENDBRANCH   4   6
ENDBRANCH   3   4
ENDBRANCH   2   3
ENDBRANCH   1   2
BRANCH   1  71
ATOM     71  O   UNL A   1      41.449  21.593  25.744  1.00  0.00    -0.457 OA
BRANCH  71  72
ATOM     72  C   UNL A   1      40.532  21.338  26.727  1.00  0.00     0.356 C 
ATOM     73  O   UNL A   1      40.602  20.450  27.549  1.00  0.00    -0.244 OA
BRANCH  72  74
ATOM     74  C   UNL A   1      39.564  22.398  26.742  1.00  0.00     0.152 A 
ATOM     75  N   UNL A   1      39.671  23.448  27.614  1.00  0.00    -0.271 N 
ATOM     76  C   UNL A   1      38.431  22.643  25.980  1.00  0.00     0.059 A 
ATOM     77  N   UNL A   1      38.756  24.407  27.413  1.00  0.00    -0.183 NA
ATOM     78  H   UNL A   1      40.354  23.494  28.320  1.00  0.00     0.190 HD
ATOM     79  C   UNL A   1      38.005  23.921  26.425  1.00  0.00     0.145 A 
BRANCH  76  80
ATOM     80  C   UNL A   1      37.792  21.718  24.987  1.00  0.00     0.303 C 
BRANCH  80  81
ATOM     81  N   UNL A   1      36.375  22.035  24.735  1.00  0.00    -0.330 N 
ATOM     82  C   UNL A   1      36.145  22.612  23.408  1.00  0.00     0.262 C 
ATOM     83  C   UNL A   1      35.483  20.919  25.030  1.00  0.00     0.274 C 
ATOM     84  H   UNL A   1      36.134  22.769  25.401  1.00  0.00     0.348 HD
ATOM     85  C   UNL A   1      34.717  23.093  23.231  1.00  0.00     0.062 C 
ATOM     86  C   UNL A   1      33.997  21.258  24.897  1.00  0.00     0.116 C 
ATOM     87  C   UNL A   1      33.674  22.051  23.629  1.00  0.00     0.023 C 
BRANCH  86  88
ATOM     88  C   UNL A   1      33.425  21.777  26.222  1.00  0.00     0.171 C 
ATOM     89  O   UNL A   1      33.688  21.225  27.291  1.00  0.00    -0.294 OA
BRANCH  88  90
ATOM     90  C   UNL A   1      32.704  23.067  26.248  1.00  0.00     0.019 A 
ATOM     91  C   UNL A   1      31.317  23.111  26.180  1.00  0.00     0.012 A 
ATOM     92  C   UNL A   1      33.450  24.250  26.273  1.00  0.00     0.020 A 
ATOM     93  C   UNL A   1      30.675  24.329  25.969  1.00  0.00     0.009 A 
ATOM     94  C   UNL A   1      32.811  25.488  26.100  1.00  0.00    -0.018 A 
ATOM     95  C   UNL A   1      31.411  25.521  25.897  1.00  0.00    -0.018 A 
ATOM     96  C   UNL A   1      33.532  26.692  26.099  1.00  0.00     0.009 A 
ATOM     97  C   UNL A   1      30.782  26.747  25.633  1.00  0.00     0.009 A 
ATOM     98  C   UNL A   1      32.887  27.907  25.859  1.00  0.00     0.001 A 
ATOM     99  C   UNL A   1      31.518  27.932  25.608  1.00  0.00     0.001 A 
ENDBRANCH  88  90
ENDBRANCH  86  88
ENDBRANCH  80  81
ENDBRANCH  76  80
ENDBRANCH  72  74
ENDBRANCH  71  72
ENDBRANCH   1  71
TORSDOF 15
ENDMDL
MODEL 3
REMARK VINA RESULT:     -12.8      3.562      8.332
REMARK SMILES O=C(OCCOC(=O)c1[nH]ncc1C[N@H+]1CCC[C@H](C(=O)c2ccc3ccccc3c2)C1)c1ccc(-c2c3nc(c(-c4c(F)c(F)c(F)c(F)c4F)c4ccc([nH]4)c(-c4c(F)c(F)c(F)c(F)c4F)c4nc(c(-c5c(F)c(F)c(F)c(F)c5F)c5ccc2[nH]5)C=C4)C=C3)cc1
REMARK SMILES IDX 5 1 4 2 3 3 2 4 1 5 33 6 34 7 95 8 35 9 94 10 36 11 37 12
REMARK SMILES IDX 38 13 88 14 39 15 93 16 87 17 89 18 40 19 92 20 86 21 85 22
REMARK SMILES IDX 41 24 73 25 53 26 72 27 54 28 57 29 71 30 90 31 55 32 56 33
REMARK SMILES IDX 70 35 91 36 58 37 42 38 43 39 51 40 44 41 45 42 49 43 52 44
REMARK SMILES IDX 46 45 47 46 50 47 48 48 74 49 75 50 83 51 76 52 77 53 81 54
REMARK SMILES IDX 84 55 78 56 79 57 82 58 80 59 59 60 60 61 68 62 61 63 62 64
REMARK SMILES IDX 66 65 69 66 63 67 64 68 67 69 65 70 6 71 7 72 8 73 9 74
REMARK SMILES IDX 10 75 13 76 11 77 12 79 14 80 15 81 16 82 32 83 17 85 19 86
REMARK SMILES IDX 18 87 20 88 21 89 22 90 23 91 31 92 24 93 30 94 25 95 29 96
REMARK SMILES IDX 26 97 28 98 27 99
REMARK H PARENT 89 23 57 34 10 78 15 84
REMARK Flexibility Score: inf
ROOT
ATOM      1  C   UNL A   1      32.380  30.861  26.957  1.00  0.00     0.275 C 
ENDROOT
BRANCH   1   2
ATOM      2  C   UNL A   1      31.595  32.172  26.873  1.00  0.00     0.275 C 
BRANCH   2   3
ATOM      3  O   UNL A   1      32.438  33.339  26.958  1.00  0.00    -0.458 OA
BRANCH   3   4
ATOM      4  C   UNL A   1      32.978  34.007  28.001  1.00  0.00     0.338 C 
ATOM      5  O   UNL A   1      32.423  35.052  28.343  1.00  0.00    -0.246 OA
BRANCH   4   6
ATOM      6  C   UNL A   1      34.232  33.629  28.746  1.00  0.00     0.060 A 
ATOM      7  C   UNL A   1      35.517  34.154  28.573  1.00  0.00     0.016 A 
ATOM      8  C   UNL A   1      34.071  32.655  29.755  1.00  0.00     0.016 A 
ATOM      9  C   UNL A   1      36.598  33.720  29.359  1.00  0.00     0.010 A 
ATOM     10  C   UNL A   1      35.137  32.231  30.554  1.00  0.00     0.010 A 
ATOM     11  C   UNL A   1      36.416  32.747  30.344  1.00  0.00    -0.014 A 
BRANCH  11  12
ATOM     12  C   UNL A   1      37.576  32.142  31.039  1.00  0.00     0.031 A 
ATOM     13  C   UNL A   1      38.354  31.091  30.319  1.00  0.00     0.074 A 
ATOM     14  C   UNL A   1      37.914  32.489  32.293  1.00  0.00     0.049 A 
ATOM     15  N   UNL A   1      39.374  30.390  30.732  1.00  0.00    -0.248 NA
ATOM     16  C   UNL A   1      37.913  30.783  28.950  1.00  0.00     0.031 C 
ATOM     17  C   UNL A   1      37.215  33.493  33.071  1.00  0.00     0.029 A 
ATOM     18  N   UNL A   1      38.895  32.042  33.141  1.00  0.00    -0.354 N 
ATOM     19  C   UNL A   1      39.691  29.547  29.681  1.00  0.00     0.074 A 
ATOM     20  C   UNL A   1      38.740  29.806  28.621  1.00  0.00     0.031 C 
ATOM     21  C   UNL A   1      37.771  33.589  34.286  1.00  0.00     0.029 A 
ATOM     22  C   UNL A   1      38.859  32.630  34.383  1.00  0.00     0.049 A 
ATOM     23  H   UNL A   1      39.562  31.364  32.883  1.00  0.00     0.167 HD
ATOM     24  C   UNL A   1      40.687  28.636  29.616  1.00  0.00     0.037 A 
ATOM     25  C   UNL A   1      39.600  32.418  35.487  1.00  0.00     0.037 A 
ATOM     26  C   UNL A   1      41.588  28.365  30.702  1.00  0.00     0.049 A 
ATOM     27  C   UNL A   1      40.684  31.385  35.407  1.00  0.00     0.074 A 
ATOM     28  C   UNL A   1      42.629  27.458  30.756  1.00  0.00     0.029 A 
ATOM     29  N   UNL A   1      41.535  28.991  31.943  1.00  0.00    -0.354 N 
ATOM     30  N   UNL A   1      41.006  30.618  34.392  1.00  0.00    -0.248 NA
ATOM     31  C   UNL A   1      41.506  31.180  36.604  1.00  0.00     0.031 C 
ATOM     32  C   UNL A   1      43.175  27.502  32.045  1.00  0.00     0.029 A 
ATOM     33  C   UNL A   1      42.512  28.476  32.778  1.00  0.00     0.049 A 
ATOM     34  H   UNL A   1      40.897  29.698  32.190  1.00  0.00     0.167 HD
ATOM     35  C   UNL A   1      42.075  29.848  34.816  1.00  0.00     0.074 A 
ATOM     36  C   UNL A   1      42.355  30.250  36.183  1.00  0.00     0.031 C 
ATOM     37  C   UNL A   1      42.761  28.899  34.136  1.00  0.00     0.037 A 
BRANCH  24  38
ATOM     38  C   UNL A   1      40.775  27.844  28.346  1.00  0.00     0.064 A 
ATOM     39  C   UNL A   1      40.133  26.603  28.206  1.00  0.00     0.173 A 
ATOM     40  C   UNL A   1      41.593  28.284  27.297  1.00  0.00     0.173 A 
ATOM     41  F   UNL A   1      39.366  26.124  29.197  1.00  0.00    -0.203 F 
ATOM     42  C   UNL A   1      40.355  25.806  27.086  1.00  0.00     0.198 A 
ATOM     43  C   UNL A   1      41.786  27.499  26.164  1.00  0.00     0.198 A 
ATOM     44  F   UNL A   1      42.234  29.458  27.385  1.00  0.00    -0.203 F 
ATOM     45  F   UNL A   1      39.805  24.586  27.015  1.00  0.00    -0.200 F 
ATOM     46  C   UNL A   1      41.181  26.255  26.067  1.00  0.00     0.200 A 
ATOM     47  F   UNL A   1      42.585  27.931  25.179  1.00  0.00    -0.200 F 
ATOM     48  F   UNL A   1      41.415  25.475  25.001  1.00  0.00    -0.200 F 
ENDBRANCH  24  38
BRANCH  25  49
ATOM     49  C   UNL A   1      39.334  33.209  36.721  1.00  0.00     0.064 A 
ATOM     50  C   UNL A   1      38.456  32.744  37.711  1.00  0.00     0.173 A 
ATOM     51  C   UNL A   1      40.013  34.412  36.977  1.00  0.00     0.173 A 
ATOM     52  F   UNL A   1      37.769  31.610  37.511  1.00  0.00    -0.203 F 
ATOM     53  C   UNL A   1      38.266  33.449  38.901  1.00  0.00     0.198 A 
ATOM     54  C   UNL A   1      39.845  35.101  38.178  1.00  0.00     0.198 A 
ATOM     55  F   UNL A   1      40.875  34.899  36.071  1.00  0.00    -0.203 F 
ATOM     56  F   UNL A   1      37.389  32.999  39.809  1.00  0.00    -0.200 F 
ATOM     57  C   UNL A   1      38.969  34.621  39.139  1.00  0.00     0.200 A 
ATOM     58  F   UNL A   1      40.541  36.224  38.405  1.00  0.00    -0.200 F 
ATOM     59  F   UNL A   1      38.789  35.298  40.281  1.00  0.00    -0.200 F 
ENDBRANCH  25  49
BRANCH  37  60
ATOM     60  C   UNL A   1      43.902  28.246  34.852  1.00  0.00     0.064 A 
ATOM     61  C   UNL A   1      43.732  27.054  35.570  1.00  0.00     0.173 A 
ATOM     62  C   UNL A   1      45.193  28.783  34.753  1.00  0.00     0.173 A 
ATOM     63  F   UNL A   1      42.511  26.515  35.704  1.00  0.00    -0.203 F 
ATOM     64  C   UNL A   1      44.818  26.425  36.170  1.00  0.00     0.198 A 
ATOM     65  C   UNL A   1      46.280  28.139  35.333  1.00  0.00     0.198 A 
ATOM     66  F   UNL A   1      45.401  29.921  34.074  1.00  0.00    -0.203 F 
ATOM     67  F   UNL A   1      44.633  25.301  36.875  1.00  0.00    -0.200 F 
ATOM     68  C   UNL A   1      46.091  26.962  36.043  1.00  0.00     0.200 A 
ATOM     69  F   UNL A   1      47.511  28.652  35.200  1.00  0.00    -0.200 F 
ATOM     70  F   UNL A   1      47.139  26.344  36.606  1.00  0.00    -0.200 F 
ENDBRANCH  37  60
ENDBRANCH  11  12
ENDBRANCH   4   6
ENDBRANCH   3   4
ENDBRANCH   2   3
ENDBRANCH   1   2
BRANCH   1  71
ATOM     71  O   UNL A   1      32.405  30.186  25.696  1.00  0.00    -0.457 OA
BRANCH  71  72
ATOM     72  C   UNL A   1      33.359  29.214  25.566  1.00  0.00     0.356 C 
ATOM     73  O   UNL A   1      34.057  28.780  26.458  1.00  0.00    -0.244 OA
BRANCH  72  74
ATOM     74  C   UNL A   1      33.281  28.663  24.243  1.00  0.00     0.152 A 
ATOM     75  N   UNL A   1      34.165  29.030  23.265  1.00  0.00    -0.271 N 
ATOM     76  C   UNL A   1      32.436  27.725  23.668  1.00  0.00     0.059 A 
ATOM     77  N   UNL A   1      34.028  28.333  22.128  1.00  0.00    -0.183 NA
ATOM     78  H   UNL A   1      34.837  29.738  23.385  1.00  0.00     0.190 HD
ATOM     79  C   UNL A   1      32.981  27.543  22.370  1.00  0.00     0.145 A 
BRANCH  76  80
ATOM     80  C   UNL A   1      31.201  27.127  24.274  1.00  0.00     0.303 C 
BRANCH  80  81
ATOM     81  N   UNL A   1      31.399  25.740  24.731  1.00  0.00    -0.330 N 
ATOM     82  C   UNL A   1      31.013  25.538  26.129  1.00  0.00     0.262 C 
ATOM     83  C   UNL A   1      30.805  24.756  23.831  1.00  0.00     0.274 C 
ATOM     84  H   UNL A   1      32.405  25.579  24.696  1.00  0.00     0.348 HD
ATOM     85  C   UNL A   1      31.385  24.155  26.634  1.00  0.00     0.062 C 
ATOM     86  C   UNL A   1      31.101  23.305  24.213  1.00  0.00     0.116 C 
ATOM     87  C   UNL A   1      30.926  23.030  25.708  1.00  0.00     0.023 C 
BRANCH  86  88
ATOM     88  C   UNL A   1      32.390  22.808  23.548  1.00  0.00     0.171 C 
ATOM     89  O   UNL A   1      33.021  23.519  22.765  1.00  0.00    -0.294 OA
BRANCH  88  90
ATOM     90  C   UNL A   1      32.994  21.533  23.992  1.00  0.00     0.019 A 
ATOM     91  C   UNL A   1      34.132  21.522  24.789  1.00  0.00     0.012 A 
ATOM     92  C   UNL A   1      32.436  20.335  23.536  1.00  0.00     0.020 A 
ATOM     93  C   UNL A   1      34.816  20.326  24.998  1.00  0.00     0.009 A 
ATOM     94  C   UNL A   1      33.095  19.118  23.773  1.00  0.00    -0.018 A 
ATOM     95  C   UNL A   1      34.326  19.122  24.472  1.00  0.00    -0.018 A 
ATOM     96  C   UNL A   1      32.573  17.899  23.312  1.00  0.00     0.009 A 
ATOM     97  C   UNL A   1      35.031  17.920  24.630  1.00  0.00     0.009 A 
ATOM     98  C   UNL A   1      33.277  16.708  23.500  1.00  0.00     0.001 A 
ATOM     99  C   UNL A   1      34.512  16.721  24.142  1.00  0.00     0.001 A 
ENDBRANCH  88  90
ENDBRANCH  86  88
ENDBRANCH  80  81
ENDBRANCH  76  80
ENDBRANCH  72  74
ENDBRANCH  71  72
ENDBRANCH   1  71
TORSDOF 15
ENDMDL
