MODEL 1
REMARK VINA RESULT:     -12.4      0.000      0.000
REMARK SMILES COc1cc(NC(=O)C2CCN(S(=O)(=O)c3cccs3)CC2)c(Cl)cc1C(=O)OCCOC(=O)c1ccc(-c2c3nc(c(-c4c(F)c(F)c(F)c(F)c4F)c4ccc([nH]4)c(-c4c(F)c(F)c(F)c(F)c4F)c4nc(c(-c5c(F)c(F)c(F)c(F)c5F)c5ccc2[nH]5)C=C4)C=C3)cc1
REMARK SMILES IDX 30 1 29 2 27 3 28 4 26 5 3 6 4 7 5 8 25 9 23 10 24 11 2 12
REMARK SMILES IDX 1 13 6 14 7 15 8 17 9 18 10 19 22 20 11 21 21 22 12 23 13 24
REMARK SMILES IDX 14 25 15 26 16 27 17 28 20 29 18 30 19 31 31 32 32 33 33 34
REMARK SMILES IDX 34 35 35 36 36 37 97 38 37 39 96 40 38 41 39 42 40 43 90 44
REMARK SMILES IDX 41 45 95 46 89 47 91 48 42 49 94 50 88 51 87 52 43 54 75 55
REMARK SMILES IDX 55 56 74 57 56 58 59 59 73 60 92 61 57 62 58 63 72 65 93 66
REMARK SMILES IDX 60 67 44 68 45 69 53 70 46 71 47 72 51 73 54 74 48 75 49 76
REMARK SMILES IDX 52 77 50 78 76 79 77 80 85 81 78 82 79 83 83 84 86 85 80 86
REMARK SMILES IDX 81 87 84 88 82 89 61 90 62 91 70 92 63 93 64 94 68 95 71 96
REMARK SMILES IDX 65 97 66 98 69 99 67 100
REMARK H PARENT 6 16 91 53 59 64
REMARK Flexibility Score: inf
ROOT
ATOM      1  C   UNL A   1      35.979  20.256  24.999  1.00  0.00     0.275 C 
ENDROOT
BRANCH   1   2
ATOM      2  O   UNL A   1      34.845  20.941  25.555  1.00  0.00    -0.458 OA
BRANCH   2   3
ATOM      3  C   UNL A   1      33.616  20.572  25.138  1.00  0.00     0.342 C 
ATOM      4  O   UNL A   1      33.064  19.507  25.368  1.00  0.00    -0.246 OA
BRANCH   3   5
ATOM      5  C   UNL A   1      32.910  21.709  24.489  1.00  0.00     0.103 A 
ATOM      6  C   UNL A   1      31.863  22.427  25.088  1.00  0.00     0.135 A 
ATOM      7  C   UNL A   1      31.228  23.429  24.348  1.00  0.00     0.075 A 
ATOM      8  C   UNL A   1      31.697  23.808  23.085  1.00  0.00     0.063 A 
ATOM      9  C   UNL A   1      33.313  22.022  23.179  1.00  0.00     0.042 A 
ATOM     10  C   UNL A   1      32.683  23.034  22.467  1.00  0.00     0.065 A 
ATOM     11  Cl  UNL A   1      33.197  23.345  20.847  1.00  0.00    -0.082 Cl
BRANCH   6  12
ATOM     12  O   UNL A   1      31.571  22.155  26.396  1.00  0.00    -0.496 OA
ATOM     13  C   UNL A   1      32.338  22.778  27.417  1.00  0.00     0.278 C 
ENDBRANCH   6  12
BRANCH   8  14
ATOM     14  N   UNL A   1      31.274  24.982  22.435  1.00  0.00    -0.324 N 
ATOM     15  C   UNL A   1      31.882  26.198  22.311  1.00  0.00     0.227 C 
ATOM     16  H   UNL A   1      30.395  24.915  21.996  1.00  0.00     0.169 HD
ATOM     17  O   UNL A   1      31.352  27.022  21.561  1.00  0.00    -0.274 OA
BRANCH  15  18
ATOM     18  C   UNL A   1      33.197  26.517  23.019  1.00  0.00     0.081 C 
ATOM     19  C   UNL A   1      33.119  26.053  24.474  1.00  0.00     0.030 C 
ATOM     20  C   UNL A   1      33.572  27.992  22.904  1.00  0.00     0.030 C 
ATOM     21  C   UNL A   1      32.308  27.009  25.346  1.00  0.00     0.103 C 
ATOM     22  C   UNL A   1      32.777  28.889  23.833  1.00  0.00     0.103 C 
ATOM     23  N   UNL A   1      32.871  28.384  25.229  1.00  0.00    -0.197 NA
BRANCH  23  24
ATOM     24  S   UNL A   1      32.185  29.458  26.388  1.00  0.00     0.252 S 
ATOM     25  O   UNL A   1      31.458  30.475  25.666  1.00  0.00    -0.206 OA
ATOM     26  O   UNL A   1      31.545  28.656  27.415  1.00  0.00    -0.206 OA
BRANCH  24  27
ATOM     27  C   UNL A   1      33.542  30.330  27.153  1.00  0.00     0.135 A 
ATOM     28  C   UNL A   1      33.631  31.628  27.628  1.00  0.00     0.033 A 
ATOM     29  S   UNL A   1      35.027  29.502  27.319  1.00  0.00    -0.131 S 
ATOM     30  C   UNL A   1      34.938  31.951  28.088  1.00  0.00     0.013 A 
ATOM     31  C   UNL A   1      35.791  30.874  28.000  1.00  0.00     0.066 A 
ENDBRANCH  24  27
ENDBRANCH  23  24
ENDBRANCH  15  18
ENDBRANCH   8  14
ENDBRANCH   3   5
ENDBRANCH   2   3
ENDBRANCH   1   2
BRANCH   1  32
ATOM     32  C   UNL A   1      37.036  21.282  24.599  1.00  0.00     0.275 C 
BRANCH  32  33
ATOM     33  O   UNL A   1      37.539  21.959  25.768  1.00  0.00    -0.458 OA
BRANCH  33  34
ATOM     34  C   UNL A   1      38.801  21.635  26.127  1.00  0.00     0.338 C 
ATOM     35  O   UNL A   1      39.400  20.594  25.922  1.00  0.00    -0.246 OA
BRANCH  34  36
ATOM     36  C   UNL A   1      39.458  22.815  26.707  1.00  0.00     0.060 A 
ATOM     37  C   UNL A   1      39.069  24.060  26.226  1.00  0.00     0.016 A 
ATOM     38  C   UNL A   1      40.531  22.707  27.586  1.00  0.00     0.016 A 
ATOM     39  C   UNL A   1      39.787  25.205  26.552  1.00  0.00     0.010 A 
ATOM     40  C   UNL A   1      41.210  23.871  27.977  1.00  0.00     0.010 A 
ATOM     41  C   UNL A   1      40.867  25.129  27.440  1.00  0.00    -0.014 A 
BRANCH  41  42
ATOM     42  C   UNL A   1      41.661  26.352  27.750  1.00  0.00     0.031 A 
ATOM     43  C   UNL A   1      41.085  27.419  28.643  1.00  0.00     0.074 A 
ATOM     44  C   UNL A   1      42.911  26.499  27.268  1.00  0.00     0.049 A 
ATOM     45  N   UNL A   1      41.542  28.617  28.910  1.00  0.00    -0.248 NA
ATOM     46  C   UNL A   1      39.817  27.100  29.319  1.00  0.00     0.031 C 
ATOM     47  C   UNL A   1      43.621  25.523  26.440  1.00  0.00     0.029 A 
ATOM     48  N   UNL A   1      43.813  27.526  27.412  1.00  0.00    -0.354 N 
ATOM     49  C   UNL A   1      40.594  29.213  29.734  1.00  0.00     0.074 A 
ATOM     50  C   UNL A   1      39.532  28.247  29.919  1.00  0.00     0.031 C 
ATOM     51  C   UNL A   1      44.855  25.980  26.179  1.00  0.00     0.029 A 
ATOM     52  C   UNL A   1      44.995  27.318  26.743  1.00  0.00     0.049 A 
ATOM     53  H   UNL A   1      43.629  28.335  27.943  1.00  0.00     0.167 HD
ATOM     54  C   UNL A   1      40.610  30.451  30.285  1.00  0.00     0.037 A 
ATOM     55  C   UNL A   1      46.057  28.127  26.563  1.00  0.00     0.037 A 
ATOM     56  C   UNL A   1      41.695  31.388  30.145  1.00  0.00     0.049 A 
ATOM     57  C   UNL A   1      46.034  29.511  27.154  1.00  0.00     0.074 A 
ATOM     58  C   UNL A   1      41.811  32.660  30.678  1.00  0.00     0.029 A 
ATOM     59  N   UNL A   1      42.861  31.148  29.432  1.00  0.00    -0.354 N 
ATOM     60  N   UNL A   1      45.111  30.083  27.886  1.00  0.00    -0.248 NA
ATOM     61  C   UNL A   1      47.197  30.367  26.877  1.00  0.00     0.031 C 
ATOM     62  C   UNL A   1      43.027  33.207  30.252  1.00  0.00     0.029 A 
ATOM     63  C   UNL A   1      43.693  32.255  29.498  1.00  0.00     0.049 A 
ATOM     64  H   UNL A   1      43.066  30.315  28.948  1.00  0.00     0.167 HD
ATOM     65  C   UNL A   1      45.586  31.356  28.173  1.00  0.00     0.074 A 
ATOM     66  C   UNL A   1      46.889  31.465  27.552  1.00  0.00     0.031 C 
ATOM     67  C   UNL A   1      44.991  32.347  28.880  1.00  0.00     0.037 A 
BRANCH  54  68
ATOM     68  C   UNL A   1      39.400  30.882  31.063  1.00  0.00     0.064 A 
ATOM     69  C   UNL A   1      38.400  31.691  30.503  1.00  0.00     0.173 A 
ATOM     70  C   UNL A   1      39.223  30.445  32.387  1.00  0.00     0.173 A 
ATOM     71  F   UNL A   1      38.526  32.147  29.248  1.00  0.00    -0.203 F 
ATOM     72  C   UNL A   1      37.285  32.070  31.246  1.00  0.00     0.198 A 
ATOM     73  C   UNL A   1      38.092  30.801  33.116  1.00  0.00     0.198 A 
ATOM     74  F   UNL A   1      40.146  29.665  32.970  1.00  0.00    -0.203 F 
ATOM     75  F   UNL A   1      36.368  32.884  30.707  1.00  0.00    -0.200 F 
ATOM     76  C   UNL A   1      37.128  31.618  32.549  1.00  0.00     0.200 A 
ATOM     77  F   UNL A   1      37.936  30.351  34.369  1.00  0.00    -0.200 F 
ATOM     78  F   UNL A   1      36.050  31.979  33.260  1.00  0.00    -0.200 F 
ENDBRANCH  54  68
BRANCH  55  79
ATOM     79  C   UNL A   1      47.215  27.665  25.753  1.00  0.00     0.064 A 
ATOM     80  C   UNL A   1      48.345  27.101  26.362  1.00  0.00     0.173 A 
ATOM     81  C   UNL A   1      47.220  27.783  24.355  1.00  0.00     0.173 A 
ATOM     82  F   UNL A   1      48.403  26.992  27.696  1.00  0.00    -0.203 F 
ATOM     83  C   UNL A   1      49.439  26.684  25.603  1.00  0.00     0.198 A 
ATOM     84  C   UNL A   1      48.298  27.335  23.595  1.00  0.00     0.198 A 
ATOM     85  F   UNL A   1      46.165  28.320  23.723  1.00  0.00    -0.203 F 
ATOM     86  F   UNL A   1      50.526  26.192  26.212  1.00  0.00    -0.200 F 
ATOM     87  C   UNL A   1      49.411  26.794  24.221  1.00  0.00     0.200 A 
ATOM     88  F   UNL A   1      48.260  27.430  22.260  1.00  0.00    -0.200 F 
ATOM     89  F   UNL A   1      50.458  26.386  23.491  1.00  0.00    -0.200 F 
ENDBRANCH  55  79
BRANCH  67  90
ATOM     90  C   UNL A   1      45.764  33.622  29.055  1.00  0.00     0.064 A 
ATOM     91  C   UNL A   1      46.661  33.802  30.119  1.00  0.00     0.173 A 
ATOM     92  C   UNL A   1      45.623  34.669  28.131  1.00  0.00     0.173 A 
ATOM     93  F   UNL A   1      46.818  32.837  31.038  1.00  0.00    -0.203 F 
ATOM     94  C   UNL A   1      47.365  34.993  30.267  1.00  0.00     0.198 A 
ATOM     95  C   UNL A   1      46.353  35.847  28.266  1.00  0.00     0.198 A 
ATOM     96  F   UNL A   1      44.783  34.546  27.092  1.00  0.00    -0.203 F 
ATOM     97  F   UNL A   1      48.177  35.162  31.321  1.00  0.00    -0.200 F 
ATOM     98  C   UNL A   1      47.215  36.012  29.338  1.00  0.00     0.200 A 
ATOM     99  F   UNL A   1      46.216  36.825  27.360  1.00  0.00    -0.200 F 
ATOM    100  F   UNL A   1      47.898  37.157  29.481  1.00  0.00    -0.200 F 
ENDBRANCH  67  90
ENDBRANCH  41  42
ENDBRANCH  34  36
ENDBRANCH  33  34
ENDBRANCH  32  33
ENDBRANCH   1  32
TORSDOF 16
ENDMDL
MODEL 2
REMARK VINA RESULT:     -12.1      3.070      8.543
REMARK SMILES COc1cc(NC(=O)C2CCN(S(=O)(=O)c3cccs3)CC2)c(Cl)cc1C(=O)OCCOC(=O)c1ccc(-c2c3nc(c(-c4c(F)c(F)c(F)c(F)c4F)c4ccc([nH]4)c(-c4c(F)c(F)c(F)c(F)c4F)c4nc(c(-c5c(F)c(F)c(F)c(F)c5F)c5ccc2[nH]5)C=C4)C=C3)cc1
REMARK SMILES IDX 30 1 29 2 27 3 28 4 26 5 3 6 4 7 5 8 25 9 23 10 24 11 2 12
REMARK SMILES IDX 1 13 6 14 7 15 8 17 9 18 10 19 22 20 11 21 21 22 12 23 13 24
REMARK SMILES IDX 14 25 15 26 16 27 17 28 20 29 18 30 19 31 31 32 32 33 33 34
REMARK SMILES IDX 34 35 35 36 36 37 97 38 37 39 96 40 38 41 39 42 40 43 90 44
REMARK SMILES IDX 41 45 95 46 89 47 91 48 42 49 94 50 88 51 87 52 43 54 75 55
REMARK SMILES IDX 55 56 74 57 56 58 59 59 73 60 92 61 57 62 58 63 72 65 93 66
REMARK SMILES IDX 60 67 44 68 45 69 53 70 46 71 47 72 51 73 54 74 48 75 49 76
REMARK SMILES IDX 52 77 50 78 76 79 77 80 85 81 78 82 79 83 83 84 86 85 80 86
REMARK SMILES IDX 81 87 84 88 82 89 61 90 62 91 70 92 63 93 64 94 68 95 71 96
REMARK SMILES IDX 65 97 66 98 69 99 67 100
REMARK H PARENT 6 16 91 53 59 64
REMARK Flexibility Score: inf
ROOT
ATOM      1  C   UNL A   1      34.285  34.334  30.661  1.00  0.00     0.275 C 
ENDROOT
BRANCH   1   2
ATOM      2  O   UNL A   1      34.061  33.167  29.854  1.00  0.00    -0.458 OA
BRANCH   2   3
ATOM      3  C   UNL A   1      34.354  33.240  28.540  1.00  0.00     0.342 C 
ATOM      4  O   UNL A   1      35.155  34.001  28.018  1.00  0.00    -0.246 OA
BRANCH   3   5
ATOM      5  C   UNL A   1      33.699  32.138  27.786  1.00  0.00     0.103 A 
ATOM      6  C   UNL A   1      34.271  30.870  27.596  1.00  0.00     0.135 A 
ATOM      7  C   UNL A   1      33.589  29.939  26.804  1.00  0.00     0.075 A 
ATOM      8  C   UNL A   1      32.306  30.204  26.312  1.00  0.00     0.063 A 
ATOM      9  C   UNL A   1      32.455  32.439  27.203  1.00  0.00     0.042 A 
ATOM     10  C   UNL A   1      31.784  31.494  26.438  1.00  0.00     0.065 A 
ATOM     11  Cl  UNL A   1      30.278  31.937  25.716  1.00  0.00    -0.082 Cl
BRANCH   6  12
ATOM     12  O   UNL A   1      35.432  30.589  28.261  1.00  0.00    -0.496 OA
ATOM     13  C   UNL A   1      36.051  29.326  28.062  1.00  0.00     0.278 C 
ENDBRANCH   6  12
BRANCH   8  14
ATOM     14  N   UNL A   1      31.481  29.208  25.761  1.00  0.00    -0.324 N 
ATOM     15  C   UNL A   1      31.795  28.006  25.193  1.00  0.00     0.227 C 
ATOM     16  H   UNL A   1      30.517  29.409  25.791  1.00  0.00     0.169 HD
ATOM     17  O   UNL A   1      30.860  27.251  24.914  1.00  0.00    -0.274 OA
BRANCH  15  18
ATOM     18  C   UNL A   1      33.242  27.578  24.962  1.00  0.00     0.081 C 
ATOM     19  C   UNL A   1      33.504  27.453  23.461  1.00  0.00     0.030 C 
ATOM     20  C   UNL A   1      33.594  26.299  25.717  1.00  0.00     0.030 C 
ATOM     21  C   UNL A   1      32.931  26.164  22.877  1.00  0.00     0.103 C 
ATOM     22  C   UNL A   1      33.049  25.045  25.062  1.00  0.00     0.103 C 
ATOM     23  N   UNL A   1      33.463  24.996  23.634  1.00  0.00    -0.197 NA
BRANCH  23  24
ATOM     24  S   UNL A   1      33.080  23.504  22.865  1.00  0.00     0.252 S 
ATOM     25  O   UNL A   1      31.677  23.243  23.091  1.00  0.00    -0.206 OA
ATOM     26  O   UNL A   1      33.637  23.536  21.526  1.00  0.00    -0.206 OA
BRANCH  24  27
ATOM     27  C   UNL A   1      33.929  22.221  23.771  1.00  0.00     0.135 A 
ATOM     28  C   UNL A   1      33.481  21.001  24.248  1.00  0.00     0.033 A 
ATOM     29  S   UNL A   1      35.561  22.495  24.196  1.00  0.00    -0.131 S 
ATOM     30  C   UNL A   1      34.471  20.313  25.002  1.00  0.00     0.013 A 
ATOM     31  C   UNL A   1      35.661  21.004  25.031  1.00  0.00     0.066 A 
ENDBRANCH  24  27
ENDBRANCH  23  24
ENDBRANCH  15  18
ENDBRANCH   8  14
ENDBRANCH   3   5
ENDBRANCH   2   3
ENDBRANCH   1   2
BRANCH   1  32
ATOM     32  C   UNL A   1      34.543  33.905  32.103  1.00  0.00     0.275 C 
BRANCH  32  33
ATOM     33  O   UNL A   1      34.987  32.534  32.141  1.00  0.00    -0.458 OA
BRANCH  33  34
ATOM     34  C   UNL A   1      36.096  32.304  32.879  1.00  0.00     0.338 C 
ATOM     35  O   UNL A   1      36.255  32.482  34.074  1.00  0.00    -0.246 OA
BRANCH  34  36
ATOM     36  C   UNL A   1      37.105  31.638  32.045  1.00  0.00     0.060 A 
ATOM     37  C   UNL A   1      38.009  30.800  32.690  1.00  0.00     0.016 A 
ATOM     38  C   UNL A   1      37.266  31.937  30.697  1.00  0.00     0.016 A 
ATOM     39  C   UNL A   1      39.124  30.309  32.022  1.00  0.00     0.010 A 
ATOM     40  C   UNL A   1      38.350  31.381  30.000  1.00  0.00     0.010 A 
ATOM     41  C   UNL A   1      39.309  30.586  30.662  1.00  0.00    -0.014 A 
BRANCH  41  42
ATOM     42  C   UNL A   1      40.531  30.095  29.962  1.00  0.00     0.031 A 
ATOM     43  C   UNL A   1      41.723  31.000  29.799  1.00  0.00     0.074 A 
ATOM     44  C   UNL A   1      40.596  28.829  29.504  1.00  0.00     0.049 A 
ATOM     45  N   UNL A   1      42.813  30.822  29.096  1.00  0.00    -0.248 NA
ATOM     46  C   UNL A   1      41.678  32.285  30.517  1.00  0.00     0.031 C 
ATOM     47  C   UNL A   1      39.543  27.821  29.641  1.00  0.00     0.029 A 
ATOM     48  N   UNL A   1      41.597  28.168  28.832  1.00  0.00    -0.354 N 
ATOM     49  C   UNL A   1      43.554  31.990  29.238  1.00  0.00     0.074 A 
ATOM     50  C   UNL A   1      42.786  32.873  30.091  1.00  0.00     0.031 C 
ATOM     51  C   UNL A   1      39.965  26.666  29.106  1.00  0.00     0.029 A 
ATOM     52  C   UNL A   1      41.279  26.872  28.508  1.00  0.00     0.049 A 
ATOM     53  H   UNL A   1      42.460  28.585  28.605  1.00  0.00     0.167 HD
ATOM     54  C   UNL A   1      44.763  32.295  28.707  1.00  0.00     0.037 A 
ATOM     55  C   UNL A   1      41.948  25.961  27.774  1.00  0.00     0.037 A 
ATOM     56  C   UNL A   1      45.549  31.393  27.906  1.00  0.00     0.049 A 
ATOM     57  C   UNL A   1      43.270  26.337  27.164  1.00  0.00     0.074 A 
ATOM     58  C   UNL A   1      46.792  31.605  27.335  1.00  0.00     0.029 A 
ATOM     59  N   UNL A   1      45.174  30.099  27.573  1.00  0.00    -0.354 N 
ATOM     60  N   UNL A   1      43.936  27.461  27.260  1.00  0.00    -0.248 NA
ATOM     61  C   UNL A   1      43.924  25.321  26.326  1.00  0.00     0.031 C 
ATOM     62  C   UNL A   1      47.151  30.455  26.622  1.00  0.00     0.029 A 
ATOM     63  C   UNL A   1      46.156  29.507  26.793  1.00  0.00     0.049 A 
ATOM     64  H   UNL A   1      44.335  29.665  27.851  1.00  0.00     0.167 HD
ATOM     65  C   UNL A   1      45.094  27.284  26.514  1.00  0.00     0.074 A 
ATOM     66  C   UNL A   1      45.050  25.936  25.988  1.00  0.00     0.031 C 
ATOM     67  C   UNL A   1      46.100  28.162  26.281  1.00  0.00     0.037 A 
BRANCH  54  68
ATOM     68  C   UNL A   1      45.297  33.679  28.943  1.00  0.00     0.064 A 
ATOM     69  C   UNL A   1      45.004  34.750  28.087  1.00  0.00     0.173 A 
ATOM     70  C   UNL A   1      46.091  33.942  30.072  1.00  0.00     0.173 A 
ATOM     71  F   UNL A   1      44.261  34.552  26.987  1.00  0.00    -0.203 F 
ATOM     72  C   UNL A   1      45.508  36.025  28.334  1.00  0.00     0.198 A 
ATOM     73  C   UNL A   1      46.568  35.223  30.333  1.00  0.00     0.198 A 
ATOM     74  F   UNL A   1      46.398  32.955  30.928  1.00  0.00    -0.203 F 
ATOM     75  F   UNL A   1      45.257  37.021  27.475  1.00  0.00    -0.200 F 
ATOM     76  C   UNL A   1      46.283  36.262  29.461  1.00  0.00     0.200 A 
ATOM     77  F   UNL A   1      47.305  35.453  31.429  1.00  0.00    -0.200 F 
ATOM     78  F   UNL A   1      46.762  37.491  29.700  1.00  0.00    -0.200 F 
ENDBRANCH  54  68
BRANCH  55  79
ATOM     79  C   UNL A   1      41.356  24.617  27.539  1.00  0.00     0.064 A 
ATOM     80  C   UNL A   1      41.910  23.470  28.126  1.00  0.00     0.173 A 
ATOM     81  C   UNL A   1      40.230  24.449  26.719  1.00  0.00     0.173 A 
ATOM     82  F   UNL A   1      43.003  23.572  28.894  1.00  0.00    -0.203 F 
ATOM     83  C   UNL A   1      41.367  22.207  27.891  1.00  0.00     0.198 A 
ATOM     84  C   UNL A   1      39.667  23.192  26.512  1.00  0.00     0.198 A 
ATOM     85  F   UNL A   1      39.664  25.513  26.130  1.00  0.00    -0.203 F 
ATOM     86  F   UNL A   1      41.943  21.123  28.425  1.00  0.00    -0.200 F 
ATOM     87  C   UNL A   1      40.241  22.071  27.092  1.00  0.00     0.200 A 
ATOM     88  F   UNL A   1      38.571  23.067  25.752  1.00  0.00    -0.200 F 
ATOM     89  F   UNL A   1      39.714  20.858  26.873  1.00  0.00    -0.200 F 
ENDBRANCH  55  79
BRANCH  67  90
ATOM     90  C   UNL A   1      47.254  27.677  25.452  1.00  0.00     0.064 A 
ATOM     91  C   UNL A   1      48.361  27.038  26.031  1.00  0.00     0.173 A 
ATOM     92  C   UNL A   1      47.241  27.832  24.058  1.00  0.00     0.173 A 
ATOM     93  F   UNL A   1      48.429  26.880  27.362  1.00  0.00    -0.203 F 
ATOM     94  C   UNL A   1      49.424  26.599  25.246  1.00  0.00     0.198 A 
ATOM     95  C   UNL A   1      48.291  27.364  23.274  1.00  0.00     0.198 A 
ATOM     96  F   UNL A   1      46.202  28.431  23.454  1.00  0.00    -0.203 F 
ATOM     97  F   UNL A   1      50.495  26.038  25.826  1.00  0.00    -0.200 F 
ATOM     98  C   UNL A   1      49.385  26.757  23.869  1.00  0.00     0.200 A 
ATOM     99  F   UNL A   1      48.246  27.507  21.942  1.00  0.00    -0.200 F 
ATOM    100  F   UNL A   1      50.408  26.330  23.115  1.00  0.00    -0.200 F 
ENDBRANCH  67  90
ENDBRANCH  41  42
ENDBRANCH  34  36
ENDBRANCH  33  34
ENDBRANCH  32  33
ENDBRANCH   1  32
TORSDOF 16
ENDMDL
MODEL 3
REMARK VINA RESULT:     -12.0      4.488      8.666
REMARK SMILES COc1cc(NC(=O)C2CCN(S(=O)(=O)c3cccs3)CC2)c(Cl)cc1C(=O)OCCOC(=O)c1ccc(-c2c3nc(c(-c4c(F)c(F)c(F)c(F)c4F)c4ccc([nH]4)c(-c4c(F)c(F)c(F)c(F)c4F)c4nc(c(-c5c(F)c(F)c(F)c(F)c5F)c5ccc2[nH]5)C=C4)C=C3)cc1
REMARK SMILES IDX 30 1 29 2 27 3 28 4 26 5 3 6 4 7 5 8 25 9 23 10 24 11 2 12
REMARK SMILES IDX 1 13 6 14 7 15 8 17 9 18 10 19 22 20 11 21 21 22 12 23 13 24
REMARK SMILES IDX 14 25 15 26 16 27 17 28 20 29 18 30 19 31 31 32 32 33 33 34
REMARK SMILES IDX 34 35 35 36 36 37 97 38 37 39 96 40 38 41 39 42 40 43 90 44
REMARK SMILES IDX 41 45 95 46 89 47 91 48 42 49 94 50 88 51 87 52 43 54 75 55
REMARK SMILES IDX 55 56 74 57 56 58 59 59 73 60 92 61 57 62 58 63 72 65 93 66
REMARK SMILES IDX 60 67 44 68 45 69 53 70 46 71 47 72 51 73 54 74 48 75 49 76
REMARK SMILES IDX 52 77 50 78 76 79 77 80 85 81 78 82 79 83 83 84 86 85 80 86
REMARK SMILES IDX 81 87 84 88 82 89 61 90 62 91 70 92 63 93 64 94 68 95 71 96
REMARK SMILES IDX 65 97 66 98 69 99 67 100
REMARK H PARENT 6 16 91 53 59 64
REMARK Flexibility Score: inf
ROOT
ATOM      1  C   UNL A   1      42.654  20.617  26.321  1.00  0.00     0.275 C 
ENDROOT
BRANCH   1   2
ATOM      2  O   UNL A   1      41.275  20.666  25.925  1.00  0.00    -0.458 OA
BRANCH   2   3
ATOM      3  C   UNL A   1      40.385  21.186  26.796  1.00  0.00     0.342 C 
ATOM      4  O   UNL A   1      40.601  21.484  27.960  1.00  0.00    -0.246 OA
BRANCH   3   5
ATOM      5  C   UNL A   1      39.109  21.529  26.112  1.00  0.00     0.103 A 
ATOM      6  C   UNL A   1      38.652  22.842  25.919  1.00  0.00     0.135 A 
ATOM      7  C   UNL A   1      37.399  23.036  25.326  1.00  0.00     0.075 A 
ATOM      8  C   UNL A   1      36.663  21.961  24.815  1.00  0.00     0.063 A 
ATOM      9  C   UNL A   1      38.320  20.444  25.690  1.00  0.00     0.042 A 
ATOM     10  C   UNL A   1      37.088  20.657  25.086  1.00  0.00     0.065 A 
ATOM     11  Cl  UNL A   1      36.147  19.283  24.626  1.00  0.00    -0.082 Cl
BRANCH   6  12
ATOM     12  O   UNL A   1      39.494  23.866  26.254  1.00  0.00    -0.496 OA
ATOM     13  C   UNL A   1      39.064  24.827  27.208  1.00  0.00     0.278 C 
ENDBRANCH   6  12
BRANCH   8  14
ATOM     14  N   UNL A   1      35.550  22.132  23.972  1.00  0.00    -0.324 N 
ATOM     15  C   UNL A   1      34.231  22.325  24.269  1.00  0.00     0.227 C 
ATOM     16  H   UNL A   1      35.755  22.109  23.009  1.00  0.00     0.169 HD
ATOM     17  O   UNL A   1      33.474  22.591  23.332  1.00  0.00    -0.274 OA
BRANCH  15  18
ATOM     18  C   UNL A   1      33.713  22.279  25.705  1.00  0.00     0.081 C 
ATOM     19  C   UNL A   1      32.194  22.105  25.694  1.00  0.00     0.030 C 
ATOM     20  C   UNL A   1      34.148  23.496  26.517  1.00  0.00     0.030 C 
ATOM     21  C   UNL A   1      31.462  23.406  25.373  1.00  0.00     0.103 C 
ATOM     22  C   UNL A   1      33.350  24.746  26.199  1.00  0.00     0.103 C 
ATOM     23  N   UNL A   1      31.895  24.466  26.326  1.00  0.00    -0.197 NA
BRANCH  23  24
ATOM     24  S   UNL A   1      30.916  25.878  26.201  1.00  0.00     0.252 S 
ATOM     25  O   UNL A   1      29.535  25.461  26.267  1.00  0.00    -0.206 OA
ATOM     26  O   UNL A   1      31.450  26.873  27.113  1.00  0.00    -0.206 OA
BRANCH  24  27
ATOM     27  C   UNL A   1      31.120  26.504  24.542  1.00  0.00     0.135 A 
ATOM     28  C   UNL A   1      32.246  26.604  23.743  1.00  0.00     0.033 A 
ATOM     29  S   UNL A   1      29.743  27.148  23.760  1.00  0.00    -0.131 S 
ATOM     30  C   UNL A   1      31.981  27.252  22.505  1.00  0.00     0.013 A 
ATOM     31  C   UNL A   1      30.650  27.577  22.374  1.00  0.00     0.066 A 
ENDBRANCH  24  27
ENDBRANCH  23  24
ENDBRANCH  15  18
ENDBRANCH   8  14
ENDBRANCH   3   5
ENDBRANCH   2   3
ENDBRANCH   1   2
BRANCH   1  32
ATOM     32  C   UNL A   1      43.479  21.484  25.373  1.00  0.00     0.275 C 
BRANCH  32  33
ATOM     33  O   UNL A   1      42.887  22.792  25.255  1.00  0.00    -0.458 OA
BRANCH  33  34
ATOM     34  C   UNL A   1      43.762  23.819  25.165  1.00  0.00     0.338 C 
ATOM     35  O   UNL A   1      44.526  24.079  24.253  1.00  0.00    -0.246 OA
BRANCH  34  36
ATOM     36  C   UNL A   1      43.569  24.723  26.307  1.00  0.00     0.060 A 
ATOM     37  C   UNL A   1      42.862  24.228  27.397  1.00  0.00     0.016 A 
ATOM     38  C   UNL A   1      43.933  26.064  26.259  1.00  0.00     0.016 A 
ATOM     39  C   UNL A   1      42.443  25.074  28.417  1.00  0.00     0.010 A 
ATOM     40  C   UNL A   1      43.577  26.905  27.325  1.00  0.00     0.010 A 
ATOM     41  C   UNL A   1      42.801  26.428  28.400  1.00  0.00    -0.014 A 
BRANCH  41  42
ATOM     42  C   UNL A   1      42.311  27.339  29.474  1.00  0.00     0.031 A 
ATOM     43  C   UNL A   1      43.081  27.473  30.760  1.00  0.00     0.074 A 
ATOM     44  C   UNL A   1      41.199  28.079  29.290  1.00  0.00     0.049 A 
ATOM     45  N   UNL A   1      42.749  28.085  31.869  1.00  0.00    -0.248 NA
ATOM     46  C   UNL A   1      44.399  26.820  30.810  1.00  0.00     0.031 C 
ATOM     47  C   UNL A   1      40.383  28.097  28.075  1.00  0.00     0.029 A 
ATOM     48  N   UNL A   1      40.563  28.966  30.126  1.00  0.00    -0.354 N 
ATOM     49  C   UNL A   1      43.786  27.844  32.764  1.00  0.00     0.074 A 
ATOM     50  C   UNL A   1      44.756  27.024  32.071  1.00  0.00     0.031 C 
ATOM     51  C   UNL A   1      39.381  28.975  28.230  1.00  0.00     0.029 A 
ATOM     52  C   UNL A   1      39.426  29.515  29.584  1.00  0.00     0.049 A 
ATOM     53  H   UNL A   1      40.891  29.186  31.028  1.00  0.00     0.167 HD
ATOM     54  C   UNL A   1      43.914  28.269  34.044  1.00  0.00     0.037 A 
ATOM     55  C   UNL A   1      38.499  30.327  30.126  1.00  0.00     0.037 A 
ATOM     56  C   UNL A   1      42.974  29.132  34.712  1.00  0.00     0.049 A 
ATOM     57  C   UNL A   1      38.645  30.754  31.561  1.00  0.00     0.074 A 
ATOM     58  C   UNL A   1      43.025  29.630  36.003  1.00  0.00     0.029 A 
ATOM     59  N   UNL A   1      41.818  29.639  34.136  1.00  0.00    -0.354 N 
ATOM     60  N   UNL A   1      39.600  30.477  32.414  1.00  0.00    -0.248 NA
ATOM     61  C   UNL A   1      37.572  31.594  32.113  1.00  0.00     0.031 C 
ATOM     62  C   UNL A   1      41.879  30.403  36.222  1.00  0.00     0.029 A 
ATOM     63  C   UNL A   1      41.141  30.431  35.051  1.00  0.00     0.049 A 
ATOM     64  H   UNL A   1      41.523  29.462  33.213  1.00  0.00     0.167 HD
ATOM     65  C   UNL A   1      39.256  31.121  33.595  1.00  0.00     0.074 A 
ATOM     66  C   UNL A   1      38.013  31.819  33.343  1.00  0.00     0.031 C 
ATOM     67  C   UNL A   1      39.908  31.126  34.783  1.00  0.00     0.037 A 
BRANCH  54  68
ATOM     68  C   UNL A   1      45.099  27.777  34.825  1.00  0.00     0.064 A 
ATOM     69  C   UNL A   1      45.038  26.636  35.638  1.00  0.00     0.173 A 
ATOM     70  C   UNL A   1      46.332  28.444  34.727  1.00  0.00     0.173 A 
ATOM     71  F   UNL A   1      43.882  25.968  35.777  1.00  0.00    -0.203 F 
ATOM     72  C   UNL A   1      46.155  26.198  36.345  1.00  0.00     0.198 A 
ATOM     73  C   UNL A   1      47.454  27.987  35.412  1.00  0.00     0.198 A 
ATOM     74  F   UNL A   1      46.449  29.539  33.959  1.00  0.00    -0.203 F 
ATOM     75  F   UNL A   1      46.059  25.135  37.155  1.00  0.00    -0.200 F 
ATOM     76  C   UNL A   1      47.363  26.869  36.226  1.00  0.00     0.200 A 
ATOM     77  F   UNL A   1      48.623  28.628  35.283  1.00  0.00    -0.200 F 
ATOM     78  F   UNL A   1      48.439  26.442  36.903  1.00  0.00    -0.200 F 
ENDBRANCH  54  68
BRANCH  55  79
ATOM     79  C   UNL A   1      37.324  30.756  29.321  1.00  0.00     0.064 A 
ATOM     80  C   UNL A   1      36.276  29.868  29.039  1.00  0.00     0.173 A 
ATOM     81  C   UNL A   1      37.228  32.060  28.811  1.00  0.00     0.173 A 
ATOM     82  F   UNL A   1      36.334  28.603  29.477  1.00  0.00    -0.203 F 
ATOM     83  C   UNL A   1      35.184  30.265  28.268  1.00  0.00     0.198 A 
ATOM     84  C   UNL A   1      36.120  32.465  28.070  1.00  0.00     0.198 A 
ATOM     85  F   UNL A   1      38.205  32.948  29.048  1.00  0.00    -0.203 F 
ATOM     86  F   UNL A   1      34.219  29.384  27.973  1.00  0.00    -0.200 F 
ATOM     87  C   UNL A   1      35.103  31.565  27.792  1.00  0.00     0.200 A 
ATOM     88  F   UNL A   1      36.039  33.726  27.625  1.00  0.00    -0.200 F 
ATOM     89  F   UNL A   1      34.049  31.949  27.058  1.00  0.00    -0.200 F 
ENDBRANCH  55  79
BRANCH  67  90
ATOM     90  C   UNL A   1      39.308  31.945  35.889  1.00  0.00     0.064 A 
ATOM     91  C   UNL A   1      39.647  33.294  36.075  1.00  0.00     0.173 A 
ATOM     92  C   UNL A   1      38.365  31.379  36.760  1.00  0.00     0.173 A 
ATOM     93  F   UNL A   1      40.557  33.877  35.279  1.00  0.00    -0.203 F 
ATOM     94  C   UNL A   1      39.084  34.036  37.110  1.00  0.00     0.198 A 
ATOM     95  C   UNL A   1      37.781  32.133  37.774  1.00  0.00     0.198 A 
ATOM     96  F   UNL A   1      38.001  30.095  36.621  1.00  0.00    -0.203 F 
ATOM     97  F   UNL A   1      39.462  35.308  37.300  1.00  0.00    -0.200 F 
ATOM     98  C   UNL A   1      38.148  33.458  37.953  1.00  0.00     0.200 A 
ATOM     99  F   UNL A   1      36.867  31.576  38.580  1.00  0.00    -0.200 F 
ATOM    100  F   UNL A   1      37.604  34.176  38.946  1.00  0.00    -0.200 F 
ENDBRANCH  67  90
ENDBRANCH  41  42
ENDBRANCH  34  36
ENDBRANCH  33  34
ENDBRANCH  32  33
ENDBRANCH   1  32
TORSDOF 16
ENDMDL
