MODEL 1
REMARK VINA RESULT:     -10.9      0.000      0.000
REMARK SMILES COC(=O)C[C@H](NC(=O)N(C)C[C@@H]1CCC[N@H+]1C)C(=O)OCCOC(=O)c1ccc(-c2c3nc(c(-c4c(F)c(F)c(F)c(F)c4F)c4ccc([nH]4)c(-c4c(F)c(F)c(F)c(F)c4F)c4nc(c(-c5c(F)c(F)c(F)c(F)c5F)c5ccc2[nH]5)C=C4)C=C3)cc1
REMARK SMILES IDX 22 1 21 2 19 3 20 4 6 5 5 6 3 7 4 8 2 9 1 10 7 11 8 12 9 14
REMARK SMILES IDX 10 15 11 16 12 17 13 18 14 19 17 20 15 21 16 22 18 23 23 25
REMARK SMILES IDX 24 26 25 27 26 28 27 29 28 30 89 31 29 32 88 33 30 34 31 35
REMARK SMILES IDX 32 36 82 37 33 38 87 39 81 40 83 41 34 42 86 43 80 44 79 45
REMARK SMILES IDX 35 47 67 48 47 49 66 50 48 51 51 52 65 53 84 54 49 55 50 56
REMARK SMILES IDX 64 58 85 59 52 60 36 61 37 62 45 63 38 64 39 65 43 66 46 67
REMARK SMILES IDX 40 68 41 69 44 70 42 71 68 72 69 73 77 74 70 75 71 76 75 77
REMARK SMILES IDX 78 78 72 79 73 80 76 81 74 82 53 83 54 84 62 85 55 86 56 87
REMARK SMILES IDX 60 88 63 89 57 90 58 91 61 92 59 93
REMARK H PARENT 7 13 17 24 83 46 51 57
REMARK Flexibility Score: inf
ROOT
ATOM      1  C   UNL A   1      36.289  22.554  23.881  1.00  0.00     0.274 C 
ENDROOT
BRANCH   1   2
ATOM      2  O   UNL A   1      34.897  22.198  23.828  1.00  0.00    -0.461 OA
BRANCH   2   3
ATOM      3  C   UNL A   1      34.154  22.305  24.961  1.00  0.00     0.329 C 
ATOM      4  O   UNL A   1      34.371  23.116  25.853  1.00  0.00    -0.250 OA
BRANCH   3   5
ATOM      5  C   UNL A   1      33.012  21.257  25.007  1.00  0.00     0.204 C 
BRANCH   5   6
ATOM      6  C   UNL A   1      32.627  20.557  23.702  1.00  0.00     0.159 C 
BRANCH   6   7
ATOM      7  C   UNL A   1      32.433  19.076  23.869  1.00  0.00     0.308 C 
ATOM      8  O   UNL A   1      32.486  18.269  22.954  1.00  0.00    -0.252 OA
BRANCH   7   9
ATOM      9  O   UNL A   1      32.154  18.794  25.170  1.00  0.00    -0.469 OA
ATOM     10  C   UNL A   1      32.656  17.548  25.657  1.00  0.00     0.282 C 
ENDBRANCH   7   9
ENDBRANCH   6   7
ENDBRANCH   5   6
BRANCH   5  11
ATOM     11  N   UNL A   1      31.847  21.660  25.805  1.00  0.00    -0.324 N 
ATOM     12  C   UNL A   1      30.956  22.662  25.826  1.00  0.00     0.318 C 
ATOM     13  H   UNL A   1      31.672  21.015  26.528  1.00  0.00     0.166 HD
ATOM     14  O   UNL A   1      30.028  22.493  26.626  1.00  0.00    -0.249 OA
BRANCH  12  15
ATOM     15  N   UNL A   1      31.035  23.776  25.046  1.00  0.00    -0.322 N 
ATOM     16  C   UNL A   1      30.937  23.897  23.605  1.00  0.00     0.149 C 
BRANCH  15  17
ATOM     17  C   UNL A   1      31.402  25.030  25.722  1.00  0.00     0.185 C 
BRANCH  17  18
ATOM     18  C   UNL A   1      32.049  26.101  24.792  1.00  0.00     0.203 C 
ATOM     19  C   UNL A   1      33.515  26.377  25.157  1.00  0.00     0.073 C 
ATOM     20  N   UNL A   1      31.391  27.424  24.797  1.00  0.00    -0.333 N 
ATOM     21  C   UNL A   1      33.644  27.887  25.245  1.00  0.00     0.068 C 
ATOM     22  C   UNL A   1      32.427  28.418  24.519  1.00  0.00     0.262 C 
ATOM     23  C   UNL A   1      30.278  27.536  23.866  1.00  0.00     0.333 C 
ATOM     24  H   UNL A   1      30.965  27.575  25.710  1.00  0.00     0.348 HD
ENDBRANCH  17  18
ENDBRANCH  15  17
ENDBRANCH  12  15
ENDBRANCH   5  11
ENDBRANCH   3   5
ENDBRANCH   2   3
ENDBRANCH   1   2
BRANCH   1  25
ATOM     25  C   UNL A   1      37.081  21.431  24.548  1.00  0.00     0.275 C 
BRANCH  25  26
ATOM     26  O   UNL A   1      37.558  21.867  25.832  1.00  0.00    -0.458 OA
BRANCH  26  27
ATOM     27  C   UNL A   1      38.842  21.542  26.102  1.00  0.00     0.338 C 
ATOM     28  O   UNL A   1      39.433  20.511  25.818  1.00  0.00    -0.246 OA
BRANCH  27  29
ATOM     29  C   UNL A   1      39.526  22.732  26.620  1.00  0.00     0.060 A 
ATOM     30  C   UNL A   1      39.101  23.977  26.148  1.00  0.00     0.016 A 
ATOM     31  C   UNL A   1      40.571  22.633  27.538  1.00  0.00     0.016 A 
ATOM     32  C   UNL A   1      39.711  25.139  26.596  1.00  0.00     0.010 A 
ATOM     33  C   UNL A   1      41.201  23.798  27.975  1.00  0.00     0.010 A 
ATOM     34  C   UNL A   1      40.778  25.051  27.495  1.00  0.00    -0.014 A 
BRANCH  34  35
ATOM     35  C   UNL A   1      41.540  26.266  27.838  1.00  0.00     0.031 A 
ATOM     36  C   UNL A   1      40.862  27.334  28.639  1.00  0.00     0.074 A 
ATOM     37  C   UNL A   1      42.819  26.394  27.446  1.00  0.00     0.049 A 
ATOM     38  N   UNL A   1      41.276  28.535  28.941  1.00  0.00    -0.248 NA
ATOM     39  C   UNL A   1      39.530  27.001  29.171  1.00  0.00     0.031 C 
ATOM     40  C   UNL A   1      43.586  25.378  26.725  1.00  0.00     0.029 A 
ATOM     41  N   UNL A   1      43.692  27.438  27.592  1.00  0.00    -0.354 N 
ATOM     42  C   UNL A   1      40.250  29.111  29.676  1.00  0.00     0.074 A 
ATOM     43  C   UNL A   1      39.187  28.133  29.765  1.00  0.00     0.031 C 
ATOM     44  C   UNL A   1      44.815  25.858  26.476  1.00  0.00     0.029 A 
ATOM     45  C   UNL A   1      44.899  27.228  26.975  1.00  0.00     0.049 A 
ATOM     46  H   UNL A   1      43.475  28.259  28.090  1.00  0.00     0.167 HD
ATOM     47  C   UNL A   1      40.205  30.347  30.224  1.00  0.00     0.037 A 
ATOM     48  C   UNL A   1      45.937  28.069  26.805  1.00  0.00     0.037 A 
ATOM     49  C   UNL A   1      41.278  31.301  30.125  1.00  0.00     0.049 A 
ATOM     50  C   UNL A   1      45.838  29.463  27.365  1.00  0.00     0.074 A 
ATOM     51  C   UNL A   1      41.341  32.587  30.629  1.00  0.00     0.029 A 
ATOM     52  N   UNL A   1      42.482  31.063  29.475  1.00  0.00    -0.354 N 
ATOM     53  N   UNL A   1      44.856  30.017  28.034  1.00  0.00    -0.248 NA
ATOM     54  C   UNL A   1      46.987  30.349  27.142  1.00  0.00     0.031 C 
ATOM     55  C   UNL A   1      42.569  33.142  30.249  1.00  0.00     0.029 A 
ATOM     56  C   UNL A   1      43.290  32.185  29.552  1.00  0.00     0.049 A 
ATOM     57  H   UNL A   1      42.725  30.222  29.027  1.00  0.00     0.167 HD
ATOM     58  C   UNL A   1      45.273  31.307  28.331  1.00  0.00     0.074 A 
ATOM     59  C   UNL A   1      46.607  31.448  27.780  1.00  0.00     0.031 C 
ATOM     60  C   UNL A   1      44.616  32.290  28.996  1.00  0.00     0.037 A 
BRANCH  47  61
ATOM     61  C   UNL A   1      38.945  30.742  30.933  1.00  0.00     0.064 A 
ATOM     62  C   UNL A   1      37.822  31.216  30.239  1.00  0.00     0.173 A 
ATOM     63  C   UNL A   1      38.859  30.640  32.330  1.00  0.00     0.173 A 
ATOM     64  F   UNL A   1      37.860  31.351  28.905  1.00  0.00    -0.203 F 
ATOM     65  C   UNL A   1      36.669  31.600  30.919  1.00  0.00     0.198 A 
ATOM     66  C   UNL A   1      37.695  30.999  33.004  1.00  0.00     0.198 A 
ATOM     67  F   UNL A   1      39.905  30.196  33.042  1.00  0.00    -0.203 F 
ATOM     68  F   UNL A   1      35.626  32.098  30.241  1.00  0.00    -0.200 F 
ATOM     69  C   UNL A   1      36.604  31.486  32.300  1.00  0.00     0.200 A 
ATOM     70  F   UNL A   1      37.632  30.881  34.338  1.00  0.00    -0.200 F 
ATOM     71  F   UNL A   1      35.494  31.854  32.954  1.00  0.00    -0.200 F 
ENDBRANCH  47  61
BRANCH  48  72
ATOM     72  C   UNL A   1      47.134  27.625  26.045  1.00  0.00     0.064 A 
ATOM     73  C   UNL A   1      47.179  27.711  24.647  1.00  0.00     0.173 A 
ATOM     74  C   UNL A   1      48.261  27.108  26.703  1.00  0.00     0.173 A 
ATOM     75  F   UNL A   1      46.117  28.174  23.972  1.00  0.00    -0.203 F 
ATOM     76  C   UNL A   1      48.299  27.285  23.936  1.00  0.00     0.198 A 
ATOM     77  C   UNL A   1      49.391  26.708  25.993  1.00  0.00     0.198 A 
ATOM     78  F   UNL A   1      48.269  27.000  28.040  1.00  0.00    -0.203 F 
ATOM     79  F   UNL A   1      48.299  27.339  22.597  1.00  0.00    -0.200 F 
ATOM     80  C   UNL A   1      49.407  26.792  24.609  1.00  0.00     0.200 A 
ATOM     81  F   UNL A   1      50.463  26.242  26.648  1.00  0.00    -0.200 F 
ATOM     82  F   UNL A   1      50.486  26.387  23.924  1.00  0.00    -0.200 F 
ENDBRANCH  48  72
BRANCH  60  83
ATOM     83  C   UNL A   1      45.345  33.586  29.190  1.00  0.00     0.064 A 
ATOM     84  C   UNL A   1      45.226  34.639  28.273  1.00  0.00     0.173 A 
ATOM     85  C   UNL A   1      46.136  33.788  30.332  1.00  0.00     0.173 A 
ATOM     86  F   UNL A   1      44.493  34.487  27.160  1.00  0.00    -0.203 F 
ATOM     87  C   UNL A   1      45.893  35.843  28.481  1.00  0.00     0.198 A 
ATOM     88  C   UNL A   1      46.778  35.002  30.549  1.00  0.00     0.198 A 
ATOM     89  F   UNL A   1      46.274  32.812  31.241  1.00  0.00    -0.203 F 
ATOM     90  F   UNL A   1      45.802  36.823  27.570  1.00  0.00    -0.200 F 
ATOM     91  C   UNL A   1      46.662  36.026  29.621  1.00  0.00     0.200 A 
ATOM     92  F   UNL A   1      47.510  35.182  31.658  1.00  0.00    -0.200 F 
ATOM     93  F   UNL A   1      47.297  37.190  29.823  1.00  0.00    -0.200 F 
ENDBRANCH  60  83
ENDBRANCH  34  35
ENDBRANCH  27  29
ENDBRANCH  26  27
ENDBRANCH  25  26
ENDBRANCH   1  25
TORSDOF 18
ENDMDL
MODEL 2
REMARK VINA RESULT:     -10.9      4.362      9.457
REMARK SMILES COC(=O)C[C@H](NC(=O)N(C)C[C@@H]1CCC[N@H+]1C)C(=O)OCCOC(=O)c1ccc(-c2c3nc(c(-c4c(F)c(F)c(F)c(F)c4F)c4ccc([nH]4)c(-c4c(F)c(F)c(F)c(F)c4F)c4nc(c(-c5c(F)c(F)c(F)c(F)c5F)c5ccc2[nH]5)C=C4)C=C3)cc1
REMARK SMILES IDX 22 1 21 2 19 3 20 4 6 5 5 6 3 7 4 8 2 9 1 10 7 11 8 12 9 14
REMARK SMILES IDX 10 15 11 16 12 17 13 18 14 19 17 20 15 21 16 22 18 23 23 25
REMARK SMILES IDX 24 26 25 27 26 28 27 29 28 30 89 31 29 32 88 33 30 34 31 35
REMARK SMILES IDX 32 36 82 37 33 38 87 39 81 40 83 41 34 42 86 43 80 44 79 45
REMARK SMILES IDX 35 47 67 48 47 49 66 50 48 51 51 52 65 53 84 54 49 55 50 56
REMARK SMILES IDX 64 58 85 59 52 60 36 61 37 62 45 63 38 64 39 65 43 66 46 67
REMARK SMILES IDX 40 68 41 69 44 70 42 71 68 72 69 73 77 74 70 75 71 76 75 77
REMARK SMILES IDX 78 78 72 79 73 80 76 81 74 82 53 83 54 84 62 85 55 86 56 87
REMARK SMILES IDX 60 88 63 89 57 90 58 91 61 92 59 93
REMARK H PARENT 7 13 17 24 83 46 51 57
REMARK Flexibility Score: inf
ROOT
ATOM      1  C   UNL A   1      31.664  28.961  25.894  1.00  0.00     0.274 C 
ENDROOT
BRANCH   1   2
ATOM      2  O   UNL A   1      31.937  27.734  26.594  1.00  0.00    -0.461 OA
BRANCH   2   3
ATOM      3  C   UNL A   1      32.953  26.947  26.154  1.00  0.00     0.329 C 
ATOM      4  O   UNL A   1      34.134  27.273  26.168  1.00  0.00    -0.250 OA
BRANCH   3   5
ATOM      5  C   UNL A   1      32.440  25.592  25.602  1.00  0.00     0.204 C 
BRANCH   5   6
ATOM      6  C   UNL A   1      32.227  24.447  26.595  1.00  0.00     0.159 C 
BRANCH   6   7
ATOM      7  C   UNL A   1      30.900  23.762  26.419  1.00  0.00     0.308 C 
ATOM      8  O   UNL A   1      29.973  23.848  27.209  1.00  0.00    -0.252 OA
BRANCH   7   9
ATOM      9  O   UNL A   1      30.918  23.014  25.282  1.00  0.00    -0.469 OA
ATOM     10  C   UNL A   1      31.557  21.740  25.387  1.00  0.00     0.282 C 
ENDBRANCH   7   9
ENDBRANCH   6   7
ENDBRANCH   5   6
BRANCH   5  11
ATOM     11  N   UNL A   1      33.088  25.155  24.358  1.00  0.00    -0.324 N 
ATOM     12  C   UNL A   1      33.325  25.650  23.135  1.00  0.00     0.318 C 
ATOM     13  H   UNL A   1      33.449  24.244  24.447  1.00  0.00     0.166 HD
ATOM     14  O   UNL A   1      34.064  24.943  22.440  1.00  0.00    -0.249 OA
BRANCH  12  15
ATOM     15  N   UNL A   1      32.814  26.825  22.669  1.00  0.00    -0.322 N 
ATOM     16  C   UNL A   1      33.393  28.153  22.697  1.00  0.00     0.149 C 
BRANCH  15  17
ATOM     17  C   UNL A   1      31.425  26.795  22.185  1.00  0.00     0.185 C 
BRANCH  17  18
ATOM     18  C   UNL A   1      30.400  27.509  23.117  1.00  0.00     0.203 C 
ATOM     19  C   UNL A   1      29.539  26.510  23.906  1.00  0.00     0.073 C 
ATOM     20  N   UNL A   1      29.437  28.398  22.435  1.00  0.00    -0.333 N 
ATOM     21  C   UNL A   1      28.102  26.960  23.717  1.00  0.00     0.068 C 
ATOM     22  C   UNL A   1      28.209  28.390  23.231  1.00  0.00     0.262 C 
ATOM     23  C   UNL A   1      29.927  29.752  22.224  1.00  0.00     0.333 C 
ATOM     24  H   UNL A   1      29.273  28.045  21.494  1.00  0.00     0.348 HD
ENDBRANCH  17  18
ENDBRANCH  15  17
ENDBRANCH  12  15
ENDBRANCH   5  11
ENDBRANCH   3   5
ENDBRANCH   2   3
ENDBRANCH   1   2
BRANCH   1  25
ATOM     25  C   UNL A   1      31.977  30.150  26.800  1.00  0.00     0.275 C 
BRANCH  25  26
ATOM     26  O   UNL A   1      33.289  30.655  26.506  1.00  0.00    -0.458 OA
BRANCH  26  27
ATOM     27  C   UNL A   1      33.682  31.699  27.271  1.00  0.00     0.338 C 
ATOM     28  O   UNL A   1      33.045  32.700  27.561  1.00  0.00    -0.246 OA
BRANCH  27  29
ATOM     29  C   UNL A   1      34.958  31.356  27.909  1.00  0.00     0.060 A 
ATOM     30  C   UNL A   1      35.111  30.050  28.384  1.00  0.00     0.016 A 
ATOM     31  C   UNL A   1      35.978  32.295  28.053  1.00  0.00     0.016 A 
ATOM     32  C   UNL A   1      36.293  29.666  29.001  1.00  0.00     0.010 A 
ATOM     33  C   UNL A   1      37.159  31.918  28.692  1.00  0.00     0.010 A 
ATOM     34  C   UNL A   1      37.312  30.606  29.176  1.00  0.00    -0.014 A 
BRANCH  34  35
ATOM     35  C   UNL A   1      38.494  30.252  29.984  1.00  0.00     0.031 A 
ATOM     36  C   UNL A   1      39.500  29.307  29.403  1.00  0.00     0.074 A 
ATOM     37  C   UNL A   1      38.661  30.784  31.206  1.00  0.00     0.049 A 
ATOM     38  N   UNL A   1      40.536  28.747  29.968  1.00  0.00    -0.248 NA
ATOM     39  C   UNL A   1      39.310  28.942  27.989  1.00  0.00     0.031 C 
ATOM     40  C   UNL A   1      37.773  31.767  31.826  1.00  0.00     0.029 A 
ATOM     41  N   UNL A   1      39.630  30.560  32.146  1.00  0.00    -0.354 N 
ATOM     42  C   UNL A   1      41.107  27.945  28.990  1.00  0.00     0.074 A 
ATOM     43  C   UNL A   1      40.297  28.081  27.798  1.00  0.00     0.031 C 
ATOM     44  C   UNL A   1      38.231  32.050  33.056  1.00  0.00     0.029 A 
ATOM     45  C   UNL A   1      39.411  31.233  33.323  1.00  0.00     0.049 A 
ATOM     46  H   UNL A   1      40.407  29.975  31.995  1.00  0.00     0.167 HD
ATOM     47  C   UNL A   1      42.209  27.166  29.085  1.00  0.00     0.037 A 
ATOM     48  C   UNL A   1      40.074  31.159  34.492  1.00  0.00     0.037 A 
ATOM     49  C   UNL A   1      43.002  27.052  30.281  1.00  0.00     0.049 A 
ATOM     50  C   UNL A   1      41.258  30.234  34.595  1.00  0.00     0.074 A 
ATOM     51  C   UNL A   1      44.132  26.285  30.499  1.00  0.00     0.029 A 
ATOM     52  N   UNL A   1      42.742  27.732  31.463  1.00  0.00    -0.354 N 
ATOM     53  N   UNL A   1      41.781  29.454  33.680  1.00  0.00    -0.248 NA
ATOM     54  C   UNL A   1      41.941  30.176  35.894  1.00  0.00     0.031 C 
ATOM     55  C   UNL A   1      44.532  26.472  31.828  1.00  0.00     0.029 A 
ATOM     56  C   UNL A   1      43.681  27.391  32.421  1.00  0.00     0.049 A 
ATOM     57  H   UNL A   1      41.999  28.363  31.600  1.00  0.00     0.167 HD
ATOM     58  C   UNL A   1      42.863  28.828  34.282  1.00  0.00     0.074 A 
ATOM     59  C   UNL A   1      42.932  29.332  35.639  1.00  0.00     0.031 C 
ATOM     60  C   UNL A   1      43.723  27.916  33.763  1.00  0.00     0.037 A 
BRANCH  47  61
ATOM     61  C   UNL A   1      42.586  26.355  27.882  1.00  0.00     0.064 A 
ATOM     62  C   UNL A   1      43.509  26.820  26.935  1.00  0.00     0.173 A 
ATOM     63  C   UNL A   1      42.015  25.090  27.677  1.00  0.00     0.173 A 
ATOM     64  F   UNL A   1      44.068  28.032  27.075  1.00  0.00    -0.203 F 
ATOM     65  C   UNL A   1      43.828  26.061  25.812  1.00  0.00     0.198 A 
ATOM     66  C   UNL A   1      42.356  24.321  26.567  1.00  0.00     0.198 A 
ATOM     67  F   UNL A   1      41.124  24.599  28.551  1.00  0.00    -0.203 F 
ATOM     68  F   UNL A   1      44.673  26.546  24.893  1.00  0.00    -0.200 F 
ATOM     69  C   UNL A   1      43.255  24.810  25.631  1.00  0.00     0.200 A 
ATOM     70  F   UNL A   1      41.808  23.109  26.399  1.00  0.00    -0.200 F 
ATOM     71  F   UNL A   1      43.563  24.079  24.551  1.00  0.00    -0.200 F 
ENDBRANCH  47  61
BRANCH  48  72
ATOM     72  C   UNL A   1      39.612  31.955  35.658  1.00  0.00     0.064 A 
ATOM     73  C   UNL A   1      40.154  33.217  35.935  1.00  0.00     0.173 A 
ATOM     74  C   UNL A   1      38.613  31.472  36.518  1.00  0.00     0.173 A 
ATOM     75  F   UNL A   1      41.130  33.711  35.158  1.00  0.00    -0.203 F 
ATOM     76  C   UNL A   1      39.727  33.958  37.035  1.00  0.00     0.198 A 
ATOM     77  C   UNL A   1      38.167  32.226  37.600  1.00  0.00     0.198 A 
ATOM     78  F   UNL A   1      38.063  30.269  36.299  1.00  0.00    -0.203 F 
ATOM     79  F   UNL A   1      40.293  35.143  37.302  1.00  0.00    -0.200 F 
ATOM     80  C   UNL A   1      38.728  33.467  37.862  1.00  0.00     0.200 A 
ATOM     81  F   UNL A   1      37.194  31.751  38.390  1.00  0.00    -0.200 F 
ATOM     82  F   UNL A   1      38.313  34.183  38.916  1.00  0.00    -0.200 F 
ENDBRANCH  48  72
BRANCH  60  83
ATOM     83  C   UNL A   1      44.827  27.436  34.657  1.00  0.00     0.064 A 
ATOM     84  C   UNL A   1      46.048  28.119  34.749  1.00  0.00     0.173 A 
ATOM     85  C   UNL A   1      44.641  26.302  35.464  1.00  0.00     0.173 A 
ATOM     86  F   UNL A   1      46.277  29.198  33.987  1.00  0.00    -0.203 F 
ATOM     87  C   UNL A   1      47.054  27.670  35.600  1.00  0.00     0.198 A 
ATOM     88  C   UNL A   1      45.638  25.873  36.334  1.00  0.00     0.198 A 
ATOM     89  F   UNL A   1      43.487  25.620  35.416  1.00  0.00    -0.203 F 
ATOM     90  F   UNL A   1      48.230  28.311  35.641  1.00  0.00    -0.200 F 
ATOM     91  C   UNL A   1      46.845  26.553  36.396  1.00  0.00     0.200 A 
ATOM     92  F   UNL A   1      45.431  24.802  37.112  1.00  0.00    -0.200 F 
ATOM     93  F   UNL A   1      47.812  26.127  37.221  1.00  0.00    -0.200 F 
ENDBRANCH  60  83
ENDBRANCH  34  35
ENDBRANCH  27  29
ENDBRANCH  26  27
ENDBRANCH  25  26
ENDBRANCH   1  25
TORSDOF 18
ENDMDL
MODEL 3
REMARK VINA RESULT:     -10.9      1.323      2.073
REMARK SMILES COC(=O)C[C@H](NC(=O)N(C)C[C@@H]1CCC[N@H+]1C)C(=O)OCCOC(=O)c1ccc(-c2c3nc(c(-c4c(F)c(F)c(F)c(F)c4F)c4ccc([nH]4)c(-c4c(F)c(F)c(F)c(F)c4F)c4nc(c(-c5c(F)c(F)c(F)c(F)c5F)c5ccc2[nH]5)C=C4)C=C3)cc1
REMARK SMILES IDX 22 1 21 2 19 3 20 4 6 5 5 6 3 7 4 8 2 9 1 10 7 11 8 12 9 14
REMARK SMILES IDX 10 15 11 16 12 17 13 18 14 19 17 20 15 21 16 22 18 23 23 25
REMARK SMILES IDX 24 26 25 27 26 28 27 29 28 30 89 31 29 32 88 33 30 34 31 35
REMARK SMILES IDX 32 36 82 37 33 38 87 39 81 40 83 41 34 42 86 43 80 44 79 45
REMARK SMILES IDX 35 47 67 48 47 49 66 50 48 51 51 52 65 53 84 54 49 55 50 56
REMARK SMILES IDX 64 58 85 59 52 60 36 61 37 62 45 63 38 64 39 65 43 66 46 67
REMARK SMILES IDX 40 68 41 69 44 70 42 71 68 72 69 73 77 74 70 75 71 76 75 77
REMARK SMILES IDX 78 78 72 79 73 80 76 81 74 82 53 83 54 84 62 85 55 86 56 87
REMARK SMILES IDX 60 88 63 89 57 90 58 91 61 92 59 93
REMARK H PARENT 7 13 17 24 83 46 51 57
REMARK Flexibility Score: inf
ROOT
ATOM      1  C   UNL A   1      36.526  22.405  23.993  1.00  0.00     0.274 C 
ENDROOT
BRANCH   1   2
ATOM      2  O   UNL A   1      35.110  22.460  24.236  1.00  0.00    -0.461 OA
BRANCH   2   3
ATOM      3  C   UNL A   1      34.358  23.329  23.510  1.00  0.00     0.329 C 
ATOM      4  O   UNL A   1      34.448  23.470  22.296  1.00  0.00    -0.250 OA
BRANCH   3   5
ATOM      5  C   UNL A   1      33.388  24.144  24.404  1.00  0.00     0.204 C 
BRANCH   5   6
ATOM      6  C   UNL A   1      33.621  24.128  25.916  1.00  0.00     0.159 C 
BRANCH   6   7
ATOM      7  C   UNL A   1      32.429  23.632  26.685  1.00  0.00     0.308 C 
ATOM      8  O   UNL A   1      31.549  24.353  27.129  1.00  0.00    -0.252 OA
BRANCH   7   9
ATOM      9  O   UNL A   1      32.511  22.282  26.838  1.00  0.00    -0.469 OA
ATOM     10  C   UNL A   1      33.730  21.795  27.402  1.00  0.00     0.282 C 
ENDBRANCH   7   9
ENDBRANCH   6   7
ENDBRANCH   5   6
BRANCH   5  11
ATOM     11  N   UNL A   1      31.971  24.014  24.043  1.00  0.00    -0.324 N 
ATOM     12  C   UNL A   1      31.093  24.619  23.229  1.00  0.00     0.318 C 
ATOM     13  H   UNL A   1      31.546  23.277  24.537  1.00  0.00     0.166 HD
ATOM     14  O   UNL A   1      30.001  24.044  23.150  1.00  0.00    -0.249 OA
BRANCH  12  15
ATOM     15  N   UNL A   1      31.352  25.763  22.535  1.00  0.00    -0.322 N 
ATOM     16  C   UNL A   1      32.080  25.939  21.294  1.00  0.00     0.149 C 
BRANCH  15  17
ATOM     17  C   UNL A   1      30.965  27.028  23.179  1.00  0.00     0.185 C 
BRANCH  17  18
ATOM     18  C   UNL A   1      32.010  27.583  24.193  1.00  0.00     0.203 C 
ATOM     19  C   UNL A   1      31.445  27.674  25.618  1.00  0.00     0.073 C 
ATOM     20  N   UNL A   1      32.528  28.934  23.893  1.00  0.00    -0.333 N 
ATOM     21  C   UNL A   1      31.775  29.072  26.108  1.00  0.00     0.068 C 
ATOM     22  C   UNL A   1      32.862  29.558  25.173  1.00  0.00     0.262 C 
ATOM     23  C   UNL A   1      33.662  28.945  22.980  1.00  0.00     0.333 C 
ATOM     24  H   UNL A   1      31.809  29.459  23.398  1.00  0.00     0.348 HD
ENDBRANCH  17  18
ENDBRANCH  15  17
ENDBRANCH  12  15
ENDBRANCH   5  11
ENDBRANCH   3   5
ENDBRANCH   2   3
ENDBRANCH   1   2
BRANCH   1  25
ATOM     25  C   UNL A   1      37.130  21.219  24.741  1.00  0.00     0.275 C 
BRANCH  25  26
ATOM     26  O   UNL A   1      37.673  21.659  25.997  1.00  0.00    -0.458 OA
BRANCH  26  27
ATOM     27  C   UNL A   1      38.990  21.405  26.168  1.00  0.00     0.338 C 
ATOM     28  O   UNL A   1      39.614  20.411  25.828  1.00  0.00    -0.246 OA
BRANCH  27  29
ATOM     29  C   UNL A   1      39.643  22.627  26.651  1.00  0.00     0.060 A 
ATOM     30  C   UNL A   1      39.216  23.843  26.108  1.00  0.00     0.016 A 
ATOM     31  C   UNL A   1      40.660  22.585  27.603  1.00  0.00     0.016 A 
ATOM     32  C   UNL A   1      39.798  25.033  26.520  1.00  0.00     0.010 A 
ATOM     33  C   UNL A   1      41.262  23.778  28.003  1.00  0.00     0.010 A 
ATOM     34  C   UNL A   1      40.838  25.001  27.454  1.00  0.00    -0.014 A 
BRANCH  34  35
ATOM     35  C   UNL A   1      41.574  26.241  27.762  1.00  0.00     0.031 A 
ATOM     36  C   UNL A   1      40.871  27.319  28.528  1.00  0.00     0.074 A 
ATOM     37  C   UNL A   1      42.851  26.383  27.372  1.00  0.00     0.049 A 
ATOM     38  N   UNL A   1      41.260  28.537  28.795  1.00  0.00    -0.248 NA
ATOM     39  C   UNL A   1      39.544  26.975  29.065  1.00  0.00     0.031 C 
ATOM     40  C   UNL A   1      43.642  25.361  26.684  1.00  0.00     0.029 A 
ATOM     41  N   UNL A   1      43.703  27.449  27.489  1.00  0.00    -0.354 N 
ATOM     42  C   UNL A   1      40.219  29.113  29.508  1.00  0.00     0.074 A 
ATOM     43  C   UNL A   1      39.176  28.117  29.623  1.00  0.00     0.031 C 
ATOM     44  C   UNL A   1      44.862  25.859  26.425  1.00  0.00     0.029 A 
ATOM     45  C   UNL A   1      44.917  27.244  26.883  1.00  0.00     0.049 A 
ATOM     46  H   UNL A   1      43.467  28.280  27.960  1.00  0.00     0.167 HD
ATOM     47  C   UNL A   1      40.147  30.365  30.018  1.00  0.00     0.037 A 
ATOM     48  C   UNL A   1      45.938  28.100  26.690  1.00  0.00     0.037 A 
ATOM     49  C   UNL A   1      41.201  31.337  29.895  1.00  0.00     0.049 A 
ATOM     50  C   UNL A   1      45.808  29.509  27.208  1.00  0.00     0.074 A 
ATOM     51  C   UNL A   1      41.236  32.639  30.360  1.00  0.00     0.029 A 
ATOM     52  N   UNL A   1      42.412  31.104  29.257  1.00  0.00    -0.354 N 
ATOM     53  N   UNL A   1      44.812  30.063  27.857  1.00  0.00    -0.248 NA
ATOM     54  C   UNL A   1      46.940  30.411  26.962  1.00  0.00     0.031 C 
ATOM     55  C   UNL A   1      42.454  33.206  29.967  1.00  0.00     0.029 A 
ATOM     56  C   UNL A   1      43.197  32.243  29.302  1.00  0.00     0.049 A 
ATOM     57  H   UNL A   1      42.674  30.254  28.835  1.00  0.00     0.167 HD
ATOM     58  C   UNL A   1      45.203  31.369  28.115  1.00  0.00     0.074 A 
ATOM     59  C   UNL A   1      46.535  31.520  27.565  1.00  0.00     0.031 C 
ATOM     60  C   UNL A   1      44.523  32.358  28.748  1.00  0.00     0.037 A 
BRANCH  47  61
ATOM     61  C   UNL A   1      38.876  30.755  30.710  1.00  0.00     0.064 A 
ATOM     62  C   UNL A   1      38.731  30.658  32.102  1.00  0.00     0.173 A 
ATOM     63  C   UNL A   1      37.786  31.236  29.969  1.00  0.00     0.173 A 
ATOM     64  F   UNL A   1      39.736  30.185  32.854  1.00  0.00    -0.203 F 
ATOM     65  C   UNL A   1      37.533  31.003  32.724  1.00  0.00     0.198 A 
ATOM     66  C   UNL A   1      36.600  31.605  30.596  1.00  0.00     0.198 A 
ATOM     67  F   UNL A   1      37.871  31.345  28.634  1.00  0.00    -0.203 F 
ATOM     68  F   UNL A   1      37.399  30.854  34.049  1.00  0.00    -0.200 F 
ATOM     69  C   UNL A   1      36.471  31.481  31.971  1.00  0.00     0.200 A 
ATOM     70  F   UNL A   1      35.577  32.075  29.868  1.00  0.00    -0.200 F 
ATOM     71  F   UNL A   1      35.319  31.814  32.570  1.00  0.00    -0.200 F 
ENDBRANCH  47  61
BRANCH  48  72
ATOM     72  C   UNL A   1      47.147  27.658  25.949  1.00  0.00     0.064 A 
ATOM     73  C   UNL A   1      47.204  27.721  24.551  1.00  0.00     0.173 A 
ATOM     74  C   UNL A   1      48.275  27.166  26.626  1.00  0.00     0.173 A 
ATOM     75  F   UNL A   1      46.142  28.160  23.858  1.00  0.00    -0.203 F 
ATOM     76  C   UNL A   1      48.334  27.297  23.856  1.00  0.00     0.198 A 
ATOM     77  C   UNL A   1      49.415  26.768  25.932  1.00  0.00     0.198 A 
ATOM     78  F   UNL A   1      48.271  27.081  27.964  1.00  0.00    -0.203 F 
ATOM     79  F   UNL A   1      48.346  27.328  22.517  1.00  0.00    -0.200 F 
ATOM     80  C   UNL A   1      49.442  26.828  24.547  1.00  0.00     0.200 A 
ATOM     81  F   UNL A   1      50.487  26.326  26.605  1.00  0.00    -0.200 F 
ATOM     82  F   UNL A   1      50.532  26.425  23.879  1.00  0.00    -0.200 F 
ENDBRANCH  48  72
BRANCH  60  83
ATOM     83  C   UNL A   1      45.225  33.674  28.905  1.00  0.00     0.064 A 
ATOM     84  C   UNL A   1      45.087  34.697  27.957  1.00  0.00     0.173 A 
ATOM     85  C   UNL A   1      46.008  33.926  30.042  1.00  0.00     0.173 A 
ATOM     86  F   UNL A   1      44.361  34.498  26.848  1.00  0.00    -0.203 F 
ATOM     87  C   UNL A   1      45.730  35.920  28.131  1.00  0.00     0.198 A 
ATOM     88  C   UNL A   1      46.625  35.159  30.225  1.00  0.00     0.198 A 
ATOM     89  F   UNL A   1      46.163  32.980  30.980  1.00  0.00    -0.203 F 
ATOM     90  F   UNL A   1      45.621  36.870  27.191  1.00  0.00    -0.200 F 
ATOM     91  C   UNL A   1      46.491  36.152  29.267  1.00  0.00     0.200 A 
ATOM     92  F   UNL A   1      47.349  35.387  31.329  1.00  0.00    -0.200 F 
ATOM     93  F   UNL A   1      47.101  37.334  29.435  1.00  0.00    -0.200 F 
ENDBRANCH  60  83
ENDBRANCH  34  35
ENDBRANCH  27  29
ENDBRANCH  26  27
ENDBRANCH  25  26
ENDBRANCH   1  25
TORSDOF 18
ENDMDL
