MODEL 1
REMARK VINA RESULT:     -13.1      0.000      0.000
REMARK SMILES C[C@@H]1C[C@H](C)C[C@H]([N@H+]2[C@@H](C(=O)OCCOC(=O)c3ccc(-c4c5nc(c(-c6c(F)c(F)c(F)c(F)c6F)c6ccc([nH]6)c(-c6c(F)c(F)c(F)c(F)c6F)c6nc(c(-c7c(F)c(F)c(F)c(F)c7F)c7ccc4[nH]7)C=C6)C=C5)cc3)CC[C@@H]3CCCC[C@@H]32)C1
REMARK SMILES IDX 14 1 13 2 12 3 10 4 11 5 9 6 8 7 88 8 81 10 83 11 87 12
REMARK SMILES IDX 82 13 84 14 86 15 85 16 7 17 5 18 4 19 6 20 3 21 2 22 89 23
REMARK SMILES IDX 1 24 15 25 16 26 17 27 18 28 19 29 80 30 20 31 79 32 21 33
REMARK SMILES IDX 22 34 23 35 73 36 24 37 78 38 72 39 74 40 25 41 77 42 71 43
REMARK SMILES IDX 70 44 26 46 58 47 38 48 57 49 39 50 42 51 56 52 75 53 40 54
REMARK SMILES IDX 41 55 55 57 76 58 43 59 27 60 28 61 36 62 29 63 30 64 34 65
REMARK SMILES IDX 37 66 31 67 32 68 35 69 33 70 59 71 60 72 68 73 61 74 62 75
REMARK SMILES IDX 66 76 69 77 63 78 64 79 67 80 65 81 44 82 45 83 53 84 46 85
REMARK SMILES IDX 47 86 51 87 54 88 48 89 49 90 52 91 50 92
REMARK H PARENT 8 9 74 45 42 56
REMARK Flexibility Score: inf
ROOT
ATOM      1  C   UNL A   1      31.773  30.437  25.750  1.00  0.00     0.275 C 
ENDROOT
BRANCH   1   2
ATOM      2  C   UNL A   1      32.127  29.128  25.051  1.00  0.00     0.274 C 
BRANCH   2   3
ATOM      3  O   UNL A   1      31.807  28.000  25.894  1.00  0.00    -0.458 OA
BRANCH   3   4
ATOM      4  C   UNL A   1      32.763  27.041  26.018  1.00  0.00     0.365 C 
ATOM      5  O   UNL A   1      33.969  27.275  26.059  1.00  0.00    -0.245 OA
BRANCH   4   6
ATOM      6  C   UNL A   1      32.205  25.596  26.079  1.00  0.00     0.295 C 
ATOM      7  N   UNL A   1      33.021  24.639  25.270  1.00  0.00    -0.318 N 
ATOM      8  C   UNL A   1      32.793  24.853  23.824  1.00  0.00     0.188 C 
ATOM      9  H   UNL A   1      32.760  23.656  25.190  1.00  0.00     0.349 HD
ATOM     10  C   UNL A   1      30.713  25.407  25.820  1.00  0.00     0.078 C 
ATOM     11  C   UNL A   1      31.294  24.569  23.512  1.00  0.00     0.048 C 
ATOM     12  C   UNL A   1      33.617  24.112  22.763  1.00  0.00     0.065 C 
ATOM     13  C   UNL A   1      30.341  25.411  24.356  1.00  0.00     0.016 C 
ATOM     14  C   UNL A   1      31.028  23.065  23.680  1.00  0.00     0.010 C 
ATOM     15  C   UNL A   1      32.966  22.953  21.991  1.00  0.00     0.006 C 
ATOM     16  C   UNL A   1      31.741  22.270  22.597  1.00  0.00     0.001 C 
BRANCH   7  17
ATOM     17  C   UNL A   1      34.270  24.288  25.982  1.00  0.00     0.185 C 
ATOM     18  C   UNL A   1      34.008  21.002  25.384  1.00  0.00     0.008 C 
ATOM     19  C   UNL A   1      34.774  21.765  26.448  1.00  0.00    -0.008 C 
ATOM     20  C   UNL A   1      34.076  23.049  26.876  1.00  0.00     0.068 C 
ATOM     21  C   UNL A   1      36.241  22.007  26.085  1.00  0.00     0.007 C 
ATOM     22  C   UNL A   1      36.554  23.211  25.180  1.00  0.00    -0.008 C 
ATOM     23  C   UNL A   1      35.669  24.453  25.378  1.00  0.00     0.068 C 
ATOM     24  C   UNL A   1      36.732  22.839  23.707  1.00  0.00     0.008 C 
ENDBRANCH   7  17
ENDBRANCH   4   6
ENDBRANCH   3   4
ENDBRANCH   2   3
ENDBRANCH   1   2
BRANCH   1  25
ATOM     25  O   UNL A   1      32.398  30.475  27.043  1.00  0.00    -0.458 OA
BRANCH  25  26
ATOM     26  C   UNL A   1      33.104  31.602  27.288  1.00  0.00     0.338 C 
ATOM     27  O   UNL A   1      32.715  32.755  27.246  1.00  0.00    -0.246 OA
BRANCH  26  28
ATOM     28  C   UNL A   1      34.468  31.258  27.706  1.00  0.00     0.060 A 
ATOM     29  C   UNL A   1      34.776  29.932  28.006  1.00  0.00     0.016 A 
ATOM     30  C   UNL A   1      35.368  32.278  28.004  1.00  0.00     0.016 A 
ATOM     31  C   UNL A   1      35.920  29.635  28.734  1.00  0.00     0.010 A 
ATOM     32  C   UNL A   1      36.578  31.960  28.621  1.00  0.00     0.010 A 
ATOM     33  C   UNL A   1      36.844  30.642  29.036  1.00  0.00    -0.014 A 
BRANCH  33  34
ATOM     34  C   UNL A   1      38.076  30.325  29.804  1.00  0.00     0.031 A 
ATOM     35  C   UNL A   1      39.129  29.435  29.204  1.00  0.00     0.074 A 
ATOM     36  C   UNL A   1      38.239  30.825  31.044  1.00  0.00     0.049 A 
ATOM     37  N   UNL A   1      40.154  28.861  29.781  1.00  0.00    -0.248 NA
ATOM     38  C   UNL A   1      39.008  29.137  27.767  1.00  0.00     0.031 C 
ATOM     39  C   UNL A   1      37.313  31.735  31.721  1.00  0.00     0.029 A 
ATOM     40  N   UNL A   1      39.241  30.631  31.962  1.00  0.00    -0.354 N 
ATOM     41  C   UNL A   1      40.755  28.083  28.799  1.00  0.00     0.074 A 
ATOM     42  C   UNL A   1      39.991  28.267  27.584  1.00  0.00     0.031 C 
ATOM     43  C   UNL A   1      37.797  32.037  32.934  1.00  0.00     0.029 A 
ATOM     44  C   UNL A   1      39.015  31.267  33.158  1.00  0.00     0.049 A 
ATOM     45  H   UNL A   1      40.043  30.090  31.781  1.00  0.00     0.167 HD
ATOM     46  C   UNL A   1      41.839  27.281  28.915  1.00  0.00     0.037 A 
ATOM     47  C   UNL A   1      39.678  31.194  34.326  1.00  0.00     0.037 A 
ATOM     48  C   UNL A   1      42.632  27.163  30.111  1.00  0.00     0.049 A 
ATOM     49  C   UNL A   1      40.873  30.291  34.426  1.00  0.00     0.074 A 
ATOM     50  C   UNL A   1      43.778  26.414  30.317  1.00  0.00     0.029 A 
ATOM     51  N   UNL A   1      42.367  27.826  31.299  1.00  0.00    -0.354 N 
ATOM     52  N   UNL A   1      41.412  29.529  33.506  1.00  0.00    -0.248 NA
ATOM     53  C   UNL A   1      41.542  30.223  35.732  1.00  0.00     0.031 C 
ATOM     54  C   UNL A   1      44.187  26.598  31.641  1.00  0.00     0.029 A 
ATOM     55  C   UNL A   1      43.319  27.490  32.249  1.00  0.00     0.049 A 
ATOM     56  H   UNL A   1      41.615  28.443  31.448  1.00  0.00     0.167 HD
ATOM     57  C   UNL A   1      42.487  28.900  34.115  1.00  0.00     0.074 A 
ATOM     58  C   UNL A   1      42.538  29.386  35.478  1.00  0.00     0.031 C 
ATOM     59  C   UNL A   1      43.352  27.995  33.596  1.00  0.00     0.037 A 
BRANCH  46  60
ATOM     60  C   UNL A   1      42.220  26.435  27.737  1.00  0.00     0.064 A 
ATOM     61  C   UNL A   1      43.232  26.813  26.844  1.00  0.00     0.173 A 
ATOM     62  C   UNL A   1      41.604  25.189  27.543  1.00  0.00     0.173 A 
ATOM     63  F   UNL A   1      43.843  27.999  26.978  1.00  0.00    -0.203 F 
ATOM     64  C   UNL A   1      43.606  25.978  25.792  1.00  0.00     0.198 A 
ATOM     65  C   UNL A   1      41.995  24.347  26.505  1.00  0.00     0.198 A 
ATOM     66  F   UNL A   1      40.633  24.779  28.373  1.00  0.00    -0.203 F 
ATOM     67  F   UNL A   1      44.557  26.369  24.933  1.00  0.00    -0.200 F 
ATOM     68  C   UNL A   1      42.994  24.743  25.629  1.00  0.00     0.200 A 
ATOM     69  F   UNL A   1      41.410  23.151  26.357  1.00  0.00    -0.200 F 
ATOM     70  F   UNL A   1      43.365  23.935  24.626  1.00  0.00    -0.200 F 
ENDBRANCH  46  60
BRANCH  47  71
ATOM     71  C   UNL A   1      39.186  31.951  35.506  1.00  0.00     0.064 A 
ATOM     72  C   UNL A   1      39.557  33.286  35.713  1.00  0.00     0.173 A 
ATOM     73  C   UNL A   1      38.337  31.355  36.450  1.00  0.00     0.173 A 
ATOM     74  F   UNL A   1      40.386  33.892  34.851  1.00  0.00    -0.203 F 
ATOM     75  C   UNL A   1      39.109  33.991  36.829  1.00  0.00     0.198 A 
ATOM     76  C   UNL A   1      37.863  32.070  37.547  1.00  0.00     0.198 A 
ATOM     77  F   UNL A   1      37.950  30.079  36.296  1.00  0.00    -0.203 F 
ATOM     78  F   UNL A   1      39.515  35.252  37.028  1.00  0.00    -0.200 F 
ATOM     79  C   UNL A   1      38.257  33.384  37.740  1.00  0.00     0.200 A 
ATOM     80  F   UNL A   1      37.028  31.485  38.415  1.00  0.00    -0.200 F 
ATOM     81  F   UNL A   1      37.822  34.066  38.809  1.00  0.00    -0.200 F 
ENDBRANCH  47  71
BRANCH  59  82
ATOM     82  C   UNL A   1      44.439  27.502  34.499  1.00  0.00     0.064 A 
ATOM     83  C   UNL A   1      44.283  26.336  35.262  1.00  0.00     0.173 A 
ATOM     84  C   UNL A   1      45.660  28.189  34.582  1.00  0.00     0.173 A 
ATOM     85  F   UNL A   1      43.126  25.658  35.229  1.00  0.00    -0.203 F 
ATOM     86  C   UNL A   1      45.305  25.887  36.095  1.00  0.00     0.198 A 
ATOM     87  C   UNL A   1      46.687  27.723  35.395  1.00  0.00     0.198 A 
ATOM     88  F   UNL A   1      45.856  29.306  33.867  1.00  0.00    -0.203 F 
ATOM     89  F   UNL A   1      45.119  24.796  36.850  1.00  0.00    -0.200 F 
ATOM     90  C   UNL A   1      46.506  26.577  36.156  1.00  0.00     0.200 A 
ATOM     91  F   UNL A   1      47.851  28.384  35.447  1.00  0.00    -0.200 F 
ATOM     92  F   UNL A   1      47.490  26.141  36.955  1.00  0.00    -0.200 F 
ENDBRANCH  59  82
ENDBRANCH  33  34
ENDBRANCH  26  28
ENDBRANCH  25  26
ENDBRANCH   1  25
TORSDOF 12
ENDMDL
MODEL 2
REMARK VINA RESULT:     -13.1      0.039      1.593
REMARK SMILES C[C@@H]1C[C@H](C)C[C@H]([N@H+]2[C@@H](C(=O)OCCOC(=O)c3ccc(-c4c5nc(c(-c6c(F)c(F)c(F)c(F)c6F)c6ccc([nH]6)c(-c6c(F)c(F)c(F)c(F)c6F)c6nc(c(-c7c(F)c(F)c(F)c(F)c7F)c7ccc4[nH]7)C=C6)C=C5)cc3)CC[C@@H]3CCCC[C@@H]32)C1
REMARK SMILES IDX 14 1 13 2 12 3 10 4 11 5 9 6 8 7 88 8 81 10 83 11 87 12
REMARK SMILES IDX 82 13 84 14 86 15 85 16 7 17 5 18 4 19 6 20 3 21 2 22 89 23
REMARK SMILES IDX 1 24 15 25 16 26 17 27 18 28 19 29 80 30 20 31 79 32 21 33
REMARK SMILES IDX 22 34 23 35 73 36 24 37 78 38 72 39 74 40 25 41 77 42 71 43
REMARK SMILES IDX 70 44 26 46 58 47 38 48 57 49 39 50 42 51 56 52 75 53 40 54
REMARK SMILES IDX 41 55 55 57 76 58 43 59 27 60 28 61 36 62 29 63 30 64 34 65
REMARK SMILES IDX 37 66 31 67 32 68 35 69 33 70 59 71 60 72 68 73 61 74 62 75
REMARK SMILES IDX 66 76 69 77 63 78 64 79 67 80 65 81 44 82 45 83 53 84 46 85
REMARK SMILES IDX 47 86 51 87 54 88 48 89 49 90 52 91 50 92
REMARK H PARENT 8 9 74 45 42 56
REMARK Flexibility Score: inf
ROOT
ATOM      1  C   UNL A   1      31.768  30.433  25.750  1.00  0.00     0.275 C 
ENDROOT
BRANCH   1   2
ATOM      2  C   UNL A   1      32.060  29.093  25.083  1.00  0.00     0.274 C 
BRANCH   2   3
ATOM      3  O   UNL A   1      31.832  28.007  26.009  1.00  0.00    -0.458 OA
BRANCH   3   4
ATOM      4  C   UNL A   1      32.789  27.041  26.061  1.00  0.00     0.365 C 
ATOM      5  O   UNL A   1      33.997  27.269  26.047  1.00  0.00    -0.245 OA
BRANCH   4   6
ATOM      6  C   UNL A   1      32.226  25.597  26.114  1.00  0.00     0.295 C 
ATOM      7  N   UNL A   1      33.032  24.644  25.292  1.00  0.00    -0.318 N 
ATOM      8  C   UNL A   1      32.795  24.870  23.849  1.00  0.00     0.188 C 
ATOM      9  H   UNL A   1      32.768  23.663  25.206  1.00  0.00     0.349 HD
ATOM     10  C   UNL A   1      30.731  25.416  25.866  1.00  0.00     0.078 C 
ATOM     11  C   UNL A   1      31.292  24.595  23.546  1.00  0.00     0.048 C 
ATOM     12  C   UNL A   1      33.608  24.136  22.776  1.00  0.00     0.065 C 
ATOM     13  C   UNL A   1      30.348  25.432  24.404  1.00  0.00     0.016 C 
ATOM     14  C   UNL A   1      31.022  23.090  23.704  1.00  0.00     0.010 C 
ATOM     15  C   UNL A   1      32.947  22.985  21.999  1.00  0.00     0.006 C 
ATOM     16  C   UNL A   1      31.724  22.302  22.609  1.00  0.00     0.001 C 
BRANCH   7  17
ATOM     17  C   UNL A   1      34.286  24.283  25.990  1.00  0.00     0.185 C 
ATOM     18  C   UNL A   1      34.015  21.005  25.357  1.00  0.00     0.008 C 
ATOM     19  C   UNL A   1      34.789  21.755  26.425  1.00  0.00    -0.008 C 
ATOM     20  C   UNL A   1      34.096  23.035  26.872  1.00  0.00     0.068 C 
ATOM     21  C   UNL A   1      36.254  21.999  26.054  1.00  0.00     0.007 C 
ATOM     22  C   UNL A   1      36.563  23.213  25.162  1.00  0.00    -0.008 C 
ATOM     23  C   UNL A   1      35.681  24.454  25.379  1.00  0.00     0.068 C 
ATOM     24  C   UNL A   1      36.730  22.857  23.682  1.00  0.00     0.008 C 
ENDBRANCH   7  17
ENDBRANCH   4   6
ENDBRANCH   3   4
ENDBRANCH   2   3
ENDBRANCH   1   2
BRANCH   1  25
ATOM     25  O   UNL A   1      32.396  30.476  27.041  1.00  0.00    -0.458 OA
BRANCH  25  26
ATOM     26  C   UNL A   1      33.103  31.604  27.281  1.00  0.00     0.338 C 
ATOM     27  O   UNL A   1      32.714  32.757  27.232  1.00  0.00    -0.246 OA
BRANCH  26  28
ATOM     28  C   UNL A   1      34.466  31.261  27.700  1.00  0.00     0.060 A 
ATOM     29  C   UNL A   1      34.776  29.935  27.997  1.00  0.00     0.016 A 
ATOM     30  C   UNL A   1      35.364  32.282  28.002  1.00  0.00     0.016 A 
ATOM     31  C   UNL A   1      35.920  29.639  28.727  1.00  0.00     0.010 A 
ATOM     32  C   UNL A   1      36.573  31.965  28.620  1.00  0.00     0.010 A 
ATOM     33  C   UNL A   1      36.842  30.647  29.033  1.00  0.00    -0.014 A 
BRANCH  33  34
ATOM     34  C   UNL A   1      38.072  30.331  29.802  1.00  0.00     0.031 A 
ATOM     35  C   UNL A   1      39.127  29.441  29.203  1.00  0.00     0.074 A 
ATOM     36  C   UNL A   1      38.234  30.831  31.042  1.00  0.00     0.049 A 
ATOM     37  N   UNL A   1      40.151  28.867  29.781  1.00  0.00    -0.248 NA
ATOM     38  C   UNL A   1      39.007  29.143  27.766  1.00  0.00     0.031 C 
ATOM     39  C   UNL A   1      37.307  31.741  31.718  1.00  0.00     0.029 A 
ATOM     40  N   UNL A   1      39.235  30.637  31.961  1.00  0.00    -0.354 N 
ATOM     41  C   UNL A   1      40.753  28.089  28.800  1.00  0.00     0.074 A 
ATOM     42  C   UNL A   1      39.991  28.273  27.584  1.00  0.00     0.031 C 
ATOM     43  C   UNL A   1      37.789  32.043  32.932  1.00  0.00     0.029 A 
ATOM     44  C   UNL A   1      39.007  31.274  33.156  1.00  0.00     0.049 A 
ATOM     45  H   UNL A   1      40.037  30.096  31.781  1.00  0.00     0.167 HD
ATOM     46  C   UNL A   1      41.838  27.288  28.917  1.00  0.00     0.037 A 
ATOM     47  C   UNL A   1      39.669  31.201  34.326  1.00  0.00     0.037 A 
ATOM     48  C   UNL A   1      42.629  27.170  30.114  1.00  0.00     0.049 A 
ATOM     49  C   UNL A   1      40.865  30.298  34.427  1.00  0.00     0.074 A 
ATOM     50  C   UNL A   1      43.776  26.422  30.321  1.00  0.00     0.029 A 
ATOM     51  N   UNL A   1      42.363  27.833  31.302  1.00  0.00    -0.354 N 
ATOM     52  N   UNL A   1      41.405  29.537  33.507  1.00  0.00    -0.248 NA
ATOM     53  C   UNL A   1      41.532  30.231  35.734  1.00  0.00     0.031 C 
ATOM     54  C   UNL A   1      44.183  26.607  31.646  1.00  0.00     0.029 A 
ATOM     55  C   UNL A   1      43.314  27.498  32.252  1.00  0.00     0.049 A 
ATOM     56  H   UNL A   1      41.610  28.451  31.450  1.00  0.00     0.167 HD
ATOM     57  C   UNL A   1      42.479  28.908  34.117  1.00  0.00     0.074 A 
ATOM     58  C   UNL A   1      42.529  29.395  35.481  1.00  0.00     0.031 C 
ATOM     59  C   UNL A   1      43.345  28.003  33.600  1.00  0.00     0.037 A 
BRANCH  46  60
ATOM     60  C   UNL A   1      42.221  26.442  27.740  1.00  0.00     0.064 A 
ATOM     61  C   UNL A   1      43.230  26.823  26.845  1.00  0.00     0.173 A 
ATOM     62  C   UNL A   1      41.609  25.193  27.547  1.00  0.00     0.173 A 
ATOM     63  F   UNL A   1      43.837  28.011  26.977  1.00  0.00    -0.203 F 
ATOM     64  C   UNL A   1      43.605  25.988  25.794  1.00  0.00     0.198 A 
ATOM     65  C   UNL A   1      42.002  24.352  26.511  1.00  0.00     0.198 A 
ATOM     66  F   UNL A   1      40.640  24.781  28.380  1.00  0.00    -0.203 F 
ATOM     67  F   UNL A   1      44.554  26.381  24.933  1.00  0.00    -0.200 F 
ATOM     68  C   UNL A   1      42.997  24.751  25.633  1.00  0.00     0.200 A 
ATOM     69  F   UNL A   1      41.421  23.153  26.365  1.00  0.00    -0.200 F 
ATOM     70  F   UNL A   1      43.371  23.943  24.631  1.00  0.00    -0.200 F 
ENDBRANCH  46  60
BRANCH  47  71
ATOM     71  C   UNL A   1      39.176  31.958  35.504  1.00  0.00     0.064 A 
ATOM     72  C   UNL A   1      38.343  31.354  36.454  1.00  0.00     0.173 A 
ATOM     73  C   UNL A   1      39.527  33.302  35.703  1.00  0.00     0.173 A 
ATOM     74  F   UNL A   1      37.960  30.080  36.295  1.00  0.00    -0.203 F 
ATOM     75  C   UNL A   1      37.866  32.071  37.551  1.00  0.00     0.198 A 
ATOM     76  C   UNL A   1      39.078  34.008  36.816  1.00  0.00     0.198 A 
ATOM     77  F   UNL A   1      40.325  33.927  34.823  1.00  0.00    -0.203 F 
ATOM     78  F   UNL A   1      37.034  31.484  38.420  1.00  0.00    -0.200 F 
ATOM     79  C   UNL A   1      38.240  33.394  37.734  1.00  0.00     0.200 A 
ATOM     80  F   UNL A   1      39.454  35.280  36.997  1.00  0.00    -0.200 F 
ATOM     81  F   UNL A   1      37.786  34.080  38.792  1.00  0.00    -0.200 F 
ENDBRANCH  47  71
BRANCH  59  82
ATOM     82  C   UNL A   1      44.432  27.511  34.504  1.00  0.00     0.064 A 
ATOM     83  C   UNL A   1      45.648  28.199  34.627  1.00  0.00     0.173 A 
ATOM     84  C   UNL A   1      44.244  26.355  35.276  1.00  0.00     0.173 A 
ATOM     85  F   UNL A   1      45.879  29.298  33.894  1.00  0.00    -0.203 F 
ATOM     86  C   UNL A   1      46.648  27.731  35.476  1.00  0.00     0.198 A 
ATOM     87  C   UNL A   1      45.235  25.906  36.142  1.00  0.00     0.198 A 
ATOM     88  F   UNL A   1      43.095  25.668  35.195  1.00  0.00    -0.203 F 
ATOM     89  F   UNL A   1      47.820  28.377  35.545  1.00  0.00    -0.200 F 
ATOM     90  C   UNL A   1      46.438  26.590  36.236  1.00  0.00     0.200 A 
ATOM     91  F   UNL A   1      45.029  24.809  36.883  1.00  0.00    -0.200 F 
ATOM     92  F   UNL A   1      47.401  26.144  37.055  1.00  0.00    -0.200 F 
ENDBRANCH  59  82
ENDBRANCH  33  34
ENDBRANCH  26  28
ENDBRANCH  25  26
ENDBRANCH   1  25
TORSDOF 12
ENDMDL
MODEL 3
REMARK VINA RESULT:     -13.0      0.513      1.670
REMARK SMILES C[C@@H]1C[C@H](C)C[C@H]([N@H+]2[C@@H](C(=O)OCCOC(=O)c3ccc(-c4c5nc(c(-c6c(F)c(F)c(F)c(F)c6F)c6ccc([nH]6)c(-c6c(F)c(F)c(F)c(F)c6F)c6nc(c(-c7c(F)c(F)c(F)c(F)c7F)c7ccc4[nH]7)C=C6)C=C5)cc3)CC[C@@H]3CCCC[C@@H]32)C1
REMARK SMILES IDX 14 1 13 2 12 3 10 4 11 5 9 6 8 7 88 8 81 10 83 11 87 12
REMARK SMILES IDX 82 13 84 14 86 15 85 16 7 17 5 18 4 19 6 20 3 21 2 22 89 23
REMARK SMILES IDX 1 24 15 25 16 26 17 27 18 28 19 29 80 30 20 31 79 32 21 33
REMARK SMILES IDX 22 34 23 35 73 36 24 37 78 38 72 39 74 40 25 41 77 42 71 43
REMARK SMILES IDX 70 44 26 46 58 47 38 48 57 49 39 50 42 51 56 52 75 53 40 54
REMARK SMILES IDX 41 55 55 57 76 58 43 59 27 60 28 61 36 62 29 63 30 64 34 65
REMARK SMILES IDX 37 66 31 67 32 68 35 69 33 70 59 71 60 72 68 73 61 74 62 75
REMARK SMILES IDX 66 76 69 77 63 78 64 79 67 80 65 81 44 82 45 83 53 84 46 85
REMARK SMILES IDX 47 86 51 87 54 88 48 89 49 90 52 91 50 92
REMARK H PARENT 8 9 74 45 42 56
REMARK Flexibility Score: inf
ROOT
ATOM      1  C   UNL A   1      31.778  30.116  26.844  1.00  0.00     0.275 C 
ENDROOT
BRANCH   1   2
ATOM      2  C   UNL A   1      31.778  28.650  27.266  1.00  0.00     0.274 C 
BRANCH   2   3
ATOM      3  O   UNL A   1      31.856  27.789  26.108  1.00  0.00    -0.458 OA
BRANCH   3   4
ATOM      4  C   UNL A   1      32.818  26.828  26.127  1.00  0.00     0.365 C 
ATOM      5  O   UNL A   1      34.025  27.064  26.125  1.00  0.00    -0.245 OA
BRANCH   4   6
ATOM      6  C   UNL A   1      32.264  25.380  26.126  1.00  0.00     0.295 C 
ATOM      7  N   UNL A   1      33.075  24.464  25.266  1.00  0.00    -0.318 N 
ATOM      8  C   UNL A   1      32.833  24.744  23.834  1.00  0.00     0.188 C 
ATOM      9  H   UNL A   1      32.816  23.485  25.143  1.00  0.00     0.349 HD
ATOM     10  C   UNL A   1      30.770  25.199  25.873  1.00  0.00     0.078 C 
ATOM     11  C   UNL A   1      31.332  24.471  23.523  1.00  0.00     0.048 C 
ATOM     12  C   UNL A   1      33.649  24.056  22.732  1.00  0.00     0.065 C 
ATOM     13  C   UNL A   1      30.384  25.269  24.413  1.00  0.00     0.016 C 
ATOM     14  C   UNL A   1      31.071  22.960  23.623  1.00  0.00     0.010 C 
ATOM     15  C   UNL A   1      32.993  22.932  21.913  1.00  0.00     0.006 C 
ATOM     16  C   UNL A   1      31.776  22.219  22.498  1.00  0.00     0.001 C 
BRANCH   7  17
ATOM     17  C   UNL A   1      34.332  24.084  25.949  1.00  0.00     0.185 C 
ATOM     18  C   UNL A   1      34.182  20.869  25.023  1.00  0.00     0.008 C 
ATOM     19  C   UNL A   1      34.917  21.545  26.164  1.00  0.00    -0.008 C 
ATOM     20  C   UNL A   1      34.175  22.757  26.713  1.00  0.00     0.068 C 
ATOM     21  C   UNL A   1      36.377  21.870  25.838  1.00  0.00     0.007 C 
ATOM     22  C   UNL A   1      36.654  23.169  25.062  1.00  0.00    -0.008 C 
ATOM     23  C   UNL A   1      35.728  24.355  25.376  1.00  0.00     0.068 C 
ATOM     24  C   UNL A   1      36.851  22.952  23.560  1.00  0.00     0.008 C 
ENDBRANCH   7  17
ENDBRANCH   4   6
ENDBRANCH   3   4
ENDBRANCH   2   3
ENDBRANCH   1   2
BRANCH   1  25
ATOM     25  O   UNL A   1      33.111  30.513  26.484  1.00  0.00    -0.458 OA
BRANCH  25  26
ATOM     26  C   UNL A   1      33.630  31.492  27.258  1.00  0.00     0.338 C 
ATOM     27  O   UNL A   1      33.095  32.524  27.620  1.00  0.00    -0.246 OA
BRANCH  26  28
ATOM     28  C   UNL A   1      34.979  31.121  27.699  1.00  0.00     0.060 A 
ATOM     29  C   UNL A   1      35.252  29.791  28.016  1.00  0.00     0.016 A 
ATOM     30  C   UNL A   1      35.898  32.122  28.001  1.00  0.00     0.016 A 
ATOM     31  C   UNL A   1      36.378  29.475  28.764  1.00  0.00     0.010 A 
ATOM     32  C   UNL A   1      37.091  31.783  28.639  1.00  0.00     0.010 A 
ATOM     33  C   UNL A   1      37.321  30.463  29.070  1.00  0.00    -0.014 A 
BRANCH  33  34
ATOM     34  C   UNL A   1      38.533  30.125  29.860  1.00  0.00     0.031 A 
ATOM     35  C   UNL A   1      39.572  29.201  29.286  1.00  0.00     0.074 A 
ATOM     36  C   UNL A   1      38.692  30.637  31.095  1.00  0.00     0.049 A 
ATOM     37  N   UNL A   1      40.574  28.609  29.884  1.00  0.00    -0.248 NA
ATOM     38  C   UNL A   1      39.463  28.888  27.851  1.00  0.00     0.031 C 
ATOM     39  C   UNL A   1      37.780  31.580  31.747  1.00  0.00     0.029 A 
ATOM     40  N   UNL A   1      39.676  30.430  32.030  1.00  0.00    -0.354 N 
ATOM     41  C   UNL A   1      41.168  27.803  28.922  1.00  0.00     0.074 A 
ATOM     42  C   UNL A   1      40.426  27.991  27.694  1.00  0.00     0.031 C 
ATOM     43  C   UNL A   1      38.255  31.885  32.963  1.00  0.00     0.029 A 
ATOM     44  C   UNL A   1      39.449  31.088  33.214  1.00  0.00     0.049 A 
ATOM     45  H   UNL A   1      40.466  29.866  31.867  1.00  0.00     0.167 HD
ATOM     46  C   UNL A   1      42.230  26.976  29.063  1.00  0.00     0.037 A 
ATOM     47  C   UNL A   1      40.095  31.013  34.392  1.00  0.00     0.037 A 
ATOM     48  C   UNL A   1      43.003  26.853  30.271  1.00  0.00     0.049 A 
ATOM     49  C   UNL A   1      41.265  30.082  34.521  1.00  0.00     0.074 A 
ATOM     50  C   UNL A   1      44.127  26.079  30.503  1.00  0.00     0.029 A 
ATOM     51  N   UNL A   1      42.738  27.539  31.448  1.00  0.00    -0.354 N 
ATOM     52  N   UNL A   1      41.797  29.295  33.618  1.00  0.00    -0.248 NA
ATOM     53  C   UNL A   1      41.913  30.014  35.837  1.00  0.00     0.031 C 
ATOM     54  C   UNL A   1      44.522  26.270  31.831  1.00  0.00     0.029 A 
ATOM     55  C   UNL A   1      43.668  27.192  32.414  1.00  0.00     0.049 A 
ATOM     56  H   UNL A   1      42.000  28.177  31.577  1.00  0.00     0.167 HD
ATOM     57  C   UNL A   1      42.847  28.647  34.250  1.00  0.00     0.074 A 
ATOM     58  C   UNL A   1      42.891  29.150  35.608  1.00  0.00     0.031 C 
ATOM     59  C   UNL A   1      43.695  27.713  33.755  1.00  0.00     0.037 A 
BRANCH  46  60
ATOM     60  C   UNL A   1      42.605  26.105  27.901  1.00  0.00     0.064 A 
ATOM     61  C   UNL A   1      41.957  24.890  27.640  1.00  0.00     0.173 A 
ATOM     62  C   UNL A   1      43.589  26.533  26.995  1.00  0.00     0.173 A 
ATOM     63  F   UNL A   1      41.020  24.430  28.481  1.00  0.00    -0.203 F 
ATOM     64  C   UNL A   1      42.287  24.130  26.519  1.00  0.00     0.198 A 
ATOM     65  C   UNL A   1      43.900  25.784  25.864  1.00  0.00     0.198 A 
ATOM     66  F   UNL A   1      44.235  27.692  27.199  1.00  0.00    -0.203 F 
ATOM     67  F   UNL A   1      41.675  22.959  26.300  1.00  0.00    -0.200 F 
ATOM     68  C   UNL A   1      43.251  24.582  25.628  1.00  0.00     0.200 A 
ATOM     69  F   UNL A   1      44.823  26.228  25.001  1.00  0.00    -0.200 F 
ATOM     70  F   UNL A   1      43.556  23.858  24.543  1.00  0.00    -0.200 F 
ENDBRANCH  46  60
BRANCH  47  71
ATOM     71  C   UNL A   1      39.606  31.799  35.555  1.00  0.00     0.064 A 
ATOM     72  C   UNL A   1      38.624  31.286  36.411  1.00  0.00     0.173 A 
ATOM     73  C   UNL A   1      40.111  33.078  35.830  1.00  0.00     0.173 A 
ATOM     74  F   UNL A   1      38.093  30.078  36.175  1.00  0.00    -0.203 F 
ATOM     75  C   UNL A   1      38.153  32.031  37.491  1.00  0.00     0.198 A 
ATOM     76  C   UNL A   1      39.665  33.808  36.929  1.00  0.00     0.198 A 
ATOM     77  F   UNL A   1      41.055  33.614  35.041  1.00  0.00    -0.203 F 
ATOM     78  F   UNL A   1      37.181  31.537  38.269  1.00  0.00    -0.200 F 
ATOM     79  C   UNL A   1      38.680  33.287  37.753  1.00  0.00     0.200 A 
ATOM     80  F   UNL A   1      40.187  35.014  37.187  1.00  0.00    -0.200 F 
ATOM     81  F   UNL A   1      38.231  34.000  38.796  1.00  0.00    -0.200 F 
ENDBRANCH  47  71
BRANCH  59  82
ATOM     82  C   UNL A   1      44.757  27.205  34.680  1.00  0.00     0.064 A 
ATOM     83  C   UNL A   1      44.557  26.059  35.463  1.00  0.00     0.173 A 
ATOM     84  C   UNL A   1      45.997  27.856  34.764  1.00  0.00     0.173 A 
ATOM     85  F   UNL A   1      43.380  25.416  35.430  1.00  0.00    -0.203 F 
ATOM     86  C   UNL A   1      45.556  25.596  36.316  1.00  0.00     0.198 A 
ATOM     87  C   UNL A   1      47.001  27.374  35.597  1.00  0.00     0.198 A 
ATOM     88  F   UNL A   1      46.235  28.952  34.029  1.00  0.00    -0.203 F 
ATOM     89  F   UNL A   1      45.328  24.525  37.090  1.00  0.00    -0.200 F 
ATOM     90  C   UNL A   1      46.777  26.249  36.377  1.00  0.00     0.200 A 
ATOM     91  F   UNL A   1      48.184  28.001  35.649  1.00  0.00    -0.200 F 
ATOM     92  F   UNL A   1      47.738  25.800  37.197  1.00  0.00    -0.200 F 
ENDBRANCH  59  82
ENDBRANCH  33  34
ENDBRANCH  26  28
ENDBRANCH  25  26
ENDBRANCH   1  25
TORSDOF 12
ENDMDL
