MODEL 1
REMARK VINA RESULT:     -12.3      0.000      0.000
REMARK SMILES Cc1ccccc1OCC(=O)NCCC(=O)OCCOC(=O)c1ccc(-c2c3nc(c(-c4c(F)c(F)c(F)c(F)c4F)c4ccc([nH]4)c(-c4c(F)c(F)c(F)c(F)c4F)c4nc(c(-c5c(F)c(F)c(F)c(F)c5F)c5ccc2[nH]5)C=C4)C=C3)cc1
REMARK SMILES IDX 17 1 15 2 16 3 14 4 13 5 12 6 10 7 11 8 9 10 8 11 7 12 1 13
REMARK SMILES IDX 2 14 3 15 4 16 6 17 5 18 18 19 19 20 20 21 21 22 22 23 23 24
REMARK SMILES IDX 24 25 85 26 25 27 84 28 26 29 27 30 28 31 78 32 29 33 83 34
REMARK SMILES IDX 77 35 79 36 30 37 82 38 76 39 75 40 31 42 63 43 43 44 62 45
REMARK SMILES IDX 44 46 47 47 61 48 80 49 45 50 46 51 60 53 81 54 48 55 32 56
REMARK SMILES IDX 33 57 41 58 34 59 35 60 39 61 42 62 36 63 37 64 40 65 38 66
REMARK SMILES IDX 64 67 65 68 73 69 66 70 67 71 71 72 74 73 68 74 69 75 72 76
REMARK SMILES IDX 70 77 49 78 50 79 58 80 51 81 52 82 56 83 59 84 53 85 54 86
REMARK SMILES IDX 57 87 55 88
REMARK H PARENT 12 9 79 41 47 52
REMARK Flexibility Score: inf
ROOT
ATOM      1  O   UNL A   1      31.717  29.363  25.986  1.00  0.00    -0.462 OA
ENDROOT
BRANCH   1   2
ATOM      2  C   UNL A   1      31.458  28.032  26.116  1.00  0.00     0.307 C 
ATOM      3  O   UNL A   1      31.203  27.474  27.160  1.00  0.00    -0.252 OA
BRANCH   2   4
ATOM      4  C   UNL A   1      31.463  27.359  24.766  1.00  0.00     0.144 C 
BRANCH   4   5
ATOM      5  C   UNL A   1      32.661  27.770  23.932  1.00  0.00     0.127 C 
BRANCH   5   6
ATOM      6  N   UNL A   1      32.573  27.172  22.617  1.00  0.00    -0.353 N 
ATOM      7  C   UNL A   1      33.269  26.083  22.173  1.00  0.00     0.257 C 
ATOM      8  O   UNL A   1      33.353  25.901  20.959  1.00  0.00    -0.271 OA
ATOM      9  H   UNL A   1      31.950  27.592  21.979  1.00  0.00     0.163 HD
BRANCH   7  10
ATOM     10  C   UNL A   1      33.828  25.083  23.200  1.00  0.00     0.329 C 
BRANCH  10  11
ATOM     11  O   UNL A   1      34.653  24.030  22.760  1.00  0.00    -0.484 OA
BRANCH  11  12
ATOM     12  C   UNL A   1      35.073  23.001  23.551  1.00  0.00     0.122 A 
ATOM     13  C   UNL A   1      32.867  21.752  24.066  1.00  0.00     0.048 C 
ATOM     14  C   UNL A   1      34.347  21.971  24.166  1.00  0.00    -0.009 A 
ATOM     15  C   UNL A   1      35.067  20.971  24.864  1.00  0.00     0.007 A 
ATOM     16  C   UNL A   1      36.459  20.980  24.949  1.00  0.00     0.001 A 
ATOM     17  C   UNL A   1      36.481  22.988  23.640  1.00  0.00     0.047 A 
ATOM     18  C   UNL A   1      37.171  21.991  24.329  1.00  0.00     0.004 A 
ENDBRANCH  11  12
ENDBRANCH  10  11
ENDBRANCH   7  10
ENDBRANCH   5   6
ENDBRANCH   4   5
ENDBRANCH   2   4
ENDBRANCH   1   2
BRANCH   1  19
ATOM     19  C   UNL A   1      32.415  29.947  27.080  1.00  0.00     0.274 C 
BRANCH  19  20
ATOM     20  C   UNL A   1      33.928  29.881  26.832  1.00  0.00     0.275 C 
BRANCH  20  21
ATOM     21  O   UNL A   1      34.863  30.107  27.946  1.00  0.00    -0.458 OA
BRANCH  21  22
ATOM     22  C   UNL A   1      36.065  30.741  28.009  1.00  0.00     0.338 C 
ATOM     23  O   UNL A   1      36.181  31.930  27.745  1.00  0.00    -0.246 OA
BRANCH  22  24
ATOM     24  C   UNL A   1      37.243  29.970  28.442  1.00  0.00     0.060 A 
ATOM     25  C   UNL A   1      37.192  29.134  29.577  1.00  0.00     0.016 A 
ATOM     26  C   UNL A   1      38.347  29.958  27.618  1.00  0.00     0.016 A 
ATOM     27  C   UNL A   1      38.189  28.180  29.784  1.00  0.00     0.010 A 
ATOM     28  C   UNL A   1      39.154  28.861  27.656  1.00  0.00     0.010 A 
ATOM     29  C   UNL A   1      39.141  28.030  28.783  1.00  0.00    -0.014 A 
BRANCH  29  30
ATOM     30  C   UNL A   1      40.389  27.301  28.901  1.00  0.00     0.031 A 
ATOM     31  C   UNL A   1      40.500  25.873  28.593  1.00  0.00     0.074 A 
ATOM     32  C   UNL A   1      41.423  28.166  29.036  1.00  0.00     0.049 A 
ATOM     33  N   UNL A   1      41.519  25.162  28.915  1.00  0.00    -0.248 NA
ATOM     34  C   UNL A   1      39.485  25.101  27.892  1.00  0.00     0.031 C 
ATOM     35  C   UNL A   1      42.853  28.037  28.853  1.00  0.00     0.029 A 
ATOM     36  N   UNL A   1      41.278  29.496  29.490  1.00  0.00    -0.354 N 
ATOM     37  C   UNL A   1      41.471  23.996  28.175  1.00  0.00     0.074 A 
ATOM     38  C   UNL A   1      40.126  23.948  27.665  1.00  0.00     0.031 C 
ATOM     39  C   UNL A   1      43.452  29.040  29.532  1.00  0.00     0.029 A 
ATOM     40  C   UNL A   1      42.409  29.762  30.256  1.00  0.00     0.049 A 
ATOM     41  H   UNL A   1      40.532  30.109  29.303  1.00  0.00     0.167 HD
ATOM     42  C   UNL A   1      42.648  23.332  27.970  1.00  0.00     0.037 A 
ATOM     43  C   UNL A   1      42.213  29.802  31.608  1.00  0.00     0.037 A 
ATOM     44  C   UNL A   1      43.713  24.032  28.701  1.00  0.00     0.049 A 
ATOM     45  C   UNL A   1      42.910  28.621  32.238  1.00  0.00     0.074 A 
ATOM     46  C   UNL A   1      44.665  24.949  28.292  1.00  0.00     0.029 A 
ATOM     47  N   UNL A   1      43.624  24.145  30.087  1.00  0.00    -0.354 N 
ATOM     48  N   UNL A   1      43.052  27.452  31.667  1.00  0.00    -0.248 NA
ATOM     49  C   UNL A   1      43.631  28.734  33.496  1.00  0.00     0.031 C 
ATOM     50  C   UNL A   1      45.075  25.687  29.439  1.00  0.00     0.029 A 
ATOM     51  C   UNL A   1      44.380  25.209  30.541  1.00  0.00     0.049 A 
ATOM     52  H   UNL A   1      43.094  23.547  30.664  1.00  0.00     0.167 HD
ATOM     53  C   UNL A   1      43.964  26.715  32.379  1.00  0.00     0.074 A 
ATOM     54  C   UNL A   1      44.271  27.554  33.529  1.00  0.00     0.031 C 
ATOM     55  C   UNL A   1      44.454  25.506  31.967  1.00  0.00     0.037 A 
BRANCH  42  56
ATOM     56  C   UNL A   1      42.947  22.259  26.932  1.00  0.00     0.064 A 
ATOM     57  C   UNL A   1      42.309  20.997  27.022  1.00  0.00     0.173 A 
ATOM     58  C   UNL A   1      43.867  22.359  25.869  1.00  0.00     0.173 A 
ATOM     59  F   UNL A   1      41.351  20.761  27.928  1.00  0.00    -0.203 F 
ATOM     60  C   UNL A   1      42.620  19.921  26.180  1.00  0.00     0.198 A 
ATOM     61  C   UNL A   1      44.185  21.280  25.032  1.00  0.00     0.198 A 
ATOM     62  F   UNL A   1      44.476  23.507  25.562  1.00  0.00    -0.203 F 
ATOM     63  F   UNL A   1      41.990  18.748  26.340  1.00  0.00    -0.200 F 
ATOM     64  C   UNL A   1      43.570  20.058  25.194  1.00  0.00     0.200 A 
ATOM     65  F   UNL A   1      45.094  21.441  24.059  1.00  0.00    -0.200 F 
ATOM     66  F   UNL A   1      43.876  19.029  24.392  1.00  0.00    -0.200 F 
ENDBRANCH  42  56
BRANCH  43  67
ATOM     67  C   UNL A   1      40.880  30.397  31.999  1.00  0.00     0.064 A 
ATOM     68  C   UNL A   1      39.849  29.512  32.416  1.00  0.00     0.173 A 
ATOM     69  C   UNL A   1      40.672  31.755  32.270  1.00  0.00     0.173 A 
ATOM     70  F   UNL A   1      39.967  28.193  32.190  1.00  0.00    -0.203 F 
ATOM     71  C   UNL A   1      38.755  29.940  33.171  1.00  0.00     0.198 A 
ATOM     72  C   UNL A   1      39.547  32.188  32.994  1.00  0.00     0.198 A 
ATOM     73  F   UNL A   1      41.585  32.667  31.913  1.00  0.00    -0.203 F 
ATOM     74  F   UNL A   1      37.890  29.043  33.666  1.00  0.00    -0.200 F 
ATOM     75  C   UNL A   1      38.610  31.280  33.470  1.00  0.00     0.200 A 
ATOM     76  F   UNL A   1      39.413  33.486  33.309  1.00  0.00    -0.200 F 
ATOM     77  F   UNL A   1      37.603  31.690  34.254  1.00  0.00    -0.200 F 
ENDBRANCH  43  67
BRANCH  55  78
ATOM     78  C   UNL A   1      45.155  24.498  32.851  1.00  0.00     0.064 A 
ATOM     79  C   UNL A   1      46.433  24.696  33.398  1.00  0.00     0.173 A 
ATOM     80  C   UNL A   1      44.465  23.354  33.333  1.00  0.00     0.173 A 
ATOM     81  F   UNL A   1      47.140  25.806  33.156  1.00  0.00    -0.203 F 
ATOM     82  C   UNL A   1      47.006  23.784  34.285  1.00  0.00     0.198 A 
ATOM     83  C   UNL A   1      45.004  22.500  34.290  1.00  0.00     0.198 A 
ATOM     84  F   UNL A   1      43.227  23.042  32.924  1.00  0.00    -0.203 F 
ATOM     85  F   UNL A   1      48.258  23.989  34.720  1.00  0.00    -0.200 F 
ATOM     86  C   UNL A   1      46.287  22.700  34.747  1.00  0.00     0.200 A 
ATOM     87  F   UNL A   1      44.260  21.501  34.782  1.00  0.00    -0.200 F 
ATOM     88  F   UNL A   1      46.819  21.867  35.649  1.00  0.00    -0.200 F 
ENDBRANCH  55  78
ENDBRANCH  29  30
ENDBRANCH  22  24
ENDBRANCH  21  22
ENDBRANCH  20  21
ENDBRANCH  19  20
ENDBRANCH   1  19
TORSDOF 16
ENDMDL
MODEL 2
REMARK VINA RESULT:     -12.1      1.330      2.118
REMARK SMILES Cc1ccccc1OCC(=O)NCCC(=O)OCCOC(=O)c1ccc(-c2c3nc(c(-c4c(F)c(F)c(F)c(F)c4F)c4ccc([nH]4)c(-c4c(F)c(F)c(F)c(F)c4F)c4nc(c(-c5c(F)c(F)c(F)c(F)c5F)c5ccc2[nH]5)C=C4)C=C3)cc1
REMARK SMILES IDX 17 1 15 2 16 3 14 4 13 5 12 6 10 7 11 8 9 10 8 11 7 12 1 13
REMARK SMILES IDX 2 14 3 15 4 16 6 17 5 18 18 19 19 20 20 21 21 22 22 23 23 24
REMARK SMILES IDX 24 25 85 26 25 27 84 28 26 29 27 30 28 31 78 32 29 33 83 34
REMARK SMILES IDX 77 35 79 36 30 37 82 38 76 39 75 40 31 42 63 43 43 44 62 45
REMARK SMILES IDX 44 46 47 47 61 48 80 49 45 50 46 51 60 53 81 54 48 55 32 56
REMARK SMILES IDX 33 57 41 58 34 59 35 60 39 61 42 62 36 63 37 64 40 65 38 66
REMARK SMILES IDX 64 67 65 68 73 69 66 70 67 71 71 72 74 73 68 74 69 75 72 76
REMARK SMILES IDX 70 77 49 78 50 79 58 80 51 81 52 82 56 83 59 84 53 85 54 86
REMARK SMILES IDX 57 87 55 88
REMARK H PARENT 12 9 79 41 47 52
REMARK Flexibility Score: inf
ROOT
ATOM      1  O   UNL A   1      33.011  27.486  26.651  1.00  0.00    -0.462 OA
ENDROOT
BRANCH   1   2
ATOM      2  C   UNL A   1      31.664  27.287  26.704  1.00  0.00     0.307 C 
ATOM      3  O   UNL A   1      30.957  27.570  27.646  1.00  0.00    -0.252 OA
BRANCH   2   4
ATOM      4  C   UNL A   1      31.161  26.728  25.397  1.00  0.00     0.144 C 
BRANCH   4   5
ATOM      5  C   UNL A   1      30.309  25.489  25.601  1.00  0.00     0.127 C 
BRANCH   5   6
ATOM      6  N   UNL A   1      30.810  24.727  26.724  1.00  0.00    -0.353 N 
ATOM      7  C   UNL A   1      31.737  23.724  26.675  1.00  0.00     0.257 C 
ATOM      8  O   UNL A   1      31.810  22.951  27.629  1.00  0.00    -0.271 OA
ATOM      9  H   UNL A   1      30.447  24.953  27.612  1.00  0.00     0.163 HD
BRANCH   7  10
ATOM     10  C   UNL A   1      32.712  23.665  25.486  1.00  0.00     0.329 C 
BRANCH  10  11
ATOM     11  O   UNL A   1      34.098  23.732  25.727  1.00  0.00    -0.484 OA
BRANCH  11  12
ATOM     12  C   UNL A   1      34.974  22.722  25.454  1.00  0.00     0.122 A 
ATOM     13  C   UNL A   1      37.271  23.859  25.808  1.00  0.00     0.048 C 
ATOM     14  C   UNL A   1      36.376  22.707  25.461  1.00  0.00    -0.009 A 
ATOM     15  C   UNL A   1      37.032  21.474  25.225  1.00  0.00     0.007 A 
ATOM     16  C   UNL A   1      36.331  20.291  24.997  1.00  0.00     0.001 A 
ATOM     17  C   UNL A   1      34.282  21.513  25.231  1.00  0.00     0.047 A 
ATOM     18  C   UNL A   1      34.947  20.308  25.005  1.00  0.00     0.004 A 
ENDBRANCH  11  12
ENDBRANCH  10  11
ENDBRANCH   7  10
ENDBRANCH   5   6
ENDBRANCH   4   5
ENDBRANCH   2   4
ENDBRANCH   1   2
BRANCH   1  19
ATOM     19  C   UNL A   1      33.411  28.848  26.543  1.00  0.00     0.274 C 
BRANCH  19  20
ATOM     20  C   UNL A   1      34.828  29.024  27.106  1.00  0.00     0.275 C 
BRANCH  20  21
ATOM     21  O   UNL A   1      35.113  30.125  28.039  1.00  0.00    -0.458 OA
BRANCH  21  22
ATOM     22  C   UNL A   1      36.214  30.427  28.778  1.00  0.00     0.338 C 
ATOM     23  O   UNL A   1      36.229  31.369  29.558  1.00  0.00    -0.246 OA
BRANCH  22  24
ATOM     24  C   UNL A   1      37.403  29.565  28.651  1.00  0.00     0.060 A 
ATOM     25  C   UNL A   1      38.294  29.706  27.566  1.00  0.00     0.016 A 
ATOM     26  C   UNL A   1      37.712  28.730  29.703  1.00  0.00     0.016 A 
ATOM     27  C   UNL A   1      39.560  29.122  27.626  1.00  0.00     0.010 A 
ATOM     28  C   UNL A   1      39.021  28.405  29.890  1.00  0.00     0.010 A 
ATOM     29  C   UNL A   1      39.921  28.511  28.821  1.00  0.00    -0.014 A 
BRANCH  29  30
ATOM     30  C   UNL A   1      41.058  27.632  29.015  1.00  0.00     0.031 A 
ATOM     31  C   UNL A   1      41.014  26.203  28.694  1.00  0.00     0.074 A 
ATOM     32  C   UNL A   1      42.178  28.362  29.234  1.00  0.00     0.049 A 
ATOM     33  N   UNL A   1      41.912  25.370  29.076  1.00  0.00    -0.248 NA
ATOM     34  C   UNL A   1      39.964  25.568  27.912  1.00  0.00     0.031 C 
ATOM     35  C   UNL A   1      43.591  28.057  29.149  1.00  0.00     0.029 A 
ATOM     36  N   UNL A   1      42.167  29.696  29.696  1.00  0.00    -0.354 N 
ATOM     37  C   UNL A   1      41.773  24.223  28.317  1.00  0.00     0.074 A 
ATOM     38  C   UNL A   1      40.472  24.345  27.714  1.00  0.00     0.031 C 
ATOM     39  C   UNL A   1      44.259  28.974  29.883  1.00  0.00     0.029 A 
ATOM     40  C   UNL A   1      43.264  29.816  30.543  1.00  0.00     0.049 A 
ATOM     41  H   UNL A   1      41.517  30.398  29.466  1.00  0.00     0.167 HD
ATOM     42  C   UNL A   1      42.871  23.419  28.185  1.00  0.00     0.037 A 
ATOM     43  C   UNL A   1      42.980  29.872  31.878  1.00  0.00     0.037 A 
ATOM     44  C   UNL A   1      43.959  23.977  28.999  1.00  0.00     0.049 A 
ATOM     45  C   UNL A   1      43.479  28.610  32.538  1.00  0.00     0.074 A 
ATOM     46  C   UNL A   1      45.044  24.772  28.671  1.00  0.00     0.029 A 
ATOM     47  N   UNL A   1      43.787  24.092  30.376  1.00  0.00    -0.354 N 
ATOM     48  N   UNL A   1      43.516  27.435  31.962  1.00  0.00    -0.248 NA
ATOM     49  C   UNL A   1      44.117  28.625  33.845  1.00  0.00     0.031 C 
ATOM     50  C   UNL A   1      45.460  25.446  29.855  1.00  0.00     0.029 A 
ATOM     51  C   UNL A   1      44.634  25.052  30.898  1.00  0.00     0.049 A 
ATOM     52  H   UNL A   1      43.148  23.561  30.906  1.00  0.00     0.167 HD
ATOM     53  C   UNL A   1      44.277  26.588  32.725  1.00  0.00     0.074 A 
ATOM     54  C   UNL A   1      44.603  27.375  33.905  1.00  0.00     0.031 C 
ATOM     55  C   UNL A   1      44.643  25.329  32.330  1.00  0.00     0.037 A 
BRANCH  42  56
ATOM     56  C   UNL A   1      43.109  22.324  27.155  1.00  0.00     0.064 A 
ATOM     57  C   UNL A   1      42.309  21.155  27.175  1.00  0.00     0.173 A 
ATOM     58  C   UNL A   1      44.114  22.311  26.167  1.00  0.00     0.173 A 
ATOM     59  F   UNL A   1      41.261  21.039  28.002  1.00  0.00    -0.203 F 
ATOM     60  C   UNL A   1      42.542  20.054  26.341  1.00  0.00     0.198 A 
ATOM     61  C   UNL A   1      44.354  21.205  25.338  1.00  0.00     0.198 A 
ATOM     62  F   UNL A   1      44.888  23.371  25.926  1.00  0.00    -0.203 F 
ATOM     63  F   UNL A   1      41.755  18.971  26.433  1.00  0.00    -0.200 F 
ATOM     64  C   UNL A   1      43.575  20.072  25.432  1.00  0.00     0.200 A 
ATOM     65  F   UNL A   1      45.349  21.253  24.440  1.00  0.00    -0.200 F 
ATOM     66  F   UNL A   1      43.807  19.018  24.639  1.00  0.00    -0.200 F 
ENDBRANCH  42  56
BRANCH  43  67
ATOM     67  C   UNL A   1      41.705  30.625  32.184  1.00  0.00     0.064 A 
ATOM     68  C   UNL A   1      40.603  29.893  32.701  1.00  0.00     0.173 A 
ATOM     69  C   UNL A   1      41.619  32.020  32.284  1.00  0.00     0.173 A 
ATOM     70  F   UNL A   1      40.603  28.551  32.641  1.00  0.00    -0.203 F 
ATOM     71  C   UNL A   1      39.554  30.505  33.390  1.00  0.00     0.198 A 
ATOM     72  C   UNL A   1      40.539  32.635  32.941  1.00  0.00     0.198 A 
ATOM     73  F   UNL A   1      42.607  32.796  31.822  1.00  0.00    -0.203 F 
ATOM     74  F   UNL A   1      38.616  29.756  33.987  1.00  0.00    -0.200 F 
ATOM     75  C   UNL A   1      39.529  31.879  33.520  1.00  0.00     0.200 A 
ATOM     76  F   UNL A   1      40.521  33.969  33.092  1.00  0.00    -0.200 F 
ATOM     77  F   UNL A   1      38.565  32.470  34.241  1.00  0.00    -0.200 F 
ENDBRANCH  43  67
BRANCH  55  78
ATOM     78  C   UNL A   1      45.150  24.237  33.246  1.00  0.00     0.064 A 
ATOM     79  C   UNL A   1      44.398  23.107  33.602  1.00  0.00     0.173 A 
ATOM     80  C   UNL A   1      46.510  24.209  33.656  1.00  0.00     0.173 A 
ATOM     81  F   UNL A   1      43.149  22.922  33.159  1.00  0.00    -0.203 F 
ATOM     82  C   UNL A   1      44.935  22.075  34.374  1.00  0.00     0.198 A 
ATOM     83  C   UNL A   1      47.064  23.134  34.344  1.00  0.00     0.198 A 
ATOM     84  F   UNL A   1      47.362  25.204  33.372  1.00  0.00    -0.203 F 
ATOM     85  F   UNL A   1      44.149  21.054  34.743  1.00  0.00    -0.200 F 
ATOM     86  C   UNL A   1      46.270  22.078  34.727  1.00  0.00     0.200 A 
ATOM     87  F   UNL A   1      48.378  23.121  34.606  1.00  0.00    -0.200 F 
ATOM     88  F   UNL A   1      46.793  21.052  35.409  1.00  0.00    -0.200 F 
ENDBRANCH  55  78
ENDBRANCH  29  30
ENDBRANCH  22  24
ENDBRANCH  21  22
ENDBRANCH  20  21
ENDBRANCH  19  20
ENDBRANCH   1  19
TORSDOF 16
ENDMDL
MODEL 3
REMARK VINA RESULT:     -12.0      3.802     10.307
REMARK SMILES Cc1ccccc1OCC(=O)NCCC(=O)OCCOC(=O)c1ccc(-c2c3nc(c(-c4c(F)c(F)c(F)c(F)c4F)c4ccc([nH]4)c(-c4c(F)c(F)c(F)c(F)c4F)c4nc(c(-c5c(F)c(F)c(F)c(F)c5F)c5ccc2[nH]5)C=C4)C=C3)cc1
REMARK SMILES IDX 17 1 15 2 16 3 14 4 13 5 12 6 10 7 11 8 9 10 8 11 7 12 1 13
REMARK SMILES IDX 2 14 3 15 4 16 6 17 5 18 18 19 19 20 20 21 21 22 22 23 23 24
REMARK SMILES IDX 24 25 85 26 25 27 84 28 26 29 27 30 28 31 78 32 29 33 83 34
REMARK SMILES IDX 77 35 79 36 30 37 82 38 76 39 75 40 31 42 63 43 43 44 62 45
REMARK SMILES IDX 44 46 47 47 61 48 80 49 45 50 46 51 60 53 81 54 48 55 32 56
REMARK SMILES IDX 33 57 41 58 34 59 35 60 39 61 42 62 36 63 37 64 40 65 38 66
REMARK SMILES IDX 64 67 65 68 73 69 66 70 67 71 71 72 74 73 68 74 69 75 72 76
REMARK SMILES IDX 70 77 49 78 50 79 58 80 51 81 52 82 56 83 59 84 53 85 54 86
REMARK SMILES IDX 57 87 55 88
REMARK H PARENT 12 9 79 41 47 52
REMARK Flexibility Score: inf
ROOT
ATOM      1  O   UNL A   1      35.737  21.911  24.326  1.00  0.00    -0.462 OA
ENDROOT
BRANCH   1   2
ATOM      2  C   UNL A   1      34.598  22.658  24.374  1.00  0.00     0.307 C 
ATOM      3  O   UNL A   1      34.550  23.831  24.671  1.00  0.00    -0.252 OA
BRANCH   2   4
ATOM      4  C   UNL A   1      33.410  21.838  23.936  1.00  0.00     0.144 C 
BRANCH   4   5
ATOM      5  C   UNL A   1      32.118  22.630  24.007  1.00  0.00     0.127 C 
BRANCH   5   6
ATOM      6  N   UNL A   1      31.643  22.673  25.373  1.00  0.00    -0.353 N 
ATOM      7  C   UNL A   1      31.370  23.797  26.101  1.00  0.00     0.257 C 
ATOM      8  O   UNL A   1      31.309  23.698  27.326  1.00  0.00    -0.271 OA
ATOM      9  H   UNL A   1      31.504  21.808  25.823  1.00  0.00     0.163 HD
BRANCH   7  10
ATOM     10  C   UNL A   1      31.050  25.108  25.361  1.00  0.00     0.329 C 
BRANCH  10  11
ATOM     11  O   UNL A   1      32.106  25.955  24.971  1.00  0.00    -0.484 OA
BRANCH  11  12
ATOM     12  C   UNL A   1      32.418  27.129  25.593  1.00  0.00     0.122 A 
ATOM     13  C   UNL A   1      34.010  28.259  23.895  1.00  0.00     0.048 C 
ATOM     14  C   UNL A   1      33.251  28.181  25.187  1.00  0.00    -0.009 A 
ATOM     15  C   UNL A   1      33.316  29.336  26.004  1.00  0.00     0.007 A 
ATOM     16  C   UNL A   1      32.579  29.455  27.181  1.00  0.00     0.001 A 
ATOM     17  C   UNL A   1      31.673  27.272  26.782  1.00  0.00     0.047 A 
ATOM     18  C   UNL A   1      31.747  28.420  27.571  1.00  0.00     0.004 A 
ENDBRANCH  11  12
ENDBRANCH  10  11
ENDBRANCH   7  10
ENDBRANCH   5   6
ENDBRANCH   4   5
ENDBRANCH   2   4
ENDBRANCH   1   2
BRANCH   1  19
ATOM     19  C   UNL A   1      36.462  21.846  25.549  1.00  0.00     0.274 C 
BRANCH  19  20
ATOM     20  C   UNL A   1      37.756  22.664  25.436  1.00  0.00     0.275 C 
BRANCH  20  21
ATOM     21  O   UNL A   1      38.131  23.592  26.514  1.00  0.00    -0.458 OA
BRANCH  21  22
ATOM     22  C   UNL A   1      39.323  23.849  27.117  1.00  0.00     0.338 C 
ATOM     23  O   UNL A   1      40.170  22.980  27.268  1.00  0.00    -0.246 OA
BRANCH  22  24
ATOM     24  C   UNL A   1      39.601  25.226  27.563  1.00  0.00     0.060 A 
ATOM     25  C   UNL A   1      40.126  26.189  26.676  1.00  0.00     0.016 A 
ATOM     26  C   UNL A   1      39.183  25.594  28.823  1.00  0.00     0.016 A 
ATOM     27  C   UNL A   1      40.079  27.543  27.012  1.00  0.00     0.010 A 
ATOM     28  C   UNL A   1      38.878  26.905  29.031  1.00  0.00     0.010 A 
ATOM     29  C   UNL A   1      39.408  27.883  28.180  1.00  0.00    -0.014 A 
BRANCH  29  30
ATOM     30  C   UNL A   1      39.461  29.171  28.844  1.00  0.00     0.031 A 
ATOM     31  C   UNL A   1      38.452  30.212  28.628  1.00  0.00     0.074 A 
ATOM     32  C   UNL A   1      40.361  29.137  29.856  1.00  0.00     0.049 A 
ATOM     33  N   UNL A   1      38.604  31.428  29.011  1.00  0.00    -0.248 NA
ATOM     34  C   UNL A   1      37.174  29.993  27.967  1.00  0.00     0.031 C 
ATOM     35  C   UNL A   1      40.574  29.970  31.021  1.00  0.00     0.029 A 
ATOM     36  N   UNL A   1      41.417  28.202  29.935  1.00  0.00    -0.354 N 
ATOM     37  C   UNL A   1      37.363  32.034  28.990  1.00  0.00     0.074 A 
ATOM     38  C   UNL A   1      36.541  31.149  28.208  1.00  0.00     0.031 C 
ATOM     39  C   UNL A   1      41.841  29.773  31.447  1.00  0.00     0.029 A 
ATOM     40  C   UNL A   1      42.495  28.889  30.485  1.00  0.00     0.049 A 
ATOM     41  H   UNL A   1      41.395  27.258  29.659  1.00  0.00     0.167 HD
ATOM     42  C   UNL A   1      37.182  33.124  29.795  1.00  0.00     0.037 A 
ATOM     43  C   UNL A   1      43.499  29.208  29.616  1.00  0.00     0.037 A 
ATOM     44  C   UNL A   1      38.457  33.434  30.455  1.00  0.00     0.049 A 
ATOM     45  C   UNL A   1      43.528  30.705  29.429  1.00  0.00     0.074 A 
ATOM     46  C   UNL A   1      38.943  33.131  31.715  1.00  0.00     0.029 A 
ATOM     47  N   UNL A   1      39.561  33.768  29.675  1.00  0.00    -0.354 N 
ATOM     48  N   UNL A   1      42.471  31.478  29.463  1.00  0.00    -0.248 NA
ATOM     49  C   UNL A   1      44.776  31.447  29.344  1.00  0.00     0.031 C 
ATOM     50  C   UNL A   1      40.365  33.189  31.655  1.00  0.00     0.029 A 
ATOM     51  C   UNL A   1      40.737  33.537  30.365  1.00  0.00     0.049 A 
ATOM     52  H   UNL A   1      39.511  34.122  28.757  1.00  0.00     0.167 HD
ATOM     53  C   UNL A   1      42.878  32.785  29.543  1.00  0.00     0.074 A 
ATOM     54  C   UNL A   1      44.327  32.710  29.435  1.00  0.00     0.031 C 
ATOM     55  C   UNL A   1      42.025  33.836  29.750  1.00  0.00     0.037 A 
BRANCH  42  56
ATOM     56  C   UNL A   1      35.867  33.753  30.236  1.00  0.00     0.064 A 
ATOM     57  C   UNL A   1      35.019  34.357  29.274  1.00  0.00     0.173 A 
ATOM     58  C   UNL A   1      35.393  33.856  31.559  1.00  0.00     0.173 A 
ATOM     59  F   UNL A   1      35.285  34.282  27.963  1.00  0.00    -0.203 F 
ATOM     60  C   UNL A   1      33.857  35.060  29.613  1.00  0.00     0.198 A 
ATOM     61  C   UNL A   1      34.233  34.567  31.900  1.00  0.00     0.198 A 
ATOM     62  F   UNL A   1      36.000  33.248  32.581  1.00  0.00    -0.203 F 
ATOM     63  F   UNL A   1      33.116  35.625  28.649  1.00  0.00    -0.200 F 
ATOM     64  C   UNL A   1      33.470  35.178  30.929  1.00  0.00     0.200 A 
ATOM     65  F   UNL A   1      33.858  34.647  33.186  1.00  0.00    -0.200 F 
ATOM     66  F   UNL A   1      32.363  35.856  31.258  1.00  0.00    -0.200 F 
ENDBRANCH  42  56
BRANCH  43  67
ATOM     67  C   UNL A   1      43.738  28.146  28.567  1.00  0.00     0.064 A 
ATOM     68  C   UNL A   1      43.328  28.419  27.234  1.00  0.00     0.173 A 
ATOM     69  C   UNL A   1      44.593  27.050  28.735  1.00  0.00     0.173 A 
ATOM     70  F   UNL A   1      42.504  29.451  26.985  1.00  0.00    -0.203 F 
ATOM     71  C   UNL A   1      43.844  27.729  26.136  1.00  0.00     0.198 A 
ATOM     72  C   UNL A   1      45.078  26.330  27.630  1.00  0.00     0.198 A 
ATOM     73  F   UNL A   1      45.032  26.712  29.954  1.00  0.00    -0.203 F 
ATOM     74  F   UNL A   1      43.539  28.124  24.892  1.00  0.00    -0.200 F 
ATOM     75  C   UNL A   1      44.730  26.689  26.334  1.00  0.00     0.200 A 
ATOM     76  F   UNL A   1      45.958  25.334  27.814  1.00  0.00    -0.200 F 
ATOM     77  F   UNL A   1      45.286  26.068  25.283  1.00  0.00    -0.200 F 
ENDBRANCH  43  67
BRANCH  55  78
ATOM     78  C   UNL A   1      42.348  35.290  29.484  1.00  0.00     0.064 A 
ATOM     79  C   UNL A   1      43.206  36.057  30.287  1.00  0.00     0.173 A 
ATOM     80  C   UNL A   1      41.934  35.915  28.278  1.00  0.00     0.173 A 
ATOM     81  F   UNL A   1      43.796  35.549  31.375  1.00  0.00    -0.203 F 
ATOM     82  C   UNL A   1      43.552  37.368  29.956  1.00  0.00     0.198 A 
ATOM     83  C   UNL A   1      42.359  37.186  27.907  1.00  0.00     0.198 A 
ATOM     84  F   UNL A   1      41.132  35.302  27.394  1.00  0.00    -0.203 F 
ATOM     85  F   UNL A   1      44.318  38.077  30.798  1.00  0.00    -0.200 F 
ATOM     86  C   UNL A   1      43.148  37.925  28.759  1.00  0.00     0.200 A 
ATOM     87  F   UNL A   1      42.020  37.676  26.707  1.00  0.00    -0.200 F 
ATOM     88  F   UNL A   1      43.540  39.158  28.418  1.00  0.00    -0.200 F 
ENDBRANCH  55  78
ENDBRANCH  29  30
ENDBRANCH  22  24
ENDBRANCH  21  22
ENDBRANCH  20  21
ENDBRANCH  19  20
ENDBRANCH   1  19
TORSDOF 16
ENDMDL
