MODEL 1
REMARK VINA RESULT:     -11.0      0.000      0.000
REMARK SMILES Cc1ccc(C[N@H+]2CCC[C@@H](C(=O)OCCOC(=O)c3ccc(-c4c5nc(c(-c6c(F)c(F)c(F)c(F)c6F)c6ccc([nH]6)c(-c6c(F)c(F)c(F)c(F)c6F)c6nc(c(-c7c(F)c(F)c(F)c(F)c7F)c7ccc4[nH]7)C=C6)C=C5)cc3)C2)o1
REMARK SMILES IDX 15 1 14 2 12 3 13 4 11 5 7 6 8 7 83 8 9 10 10 11 6 12 5 13
REMARK SMILES IDX 1 14 2 15 3 16 84 17 4 18 16 19 17 20 18 21 19 22 20 23
REMARK SMILES IDX 21 24 82 25 22 26 81 27 23 28 24 29 25 30 75 31 26 32 80 33
REMARK SMILES IDX 74 34 76 35 27 36 79 37 73 38 72 39 28 41 60 42 40 43 59 44
REMARK SMILES IDX 41 45 44 46 58 47 77 48 42 49 43 50 57 52 78 53 45 54 29 55
REMARK SMILES IDX 30 56 38 57 31 58 32 59 36 60 39 61 33 62 34 63 37 64 35 65
REMARK SMILES IDX 61 66 62 67 70 68 63 69 64 70 68 71 71 72 65 73 66 74 69 75
REMARK SMILES IDX 67 76 46 77 47 78 55 79 48 80 49 81 53 82 56 83 50 84 51 85
REMARK SMILES IDX 54 86 52 87
REMARK H PARENT 7 9 76 40 44 51
REMARK Flexibility Score: inf
ROOT
ATOM      1  C   UNL A   1      34.042  35.314  28.796  1.00  0.00     0.274 C 
ENDROOT
BRANCH   1   2
ATOM      2  O   UNL A   1      34.020  33.912  29.131  1.00  0.00    -0.462 OA
BRANCH   2   3
ATOM      3  C   UNL A   1      35.144  33.224  28.787  1.00  0.00     0.314 C 
ATOM      4  O   UNL A   1      36.233  33.746  28.578  1.00  0.00    -0.252 OA
BRANCH   3   5
ATOM      5  C   UNL A   1      34.878  31.730  28.673  1.00  0.00     0.154 C 
ATOM      6  N   UNL A   1      33.279  30.169  27.518  1.00  0.00    -0.328 N 
ATOM      7  C   UNL A   1      34.360  29.589  26.722  1.00  0.00     0.262 C 
ATOM      8  C   UNL A   1      33.574  31.563  27.874  1.00  0.00     0.278 C 
ATOM      9  H   UNL A   1      33.226  29.628  28.381  1.00  0.00     0.348 HD
ATOM     10  C   UNL A   1      35.654  29.591  27.538  1.00  0.00     0.062 C 
ATOM     11  C   UNL A   1      36.043  30.994  28.001  1.00  0.00     0.027 C 
BRANCH   6  12
ATOM     12  C   UNL A   1      31.953  30.034  26.873  1.00  0.00     0.338 C 
BRANCH  12  13
ATOM     13  C   UNL A   1      31.607  28.674  26.357  1.00  0.00     0.158 A 
ATOM     14  C   UNL A   1      30.971  26.934  23.307  1.00  0.00     0.087 C 
ATOM     15  C   UNL A   1      31.144  27.265  24.734  1.00  0.00     0.101 A 
ATOM     16  C   UNL A   1      31.125  26.533  25.901  1.00  0.00     0.046 A 
ATOM     17  O   UNL A   1      31.402  28.571  25.011  1.00  0.00    -0.460 OA
ATOM     18  C   UNL A   1      31.421  27.442  26.949  1.00  0.00     0.052 A 
ENDBRANCH  12  13
ENDBRANCH   6  12
ENDBRANCH   3   5
ENDBRANCH   2   3
ENDBRANCH   1   2
BRANCH   1  19
ATOM     19  C   UNL A   1      32.932  36.059  29.532  1.00  0.00     0.275 C 
BRANCH  19  20
ATOM     20  O   UNL A   1      32.373  35.231  30.569  1.00  0.00    -0.458 OA
BRANCH  20  21
ATOM     21  C   UNL A   1      32.529  35.701  31.828  1.00  0.00     0.338 C 
ATOM     22  O   UNL A   1      31.857  36.543  32.397  1.00  0.00    -0.246 OA
BRANCH  21  23
ATOM     23  C   UNL A   1      33.705  35.081  32.460  1.00  0.00     0.060 A 
ATOM     24  C   UNL A   1      34.926  35.755  32.514  1.00  0.00     0.016 A 
ATOM     25  C   UNL A   1      33.613  33.753  32.879  1.00  0.00     0.016 A 
ATOM     26  C   UNL A   1      36.075  35.072  32.911  1.00  0.00     0.010 A 
ATOM     27  C   UNL A   1      34.752  33.090  33.341  1.00  0.00     0.010 A 
ATOM     28  C   UNL A   1      36.001  33.731  33.324  1.00  0.00    -0.014 A 
BRANCH  28  29
ATOM     29  C   UNL A   1      37.232  32.986  33.690  1.00  0.00     0.031 A 
ATOM     30  C   UNL A   1      37.853  33.168  35.046  1.00  0.00     0.074 A 
ATOM     31  C   UNL A   1      37.786  32.131  32.811  1.00  0.00     0.049 A 
ATOM     32  N   UNL A   1      38.976  32.681  35.514  1.00  0.00    -0.248 NA
ATOM     33  C   UNL A   1      37.125  34.018  36.000  1.00  0.00     0.031 C 
ATOM     34  C   UNL A   1      37.277  31.854  31.469  1.00  0.00     0.029 A 
ATOM     35  N   UNL A   1      38.889  31.323  32.924  1.00  0.00    -0.354 N 
ATOM     36  C   UNL A   1      39.117  33.212  36.789  1.00  0.00     0.074 A 
ATOM     37  C   UNL A   1      37.956  34.041  37.034  1.00  0.00     0.031 C 
ATOM     38  C   UNL A   1      38.030  30.896  30.906  1.00  0.00     0.029 A 
ATOM     39  C   UNL A   1      39.103  30.530  31.825  1.00  0.00     0.049 A 
ATOM     40  H   UNL A   1      39.473  31.314  33.718  1.00  0.00     0.167 HD
ATOM     41  C   UNL A   1      40.131  33.035  37.668  1.00  0.00     0.037 A 
ATOM     42  C   UNL A   1      40.059  29.615  31.585  1.00  0.00     0.037 A 
ATOM     43  C   UNL A   1      41.267  32.179  37.446  1.00  0.00     0.049 A 
ATOM     44  C   UNL A   1      41.144  29.393  32.600  1.00  0.00     0.074 A 
ATOM     45  C   UNL A   1      42.356  31.952  38.270  1.00  0.00     0.029 A 
ATOM     46  N   UNL A   1      41.445  31.390  36.321  1.00  0.00    -0.354 N 
ATOM     47  N   UNL A   1      41.302  29.954  33.774  1.00  0.00    -0.248 NA
ATOM     48  C   UNL A   1      42.200  28.437  32.241  1.00  0.00     0.031 C 
ATOM     49  C   UNL A   1      43.201  31.033  37.637  1.00  0.00     0.029 A 
ATOM     50  C   UNL A   1      42.626  30.673  36.429  1.00  0.00     0.049 A 
ATOM     51  H   UNL A   1      40.825  31.344  35.558  1.00  0.00     0.167 HD
ATOM     52  C   UNL A   1      42.483  29.436  34.284  1.00  0.00     0.074 A 
ATOM     53  C   UNL A   1      42.981  28.485  33.312  1.00  0.00     0.031 C 
ATOM     54  C   UNL A   1      43.110  29.742  35.446  1.00  0.00     0.037 A 
BRANCH  41  55
ATOM     55  C   UNL A   1      40.080  33.822  38.940  1.00  0.00     0.064 A 
ATOM     56  C   UNL A   1      39.382  33.362  40.065  1.00  0.00     0.173 A 
ATOM     57  C   UNL A   1      40.764  35.043  39.040  1.00  0.00     0.173 A 
ATOM     58  F   UNL A   1      38.700  32.208  40.010  1.00  0.00    -0.203 F 
ATOM     59  C   UNL A   1      39.357  34.107  41.242  1.00  0.00     0.198 A 
ATOM     60  C   UNL A   1      40.750  35.777  40.224  1.00  0.00     0.198 A 
ATOM     61  F   UNL A   1      41.447  35.523  37.990  1.00  0.00    -0.203 F 
ATOM     62  F   UNL A   1      38.656  33.666  42.297  1.00  0.00    -0.200 F 
ATOM     63  C   UNL A   1      40.043  35.310  41.321  1.00  0.00     0.200 A 
ATOM     64  F   UNL A   1      41.417  36.937  40.299  1.00  0.00    -0.200 F 
ATOM     65  F   UNL A   1      40.018  36.024  42.455  1.00  0.00    -0.200 F 
ENDBRANCH  41  55
BRANCH  42  66
ATOM     66  C   UNL A   1      40.024  28.829  30.328  1.00  0.00     0.064 A 
ATOM     67  C   UNL A   1      40.622  29.329  29.164  1.00  0.00     0.173 A 
ATOM     68  C   UNL A   1      39.422  27.565  30.267  1.00  0.00     0.173 A 
ATOM     69  F   UNL A   1      41.192  30.543  29.173  1.00  0.00    -0.203 F 
ATOM     70  C   UNL A   1      40.615  28.594  27.982  1.00  0.00     0.198 A 
ATOM     71  C   UNL A   1      39.433  26.822  29.090  1.00  0.00     0.198 A 
ATOM     72  F   UNL A   1      38.840  27.047  31.359  1.00  0.00    -0.203 F 
ATOM     73  F   UNL A   1      41.172  29.104  26.875  1.00  0.00    -0.200 F 
ATOM     74  C   UNL A   1      40.028  27.339  27.947  1.00  0.00     0.200 A 
ATOM     75  F   UNL A   1      38.874  25.605  29.063  1.00  0.00    -0.200 F 
ATOM     76  F   UNL A   1      40.029  26.627  26.811  1.00  0.00    -0.200 F 
ENDBRANCH  42  66
BRANCH  54  77
ATOM     77  C   UNL A   1      44.417  29.060  35.709  1.00  0.00     0.064 A 
ATOM     78  C   UNL A   1      44.463  27.838  36.396  1.00  0.00     0.173 A 
ATOM     79  C   UNL A   1      45.620  29.609  35.248  1.00  0.00     0.173 A 
ATOM     80  F   UNL A   1      43.337  27.285  36.868  1.00  0.00    -0.203 F 
ATOM     81  C   UNL A   1      45.676  27.196  36.626  1.00  0.00     0.198 A 
ATOM     82  C   UNL A   1      46.830  28.956  35.467  1.00  0.00     0.198 A 
ATOM     83  F   UNL A   1      45.621  30.776  34.586  1.00  0.00    -0.203 F 
ATOM     84  F   UNL A   1      45.704  26.043  37.310  1.00  0.00    -0.200 F 
ATOM     85  C   UNL A   1      46.858  27.753  36.158  1.00  0.00     0.200 A 
ATOM     86  F   UNL A   1      47.972  29.494  35.014  1.00  0.00    -0.200 F 
ATOM     87  F   UNL A   1      48.025  27.134  36.381  1.00  0.00    -0.200 F 
ENDBRANCH  54  77
ENDBRANCH  28  29
ENDBRANCH  21  23
ENDBRANCH  20  21
ENDBRANCH  19  20
ENDBRANCH   1  19
TORSDOF 13
ENDMDL
MODEL 2
REMARK VINA RESULT:     -10.7      2.703      8.811
REMARK SMILES Cc1ccc(C[N@H+]2CCC[C@@H](C(=O)OCCOC(=O)c3ccc(-c4c5nc(c(-c6c(F)c(F)c(F)c(F)c6F)c6ccc([nH]6)c(-c6c(F)c(F)c(F)c(F)c6F)c6nc(c(-c7c(F)c(F)c(F)c(F)c7F)c7ccc4[nH]7)C=C6)C=C5)cc3)C2)o1
REMARK SMILES IDX 15 1 14 2 12 3 13 4 11 5 7 6 8 7 83 8 9 10 10 11 6 12 5 13
REMARK SMILES IDX 1 14 2 15 3 16 84 17 4 18 16 19 17 20 18 21 19 22 20 23
REMARK SMILES IDX 21 24 82 25 22 26 81 27 23 28 24 29 25 30 75 31 26 32 80 33
REMARK SMILES IDX 74 34 76 35 27 36 79 37 73 38 72 39 28 41 60 42 40 43 59 44
REMARK SMILES IDX 41 45 44 46 58 47 77 48 42 49 43 50 57 52 78 53 45 54 29 55
REMARK SMILES IDX 30 56 38 57 31 58 32 59 36 60 39 61 33 62 34 63 37 64 35 65
REMARK SMILES IDX 61 66 62 67 70 68 63 69 64 70 68 71 71 72 65 73 66 74 69 75
REMARK SMILES IDX 67 76 46 77 47 78 55 79 48 80 49 81 53 82 56 83 50 84 51 85
REMARK SMILES IDX 54 86 52 87
REMARK H PARENT 7 9 76 40 44 51
REMARK Flexibility Score: inf
ROOT
ATOM      1  C   UNL A   1      31.669  29.137  27.292  1.00  0.00     0.274 C 
ENDROOT
BRANCH   1   2
ATOM      2  O   UNL A   1      32.359  28.087  26.586  1.00  0.00    -0.462 OA
BRANCH   2   3
ATOM      3  C   UNL A   1      31.562  27.074  26.146  1.00  0.00     0.314 C 
ATOM      4  O   UNL A   1      31.075  26.217  26.875  1.00  0.00    -0.252 OA
BRANCH   3   5
ATOM      5  C   UNL A   1      31.368  27.122  24.637  1.00  0.00     0.154 C 
ATOM      6  N   UNL A   1      29.794  28.131  22.955  1.00  0.00    -0.328 N 
ATOM      7  C   UNL A   1      30.860  28.965  22.402  1.00  0.00     0.262 C 
ATOM      8  C   UNL A   1      30.035  27.841  24.375  1.00  0.00     0.278 C 
ATOM      9  H   UNL A   1      29.815  27.248  22.446  1.00  0.00     0.348 HD
ATOM     10  C   UNL A   1      32.194  28.223  22.500  1.00  0.00     0.062 C 
ATOM     11  C   UNL A   1      32.533  27.831  23.936  1.00  0.00     0.027 C 
BRANCH   6  12
ATOM     12  C   UNL A   1      28.444  28.697  22.730  1.00  0.00     0.338 C 
BRANCH  12  13
ATOM     13  C   UNL A   1      28.396  30.093  22.197  1.00  0.00     0.158 A 
ATOM     14  C   UNL A   1      29.152  33.454  23.127  1.00  0.00     0.087 C 
ATOM     15  C   UNL A   1      28.703  32.262  22.383  1.00  0.00     0.101 A 
ATOM     16  C   UNL A   1      28.229  32.045  21.109  1.00  0.00     0.046 A 
ATOM     17  O   UNL A   1      28.774  31.084  23.058  1.00  0.00    -0.460 OA
ATOM     18  C   UNL A   1      28.028  30.646  20.989  1.00  0.00     0.052 A 
ENDBRANCH  12  13
ENDBRANCH   6  12
ENDBRANCH   3   5
ENDBRANCH   2   3
ENDBRANCH   1   2
BRANCH   1  19
ATOM     19  C   UNL A   1      31.755  30.450  26.519  1.00  0.00     0.275 C 
BRANCH  19  20
ATOM     20  O   UNL A   1      33.130  30.838  26.337  1.00  0.00    -0.458 OA
BRANCH  20  21
ATOM     21  C   UNL A   1      33.601  31.726  27.242  1.00  0.00     0.338 C 
ATOM     22  O   UNL A   1      33.109  32.793  27.563  1.00  0.00    -0.246 OA
BRANCH  21  23
ATOM     23  C   UNL A   1      34.882  31.258  27.797  1.00  0.00     0.060 A 
ATOM     24  C   UNL A   1      35.079  29.910  28.101  1.00  0.00     0.016 A 
ATOM     25  C   UNL A   1      35.843  32.208  28.143  1.00  0.00     0.016 A 
ATOM     26  C   UNL A   1      36.205  29.523  28.828  1.00  0.00     0.010 A 
ATOM     27  C   UNL A   1      37.003  31.810  28.812  1.00  0.00     0.010 A 
ATOM     28  C   UNL A   1      37.175  30.470  29.195  1.00  0.00    -0.014 A 
BRANCH  28  29
ATOM     29  C   UNL A   1      38.344  30.070  30.019  1.00  0.00     0.031 A 
ATOM     30  C   UNL A   1      39.440  29.231  29.425  1.00  0.00     0.074 A 
ATOM     31  C   UNL A   1      38.432  30.473  31.300  1.00  0.00     0.049 A 
ATOM     32  N   UNL A   1      40.488  28.703  30.008  1.00  0.00    -0.248 NA
ATOM     33  C   UNL A   1      39.342  28.935  27.987  1.00  0.00     0.031 C 
ATOM     34  C   UNL A   1      37.445  31.298  31.994  1.00  0.00     0.029 A 
ATOM     35  N   UNL A   1      39.408  30.257  32.240  1.00  0.00    -0.354 N 
ATOM     36  C   UNL A   1      41.138  27.967  29.027  1.00  0.00     0.074 A 
ATOM     37  C   UNL A   1      40.382  28.132  27.803  1.00  0.00     0.031 C 
ATOM     38  C   UNL A   1      37.894  31.570  33.229  1.00  0.00     0.029 A 
ATOM     39  C   UNL A   1      39.172  30.896  33.431  1.00  0.00     0.049 A 
ATOM     40  H   UNL A   1      40.201  29.696  32.076  1.00  0.00     0.167 HD
ATOM     41  C   UNL A   1      42.254  27.210  29.142  1.00  0.00     0.037 A 
ATOM     42  C   UNL A   1      39.905  30.931  34.560  1.00  0.00     0.037 A 
ATOM     43  C   UNL A   1      43.033  27.077  30.346  1.00  0.00     0.049 A 
ATOM     44  C   UNL A   1      41.171  30.128  34.646  1.00  0.00     0.074 A 
ATOM     45  C   UNL A   1      44.168  26.316  30.564  1.00  0.00     0.029 A 
ATOM     46  N   UNL A   1      42.763  27.743  31.530  1.00  0.00    -0.354 N 
ATOM     47  N   UNL A   1      41.738  29.382  33.730  1.00  0.00    -0.248 NA
ATOM     48  C   UNL A   1      41.881  30.149  35.932  1.00  0.00     0.031 C 
ATOM     49  C   UNL A   1      44.579  26.512  31.888  1.00  0.00     0.029 A 
ATOM     50  C   UNL A   1      43.712  27.413  32.484  1.00  0.00     0.049 A 
ATOM     51  H   UNL A   1      42.010  28.361  31.674  1.00  0.00     0.167 HD
ATOM     52  C   UNL A   1      42.856  28.826  34.334  1.00  0.00     0.074 A 
ATOM     53  C   UNL A   1      42.913  29.354  35.681  1.00  0.00     0.031 C 
ATOM     54  C   UNL A   1      43.743  27.938  33.823  1.00  0.00     0.037 A 
BRANCH  41  55
ATOM     55  C   UNL A   1      42.678  26.428  27.939  1.00  0.00     0.064 A 
ATOM     56  C   UNL A   1      43.599  26.937  27.014  1.00  0.00     0.173 A 
ATOM     57  C   UNL A   1      42.172  25.137  27.725  1.00  0.00     0.173 A 
ATOM     58  F   UNL A   1      44.097  28.174  27.169  1.00  0.00    -0.203 F 
ATOM     59  C   UNL A   1      43.987  26.187  25.906  1.00  0.00     0.198 A 
ATOM     60  C   UNL A   1      42.574  24.383  26.626  1.00  0.00     0.198 A 
ATOM     61  F   UNL A   1      41.289  24.607  28.585  1.00  0.00    -0.203 F 
ATOM     62  F   UNL A   1      44.844  26.704  25.015  1.00  0.00    -0.200 F 
ATOM     63  C   UNL A   1      43.478  24.910  25.716  1.00  0.00     0.200 A 
ATOM     64  F   UNL A   1      42.084  23.149  26.445  1.00  0.00    -0.200 F 
ATOM     65  F   UNL A   1      43.853  24.190  24.650  1.00  0.00    -0.200 F 
ENDBRANCH  41  55
BRANCH  42  66
ATOM     66  C   UNL A   1      39.459  31.768  35.698  1.00  0.00     0.064 A 
ATOM     67  C   UNL A   1      39.966  33.064  35.865  1.00  0.00     0.173 A 
ATOM     68  C   UNL A   1      38.510  31.310  36.622  1.00  0.00     0.173 A 
ATOM     69  F   UNL A   1      40.891  33.535  35.015  1.00  0.00    -0.203 F 
ATOM     70  C   UNL A   1      39.542  33.870  36.917  1.00  0.00     0.198 A 
ATOM     71  C   UNL A   1      38.072  32.125  37.662  1.00  0.00     0.198 A 
ATOM     72  F   UNL A   1      37.996  30.078  36.499  1.00  0.00    -0.203 F 
ATOM     73  F   UNL A   1      40.060  35.097  37.070  1.00  0.00    -0.200 F 
ATOM     74  C   UNL A   1      38.590  33.404  37.811  1.00  0.00     0.200 A 
ATOM     75  F   UNL A   1      37.144  31.675  38.518  1.00  0.00    -0.200 F 
ATOM     76  F   UNL A   1      38.174  34.183  38.819  1.00  0.00    -0.200 F 
ENDBRANCH  42  66
BRANCH  54  77
ATOM     77  C   UNL A   1      44.830  27.464  34.737  1.00  0.00     0.064 A 
ATOM     78  C   UNL A   1      46.040  28.166  34.839  1.00  0.00     0.173 A 
ATOM     79  C   UNL A   1      44.652  26.327  35.536  1.00  0.00     0.173 A 
ATOM     80  F   UNL A   1      46.257  29.251  34.082  1.00  0.00    -0.203 F 
ATOM     81  C   UNL A   1      47.043  27.734  35.702  1.00  0.00     0.198 A 
ATOM     82  C   UNL A   1      45.653  25.907  36.409  1.00  0.00     0.198 A 
ATOM     83  F   UNL A   1      43.510  25.626  35.470  1.00  0.00    -0.203 F 
ATOM     84  F   UNL A   1      48.204  28.401  35.764  1.00  0.00    -0.200 F 
ATOM     85  C   UNL A   1      46.847  26.608  36.488  1.00  0.00     0.200 A 
ATOM     86  F   UNL A   1      45.463  24.820  37.169  1.00  0.00    -0.200 F 
ATOM     87  F   UNL A   1      47.814  26.194  37.318  1.00  0.00    -0.200 F 
ENDBRANCH  54  77
ENDBRANCH  28  29
ENDBRANCH  21  23
ENDBRANCH  20  21
ENDBRANCH  19  20
ENDBRANCH   1  19
TORSDOF 13
ENDMDL
MODEL 3
REMARK VINA RESULT:     -10.7      0.616      7.528
REMARK SMILES Cc1ccc(C[N@H+]2CCC[C@@H](C(=O)OCCOC(=O)c3ccc(-c4c5nc(c(-c6c(F)c(F)c(F)c(F)c6F)c6ccc([nH]6)c(-c6c(F)c(F)c(F)c(F)c6F)c6nc(c(-c7c(F)c(F)c(F)c(F)c7F)c7ccc4[nH]7)C=C6)C=C5)cc3)C2)o1
REMARK SMILES IDX 15 1 14 2 12 3 13 4 11 5 7 6 8 7 83 8 9 10 10 11 6 12 5 13
REMARK SMILES IDX 1 14 2 15 3 16 84 17 4 18 16 19 17 20 18 21 19 22 20 23
REMARK SMILES IDX 21 24 82 25 22 26 81 27 23 28 24 29 25 30 75 31 26 32 80 33
REMARK SMILES IDX 74 34 76 35 27 36 79 37 73 38 72 39 28 41 60 42 40 43 59 44
REMARK SMILES IDX 41 45 44 46 58 47 77 48 42 49 43 50 57 52 78 53 45 54 29 55
REMARK SMILES IDX 30 56 38 57 31 58 32 59 36 60 39 61 33 62 34 63 37 64 35 65
REMARK SMILES IDX 61 66 62 67 70 68 63 69 64 70 68 71 71 72 65 73 66 74 69 75
REMARK SMILES IDX 67 76 46 77 47 78 55 79 48 80 49 81 53 82 56 83 50 84 51 85
REMARK SMILES IDX 54 86 52 87
REMARK H PARENT 7 9 76 40 44 51
REMARK Flexibility Score: inf
ROOT
ATOM      1  C   UNL A   1      34.248  35.406  28.467  1.00  0.00     0.274 C 
ENDROOT
BRANCH   1   2
ATOM      2  O   UNL A   1      34.746  34.212  27.834  1.00  0.00    -0.462 OA
BRANCH   2   3
ATOM      3  C   UNL A   1      35.615  33.483  28.589  1.00  0.00     0.314 C 
ATOM      4  O   UNL A   1      36.597  33.953  29.153  1.00  0.00    -0.252 OA
BRANCH   3   5
ATOM      5  C   UNL A   1      35.231  32.011  28.628  1.00  0.00     0.154 C 
ATOM      6  N   UNL A   1      33.561  30.455  27.572  1.00  0.00    -0.328 N 
ATOM      7  C   UNL A   1      34.625  29.705  26.904  1.00  0.00     0.262 C 
ATOM      8  C   UNL A   1      33.955  31.854  27.785  1.00  0.00     0.278 C 
ATOM      9  H   UNL A   1      33.426  30.023  28.486  1.00  0.00     0.348 HD
ATOM     10  C   UNL A   1      35.878  29.702  27.782  1.00  0.00     0.062 C 
ATOM     11  C   UNL A   1      36.361  31.114  28.105  1.00  0.00     0.027 C 
BRANCH   6  12
ATOM     12  C   UNL A   1      32.258  30.349  26.877  1.00  0.00     0.338 C 
BRANCH  12  13
ATOM     13  C   UNL A   1      31.779  28.963  26.584  1.00  0.00     0.158 A 
ATOM     14  C   UNL A   1      30.680  26.912  23.879  1.00  0.00     0.087 C 
ATOM     15  C   UNL A   1      31.045  27.402  25.221  1.00  0.00     0.101 A 
ATOM     16  C   UNL A   1      31.130  26.821  26.467  1.00  0.00     0.046 A 
ATOM     17  O   UNL A   1      31.405  28.711  25.295  1.00  0.00    -0.460 OA
ATOM     18  C   UNL A   1      31.601  27.829  27.347  1.00  0.00     0.052 A 
ENDBRANCH  12  13
ENDBRANCH   6  12
ENDBRANCH   3   5
ENDBRANCH   2   3
ENDBRANCH   1   2
BRANCH   1  19
ATOM     19  C   UNL A   1      33.137  35.066  29.456  1.00  0.00     0.275 C 
BRANCH  19  20
ATOM     20  O   UNL A   1      33.190  35.946  30.594  1.00  0.00    -0.458 OA
BRANCH  20  21
ATOM     21  C   UNL A   1      32.852  35.380  31.775  1.00  0.00     0.338 C 
ATOM     22  O   UNL A   1      31.747  35.327  32.286  1.00  0.00    -0.246 OA
BRANCH  21  23
ATOM     23  C   UNL A   1      34.049  34.843  32.444  1.00  0.00     0.060 A 
ATOM     24  C   UNL A   1      35.241  35.567  32.465  1.00  0.00     0.016 A 
ATOM     25  C   UNL A   1      34.007  33.536  32.932  1.00  0.00     0.016 A 
ATOM     26  C   UNL A   1      36.415  34.952  32.903  1.00  0.00     0.010 A 
ATOM     27  C   UNL A   1      35.169  32.945  33.433  1.00  0.00     0.010 A 
ATOM     28  C   UNL A   1      36.391  33.634  33.385  1.00  0.00    -0.014 A 
BRANCH  28  29
ATOM     29  C   UNL A   1      37.649  32.959  33.795  1.00  0.00     0.031 A 
ATOM     30  C   UNL A   1      38.335  32.003  32.861  1.00  0.00     0.074 A 
ATOM     31  C   UNL A   1      38.187  33.215  35.001  1.00  0.00     0.049 A 
ATOM     32  N   UNL A   1      39.384  31.246  33.073  1.00  0.00    -0.248 NA
ATOM     33  C   UNL A   1      37.764  31.868  31.512  1.00  0.00     0.031 C 
ATOM     34  C   UNL A   1      37.628  34.128  35.996  1.00  0.00     0.029 A 
ATOM     35  N   UNL A   1      39.334  32.742  35.587  1.00  0.00    -0.354 N 
ATOM     36  C   UNL A   1      39.560  30.505  31.913  1.00  0.00     0.074 A 
ATOM     37  C   UNL A   1      38.525  30.917  30.987  1.00  0.00     0.031 C 
ATOM     38  C   UNL A   1      38.465  34.198  37.044  1.00  0.00     0.029 A 
ATOM     39  C   UNL A   1      39.589  33.295  36.817  1.00  0.00     0.049 A 
ATOM     40  H   UNL A   1      39.918  32.070  35.166  1.00  0.00     0.167 HD
ATOM     41  C   UNL A   1      40.490  29.558  31.650  1.00  0.00     0.037 A 
ATOM     42  C   UNL A   1      40.613  33.093  37.667  1.00  0.00     0.037 A 
ATOM     43  C   UNL A   1      41.546  29.176  32.550  1.00  0.00     0.049 A 
ATOM     44  C   UNL A   1      41.666  32.077  37.329  1.00  0.00     0.074 A 
ATOM     45  C   UNL A   1      42.523  28.210  32.380  1.00  0.00     0.029 A 
ATOM     46  N   UNL A   1      41.773  29.761  33.785  1.00  0.00    -0.354 N 
ATOM     47  N   UNL A   1      41.781  31.334  36.255  1.00  0.00    -0.248 NA
ATOM     48  C   UNL A   1      42.712  31.849  38.335  1.00  0.00     0.031 C 
ATOM     49  C   UNL A   1      43.336  28.204  33.520  1.00  0.00     0.029 A 
ATOM     50  C   UNL A   1      42.876  29.180  34.388  1.00  0.00     0.049 A 
ATOM     51  H   UNL A   1      41.231  30.484  34.177  1.00  0.00     0.167 HD
ATOM     52  C   UNL A   1      42.896  30.536  36.465  1.00  0.00     0.074 A 
ATOM     53  C   UNL A   1      43.449  30.914  37.749  1.00  0.00     0.031 C 
ATOM     54  C   UNL A   1      43.402  29.561  35.672  1.00  0.00     0.037 A 
BRANCH  41  55
ATOM     55  C   UNL A   1      40.380  28.833  30.345  1.00  0.00     0.064 A 
ATOM     56  C   UNL A   1      39.659  27.637  30.224  1.00  0.00     0.173 A 
ATOM     57  C   UNL A   1      40.985  29.360  29.194  1.00  0.00     0.173 A 
ATOM     58  F   UNL A   1      39.078  27.088  31.301  1.00  0.00    -0.203 F 
ATOM     59  C   UNL A   1      39.562  26.985  28.996  1.00  0.00     0.198 A 
ATOM     60  C   UNL A   1      40.872  28.714  27.966  1.00  0.00     0.198 A 
ATOM     61  F   UNL A   1      41.684  30.503  29.262  1.00  0.00    -0.203 F 
ATOM     62  F   UNL A   1      38.895  25.825  28.907  1.00  0.00    -0.200 F 
ATOM     63  C   UNL A   1      40.164  27.526  27.869  1.00  0.00     0.200 A 
ATOM     64  F   UNL A   1      41.452  29.239  26.878  1.00  0.00    -0.200 F 
ATOM     65  F   UNL A   1      40.069  26.897  26.690  1.00  0.00    -0.200 F 
ENDBRANCH  41  55
BRANCH  42  66
ATOM     66  C   UNL A   1      40.694  33.882  38.919  1.00  0.00     0.064 A 
ATOM     67  C   UNL A   1      40.035  33.443  40.076  1.00  0.00     0.173 A 
ATOM     68  C   UNL A   1      41.442  35.064  38.996  1.00  0.00     0.173 A 
ATOM     69  F   UNL A   1      39.293  32.327  40.040  1.00  0.00    -0.203 F 
ATOM     70  C   UNL A   1      40.119  34.163  41.264  1.00  0.00     0.198 A 
ATOM     71  C   UNL A   1      41.541  35.772  40.191  1.00  0.00     0.198 A 
ATOM     72  F   UNL A   1      42.090  35.519  37.914  1.00  0.00    -0.203 F 
ATOM     73  F   UNL A   1      39.461  33.736  42.351  1.00  0.00    -0.200 F 
ATOM     74  C   UNL A   1      40.877  35.322  41.324  1.00  0.00     0.200 A 
ATOM     75  F   UNL A   1      42.283  36.886  40.248  1.00  0.00    -0.200 F 
ATOM     76  F   UNL A   1      40.966  36.010  42.471  1.00  0.00    -0.200 F 
ENDBRANCH  42  66
BRANCH  54  77
ATOM     77  C   UNL A   1      44.594  28.818  36.190  1.00  0.00     0.064 A 
ATOM     78  C   UNL A   1      44.440  27.630  36.919  1.00  0.00     0.173 A 
ATOM     79  C   UNL A   1      45.893  29.275  35.931  1.00  0.00     0.173 A 
ATOM     80  F   UNL A   1      43.215  27.166  37.201  1.00  0.00    -0.203 F 
ATOM     81  C   UNL A   1      45.550  26.932  37.385  1.00  0.00     0.198 A 
ATOM     82  C   UNL A   1      47.001  28.565  36.387  1.00  0.00     0.198 A 
ATOM     83  F   UNL A   1      46.086  30.407  35.238  1.00  0.00    -0.203 F 
ATOM     84  F   UNL A   1      45.382  25.813  38.105  1.00  0.00    -0.200 F 
ATOM     85  C   UNL A   1      46.829  27.397  37.116  1.00  0.00     0.200 A 
ATOM     86  F   UNL A   1      48.237  29.015  36.126  1.00  0.00    -0.200 F 
ATOM     87  F   UNL A   1      47.895  26.723  37.566  1.00  0.00    -0.200 F 
ENDBRANCH  54  77
ENDBRANCH  28  29
ENDBRANCH  21  23
ENDBRANCH  20  21
ENDBRANCH  19  20
ENDBRANCH   1  19
TORSDOF 13
ENDMDL
