MODEL 1
REMARK VINA RESULT:     -14.4      0.000      0.000
REMARK SMILES O=C(OCCOC(=O)c1ccc([C@@H]2CC(O)=Nc3c2ncn3-c2cccc(Cl)c2)cc1)c1ccc(-c2c3nc(c(-c4c(F)c(F)c(F)c(F)c4F)c4ccc([nH]4)c(-c4c(F)c(F)c(F)c(F)c4F)c4nc(c(-c5c(F)c(F)c(F)c(F)c5F)c5ccc2[nH]5)C=C4)C=C3)cc1
REMARK SMILES IDX 4 1 3 2 2 3 1 4 32 5 33 6 94 7 34 8 93 9 35 10 36 11 37 12
REMARK SMILES IDX 87 13 38 14 92 15 86 16 88 17 39 18 91 19 85 20 84 21 40 23
REMARK SMILES IDX 72 24 52 25 71 26 53 27 56 28 70 29 89 30 54 31 55 32 69 34
REMARK SMILES IDX 90 35 57 36 41 37 42 38 50 39 43 40 44 41 48 42 51 43 45 44
REMARK SMILES IDX 46 45 49 46 47 47 73 48 74 49 82 50 75 51 76 52 80 53 83 54
REMARK SMILES IDX 77 55 78 56 81 57 79 58 58 59 59 60 67 61 60 62 61 63 65 64
REMARK SMILES IDX 68 65 62 66 63 67 66 68 64 69 5 70 6 71 7 72 8 73 9 74 10 75
REMARK SMILES IDX 31 76 11 77 30 78 12 79 13 80 14 81 19 82 15 83 18 84 20 85
REMARK SMILES IDX 17 86 22 87 21 88 16 89 23 91 24 92 29 93 25 94 27 95 26 96
REMARK SMILES IDX 28 97
REMARK H PARENT 88 22 56 33 16 90
REMARK Flexibility Score: inf
ROOT
ATOM      1  C   UNL A   1      32.754  30.669  27.251  1.00  0.00     0.275 C 
ENDROOT
BRANCH   1   2
ATOM      2  O   UNL A   1      34.161  30.800  26.953  1.00  0.00    -0.458 OA
BRANCH   2   3
ATOM      3  C   UNL A   1      34.929  31.579  27.741  1.00  0.00     0.338 C 
ATOM      4  O   UNL A   1      34.576  32.665  28.188  1.00  0.00    -0.246 OA
BRANCH   3   5
ATOM      5  C   UNL A   1      36.166  30.895  28.184  1.00  0.00     0.060 A 
ATOM      6  C   UNL A   1      37.235  31.593  28.754  1.00  0.00     0.016 A 
ATOM      7  C   UNL A   1      36.251  29.507  28.015  1.00  0.00     0.016 A 
ATOM      8  C   UNL A   1      38.399  30.923  29.098  1.00  0.00     0.010 A 
ATOM      9  C   UNL A   1      37.410  28.831  28.379  1.00  0.00     0.010 A 
ATOM     10  C   UNL A   1      38.502  29.549  28.873  1.00  0.00    -0.014 A 
BRANCH  10  11
ATOM     11  C   UNL A   1      39.789  28.920  29.163  1.00  0.00     0.031 A 
ATOM     12  C   UNL A   1      40.192  28.796  30.598  1.00  0.00     0.074 A 
ATOM     13  C   UNL A   1      40.554  28.378  28.196  1.00  0.00     0.049 A 
ATOM     14  N   UNL A   1      41.306  29.149  31.167  1.00  0.00    -0.248 NA
ATOM     15  C   UNL A   1      39.209  28.211  31.519  1.00  0.00     0.031 C 
ATOM     16  C   UNL A   1      40.217  28.158  26.787  1.00  0.00     0.029 A 
ATOM     17  N   UNL A   1      41.786  27.807  28.315  1.00  0.00    -0.354 N 
ATOM     18  C   UNL A   1      41.223  28.704  32.488  1.00  0.00     0.074 A 
ATOM     19  C   UNL A   1      39.891  28.200  32.663  1.00  0.00     0.031 C 
ATOM     20  C   UNL A   1      41.119  27.312  26.244  1.00  0.00     0.029 A 
ATOM     21  C   UNL A   1      42.160  27.048  27.221  1.00  0.00     0.049 A 
ATOM     22  H   UNL A   1      42.357  27.924  29.107  1.00  0.00     0.167 HD
ATOM     23  C   UNL A   1      42.300  28.640  33.321  1.00  0.00     0.037 A 
ATOM     24  C   UNL A   1      43.213  26.204  27.146  1.00  0.00     0.037 A 
ATOM     25  C   UNL A   1      43.342  29.541  32.921  1.00  0.00     0.049 A 
ATOM     26  C   UNL A   1      44.172  26.569  28.215  1.00  0.00     0.074 A 
ATOM     27  C   UNL A   1      43.435  30.911  32.770  1.00  0.00     0.029 A 
ATOM     28  N   UNL A   1      44.472  29.041  32.326  1.00  0.00    -0.354 N 
ATOM     29  N   UNL A   1      44.880  27.665  28.226  1.00  0.00    -0.248 NA
ATOM     30  C   UNL A   1      44.061  25.881  29.492  1.00  0.00     0.031 C 
ATOM     31  C   UNL A   1      44.308  31.100  31.659  1.00  0.00     0.029 A 
ATOM     32  C   UNL A   1      44.701  29.832  31.231  1.00  0.00     0.049 A 
ATOM     33  H   UNL A   1      45.008  28.270  32.623  1.00  0.00     0.167 HD
ATOM     34  C   UNL A   1      44.962  28.018  29.565  1.00  0.00     0.074 A 
ATOM     35  C   UNL A   1      44.532  26.834  30.300  1.00  0.00     0.031 C 
ATOM     36  C   UNL A   1      45.110  29.320  29.947  1.00  0.00     0.037 A 
BRANCH  23  37
ATOM     37  C   UNL A   1      42.525  27.550  34.346  1.00  0.00     0.064 A 
ATOM     38  C   UNL A   1      43.117  26.331  33.951  1.00  0.00     0.173 A 
ATOM     39  C   UNL A   1      41.906  27.537  35.615  1.00  0.00     0.173 A 
ATOM     40  F   UNL A   1      43.727  26.219  32.761  1.00  0.00    -0.203 F 
ATOM     41  C   UNL A   1      43.017  25.172  34.726  1.00  0.00     0.198 A 
ATOM     42  C   UNL A   1      41.854  26.391  36.410  1.00  0.00     0.198 A 
ATOM     43  F   UNL A   1      41.240  28.596  36.089  1.00  0.00    -0.203 F 
ATOM     44  F   UNL A   1      43.484  24.009  34.249  1.00  0.00    -0.200 F 
ATOM     45  C   UNL A   1      42.377  25.201  35.950  1.00  0.00     0.200 A 
ATOM     46  F   UNL A   1      41.220  26.436  37.589  1.00  0.00    -0.200 F 
ATOM     47  F   UNL A   1      42.221  24.079  36.664  1.00  0.00    -0.200 F 
ENDBRANCH  23  37
BRANCH  24  48
ATOM     48  C   UNL A   1      43.286  24.934  26.392  1.00  0.00     0.064 A 
ATOM     49  C   UNL A   1      44.225  24.746  25.369  1.00  0.00     0.173 A 
ATOM     50  C   UNL A   1      42.591  23.788  26.830  1.00  0.00     0.173 A 
ATOM     51  F   UNL A   1      44.965  25.775  24.935  1.00  0.00    -0.203 F 
ATOM     52  C   UNL A   1      44.457  23.483  24.816  1.00  0.00     0.198 A 
ATOM     53  C   UNL A   1      42.815  22.532  26.271  1.00  0.00     0.198 A 
ATOM     54  F   UNL A   1      41.746  23.851  27.869  1.00  0.00    -0.203 F 
ATOM     55  F   UNL A   1      45.398  23.328  23.876  1.00  0.00    -0.200 F 
ATOM     56  C   UNL A   1      43.756  22.377  25.271  1.00  0.00     0.200 A 
ATOM     57  F   UNL A   1      42.155  21.467  26.746  1.00  0.00    -0.200 F 
ATOM     58  F   UNL A   1      44.013  21.158  24.776  1.00  0.00    -0.200 F 
ENDBRANCH  24  48
BRANCH  36  59
ATOM     59  C   UNL A   1      45.419  30.339  28.890  1.00  0.00     0.064 A 
ATOM     60  C   UNL A   1      44.430  30.964  28.110  1.00  0.00     0.173 A 
ATOM     61  C   UNL A   1      46.728  30.831  28.791  1.00  0.00     0.173 A 
ATOM     62  F   UNL A   1      43.141  30.626  28.234  1.00  0.00    -0.203 F 
ATOM     63  C   UNL A   1      44.747  32.003  27.239  1.00  0.00     0.198 A 
ATOM     64  C   UNL A   1      47.035  31.895  27.947  1.00  0.00     0.198 A 
ATOM     65  F   UNL A   1      47.699  30.319  29.562  1.00  0.00    -0.203 F 
ATOM     66  F   UNL A   1      43.785  32.580  26.504  1.00  0.00    -0.200 F 
ATOM     67  C   UNL A   1      46.048  32.473  27.164  1.00  0.00     0.200 A 
ATOM     68  F   UNL A   1      48.283  32.384  27.918  1.00  0.00    -0.200 F 
ATOM     69  F   UNL A   1      46.344  33.507  26.364  1.00  0.00    -0.200 F 
ENDBRANCH  36  59
ENDBRANCH  10  11
ENDBRANCH   3   5
ENDBRANCH   2   3
ENDBRANCH   1   2
BRANCH   1  70
ATOM     70  C   UNL A   1      31.787  30.640  26.067  1.00  0.00     0.275 C 
BRANCH  70  71
ATOM     71  O   UNL A   1      32.365  29.935  24.952  1.00  0.00    -0.458 OA
BRANCH  71  72
ATOM     72  C   UNL A   1      31.604  28.936  24.451  1.00  0.00     0.338 C 
ATOM     73  O   UNL A   1      30.562  29.040  23.804  1.00  0.00    -0.246 OA
BRANCH  72  74
ATOM     74  C   UNL A   1      32.207  27.640  24.768  1.00  0.00     0.060 A 
ATOM     75  C   UNL A   1      31.915  27.032  25.990  1.00  0.00     0.016 A 
ATOM     76  C   UNL A   1      33.159  27.087  23.911  1.00  0.00     0.016 A 
ATOM     77  C   UNL A   1      32.569  25.853  26.350  1.00  0.00     0.005 A 
ATOM     78  C   UNL A   1      33.841  25.927  24.292  1.00  0.00     0.005 A 
ATOM     79  C   UNL A   1      33.555  25.290  25.515  1.00  0.00    -0.038 A 
BRANCH  79  80
ATOM     80  C   UNL A   1      34.355  24.107  26.044  1.00  0.00     0.081 C 
ATOM     81  C   UNL A   1      35.781  24.085  25.452  1.00  0.00     0.111 C 
ATOM     82  C   UNL A   1      33.621  22.856  25.738  1.00  0.00     0.093 A 
ATOM     83  C   UNL A   1      36.081  22.916  24.526  1.00  0.00     0.188 C 
ATOM     84  C   UNL A   1      34.184  21.849  24.984  1.00  0.00     0.164 A 
ATOM     85  N   UNL A   1      32.348  22.548  26.128  1.00  0.00    -0.238 NA
ATOM     86  N   UNL A   1      35.375  21.848  24.339  1.00  0.00    -0.198 NA
ATOM     87  N   UNL A   1      33.211  20.872  24.898  1.00  0.00    -0.283 N 
ATOM     88  C   UNL A   1      32.120  21.373  25.578  1.00  0.00     0.206 A 
BRANCH  83  89
ATOM     89  O   UNL A   1      37.256  23.025  23.875  1.00  0.00    -0.496 OA
ATOM     90  H   UNL A   1      37.294  23.462  23.047  1.00  0.00     0.294 HD
ENDBRANCH  83  89
BRANCH  87  91
ATOM     91  C   UNL A   1      33.279  19.599  24.283  1.00  0.00     0.050 A 
ATOM     92  C   UNL A   1      32.487  19.328  23.157  1.00  0.00     0.027 A 
ATOM     93  C   UNL A   1      34.096  18.601  24.826  1.00  0.00     0.047 A 
ATOM     94  C   UNL A   1      32.527  18.064  22.568  1.00  0.00     0.004 A 
ATOM     95  C   UNL A   1      34.089  17.329  24.256  1.00  0.00     0.043 A 
ATOM     96  C   UNL A   1      33.316  17.059  23.126  1.00  0.00     0.020 A 
ATOM     97  Cl  UNL A   1      35.011  16.065  24.974  1.00  0.00    -0.084 Cl
ENDBRANCH  87  91
ENDBRANCH  79  80
ENDBRANCH  72  74
ENDBRANCH  71  72
ENDBRANCH  70  71
ENDBRANCH   1  70
TORSDOF 14
ENDMDL
MODEL 2
REMARK VINA RESULT:     -14.3      3.707      9.295
REMARK SMILES O=C(OCCOC(=O)c1ccc([C@@H]2CC(O)=Nc3c2ncn3-c2cccc(Cl)c2)cc1)c1ccc(-c2c3nc(c(-c4c(F)c(F)c(F)c(F)c4F)c4ccc([nH]4)c(-c4c(F)c(F)c(F)c(F)c4F)c4nc(c(-c5c(F)c(F)c(F)c(F)c5F)c5ccc2[nH]5)C=C4)C=C3)cc1
REMARK SMILES IDX 4 1 3 2 2 3 1 4 32 5 33 6 94 7 34 8 93 9 35 10 36 11 37 12
REMARK SMILES IDX 87 13 38 14 92 15 86 16 88 17 39 18 91 19 85 20 84 21 40 23
REMARK SMILES IDX 72 24 52 25 71 26 53 27 56 28 70 29 89 30 54 31 55 32 69 34
REMARK SMILES IDX 90 35 57 36 41 37 42 38 50 39 43 40 44 41 48 42 51 43 45 44
REMARK SMILES IDX 46 45 49 46 47 47 73 48 74 49 82 50 75 51 76 52 80 53 83 54
REMARK SMILES IDX 77 55 78 56 81 57 79 58 58 59 59 60 67 61 60 62 61 63 65 64
REMARK SMILES IDX 68 65 62 66 63 67 66 68 64 69 5 70 6 71 7 72 8 73 9 74 10 75
REMARK SMILES IDX 31 76 11 77 30 78 12 79 13 80 14 81 19 82 15 83 18 84 20 85
REMARK SMILES IDX 17 86 22 87 21 88 16 89 23 91 24 92 29 93 25 94 27 95 26 96
REMARK SMILES IDX 28 97
REMARK H PARENT 88 22 56 33 16 90
REMARK Flexibility Score: inf
ROOT
ATOM      1  C   UNL A   1      38.576  21.051  25.595  1.00  0.00     0.275 C 
ENDROOT
BRANCH   1   2
ATOM      2  O   UNL A   1      38.862  22.364  26.125  1.00  0.00    -0.458 OA
BRANCH   2   3
ATOM      3  C   UNL A   1      39.983  22.550  26.850  1.00  0.00     0.338 C 
ATOM      4  O   UNL A   1      40.845  21.693  27.016  1.00  0.00    -0.246 OA
BRANCH   3   5
ATOM      5  C   UNL A   1      40.171  23.963  27.253  1.00  0.00     0.060 A 
ATOM      6  C   UNL A   1      41.278  24.381  27.998  1.00  0.00     0.016 A 
ATOM      7  C   UNL A   1      39.197  24.895  26.870  1.00  0.00     0.016 A 
ATOM      8  C   UNL A   1      41.384  25.701  28.407  1.00  0.00     0.010 A 
ATOM      9  C   UNL A   1      39.313  26.223  27.262  1.00  0.00     0.010 A 
ATOM     10  C   UNL A   1      40.382  26.614  28.074  1.00  0.00    -0.014 A 
BRANCH  10  11
ATOM     11  C   UNL A   1      40.501  27.964  28.619  1.00  0.00     0.031 A 
ATOM     12  C   UNL A   1      41.673  28.785  28.185  1.00  0.00     0.074 A 
ATOM     13  C   UNL A   1      39.552  28.503  29.408  1.00  0.00     0.049 A 
ATOM     14  N   UNL A   1      42.531  29.434  28.915  1.00  0.00    -0.248 NA
ATOM     15  C   UNL A   1      41.924  28.880  26.742  1.00  0.00     0.031 C 
ATOM     16  C   UNL A   1      38.223  27.973  29.723  1.00  0.00     0.029 A 
ATOM     17  N   UNL A   1      39.554  29.721  30.019  1.00  0.00    -0.354 N 
ATOM     18  C   UNL A   1      43.346  30.134  28.024  1.00  0.00     0.074 A 
ATOM     19  C   UNL A   1      42.971  29.702  26.708  1.00  0.00     0.031 C 
ATOM     20  C   UNL A   1      37.475  28.953  30.275  1.00  0.00     0.029 A 
ATOM     21  C   UNL A   1      38.312  30.122  30.475  1.00  0.00     0.049 A 
ATOM     22  H   UNL A   1      40.367  30.266  30.127  1.00  0.00     0.167 HD
ATOM     23  C   UNL A   1      44.182  31.139  28.410  1.00  0.00     0.037 A 
ATOM     24  C   UNL A   1      37.973  31.354  30.920  1.00  0.00     0.037 A 
ATOM     25  C   UNL A   1      44.541  31.035  29.795  1.00  0.00     0.049 A 
ATOM     26  C   UNL A   1      39.217  32.062  31.301  1.00  0.00     0.074 A 
ATOM     27  C   UNL A   1      45.192  30.086  30.561  1.00  0.00     0.029 A 
ATOM     28  N   UNL A   1      43.983  31.900  30.701  1.00  0.00    -0.354 N 
ATOM     29  N   UNL A   1      39.958  31.748  32.328  1.00  0.00    -0.248 NA
ATOM     30  C   UNL A   1      39.858  32.899  30.298  1.00  0.00     0.031 C 
ATOM     31  C   UNL A   1      44.547  30.135  31.832  1.00  0.00     0.029 A 
ATOM     32  C   UNL A   1      43.569  31.127  31.754  1.00  0.00     0.049 A 
ATOM     33  H   UNL A   1      43.896  32.877  30.614  1.00  0.00     0.167 HD
ATOM     34  C   UNL A   1      41.257  32.001  31.915  1.00  0.00     0.074 A 
ATOM     35  C   UNL A   1      41.126  32.802  30.703  1.00  0.00     0.031 C 
ATOM     36  C   UNL A   1      42.315  31.313  32.438  1.00  0.00     0.037 A 
BRANCH  23  37
ATOM     37  C   UNL A   1      44.455  32.385  27.597  1.00  0.00     0.064 A 
ATOM     38  C   UNL A   1      45.634  32.471  26.826  1.00  0.00     0.173 A 
ATOM     39  C   UNL A   1      43.768  33.603  27.788  1.00  0.00     0.173 A 
ATOM     40  F   UNL A   1      46.377  31.380  26.584  1.00  0.00    -0.203 F 
ATOM     41  C   UNL A   1      46.130  33.694  26.362  1.00  0.00     0.198 A 
ATOM     42  C   UNL A   1      44.238  34.814  27.278  1.00  0.00     0.198 A 
ATOM     43  F   UNL A   1      42.678  33.688  28.558  1.00  0.00    -0.203 F 
ATOM     44  F   UNL A   1      47.319  33.739  25.745  1.00  0.00    -0.200 F 
ATOM     45  C   UNL A   1      45.436  34.865  26.598  1.00  0.00     0.200 A 
ATOM     46  F   UNL A   1      43.558  35.942  27.525  1.00  0.00    -0.200 F 
ATOM     47  F   UNL A   1      45.941  36.044  26.213  1.00  0.00    -0.200 F 
ENDBRANCH  23  37
BRANCH  24  48
ATOM     48  C   UNL A   1      36.671  32.034  30.755  1.00  0.00     0.064 A 
ATOM     49  C   UNL A   1      35.857  32.329  31.856  1.00  0.00     0.173 A 
ATOM     50  C   UNL A   1      36.313  32.629  29.527  1.00  0.00     0.173 A 
ATOM     51  F   UNL A   1      36.162  31.847  33.069  1.00  0.00    -0.203 F 
ATOM     52  C   UNL A   1      34.748  33.173  31.738  1.00  0.00     0.198 A 
ATOM     53  C   UNL A   1      35.202  33.460  29.408  1.00  0.00     0.198 A 
ATOM     54  F   UNL A   1      37.086  32.485  28.441  1.00  0.00    -0.203 F 
ATOM     55  F   UNL A   1      34.021  33.475  32.821  1.00  0.00    -0.200 F 
ATOM     56  C   UNL A   1      34.424  33.741  30.516  1.00  0.00     0.200 A 
ATOM     57  F   UNL A   1      34.923  34.031  28.228  1.00  0.00    -0.200 F 
ATOM     58  F   UNL A   1      33.392  34.588  30.412  1.00  0.00    -0.200 F 
ENDBRANCH  24  48
BRANCH  36  59
ATOM     59  C   UNL A   1      42.072  30.443  33.637  1.00  0.00     0.064 A 
ATOM     60  C   UNL A   1      41.645  29.107  33.545  1.00  0.00     0.173 A 
ATOM     61  C   UNL A   1      42.458  30.914  34.899  1.00  0.00     0.173 A 
ATOM     62  F   UNL A   1      41.369  28.554  32.358  1.00  0.00    -0.203 F 
ATOM     63  C   UNL A   1      41.566  28.295  34.673  1.00  0.00     0.198 A 
ATOM     64  C   UNL A   1      42.413  30.088  36.019  1.00  0.00     0.198 A 
ATOM     65  F   UNL A   1      42.939  32.159  35.035  1.00  0.00    -0.203 F 
ATOM     66  F   UNL A   1      41.153  27.024  34.558  1.00  0.00    -0.200 F 
ATOM     67  C   UNL A   1      41.958  28.784  35.908  1.00  0.00     0.200 A 
ATOM     68  F   UNL A   1      42.846  30.546  37.202  1.00  0.00    -0.200 F 
ATOM     69  F   UNL A   1      41.932  27.987  36.985  1.00  0.00    -0.200 F 
ENDBRANCH  36  59
ENDBRANCH  10  11
ENDBRANCH   3   5
ENDBRANCH   2   3
ENDBRANCH   1   2
BRANCH   1  70
ATOM     70  C   UNL A   1      37.263  20.873  24.833  1.00  0.00     0.275 C 
BRANCH  70  71
ATOM     71  O   UNL A   1      36.136  20.989  25.721  1.00  0.00    -0.458 OA
BRANCH  71  72
ATOM     72  C   UNL A   1      34.935  21.091  25.111  1.00  0.00     0.338 C 
ATOM     73  O   UNL A   1      34.217  20.174  24.709  1.00  0.00    -0.246 OA
BRANCH  72  74
ATOM     74  C   UNL A   1      34.552  22.499  24.991  1.00  0.00     0.060 A 
ATOM     75  C   UNL A   1      34.844  23.187  23.813  1.00  0.00     0.016 A 
ATOM     76  C   UNL A   1      34.018  23.171  26.090  1.00  0.00     0.016 A 
ATOM     77  C   UNL A   1      34.584  24.556  23.729  1.00  0.00     0.005 A 
ATOM     78  C   UNL A   1      33.795  24.550  26.016  1.00  0.00     0.005 A 
ATOM     79  C   UNL A   1      34.072  25.263  24.834  1.00  0.00    -0.038 A 
BRANCH  79  80
ATOM     80  C   UNL A   1      33.979  26.781  24.737  1.00  0.00     0.081 C 
ATOM     81  C   UNL A   1      33.908  27.428  26.138  1.00  0.00     0.111 C 
ATOM     82  C   UNL A   1      32.799  27.138  23.914  1.00  0.00     0.093 A 
ATOM     83  C   UNL A   1      32.593  28.117  26.468  1.00  0.00     0.188 C 
ATOM     84  C   UNL A   1      31.781  27.926  24.407  1.00  0.00     0.164 A 
ATOM     85  N   UNL A   1      32.562  26.746  22.627  1.00  0.00    -0.238 NA
ATOM     86  N   UNL A   1      31.619  28.401  25.665  1.00  0.00    -0.198 NA
ATOM     87  N   UNL A   1      30.866  28.023  23.376  1.00  0.00    -0.283 N 
ATOM     88  C   UNL A   1      31.382  27.260  22.348  1.00  0.00     0.206 A 
BRANCH  83  89
ATOM     89  O   UNL A   1      32.488  28.499  27.756  1.00  0.00    -0.496 OA
ATOM     90  H   UNL A   1      32.236  29.377  27.965  1.00  0.00     0.294 HD
ENDBRANCH  83  89
BRANCH  87  91
ATOM     91  C   UNL A   1      29.659  28.760  23.324  1.00  0.00     0.050 A 
ATOM     92  C   UNL A   1      28.436  28.083  23.209  1.00  0.00     0.027 A 
ATOM     93  C   UNL A   1      29.691  30.159  23.336  1.00  0.00     0.047 A 
ATOM     94  C   UNL A   1      27.246  28.807  23.124  1.00  0.00     0.004 A 
ATOM     95  C   UNL A   1      28.499  30.870  23.201  1.00  0.00     0.043 A 
ATOM     96  C   UNL A   1      27.278  30.201  23.105  1.00  0.00     0.020 A 
ATOM     97  Cl  UNL A   1      28.533  32.589  23.114  1.00  0.00    -0.084 Cl
ENDBRANCH  87  91
ENDBRANCH  79  80
ENDBRANCH  72  74
ENDBRANCH  71  72
ENDBRANCH  70  71
ENDBRANCH   1  70
TORSDOF 14
ENDMDL
MODEL 3
REMARK VINA RESULT:     -14.1      3.671      9.256
REMARK SMILES O=C(OCCOC(=O)c1ccc([C@@H]2CC(O)=Nc3c2ncn3-c2cccc(Cl)c2)cc1)c1ccc(-c2c3nc(c(-c4c(F)c(F)c(F)c(F)c4F)c4ccc([nH]4)c(-c4c(F)c(F)c(F)c(F)c4F)c4nc(c(-c5c(F)c(F)c(F)c(F)c5F)c5ccc2[nH]5)C=C4)C=C3)cc1
REMARK SMILES IDX 4 1 3 2 2 3 1 4 32 5 33 6 94 7 34 8 93 9 35 10 36 11 37 12
REMARK SMILES IDX 87 13 38 14 92 15 86 16 88 17 39 18 91 19 85 20 84 21 40 23
REMARK SMILES IDX 72 24 52 25 71 26 53 27 56 28 70 29 89 30 54 31 55 32 69 34
REMARK SMILES IDX 90 35 57 36 41 37 42 38 50 39 43 40 44 41 48 42 51 43 45 44
REMARK SMILES IDX 46 45 49 46 47 47 73 48 74 49 82 50 75 51 76 52 80 53 83 54
REMARK SMILES IDX 77 55 78 56 81 57 79 58 58 59 59 60 67 61 60 62 61 63 65 64
REMARK SMILES IDX 68 65 62 66 63 67 66 68 64 69 5 70 6 71 7 72 8 73 9 74 10 75
REMARK SMILES IDX 31 76 11 77 30 78 12 79 13 80 14 81 19 82 15 83 18 84 20 85
REMARK SMILES IDX 17 86 22 87 21 88 16 89 23 91 24 92 29 93 25 94 27 95 26 96
REMARK SMILES IDX 28 97
REMARK H PARENT 88 22 56 33 16 90
REMARK Flexibility Score: inf
ROOT
ATOM      1  C   UNL A   1      38.551  20.993  25.736  1.00  0.00     0.275 C 
ENDROOT
BRANCH   1   2
ATOM      2  O   UNL A   1      38.958  22.338  26.071  1.00  0.00    -0.458 OA
BRANCH   2   3
ATOM      3  C   UNL A   1      40.029  22.520  26.869  1.00  0.00     0.338 C 
ATOM      4  O   UNL A   1      40.864  21.654  27.109  1.00  0.00    -0.246 OA
BRANCH   3   5
ATOM      5  C   UNL A   1      40.210  23.937  27.262  1.00  0.00     0.060 A 
ATOM      6  C   UNL A   1      41.330  24.371  27.977  1.00  0.00     0.016 A 
ATOM      7  C   UNL A   1      39.216  24.855  26.900  1.00  0.00     0.016 A 
ATOM      8  C   UNL A   1      41.430  25.693  28.379  1.00  0.00     0.010 A 
ATOM      9  C   UNL A   1      39.325  26.187  27.284  1.00  0.00     0.010 A 
ATOM     10  C   UNL A   1      40.409  26.593  28.067  1.00  0.00    -0.014 A 
BRANCH  10  11
ATOM     11  C   UNL A   1      40.526  27.947  28.605  1.00  0.00     0.031 A 
ATOM     12  C   UNL A   1      41.699  28.766  28.170  1.00  0.00     0.074 A 
ATOM     13  C   UNL A   1      39.573  28.491  29.387  1.00  0.00     0.049 A 
ATOM     14  N   UNL A   1      42.554  29.419  28.900  1.00  0.00    -0.248 NA
ATOM     15  C   UNL A   1      41.956  28.852  26.727  1.00  0.00     0.031 C 
ATOM     16  C   UNL A   1      38.243  27.962  29.699  1.00  0.00     0.029 A 
ATOM     17  N   UNL A   1      39.572  29.713  29.990  1.00  0.00    -0.354 N 
ATOM     18  C   UNL A   1      43.372  30.114  28.007  1.00  0.00     0.074 A 
ATOM     19  C   UNL A   1      43.003  29.674  26.692  1.00  0.00     0.031 C 
ATOM     20  C   UNL A   1      37.492  28.945  30.241  1.00  0.00     0.029 A 
ATOM     21  C   UNL A   1      38.328  30.116  30.438  1.00  0.00     0.049 A 
ATOM     22  H   UNL A   1      40.384  30.258  30.097  1.00  0.00     0.167 HD
ATOM     23  C   UNL A   1      44.206  31.122  28.390  1.00  0.00     0.037 A 
ATOM     24  C   UNL A   1      37.987  31.350  30.873  1.00  0.00     0.037 A 
ATOM     25  C   UNL A   1      44.559  31.027  29.778  1.00  0.00     0.049 A 
ATOM     26  C   UNL A   1      39.229  32.062  31.255  1.00  0.00     0.074 A 
ATOM     27  C   UNL A   1      45.207  30.083  30.552  1.00  0.00     0.029 A 
ATOM     28  N   UNL A   1      43.997  31.898  30.676  1.00  0.00    -0.354 N 
ATOM     29  N   UNL A   1      39.966  31.755  32.286  1.00  0.00    -0.248 NA
ATOM     30  C   UNL A   1      39.873  32.893  30.249  1.00  0.00     0.031 C 
ATOM     31  C   UNL A   1      44.558  30.141  31.820  1.00  0.00     0.029 A 
ATOM     32  C   UNL A   1      43.580  31.131  31.731  1.00  0.00     0.049 A 
ATOM     33  H   UNL A   1      43.910  32.874  30.581  1.00  0.00     0.167 HD
ATOM     34  C   UNL A   1      41.267  32.006  31.878  1.00  0.00     0.074 A 
ATOM     35  C   UNL A   1      41.140  32.799  30.660  1.00  0.00     0.031 C 
ATOM     36  C   UNL A   1      42.322  31.321  32.409  1.00  0.00     0.037 A 
BRANCH  23  37
ATOM     37  C   UNL A   1      44.482  32.363  27.570  1.00  0.00     0.064 A 
ATOM     38  C   UNL A   1      45.679  32.458  26.829  1.00  0.00     0.173 A 
ATOM     39  C   UNL A   1      43.773  33.573  27.730  1.00  0.00     0.173 A 
ATOM     40  F   UNL A   1      46.444  31.376  26.618  1.00  0.00    -0.203 F 
ATOM     41  C   UNL A   1      46.169  33.683  26.364  1.00  0.00     0.198 A 
ATOM     42  C   UNL A   1      44.238  34.785  27.218  1.00  0.00     0.198 A 
ATOM     43  F   UNL A   1      42.662  33.651  28.471  1.00  0.00    -0.203 F 
ATOM     44  F   UNL A   1      47.373  33.739  25.777  1.00  0.00    -0.200 F 
ATOM     45  C   UNL A   1      45.452  34.846  26.568  1.00  0.00     0.200 A 
ATOM     46  F   UNL A   1      43.535  35.905  27.435  1.00  0.00    -0.200 F 
ATOM     47  F   UNL A   1      45.950  36.029  26.183  1.00  0.00    -0.200 F 
ENDBRANCH  23  37
BRANCH  24  48
ATOM     48  C   UNL A   1      36.685  32.029  30.698  1.00  0.00     0.064 A 
ATOM     49  C   UNL A   1      35.856  32.311  31.792  1.00  0.00     0.173 A 
ATOM     50  C   UNL A   1      36.341  32.635  29.473  1.00  0.00     0.173 A 
ATOM     51  F   UNL A   1      36.147  31.816  33.004  1.00  0.00    -0.203 F 
ATOM     52  C   UNL A   1      34.747  33.153  31.669  1.00  0.00     0.198 A 
ATOM     53  C   UNL A   1      35.229  33.466  29.347  1.00  0.00     0.198 A 
ATOM     54  F   UNL A   1      37.128  32.505  28.395  1.00  0.00    -0.203 F 
ATOM     55  F   UNL A   1      34.005  33.442  32.746  1.00  0.00    -0.200 F 
ATOM     56  C   UNL A   1      34.437  33.732  30.448  1.00  0.00     0.200 A 
ATOM     57  F   UNL A   1      34.964  34.047  28.170  1.00  0.00    -0.200 F 
ATOM     58  F   UNL A   1      33.404  34.578  30.340  1.00  0.00    -0.200 F 
ENDBRANCH  24  48
BRANCH  36  59
ATOM     59  C   UNL A   1      42.075  30.459  33.613  1.00  0.00     0.064 A 
ATOM     60  C   UNL A   1      41.659  29.119  33.527  1.00  0.00     0.173 A 
ATOM     61  C   UNL A   1      42.445  30.943  34.874  1.00  0.00     0.173 A 
ATOM     62  F   UNL A   1      41.398  28.554  32.342  1.00  0.00    -0.203 F 
ATOM     63  C   UNL A   1      41.576  28.315  34.661  1.00  0.00     0.198 A 
ATOM     64  C   UNL A   1      42.397  30.125  36.001  1.00  0.00     0.198 A 
ATOM     65  F   UNL A   1      42.916  32.193  35.006  1.00  0.00    -0.203 F 
ATOM     66  F   UNL A   1      41.173  27.041  34.552  1.00  0.00    -0.200 F 
ATOM     67  C   UNL A   1      41.953  28.817  35.896  1.00  0.00     0.200 A 
ATOM     68  F   UNL A   1      42.815  30.596  37.184  1.00  0.00    -0.200 F 
ATOM     69  F   UNL A   1      41.922  28.028  36.979  1.00  0.00    -0.200 F 
ENDBRANCH  36  59
ENDBRANCH  10  11
ENDBRANCH   3   5
ENDBRANCH   2   3
ENDBRANCH   1   2
BRANCH   1  70
ATOM     70  C   UNL A   1      37.362  20.836  24.789  1.00  0.00     0.275 C 
BRANCH  70  71
ATOM     71  O   UNL A   1      36.131  20.726  25.526  1.00  0.00    -0.458 OA
BRANCH  71  72
ATOM     72  C   UNL A   1      35.087  20.230  24.825  1.00  0.00     0.338 C 
ATOM     73  O   UNL A   1      34.810  19.046  24.628  1.00  0.00    -0.246 OA
BRANCH  72  74
ATOM     74  C   UNL A   1      34.262  21.326  24.312  1.00  0.00     0.060 A 
ATOM     75  C   UNL A   1      34.873  22.524  23.941  1.00  0.00     0.016 A 
ATOM     76  C   UNL A   1      32.872  21.212  24.317  1.00  0.00     0.016 A 
ATOM     77  C   UNL A   1      34.088  23.611  23.556  1.00  0.00     0.005 A 
ATOM     78  C   UNL A   1      32.086  22.315  23.969  1.00  0.00     0.005 A 
ATOM     79  C   UNL A   1      32.682  23.531  23.581  1.00  0.00    -0.038 A 
BRANCH  79  80
ATOM     80  C   UNL A   1      31.883  24.803  23.322  1.00  0.00     0.081 C 
ATOM     81  C   UNL A   1      32.398  25.541  22.067  1.00  0.00     0.111 C 
ATOM     82  C   UNL A   1      31.953  25.666  24.526  1.00  0.00     0.093 A 
ATOM     83  C   UNL A   1      33.044  26.893  22.329  1.00  0.00     0.188 C 
ATOM     84  C   UNL A   1      32.456  26.948  24.473  1.00  0.00     0.164 A 
ATOM     85  N   UNL A   1      31.561  25.324  25.790  1.00  0.00    -0.238 NA
ATOM     86  N   UNL A   1      33.035  27.581  23.425  1.00  0.00    -0.198 NA
ATOM     87  N   UNL A   1      32.377  27.423  25.768  1.00  0.00    -0.283 N 
ATOM     88  C   UNL A   1      31.863  26.382  26.515  1.00  0.00     0.206 A 
BRANCH  83  89
ATOM     89  O   UNL A   1      33.653  27.422  21.250  1.00  0.00    -0.496 OA
ATOM     90  H   UNL A   1      33.474  28.306  20.997  1.00  0.00     0.294 HD
ENDBRANCH  83  89
BRANCH  87  91
ATOM     91  C   UNL A   1      32.709  28.704  26.268  1.00  0.00     0.050 A 
ATOM     92  C   UNL A   1      33.889  28.877  27.008  1.00  0.00     0.027 A 
ATOM     93  C   UNL A   1      31.839  29.782  26.068  1.00  0.00     0.047 A 
ATOM     94  C   UNL A   1      34.203  30.132  27.530  1.00  0.00     0.004 A 
ATOM     95  C   UNL A   1      32.141  31.018  26.637  1.00  0.00     0.043 A 
ATOM     96  C   UNL A   1      33.323  31.200  27.358  1.00  0.00     0.020 A 
ATOM     97  Cl  UNL A   1      31.032  32.325  26.484  1.00  0.00    -0.084 Cl
ENDBRANCH  87  91
ENDBRANCH  79  80
ENDBRANCH  72  74
ENDBRANCH  71  72
ENDBRANCH  70  71
ENDBRANCH   1  70
TORSDOF 14
ENDMDL
