MODEL 1
REMARK VINA RESULT:     -11.1      0.000      0.000
REMARK SMILES CC[C@@H](C)[C@@H](C(=O)OCCOC(=O)c1ccc(-c2c3nc(c(-c4c(F)c(F)c(F)c(F)c4F)c4ccc([nH]4)c(-c4c(F)c(F)c(F)c(F)c4F)c4nc(c(-c5c(F)c(F)c(F)c(F)c5F)c5ccc2[nH]5)C=C4)C=C3)cc1)N1C(=O)/C(=C\c2ccn(C)c2)SC1=S
REMARK SMILES IDX 9 1 8 2 6 3 7 4 5 5 3 6 4 7 2 8 1 9 77 10 78 11 89 12 79 13
REMARK SMILES IDX 80 14 88 15 90 16 81 17 82 18 83 19 87 20 84 21 85 22 86 23
REMARK SMILES IDX 10 24 11 25 12 26 13 27 14 28 15 29 76 30 16 31 75 32 17 33
REMARK SMILES IDX 18 34 19 35 69 36 20 37 74 38 68 39 70 40 21 41 73 42 67 43
REMARK SMILES IDX 66 44 22 46 54 47 34 48 53 49 35 50 38 51 52 52 71 53 36 54
REMARK SMILES IDX 37 55 51 57 72 58 39 59 23 60 24 61 32 62 25 63 26 64 30 65
REMARK SMILES IDX 33 66 27 67 28 68 31 69 29 70 55 71 56 72 64 73 57 74 58 75
REMARK SMILES IDX 62 76 65 77 59 78 60 79 63 80 61 81 40 82 41 83 49 84 42 85
REMARK SMILES IDX 43 86 47 87 50 88 44 89 45 90 48 91 46 92
REMARK H PARENT 70 45 38 56
REMARK Flexibility Score: inf
ROOT
ATOM      1  C   UNL A   1      31.718  27.979  26.094  1.00  0.00     0.274 C 
ENDROOT
BRANCH   1   2
ATOM      2  O   UNL A   1      32.091  27.139  24.974  1.00  0.00    -0.461 OA
BRANCH   2   3
ATOM      3  C   UNL A   1      33.301  26.543  25.087  1.00  0.00     0.329 C 
ATOM      4  O   UNL A   1      33.962  26.602  26.116  1.00  0.00    -0.250 OA
BRANCH   3   5
ATOM      5  C   UNL A   1      33.751  25.701  23.852  1.00  0.00     0.204 C 
BRANCH   5   6
ATOM      6  C   UNL A   1      33.119  26.500  22.635  1.00  0.00     0.020 C 
ATOM      7  C   UNL A   1      32.927  25.771  21.312  1.00  0.00     0.010 C 
BRANCH   6   8
ATOM      8  C   UNL A   1      33.920  27.818  22.400  1.00  0.00     0.002 C 
ATOM      9  C   UNL A   1      33.112  29.111  22.403  1.00  0.00     0.004 C 
ENDBRANCH   6   8
ENDBRANCH   5   6
BRANCH   5  10
ATOM     10  N   UNL A   1      33.251  24.310  24.188  1.00  0.00    -0.278 N 
ATOM     11  C   UNL A   1      34.148  23.269  23.954  1.00  0.00     0.267 C 
ATOM     12  C   UNL A   1      31.998  23.758  24.209  1.00  0.00     0.149 C 
ATOM     13  O   UNL A   1      35.030  23.271  23.107  1.00  0.00    -0.268 OA
ATOM     14  C   UNL A   1      33.774  22.099  24.779  1.00  0.00     0.081 C 
ATOM     15  S   UNL A   1      32.076  22.182  25.036  1.00  0.00    -0.054 SA
ATOM     16  S   UNL A   1      30.595  24.236  23.451  1.00  0.00    -0.052 S 
ATOM     17  C   UNL A   1      34.600  21.189  25.307  1.00  0.00     0.031 C 
BRANCH  17  18
ATOM     18  C   UNL A   1      36.027  21.208  25.291  1.00  0.00    -0.007 A 
ATOM     19  C   UNL A   1      36.884  22.254  25.721  1.00  0.00     0.027 A 
ATOM     20  C   UNL A   1      36.828  20.118  25.021  1.00  0.00     0.093 A 
ATOM     21  C   UNL A   1      38.170  21.765  25.743  1.00  0.00     0.086 A 
ATOM     22  N   UNL A   1      38.123  20.467  25.311  1.00  0.00    -0.357 N 
ATOM     23  C   UNL A   1      39.269  19.591  25.262  1.00  0.00     0.149 C 
ENDBRANCH  17  18
ENDBRANCH   5  10
ENDBRANCH   3   5
ENDBRANCH   2   3
ENDBRANCH   1   2
BRANCH   1  24
ATOM     24  C   UNL A   1      31.769  29.499  25.813  1.00  0.00     0.275 C 
BRANCH  24  25
ATOM     25  O   UNL A   1      33.102  30.057  25.929  1.00  0.00    -0.458 OA
BRANCH  25  26
ATOM     26  C   UNL A   1      33.262  31.088  26.801  1.00  0.00     0.338 C 
ATOM     27  O   UNL A   1      32.475  32.002  26.996  1.00  0.00    -0.246 OA
BRANCH  26  28
ATOM     28  C   UNL A   1      34.447  30.845  27.667  1.00  0.00     0.060 A 
ATOM     29  C   UNL A   1      34.633  29.552  28.179  1.00  0.00     0.016 A 
ATOM     30  C   UNL A   1      35.392  31.836  27.939  1.00  0.00     0.016 A 
ATOM     31  C   UNL A   1      35.789  29.233  28.896  1.00  0.00     0.010 A 
ATOM     32  C   UNL A   1      36.531  31.525  28.701  1.00  0.00     0.010 A 
ATOM     33  C   UNL A   1      36.749  30.218  29.170  1.00  0.00    -0.014 A 
BRANCH  33  34
ATOM     34  C   UNL A   1      37.928  29.870  30.013  1.00  0.00     0.031 A 
ATOM     35  C   UNL A   1      39.037  29.064  29.418  1.00  0.00     0.074 A 
ATOM     36  C   UNL A   1      38.052  30.318  31.276  1.00  0.00     0.049 A 
ATOM     37  N   UNL A   1      40.137  28.637  29.981  1.00  0.00    -0.248 NA
ATOM     38  C   UNL A   1      38.874  28.667  28.014  1.00  0.00     0.031 C 
ATOM     39  C   UNL A   1      37.046  31.106  31.958  1.00  0.00     0.029 A 
ATOM     40  N   UNL A   1      39.068  30.217  32.197  1.00  0.00    -0.354 N 
ATOM     41  C   UNL A   1      40.781  27.884  29.013  1.00  0.00     0.074 A 
ATOM     42  C   UNL A   1      39.962  27.937  27.819  1.00  0.00     0.031 C 
ATOM     43  C   UNL A   1      37.523  31.520  33.142  1.00  0.00     0.029 A 
ATOM     44  C   UNL A   1      38.835  30.923  33.358  1.00  0.00     0.049 A 
ATOM     45  H   UNL A   1      39.884  29.689  32.044  1.00  0.00     0.167 HD
ATOM     46  C   UNL A   1      41.930  27.180  29.131  1.00  0.00     0.037 A 
ATOM     47  C   UNL A   1      39.572  31.044  34.481  1.00  0.00     0.037 A 
ATOM     48  C   UNL A   1      42.713  27.096  30.336  1.00  0.00     0.049 A 
ATOM     49  C   UNL A   1      40.828  30.218  34.595  1.00  0.00     0.074 A 
ATOM     50  C   UNL A   1      43.856  26.356  30.572  1.00  0.00     0.029 A 
ATOM     51  N   UNL A   1      42.421  27.768  31.517  1.00  0.00    -0.354 N 
ATOM     52  N   UNL A   1      41.404  29.462  33.693  1.00  0.00    -0.248 NA
ATOM     53  C   UNL A   1      41.500  30.208  35.903  1.00  0.00     0.031 C 
ATOM     54  C   UNL A   1      44.230  26.539  31.908  1.00  0.00     0.029 A 
ATOM     55  C   UNL A   1      43.356  27.444  32.489  1.00  0.00     0.049 A 
ATOM     56  H   UNL A   1      41.663  28.382  31.645  1.00  0.00     0.167 HD
ATOM     57  C   UNL A   1      42.495  28.879  34.321  1.00  0.00     0.074 A 
ATOM     58  C   UNL A   1      42.528  29.404  35.671  1.00  0.00     0.031 C 
ATOM     59  C   UNL A   1      43.375  27.974  33.831  1.00  0.00     0.037 A 
BRANCH  46  60
ATOM     60  C   UNL A   1      42.338  26.368  27.940  1.00  0.00     0.064 A 
ATOM     61  C   UNL A   1      43.263  26.842  26.998  1.00  0.00     0.173 A 
ATOM     62  C   UNL A   1      41.753  25.112  27.714  1.00  0.00     0.173 A 
ATOM     63  F   UNL A   1      43.826  28.049  27.154  1.00  0.00    -0.203 F 
ATOM     64  C   UNL A   1      43.557  26.106  25.853  1.00  0.00     0.198 A 
ATOM     65  C   UNL A   1      42.075  24.366  26.586  1.00  0.00     0.198 A 
ATOM     66  F   UNL A   1      40.858  24.617  28.582  1.00  0.00    -0.203 F 
ATOM     67  F   UNL A   1      44.387  26.610  24.930  1.00  0.00    -0.200 F 
ATOM     68  C   UNL A   1      42.966  24.868  25.650  1.00  0.00     0.200 A 
ATOM     69  F   UNL A   1      41.507  23.166  26.394  1.00  0.00    -0.200 F 
ATOM     70  F   UNL A   1      43.242  24.166  24.543  1.00  0.00    -0.200 F 
ENDBRANCH  46  60
BRANCH  47  71
ATOM     71  C   UNL A   1      39.131  31.912  35.613  1.00  0.00     0.064 A 
ATOM     72  C   UNL A   1      38.275  31.417  36.611  1.00  0.00     0.173 A 
ATOM     73  C   UNL A   1      39.514  33.259  35.709  1.00  0.00     0.173 A 
ATOM     74  F   UNL A   1      37.843  30.149  36.554  1.00  0.00    -0.203 F 
ATOM     75  C   UNL A   1      37.815  32.234  37.645  1.00  0.00     0.198 A 
ATOM     76  C   UNL A   1      39.091  34.062  36.769  1.00  0.00     0.198 A 
ATOM     77  F   UNL A   1      40.311  33.802  34.778  1.00  0.00    -0.203 F 
ATOM     78  F   UNL A   1      36.951  31.749  38.547  1.00  0.00    -0.200 F 
ATOM     79  C   UNL A   1      38.233  33.553  37.729  1.00  0.00     0.200 A 
ATOM     80  F   UNL A   1      39.514  35.331  36.853  1.00  0.00    -0.200 F 
ATOM     81  F   UNL A   1      37.799  34.336  38.726  1.00  0.00    -0.200 F 
ENDBRANCH  47  71
BRANCH  59  82
ATOM     82  C   UNL A   1      44.464  27.507  34.752  1.00  0.00     0.064 A 
ATOM     83  C   UNL A   1      45.683  28.195  34.861  1.00  0.00     0.173 A 
ATOM     84  C   UNL A   1      44.270  26.381  35.566  1.00  0.00     0.173 A 
ATOM     85  F   UNL A   1      45.925  29.266  34.091  1.00  0.00    -0.203 F 
ATOM     86  C   UNL A   1      46.672  27.760  35.739  1.00  0.00     0.198 A 
ATOM     87  C   UNL A   1      45.249  25.968  36.464  1.00  0.00     0.198 A 
ATOM     88  F   UNL A   1      43.121  25.690  35.500  1.00  0.00    -0.203 F 
ATOM     89  F   UNL A   1      47.846  28.406  35.796  1.00  0.00    -0.200 F 
ATOM     90  C   UNL A   1      46.451  26.654  36.546  1.00  0.00     0.200 A 
ATOM     91  F   UNL A   1      45.028  24.907  37.251  1.00  0.00    -0.200 F 
ATOM     92  F   UNL A   1      47.402  26.244  37.398  1.00  0.00    -0.200 F 
ENDBRANCH  59  82
ENDBRANCH  33  34
ENDBRANCH  26  28
ENDBRANCH  25  26
ENDBRANCH  24  25
ENDBRANCH   1  24
TORSDOF 15
ENDMDL
MODEL 2
REMARK VINA RESULT:     -11.0      0.691      2.088
REMARK SMILES CC[C@@H](C)[C@@H](C(=O)OCCOC(=O)c1ccc(-c2c3nc(c(-c4c(F)c(F)c(F)c(F)c4F)c4ccc([nH]4)c(-c4c(F)c(F)c(F)c(F)c4F)c4nc(c(-c5c(F)c(F)c(F)c(F)c5F)c5ccc2[nH]5)C=C4)C=C3)cc1)N1C(=O)/C(=C\c2ccn(C)c2)SC1=S
REMARK SMILES IDX 9 1 8 2 6 3 7 4 5 5 3 6 4 7 2 8 1 9 77 10 78 11 89 12 79 13
REMARK SMILES IDX 80 14 88 15 90 16 81 17 82 18 83 19 87 20 84 21 85 22 86 23
REMARK SMILES IDX 10 24 11 25 12 26 13 27 14 28 15 29 76 30 16 31 75 32 17 33
REMARK SMILES IDX 18 34 19 35 69 36 20 37 74 38 68 39 70 40 21 41 73 42 67 43
REMARK SMILES IDX 66 44 22 46 54 47 34 48 53 49 35 50 38 51 52 52 71 53 36 54
REMARK SMILES IDX 37 55 51 57 72 58 39 59 23 60 24 61 32 62 25 63 26 64 30 65
REMARK SMILES IDX 33 66 27 67 28 68 31 69 29 70 55 71 56 72 64 73 57 74 58 75
REMARK SMILES IDX 62 76 65 77 59 78 60 79 63 80 61 81 40 82 41 83 49 84 42 85
REMARK SMILES IDX 43 86 47 87 50 88 44 89 45 90 48 91 46 92
REMARK H PARENT 70 45 38 56
REMARK Flexibility Score: inf
ROOT
ATOM      1  C   UNL A   1      31.861  28.103  26.879  1.00  0.00     0.274 C 
ENDROOT
BRANCH   1   2
ATOM      2  O   UNL A   1      32.630  27.055  26.238  1.00  0.00    -0.461 OA
BRANCH   2   3
ATOM      3  C   UNL A   1      32.042  26.500  25.154  1.00  0.00     0.329 C 
ATOM      4  O   UNL A   1      30.826  26.483  25.009  1.00  0.00    -0.250 OA
BRANCH   3   5
ATOM      5  C   UNL A   1      33.021  25.968  24.059  1.00  0.00     0.204 C 
BRANCH   5   6
ATOM      6  C   UNL A   1      32.447  26.619  22.731  1.00  0.00     0.020 C 
ATOM      7  C   UNL A   1      32.847  26.009  21.395  1.00  0.00     0.010 C 
BRANCH   6   8
ATOM      8  C   UNL A   1      32.750  28.150  22.724  1.00  0.00     0.002 C 
ATOM      9  C   UNL A   1      34.193  28.556  22.997  1.00  0.00     0.004 C 
ENDBRANCH   6   8
ENDBRANCH   5   6
BRANCH   5  10
ATOM     10  N   UNL A   1      32.963  24.466  24.254  1.00  0.00    -0.278 N 
ATOM     11  C   UNL A   1      34.169  23.785  24.092  1.00  0.00     0.267 C 
ATOM     12  C   UNL A   1      31.963  23.548  24.076  1.00  0.00     0.149 C 
ATOM     13  O   UNL A   1      35.093  24.143  23.375  1.00  0.00    -0.268 OA
ATOM     14  C   UNL A   1      34.104  22.487  24.798  1.00  0.00     0.081 C 
ATOM     15  S   UNL A   1      32.454  22.007  24.825  1.00  0.00    -0.054 SA
ATOM     16  S   UNL A   1      30.577  23.627  23.158  1.00  0.00    -0.052 S 
ATOM     17  C   UNL A   1      35.115  21.839  25.387  1.00  0.00     0.031 C 
BRANCH  17  18
ATOM     18  C   UNL A   1      36.452  22.308  25.567  1.00  0.00    -0.007 A 
ATOM     19  C   UNL A   1      36.866  23.578  26.043  1.00  0.00     0.027 A 
ATOM     20  C   UNL A   1      37.582  21.523  25.482  1.00  0.00     0.093 A 
ATOM     21  C   UNL A   1      38.222  23.522  26.273  1.00  0.00     0.086 A 
ATOM     22  N   UNL A   1      38.646  22.268  25.923  1.00  0.00    -0.357 N 
ATOM     23  C   UNL A   1      40.000  21.798  26.090  1.00  0.00     0.149 C 
ENDBRANCH  17  18
ENDBRANCH   5  10
ENDBRANCH   3   5
ENDBRANCH   2   3
ENDBRANCH   1   2
BRANCH   1  24
ATOM     24  C   UNL A   1      31.827  29.447  26.114  1.00  0.00     0.275 C 
BRANCH  24  25
ATOM     25  O   UNL A   1      33.126  30.085  26.023  1.00  0.00    -0.458 OA
BRANCH  25  26
ATOM     26  C   UNL A   1      33.330  31.176  26.808  1.00  0.00     0.338 C 
ATOM     27  O   UNL A   1      32.577  32.130  26.933  1.00  0.00    -0.246 OA
BRANCH  26  28
ATOM     28  C   UNL A   1      34.514  30.961  27.682  1.00  0.00     0.060 A 
ATOM     29  C   UNL A   1      34.842  29.642  28.032  1.00  0.00     0.016 A 
ATOM     30  C   UNL A   1      35.325  32.011  28.117  1.00  0.00     0.016 A 
ATOM     31  C   UNL A   1      36.009  29.368  28.748  1.00  0.00     0.010 A 
ATOM     32  C   UNL A   1      36.473  31.737  28.879  1.00  0.00     0.010 A 
ATOM     33  C   UNL A   1      36.836  30.414  29.185  1.00  0.00    -0.014 A 
BRANCH  33  34
ATOM     34  C   UNL A   1      38.026  30.098  30.024  1.00  0.00     0.031 A 
ATOM     35  C   UNL A   1      39.177  29.368  29.410  1.00  0.00     0.074 A 
ATOM     36  C   UNL A   1      38.122  30.509  31.302  1.00  0.00     0.049 A 
ATOM     37  N   UNL A   1      40.294  28.978  29.966  1.00  0.00    -0.248 NA
ATOM     38  C   UNL A   1      39.041  29.010  27.993  1.00  0.00     0.031 C 
ATOM     39  C   UNL A   1      37.075  31.223  32.003  1.00  0.00     0.029 A 
ATOM     40  N   UNL A   1      39.137  30.429  32.226  1.00  0.00    -0.354 N 
ATOM     41  C   UNL A   1      40.980  28.291  28.979  1.00  0.00     0.074 A 
ATOM     42  C   UNL A   1      40.165  28.342  27.781  1.00  0.00     0.031 C 
ATOM     43  C   UNL A   1      37.525  31.622  33.202  1.00  0.00     0.029 A 
ATOM     44  C   UNL A   1      38.863  31.084  33.407  1.00  0.00     0.049 A 
ATOM     45  H   UNL A   1      39.980  29.948  32.060  1.00  0.00     0.167 HD
ATOM     46  C   UNL A   1      42.163  27.642  29.080  1.00  0.00     0.037 A 
ATOM     47  C   UNL A   1      39.588  31.204  34.539  1.00  0.00     0.037 A 
ATOM     48  C   UNL A   1      42.943  27.556  30.288  1.00  0.00     0.049 A 
ATOM     49  C   UNL A   1      40.883  30.439  34.634  1.00  0.00     0.074 A 
ATOM     50  C   UNL A   1      44.121  26.867  30.507  1.00  0.00     0.029 A 
ATOM     51  N   UNL A   1      42.612  28.174  31.487  1.00  0.00    -0.354 N 
ATOM     52  N   UNL A   1      41.500  29.743  33.711  1.00  0.00    -0.248 NA
ATOM     53  C   UNL A   1      41.548  30.420  35.945  1.00  0.00     0.031 C 
ATOM     54  C   UNL A   1      44.479  27.025  31.850  1.00  0.00     0.029 A 
ATOM     55  C   UNL A   1      43.557  27.865  32.455  1.00  0.00     0.049 A 
ATOM     56  H   UNL A   1      41.824  28.745  31.631  1.00  0.00     0.167 HD
ATOM     57  C   UNL A   1      42.617  29.195  34.327  1.00  0.00     0.074 A 
ATOM     58  C   UNL A   1      42.617  29.675  35.693  1.00  0.00     0.031 C 
ATOM     59  C   UNL A   1      43.543  28.351  33.813  1.00  0.00     0.037 A 
BRANCH  46  60
ATOM     60  C   UNL A   1      42.616  26.890  27.866  1.00  0.00     0.064 A 
ATOM     61  C   UNL A   1      42.391  25.514  27.717  1.00  0.00     0.173 A 
ATOM     62  C   UNL A   1      43.331  27.554  26.857  1.00  0.00     0.173 A 
ATOM     63  F   UNL A   1      41.739  24.829  28.669  1.00  0.00    -0.203 F 
ATOM     64  C   UNL A   1      42.901  24.821  26.622  1.00  0.00     0.198 A 
ATOM     65  C   UNL A   1      43.810  26.864  25.748  1.00  0.00     0.198 A 
ATOM     66  F   UNL A   1      43.578  28.868  26.955  1.00  0.00    -0.203 F 
ATOM     67  F   UNL A   1      42.739  23.494  26.536  1.00  0.00    -0.200 F 
ATOM     68  C   UNL A   1      43.606  25.497  25.637  1.00  0.00     0.200 A 
ATOM     69  F   UNL A   1      44.486  27.521  24.794  1.00  0.00    -0.200 F 
ATOM     70  F   UNL A   1      44.105  24.828  24.589  1.00  0.00    -0.200 F 
ENDBRANCH  46  60
BRANCH  47  71
ATOM     71  C   UNL A   1      39.099  32.012  35.696  1.00  0.00     0.064 A 
ATOM     72  C   UNL A   1      39.466  33.359  35.842  1.00  0.00     0.173 A 
ATOM     73  C   UNL A   1      38.291  31.456  36.699  1.00  0.00     0.173 A 
ATOM     74  F   UNL A   1      40.268  33.937  34.936  1.00  0.00    -0.203 F 
ATOM     75  C   UNL A   1      39.056  34.109  36.946  1.00  0.00     0.198 A 
ATOM     76  C   UNL A   1      37.843  32.218  37.779  1.00  0.00     0.198 A 
ATOM     77  F   UNL A   1      37.922  30.169  36.634  1.00  0.00    -0.203 F 
ATOM     78  F   UNL A   1      39.474  35.374  37.089  1.00  0.00    -0.200 F 
ATOM     79  C   UNL A   1      38.236  33.540  37.908  1.00  0.00     0.200 A 
ATOM     80  F   UNL A   1      37.035  31.666  38.695  1.00  0.00    -0.200 F 
ATOM     81  F   UNL A   1      37.834  34.261  38.964  1.00  0.00    -0.200 F 
ENDBRANCH  47  71
BRANCH  59  82
ATOM     82  C   UNL A   1      44.650  27.909  34.725  1.00  0.00     0.064 A 
ATOM     83  C   UNL A   1      44.556  26.731  35.483  1.00  0.00     0.173 A 
ATOM     84  C   UNL A   1      45.837  28.651  34.810  1.00  0.00     0.173 A 
ATOM     85  F   UNL A   1      43.435  25.996  35.452  1.00  0.00    -0.203 F 
ATOM     86  C   UNL A   1      45.603  26.325  36.305  1.00  0.00     0.198 A 
ATOM     87  C   UNL A   1      46.893  28.226  35.610  1.00  0.00     0.198 A 
ATOM     88  F   UNL A   1      45.977  29.784  34.104  1.00  0.00    -0.203 F 
ATOM     89  F   UNL A   1      45.476  25.220  37.055  1.00  0.00    -0.200 F 
ATOM     90  C   UNL A   1      46.774  27.067  36.361  1.00  0.00     0.200 A 
ATOM     91  F   UNL A   1      48.028  28.938  35.652  1.00  0.00    -0.200 F 
ATOM     92  F   UNL A   1      47.786  26.669  37.146  1.00  0.00    -0.200 F 
ENDBRANCH  59  82
ENDBRANCH  33  34
ENDBRANCH  26  28
ENDBRANCH  25  26
ENDBRANCH  24  25
ENDBRANCH   1  24
TORSDOF 15
ENDMDL
MODEL 3
REMARK VINA RESULT:     -10.9      1.044      7.454
REMARK SMILES CC[C@@H](C)[C@@H](C(=O)OCCOC(=O)c1ccc(-c2c3nc(c(-c4c(F)c(F)c(F)c(F)c4F)c4ccc([nH]4)c(-c4c(F)c(F)c(F)c(F)c4F)c4nc(c(-c5c(F)c(F)c(F)c(F)c5F)c5ccc2[nH]5)C=C4)C=C3)cc1)N1C(=O)/C(=C\c2ccn(C)c2)SC1=S
REMARK SMILES IDX 9 1 8 2 6 3 7 4 5 5 3 6 4 7 2 8 1 9 77 10 78 11 89 12 79 13
REMARK SMILES IDX 80 14 88 15 90 16 81 17 82 18 83 19 87 20 84 21 85 22 86 23
REMARK SMILES IDX 10 24 11 25 12 26 13 27 14 28 15 29 76 30 16 31 75 32 17 33
REMARK SMILES IDX 18 34 19 35 69 36 20 37 74 38 68 39 70 40 21 41 73 42 67 43
REMARK SMILES IDX 66 44 22 46 54 47 34 48 53 49 35 50 38 51 52 52 71 53 36 54
REMARK SMILES IDX 37 55 51 57 72 58 39 59 23 60 24 61 32 62 25 63 26 64 30 65
REMARK SMILES IDX 33 66 27 67 28 68 31 69 29 70 55 71 56 72 64 73 57 74 58 75
REMARK SMILES IDX 62 76 65 77 59 78 60 79 63 80 61 81 40 82 41 83 49 84 42 85
REMARK SMILES IDX 43 86 47 87 50 88 44 89 45 90 48 91 46 92
REMARK H PARENT 70 45 38 56
REMARK Flexibility Score: inf
ROOT
ATOM      1  C   UNL A   1      31.889  28.808  26.763  1.00  0.00     0.274 C 
ENDROOT
BRANCH   1   2
ATOM      2  O   UNL A   1      32.090  28.028  25.559  1.00  0.00    -0.461 OA
BRANCH   2   3
ATOM      3  C   UNL A   1      33.158  27.198  25.590  1.00  0.00     0.329 C 
ATOM      4  O   UNL A   1      34.028  27.287  26.447  1.00  0.00    -0.250 OA
BRANCH   3   5
ATOM      5  C   UNL A   1      33.156  26.063  24.517  1.00  0.00     0.204 C 
BRANCH   5   6
ATOM      6  C   UNL A   1      32.507  26.776  23.256  1.00  0.00     0.020 C 
ATOM      7  C   UNL A   1      31.696  25.929  22.284  1.00  0.00     0.010 C 
BRANCH   6   8
ATOM      8  C   UNL A   1      33.604  27.568  22.478  1.00  0.00     0.002 C 
ATOM      9  C   UNL A   1      33.582  29.084  22.633  1.00  0.00     0.004 C 
ENDBRANCH   6   8
ENDBRANCH   5   6
BRANCH   5  10
ATOM     10  N   UNL A   1      32.419  24.938  25.215  1.00  0.00    -0.278 N 
ATOM     11  C   UNL A   1      32.856  23.648  24.914  1.00  0.00     0.267 C 
ATOM     12  C   UNL A   1      31.140  24.823  25.688  1.00  0.00     0.149 C 
ATOM     13  O   UNL A   1      33.375  23.303  23.862  1.00  0.00    -0.268 OA
ATOM     14  C   UNL A   1      32.455  22.725  25.998  1.00  0.00     0.081 C 
ATOM     15  S   UNL A   1      31.032  23.370  26.714  1.00  0.00    -0.054 SA
ATOM     16  S   UNL A   1      29.764  25.673  25.296  1.00  0.00    -0.052 S 
ATOM     17  C   UNL A   1      33.113  21.637  26.413  1.00  0.00     0.031 C 
BRANCH  17  18
ATOM     18  C   UNL A   1      34.400  21.191  25.984  1.00  0.00    -0.007 A 
ATOM     19  C   UNL A   1      34.693  20.166  25.048  1.00  0.00     0.027 A 
ATOM     20  C   UNL A   1      35.591  21.821  26.275  1.00  0.00     0.093 A 
ATOM     21  C   UNL A   1      36.038  20.225  24.764  1.00  0.00     0.086 A 
ATOM     22  N   UNL A   1      36.573  21.232  25.520  1.00  0.00    -0.357 N 
ATOM     23  C   UNL A   1      37.953  21.650  25.447  1.00  0.00     0.149 C 
ENDBRANCH  17  18
ENDBRANCH   5  10
ENDBRANCH   3   5
ENDBRANCH   2   3
ENDBRANCH   1   2
BRANCH   1  24
ATOM     24  C   UNL A   1      31.866  30.340  26.550  1.00  0.00     0.275 C 
BRANCH  24  25
ATOM     25  O   UNL A   1      33.185  30.912  26.367  1.00  0.00    -0.458 OA
BRANCH  25  26
ATOM     26  C   UNL A   1      33.551  31.901  27.225  1.00  0.00     0.338 C 
ATOM     27  O   UNL A   1      32.892  32.886  27.520  1.00  0.00    -0.246 OA
BRANCH  26  28
ATOM     28  C   UNL A   1      34.795  31.516  27.944  1.00  0.00     0.060 A 
ATOM     29  C   UNL A   1      34.897  30.203  28.428  1.00  0.00     0.016 A 
ATOM     30  C   UNL A   1      35.868  32.395  28.106  1.00  0.00     0.016 A 
ATOM     31  C   UNL A   1      36.087  29.749  29.002  1.00  0.00     0.010 A 
ATOM     32  C   UNL A   1      37.047  31.951  28.729  1.00  0.00     0.010 A 
ATOM     33  C   UNL A   1      37.174  30.621  29.164  1.00  0.00    -0.014 A 
BRANCH  33  34
ATOM     34  C   UNL A   1      38.398  30.134  29.862  1.00  0.00     0.031 A 
ATOM     35  C   UNL A   1      38.635  30.535  31.282  1.00  0.00     0.074 A 
ATOM     36  C   UNL A   1      39.261  29.288  29.270  1.00  0.00     0.049 A 
ATOM     37  N   UNL A   1      39.642  30.241  32.063  1.00  0.00    -0.248 NA
ATOM     38  C   UNL A   1      37.620  31.401  31.893  1.00  0.00     0.031 C 
ATOM     39  C   UNL A   1      39.136  28.828  27.902  1.00  0.00     0.029 A 
ATOM     40  N   UNL A   1      40.381  28.636  29.732  1.00  0.00    -0.354 N 
ATOM     41  C   UNL A   1      39.404  30.918  33.247  1.00  0.00     0.074 A 
ATOM     42  C   UNL A   1      38.144  31.616  33.091  1.00  0.00     0.031 C 
ATOM     43  C   UNL A   1      40.059  27.886  27.656  1.00  0.00     0.029 A 
ATOM     44  C   UNL A   1      40.926  27.758  28.820  1.00  0.00     0.049 A 
ATOM     45  H   UNL A   1      40.758  28.783  30.629  1.00  0.00     0.167 HD
ATOM     46  C   UNL A   1      40.191  30.982  34.345  1.00  0.00     0.037 A 
ATOM     47  C   UNL A   1      42.020  26.972  28.896  1.00  0.00     0.037 A 
ATOM     48  C   UNL A   1      41.465  30.323  34.472  1.00  0.00     0.049 A 
ATOM     49  C   UNL A   1      42.895  27.095  30.116  1.00  0.00     0.074 A 
ATOM     50  C   UNL A   1      42.365  30.381  35.520  1.00  0.00     0.029 A 
ATOM     51  N   UNL A   1      42.025  29.493  33.510  1.00  0.00    -0.354 N 
ATOM     52  N   UNL A   1      42.692  27.783  31.213  1.00  0.00    -0.248 NA
ATOM     53  C   UNL A   1      44.183  26.386  30.084  1.00  0.00     0.031 C 
ATOM     54  C   UNL A   1      43.492  29.628  35.173  1.00  0.00     0.029 A 
ATOM     55  C   UNL A   1      43.268  29.047  33.934  1.00  0.00     0.049 A 
ATOM     56  H   UNL A   1      41.603  29.256  32.652  1.00  0.00     0.167 HD
ATOM     57  C   UNL A   1      43.824  27.602  31.994  1.00  0.00     0.074 A 
ATOM     58  C   UNL A   1      44.694  26.702  31.266  1.00  0.00     0.031 C 
ATOM     59  C   UNL A   1      44.125  28.151  33.196  1.00  0.00     0.037 A 
BRANCH  46  60
ATOM     60  C   UNL A   1      39.725  31.885  35.446  1.00  0.00     0.064 A 
ATOM     61  C   UNL A   1      38.791  31.466  36.405  1.00  0.00     0.173 A 
ATOM     62  C   UNL A   1      40.188  33.208  35.512  1.00  0.00     0.173 A 
ATOM     63  F   UNL A   1      38.296  30.220  36.366  1.00  0.00    -0.203 F 
ATOM     64  C   UNL A   1      38.307  32.352  37.364  1.00  0.00     0.198 A 
ATOM     65  C   UNL A   1      39.727  34.080  36.492  1.00  0.00     0.198 A 
ATOM     66  F   UNL A   1      41.078  33.659  34.615  1.00  0.00    -0.203 F 
ATOM     67  F   UNL A   1      37.359  31.953  38.223  1.00  0.00    -0.200 F 
ATOM     68  C   UNL A   1      38.777  33.656  37.409  1.00  0.00     0.200 A 
ATOM     69  F   UNL A   1      40.187  35.338  36.537  1.00  0.00    -0.200 F 
ATOM     70  F   UNL A   1      38.302  34.510  38.325  1.00  0.00    -0.200 F 
ENDBRANCH  46  60
BRANCH  47  71
ATOM     71  C   UNL A   1      42.400  26.057  27.779  1.00  0.00     0.064 A 
ATOM     72  C   UNL A   1      43.337  26.451  26.810  1.00  0.00     0.173 A 
ATOM     73  C   UNL A   1      41.816  24.790  27.626  1.00  0.00     0.173 A 
ATOM     74  F   UNL A   1      43.903  27.665  26.880  1.00  0.00    -0.203 F 
ATOM     75  C   UNL A   1      43.662  25.624  25.733  1.00  0.00     0.198 A 
ATOM     76  C   UNL A   1      42.175  23.945  26.575  1.00  0.00     0.198 A 
ATOM     77  F   UNL A   1      40.897  24.360  28.502  1.00  0.00    -0.203 F 
ATOM     78  F   UNL A   1      44.513  26.054  24.792  1.00  0.00    -0.200 F 
ATOM     79  C   UNL A   1      43.089  24.367  25.624  1.00  0.00     0.200 A 
ATOM     80  F   UNL A   1      41.630  22.724  26.486  1.00  0.00    -0.200 F 
ATOM     81  F   UNL A   1      43.406  23.568  24.596  1.00  0.00    -0.200 F 
ENDBRANCH  47  71
BRANCH  59  82
ATOM     82  C   UNL A   1      45.441  27.776  33.812  1.00  0.00     0.064 A 
ATOM     83  C   UNL A   1      46.600  28.540  33.598  1.00  0.00     0.173 A 
ATOM     84  C   UNL A   1      45.535  26.663  34.660  1.00  0.00     0.173 A 
ATOM     85  F   UNL A   1      46.567  29.602  32.780  1.00  0.00    -0.203 F 
ATOM     86  C   UNL A   1      47.806  28.189  34.197  1.00  0.00     0.198 A 
ATOM     87  C   UNL A   1      46.736  26.335  35.281  1.00  0.00     0.198 A 
ATOM     88  F   UNL A   1      44.456  25.902  34.898  1.00  0.00    -0.203 F 
ATOM     89  F   UNL A   1      48.911  28.907  33.944  1.00  0.00    -0.200 F 
ATOM     90  C   UNL A   1      47.872  27.094  35.045  1.00  0.00     0.200 A 
ATOM     91  F   UNL A   1      46.794  25.283  36.110  1.00  0.00    -0.200 F 
ATOM     92  F   UNL A   1      49.033  26.765  35.629  1.00  0.00    -0.200 F 
ENDBRANCH  59  82
ENDBRANCH  33  34
ENDBRANCH  26  28
ENDBRANCH  25  26
ENDBRANCH  24  25
ENDBRANCH   1  24
TORSDOF 15
ENDMDL
