MODEL 1
REMARK VINA RESULT:      -9.6      0.000      0.000
REMARK SMILES COc1cc2nc(SCC(=O)OCCOC(=O)c3ccc(-c4c5nc(c(-c6c(F)c(F)c(F)c(F)c6F)c6ccc([nH]6)c(-c6c(F)c(F)c(F)c(F)c6F)c6nc(c(-c7c(F)c(F)c(F)c(F)c7F)c7ccc4[nH]7)C=C6)C=C5)cc3)nc(O)c2cc1OC
REMARK SMILES IDX 13 1 12 2 10 3 11 4 9 5 8 6 7 7 3 8 4 9 86 10 5 11 85 12
REMARK SMILES IDX 6 13 84 14 82 15 81 16 2 17 1 18 87 19 88 20 83 21 14 23
REMARK SMILES IDX 15 24 16 25 17 26 18 27 19 28 80 29 20 30 79 31 21 32 22 33
REMARK SMILES IDX 23 34 73 35 24 36 78 37 72 38 74 39 25 40 77 41 71 42 70 43
REMARK SMILES IDX 26 45 58 46 38 47 57 48 39 49 42 50 56 51 75 52 40 53 41 54
REMARK SMILES IDX 55 56 76 57 43 58 27 59 28 60 36 61 29 62 30 63 34 64 37 65
REMARK SMILES IDX 31 66 32 67 35 68 33 69 59 70 60 71 68 72 61 73 62 74 66 75
REMARK SMILES IDX 69 76 63 77 64 78 67 79 65 80 44 81 45 82 53 83 46 84 47 85
REMARK SMILES IDX 51 86 54 87 48 88 49 89 52 90 50 91
REMARK H PARENT 83 22 74 44 42 55
REMARK Flexibility Score: inf
ROOT
ATOM      1  C   UNL A   1      44.596  18.397  25.756  1.00  0.00     0.274 C 
ENDROOT
BRANCH   1   2
ATOM      2  O   UNL A   1      44.938  19.220  24.620  1.00  0.00    -0.461 OA
BRANCH   2   3
ATOM      3  C   UNL A   1      46.019  20.026  24.771  1.00  0.00     0.316 C 
ATOM      4  O   UNL A   1      47.178  19.659  24.585  1.00  0.00    -0.251 OA
BRANCH   3   5
ATOM      5  C   UNL A   1      45.726  21.435  25.231  1.00  0.00     0.200 C 
BRANCH   5   6
ATOM      6  S   UNL A   1      45.246  22.622  23.959  1.00  0.00    -0.074 SA
BRANCH   6   7
ATOM      7  C   UNL A   1      45.671  24.180  24.702  1.00  0.00     0.192 A 
ATOM      8  C   UNL A   1      43.977  28.328  26.230  1.00  0.00     0.162 A 
ATOM      9  C   UNL A   1      43.779  27.027  25.757  1.00  0.00     0.079 A 
ATOM     10  C   UNL A   1      45.268  28.830  26.416  1.00  0.00     0.161 A 
ATOM     11  C   UNL A   1      44.846  26.192  25.461  1.00  0.00     0.083 A 
ATOM     12  C   UNL A   1      46.346  27.971  26.202  1.00  0.00     0.066 A 
ATOM     13  N   UNL A   1      44.617  24.978  24.946  1.00  0.00    -0.222 NA
ATOM     14  C   UNL A   1      46.127  26.651  25.736  1.00  0.00     0.066 A 
ATOM     15  C   UNL A   1      47.114  25.695  25.536  1.00  0.00     0.223 A 
ATOM     16  N   UNL A   1      46.940  24.463  25.028  1.00  0.00    -0.187 NA
BRANCH   8  17
ATOM     17  O   UNL A   1      42.843  29.021  26.568  1.00  0.00    -0.493 OA
ATOM     18  C   UNL A   1      41.723  28.643  25.773  1.00  0.00     0.278 C 
ENDBRANCH   8  17
BRANCH  10  19
ATOM     19  O   UNL A   1      45.408  30.116  26.861  1.00  0.00    -0.493 OA
ATOM     20  C   UNL A   1      46.737  30.630  26.816  1.00  0.00     0.278 C 
ENDBRANCH  10  19
BRANCH  15  21
ATOM     21  O   UNL A   1      48.392  25.957  25.938  1.00  0.00    -0.493 OA
ATOM     22  H   UNL A   1      48.910  26.586  25.475  1.00  0.00     0.295 HD
ENDBRANCH  15  21
ENDBRANCH   6   7
ENDBRANCH   5   6
ENDBRANCH   3   5
ENDBRANCH   2   3
ENDBRANCH   1   2
BRANCH   1  23
ATOM     23  C   UNL A   1      43.086  18.350  25.973  1.00  0.00     0.275 C 
BRANCH  23  24
ATOM     24  O   UNL A   1      42.467  19.499  25.368  1.00  0.00    -0.458 OA
BRANCH  24  25
ATOM     25  C   UNL A   1      41.410  20.007  26.034  1.00  0.00     0.338 C 
ATOM     26  O   UNL A   1      40.281  19.543  26.115  1.00  0.00    -0.246 OA
BRANCH  25  27
ATOM     27  C   UNL A   1      41.796  21.278  26.657  1.00  0.00     0.060 A 
ATOM     28  C   UNL A   1      41.965  22.400  25.845  1.00  0.00     0.016 A 
ATOM     29  C   UNL A   1      41.872  21.392  28.049  1.00  0.00     0.016 A 
ATOM     30  C   UNL A   1      42.235  23.637  26.432  1.00  0.00     0.010 A 
ATOM     31  C   UNL A   1      42.082  22.639  28.635  1.00  0.00     0.010 A 
ATOM     32  C   UNL A   1      42.286  23.767  27.830  1.00  0.00    -0.014 A 
BRANCH  32  33
ATOM     33  C   UNL A   1      42.586  25.084  28.440  1.00  0.00     0.031 A 
ATOM     34  C   UNL A   1      43.994  25.419  28.838  1.00  0.00     0.074 A 
ATOM     35  C   UNL A   1      41.599  25.979  28.628  1.00  0.00     0.049 A 
ATOM     36  N   UNL A   1      44.483  26.557  29.261  1.00  0.00    -0.248 NA
ATOM     37  C   UNL A   1      44.984  24.332  28.761  1.00  0.00     0.031 C 
ATOM     38  C   UNL A   1      40.182  25.747  28.345  1.00  0.00     0.029 A 
ATOM     39  N   UNL A   1      41.640  27.268  29.096  1.00  0.00    -0.354 N 
ATOM     40  C   UNL A   1      45.834  26.329  29.475  1.00  0.00     0.074 A 
ATOM     41  C   UNL A   1      46.080  24.930  29.204  1.00  0.00     0.031 C 
ATOM     42  C   UNL A   1      39.492  26.867  28.624  1.00  0.00     0.029 A 
ATOM     43  C   UNL A   1      40.417  27.891  29.103  1.00  0.00     0.049 A 
ATOM     44  H   UNL A   1      42.469  27.705  29.398  1.00  0.00     0.167 HD
ATOM     45  C   UNL A   1      46.792  27.218  29.828  1.00  0.00     0.037 A 
ATOM     46  C   UNL A   1      40.087  29.153  29.439  1.00  0.00     0.037 A 
ATOM     47  C   UNL A   1      46.550  28.609  30.095  1.00  0.00     0.049 A 
ATOM     48  C   UNL A   1      41.168  30.119  29.842  1.00  0.00     0.074 A 
ATOM     49  C   UNL A   1      47.465  29.601  30.397  1.00  0.00     0.029 A 
ATOM     50  N   UNL A   1      45.297  29.201  30.100  1.00  0.00    -0.354 N 
ATOM     51  N   UNL A   1      42.462  29.923  29.927  1.00  0.00    -0.248 NA
ATOM     52  C   UNL A   1      40.746  31.487  30.179  1.00  0.00     0.031 C 
ATOM     53  C   UNL A   1      46.761  30.788  30.622  1.00  0.00     0.029 A 
ATOM     54  C   UNL A   1      45.412  30.542  30.425  1.00  0.00     0.049 A 
ATOM     55  H   UNL A   1      44.451  28.738  29.901  1.00  0.00     0.167 HD
ATOM     56  C   UNL A   1      43.009  31.143  30.303  1.00  0.00     0.074 A 
ATOM     57  C   UNL A   1      41.910  32.078  30.417  1.00  0.00     0.031 C 
ATOM     58  C   UNL A   1      44.307  31.459  30.533  1.00  0.00     0.037 A 
BRANCH  45  59
ATOM     59  C   UNL A   1      48.200  26.715  29.917  1.00  0.00     0.064 A 
ATOM     60  C   UNL A   1      49.165  27.099  28.973  1.00  0.00     0.173 A 
ATOM     61  C   UNL A   1      48.604  25.892  30.975  1.00  0.00     0.173 A 
ATOM     62  F   UNL A   1      48.822  27.877  27.935  1.00  0.00    -0.203 F 
ATOM     63  C   UNL A   1      50.483  26.665  29.079  1.00  0.00     0.198 A 
ATOM     64  C   UNL A   1      49.928  25.476  31.091  1.00  0.00     0.198 A 
ATOM     65  F   UNL A   1      47.719  25.500  31.904  1.00  0.00    -0.203 F 
ATOM     66  F   UNL A   1      51.380  27.019  28.150  1.00  0.00    -0.200 F 
ATOM     67  C   UNL A   1      50.864  25.859  30.142  1.00  0.00     0.200 A 
ATOM     68  F   UNL A   1      50.300  24.704  32.123  1.00  0.00    -0.200 F 
ATOM     69  F   UNL A   1      52.136  25.450  30.250  1.00  0.00    -0.200 F 
ENDBRANCH  45  59
BRANCH  46  70
ATOM     70  C   UNL A   1      38.672  29.594  29.356  1.00  0.00     0.064 A 
ATOM     71  C   UNL A   1      38.071  29.852  28.116  1.00  0.00     0.173 A 
ATOM     72  C   UNL A   1      37.895  29.770  30.510  1.00  0.00     0.173 A 
ATOM     73  F   UNL A   1      38.782  29.718  26.987  1.00  0.00    -0.203 F 
ATOM     74  C   UNL A   1      36.749  30.287  28.035  1.00  0.00     0.198 A 
ATOM     75  C   UNL A   1      36.568  30.185  30.425  1.00  0.00     0.198 A 
ATOM     76  F   UNL A   1      38.427  29.535  31.719  1.00  0.00    -0.203 F 
ATOM     77  F   UNL A   1      36.209  30.562  26.840  1.00  0.00    -0.200 F 
ATOM     78  C   UNL A   1      35.998  30.449  29.189  1.00  0.00     0.200 A 
ATOM     79  F   UNL A   1      35.842  30.335  31.543  1.00  0.00    -0.200 F 
ATOM     80  F   UNL A   1      34.728  30.867  29.109  1.00  0.00    -0.200 F 
ENDBRANCH  46  70
BRANCH  58  81
ATOM     81  C   UNL A   1      44.618  32.873  30.924  1.00  0.00     0.064 A 
ATOM     82  C   UNL A   1      44.594  33.279  32.265  1.00  0.00     0.173 A 
ATOM     83  C   UNL A   1      45.018  33.807  29.958  1.00  0.00     0.173 A 
ATOM     84  F   UNL A   1      44.206  32.422  33.223  1.00  0.00    -0.203 F 
ATOM     85  C   UNL A   1      44.948  34.575  32.625  1.00  0.00     0.198 A 
ATOM     86  C   UNL A   1      45.395  35.096  30.323  1.00  0.00     0.198 A 
ATOM     87  F   UNL A   1      45.064  33.463  28.662  1.00  0.00    -0.203 F 
ATOM     88  F   UNL A   1      44.892  34.951  33.909  1.00  0.00    -0.200 F 
ATOM     89  C   UNL A   1      45.357  35.479  31.656  1.00  0.00     0.200 A 
ATOM     90  F   UNL A   1      45.803  35.964  29.388  1.00  0.00    -0.200 F 
ATOM     91  F   UNL A   1      45.714  36.723  32.007  1.00  0.00    -0.200 F 
ENDBRANCH  58  81
ENDBRANCH  32  33
ENDBRANCH  25  27
ENDBRANCH  24  25
ENDBRANCH  23  24
ENDBRANCH   1  23
TORSDOF 16
ENDMDL
MODEL 2
REMARK VINA RESULT:      -9.4      0.268      2.042
REMARK SMILES COc1cc2nc(SCC(=O)OCCOC(=O)c3ccc(-c4c5nc(c(-c6c(F)c(F)c(F)c(F)c6F)c6ccc([nH]6)c(-c6c(F)c(F)c(F)c(F)c6F)c6nc(c(-c7c(F)c(F)c(F)c(F)c7F)c7ccc4[nH]7)C=C6)C=C5)cc3)nc(O)c2cc1OC
REMARK SMILES IDX 13 1 12 2 10 3 11 4 9 5 8 6 7 7 3 8 4 9 86 10 5 11 85 12
REMARK SMILES IDX 6 13 84 14 82 15 81 16 2 17 1 18 87 19 88 20 83 21 14 23
REMARK SMILES IDX 15 24 16 25 17 26 18 27 19 28 80 29 20 30 79 31 21 32 22 33
REMARK SMILES IDX 23 34 73 35 24 36 78 37 72 38 74 39 25 40 77 41 71 42 70 43
REMARK SMILES IDX 26 45 58 46 38 47 57 48 39 49 42 50 56 51 75 52 40 53 41 54
REMARK SMILES IDX 55 56 76 57 43 58 27 59 28 60 36 61 29 62 30 63 34 64 37 65
REMARK SMILES IDX 31 66 32 67 35 68 33 69 59 70 60 71 68 72 61 73 62 74 66 75
REMARK SMILES IDX 69 76 63 77 64 78 67 79 65 80 44 81 45 82 53 83 46 84 47 85
REMARK SMILES IDX 51 86 54 87 48 88 49 89 52 90 50 91
REMARK H PARENT 83 22 74 44 42 55
REMARK Flexibility Score: inf
ROOT
ATOM      1  C   UNL A   1      44.594  18.468  25.716  1.00  0.00     0.274 C 
ENDROOT
BRANCH   1   2
ATOM      2  O   UNL A   1      45.018  19.069  24.474  1.00  0.00    -0.461 OA
BRANCH   2   3
ATOM      3  C   UNL A   1      46.029  19.970  24.562  1.00  0.00     0.316 C 
ATOM      4  O   UNL A   1      47.202  19.711  24.295  1.00  0.00    -0.251 OA
BRANCH   3   5
ATOM      5  C   UNL A   1      45.642  21.343  25.057  1.00  0.00     0.200 C 
BRANCH   5   6
ATOM      6  S   UNL A   1      45.047  22.516  23.819  1.00  0.00    -0.074 SA
BRANCH   6   7
ATOM      7  C   UNL A   1      45.512  24.083  24.515  1.00  0.00     0.192 A 
ATOM      8  C   UNL A   1      43.902  28.249  26.088  1.00  0.00     0.162 A 
ATOM      9  C   UNL A   1      43.680  26.941  25.645  1.00  0.00     0.079 A 
ATOM     10  C   UNL A   1      45.202  28.755  26.190  1.00  0.00     0.161 A 
ATOM     11  C   UNL A   1      44.729  26.104  25.296  1.00  0.00     0.083 A 
ATOM     12  C   UNL A   1      46.266  27.896  25.923  1.00  0.00     0.066 A 
ATOM     13  N   UNL A   1      44.472  24.883  24.812  1.00  0.00    -0.222 NA
ATOM     14  C   UNL A   1      46.023  26.569  25.488  1.00  0.00     0.066 A 
ATOM     15  C   UNL A   1      46.998  25.612  25.242  1.00  0.00     0.223 A 
ATOM     16  N   UNL A   1      46.798  24.373  24.761  1.00  0.00    -0.187 NA
BRANCH   8  17
ATOM     17  O   UNL A   1      42.789  28.944  26.484  1.00  0.00    -0.493 OA
ATOM     18  C   UNL A   1      41.654  28.652  25.675  1.00  0.00     0.278 C 
ENDBRANCH   8  17
BRANCH  10  19
ATOM     19  O   UNL A   1      45.365  30.047  26.609  1.00  0.00    -0.493 OA
ATOM     20  C   UNL A   1      46.698  30.544  26.530  1.00  0.00     0.278 C 
ENDBRANCH  10  19
BRANCH  15  21
ATOM     21  O   UNL A   1      48.298  25.882  25.563  1.00  0.00    -0.493 OA
ATOM     22  H   UNL A   1      48.496  26.464  26.269  1.00  0.00     0.295 HD
ENDBRANCH  15  21
ENDBRANCH   6   7
ENDBRANCH   5   6
ENDBRANCH   3   5
ENDBRANCH   2   3
ENDBRANCH   1   2
BRANCH   1  23
ATOM     23  C   UNL A   1      43.072  18.415  25.816  1.00  0.00     0.275 C 
BRANCH  23  24
ATOM     24  O   UNL A   1      42.513  19.691  25.460  1.00  0.00    -0.458 OA
BRANCH  24  25
ATOM     25  C   UNL A   1      41.419  20.061  26.157  1.00  0.00     0.338 C 
ATOM     26  O   UNL A   1      40.375  19.440  26.300  1.00  0.00    -0.246 OA
BRANCH  25  27
ATOM     27  C   UNL A   1      41.638  21.395  26.728  1.00  0.00     0.060 A 
ATOM     28  C   UNL A   1      41.876  21.509  28.098  1.00  0.00     0.016 A 
ATOM     29  C   UNL A   1      41.727  22.516  25.897  1.00  0.00     0.016 A 
ATOM     30  C   UNL A   1      42.183  22.758  28.639  1.00  0.00     0.010 A 
ATOM     31  C   UNL A   1      42.092  23.751  26.430  1.00  0.00     0.010 A 
ATOM     32  C   UNL A   1      42.303  23.885  27.809  1.00  0.00    -0.014 A 
BRANCH  32  33
ATOM     33  C   UNL A   1      42.616  25.208  28.398  1.00  0.00     0.031 A 
ATOM     34  C   UNL A   1      44.035  25.554  28.746  1.00  0.00     0.074 A 
ATOM     35  C   UNL A   1      41.630  26.099  28.612  1.00  0.00     0.049 A 
ATOM     36  N   UNL A   1      44.530  26.698  29.143  1.00  0.00    -0.248 NA
ATOM     37  C   UNL A   1      45.027  24.472  28.645  1.00  0.00     0.031 C 
ATOM     38  C   UNL A   1      40.206  25.857  28.378  1.00  0.00     0.029 A 
ATOM     39  N   UNL A   1      41.680  27.392  29.068  1.00  0.00    -0.354 N 
ATOM     40  C   UNL A   1      45.889  26.480  29.314  1.00  0.00     0.074 A 
ATOM     41  C   UNL A   1      46.134  25.080  29.046  1.00  0.00     0.031 C 
ATOM     42  C   UNL A   1      39.520  26.975  28.671  1.00  0.00     0.029 A 
ATOM     43  C   UNL A   1      40.454  28.009  29.111  1.00  0.00     0.049 A 
ATOM     44  H   UNL A   1      42.516  27.837  29.338  1.00  0.00     0.167 HD
ATOM     45  C   UNL A   1      46.854  27.376  29.628  1.00  0.00     0.037 A 
ATOM     46  C   UNL A   1      40.128  29.271  29.447  1.00  0.00     0.037 A 
ATOM     47  C   UNL A   1      46.613  28.768  29.891  1.00  0.00     0.049 A 
ATOM     48  C   UNL A   1      41.217  30.247  29.806  1.00  0.00     0.074 A 
ATOM     49  C   UNL A   1      47.531  29.768  30.154  1.00  0.00     0.029 A 
ATOM     50  N   UNL A   1      45.357  29.354  29.933  1.00  0.00    -0.354 N 
ATOM     51  N   UNL A   1      42.513  30.059  29.849  1.00  0.00    -0.248 NA
ATOM     52  C   UNL A   1      40.798  31.615  30.146  1.00  0.00     0.031 C 
ATOM     53  C   UNL A   1      46.829  30.952  30.394  1.00  0.00     0.029 A 
ATOM     54  C   UNL A   1      45.475  30.698  30.244  1.00  0.00     0.049 A 
ATOM     55  H   UNL A   1      44.508  28.884  29.767  1.00  0.00     0.167 HD
ATOM     56  C   UNL A   1      43.066  31.284  30.197  1.00  0.00     0.074 A 
ATOM     57  C   UNL A   1      41.966  32.214  30.340  1.00  0.00     0.031 C 
ATOM     58  C   UNL A   1      44.369  31.609  30.381  1.00  0.00     0.037 A 
BRANCH  45  59
ATOM     59  C   UNL A   1      48.267  26.882  29.673  1.00  0.00     0.064 A 
ATOM     60  C   UNL A   1      48.709  26.055  30.717  1.00  0.00     0.173 A 
ATOM     61  C   UNL A   1      49.169  27.189  28.646  1.00  0.00     0.173 A 
ATOM     62  F   UNL A   1      47.884  25.743  31.728  1.00  0.00    -0.203 F 
ATOM     63  C   UNL A   1      50.011  25.562  30.737  1.00  0.00     0.198 A 
ATOM     64  C   UNL A   1      50.464  26.678  28.659  1.00  0.00     0.198 A 
ATOM     65  F   UNL A   1      48.792  27.974  27.626  1.00  0.00    -0.203 F 
ATOM     66  F   UNL A   1      50.421  24.799  31.758  1.00  0.00    -0.200 F 
ATOM     67  C   UNL A   1      50.885  25.869  29.704  1.00  0.00     0.200 A 
ATOM     68  F   UNL A   1      51.307  26.967  27.657  1.00  0.00    -0.200 F 
ATOM     69  F   UNL A   1      52.135  25.386  29.719  1.00  0.00    -0.200 F 
ENDBRANCH  45  59
BRANCH  46  70
ATOM     70  C   UNL A   1      38.709  29.704  29.408  1.00  0.00     0.064 A 
ATOM     71  C   UNL A   1      37.971  29.857  30.590  1.00  0.00     0.173 A 
ATOM     72  C   UNL A   1      38.061  29.969  28.193  1.00  0.00     0.173 A 
ATOM     73  F   UNL A   1      38.543  29.594  31.774  1.00  0.00    -0.203 F 
ATOM     74  C   UNL A   1      36.632  30.243  30.557  1.00  0.00     0.198 A 
ATOM     75  C   UNL A   1      36.729  30.374  28.163  1.00  0.00     0.198 A 
ATOM     76  F   UNL A   1      38.727  29.837  27.036  1.00  0.00    -0.203 F 
ATOM     77  F   UNL A   1      35.939  30.346  31.699  1.00  0.00    -0.200 F 
ATOM     78  C   UNL A   1      36.014  30.506  29.343  1.00  0.00     0.200 A 
ATOM     79  F   UNL A   1      36.135  30.634  26.989  1.00  0.00    -0.200 F 
ATOM     80  F   UNL A   1      34.727  30.876  29.314  1.00  0.00    -0.200 F 
ENDBRANCH  46  70
BRANCH  58  81
ATOM     81  C   UNL A   1      44.685  33.028  30.750  1.00  0.00     0.064 A 
ATOM     82  C   UNL A   1      44.854  34.015  29.769  1.00  0.00     0.173 A 
ATOM     83  C   UNL A   1      44.744  33.418  32.096  1.00  0.00     0.173 A 
ATOM     84  F   UNL A   1      44.819  33.686  28.468  1.00  0.00    -0.203 F 
ATOM     85  C   UNL A   1      45.082  35.341  30.122  1.00  0.00     0.198 A 
ATOM     86  C   UNL A   1      44.948  34.749  32.446  1.00  0.00     0.198 A 
ATOM     87  F   UNL A   1      44.580  32.510  33.070  1.00  0.00    -0.203 F 
ATOM     88  F   UNL A   1      45.268  36.264  29.169  1.00  0.00    -0.200 F 
ATOM     89  C   UNL A   1      45.120  35.709  31.459  1.00  0.00     0.200 A 
ATOM     90  F   UNL A   1      44.970  35.105  33.737  1.00  0.00    -0.200 F 
ATOM     91  F   UNL A   1      45.323  36.990  31.797  1.00  0.00    -0.200 F 
ENDBRANCH  58  81
ENDBRANCH  32  33
ENDBRANCH  25  27
ENDBRANCH  24  25
ENDBRANCH  23  24
ENDBRANCH   1  23
TORSDOF 16
ENDMDL
MODEL 3
REMARK VINA RESULT:      -9.0      4.678      7.169
REMARK SMILES COc1cc2nc(SCC(=O)OCCOC(=O)c3ccc(-c4c5nc(c(-c6c(F)c(F)c(F)c(F)c6F)c6ccc([nH]6)c(-c6c(F)c(F)c(F)c(F)c6F)c6nc(c(-c7c(F)c(F)c(F)c(F)c7F)c7ccc4[nH]7)C=C6)C=C5)cc3)nc(O)c2cc1OC
REMARK SMILES IDX 13 1 12 2 10 3 11 4 9 5 8 6 7 7 3 8 4 9 86 10 5 11 85 12
REMARK SMILES IDX 6 13 84 14 82 15 81 16 2 17 1 18 87 19 88 20 83 21 14 23
REMARK SMILES IDX 15 24 16 25 17 26 18 27 19 28 80 29 20 30 79 31 21 32 22 33
REMARK SMILES IDX 23 34 73 35 24 36 78 37 72 38 74 39 25 40 77 41 71 42 70 43
REMARK SMILES IDX 26 45 58 46 38 47 57 48 39 49 42 50 56 51 75 52 40 53 41 54
REMARK SMILES IDX 55 56 76 57 43 58 27 59 28 60 36 61 29 62 30 63 34 64 37 65
REMARK SMILES IDX 31 66 32 67 35 68 33 69 59 70 60 71 68 72 61 73 62 74 66 75
REMARK SMILES IDX 69 76 63 77 64 78 67 79 65 80 44 81 45 82 53 83 46 84 47 85
REMARK SMILES IDX 51 86 54 87 48 88 49 89 52 90 50 91
REMARK H PARENT 83 22 74 44 42 55
REMARK Flexibility Score: inf
ROOT
ATOM      1  C   UNL A   1      36.298  19.989  24.972  1.00  0.00     0.274 C 
ENDROOT
BRANCH   1   2
ATOM      2  O   UNL A   1      35.598  21.240  25.135  1.00  0.00    -0.461 OA
BRANCH   2   3
ATOM      3  C   UNL A   1      34.247  21.188  25.016  1.00  0.00     0.316 C 
ATOM      4  O   UNL A   1      33.533  20.417  25.655  1.00  0.00    -0.251 OA
BRANCH   3   5
ATOM      5  C   UNL A   1      33.642  22.128  24.000  1.00  0.00     0.200 C 
BRANCH   5   6
ATOM      6  S   UNL A   1      34.740  23.373  23.290  1.00  0.00    -0.074 SA
BRANCH   6   7
ATOM      7  C   UNL A   1      33.618  24.689  22.879  1.00  0.00     0.192 A 
ATOM      8  C   UNL A   1      31.394  28.533  24.521  1.00  0.00     0.162 A 
ATOM      9  C   UNL A   1      32.342  27.515  24.664  1.00  0.00     0.079 A 
ATOM     10  C   UNL A   1      30.617  28.625  23.362  1.00  0.00     0.161 A 
ATOM     11  C   UNL A   1      32.548  26.569  23.671  1.00  0.00     0.083 A 
ATOM     12  C   UNL A   1      30.874  27.730  22.324  1.00  0.00     0.066 A 
ATOM     13  N   UNL A   1      33.415  25.571  23.874  1.00  0.00    -0.222 NA
ATOM     14  C   UNL A   1      31.849  26.713  22.480  1.00  0.00     0.066 A 
ATOM     15  C   UNL A   1      32.224  25.802  21.503  1.00  0.00     0.223 A 
ATOM     16  N   UNL A   1      33.091  24.785  21.650  1.00  0.00    -0.187 NA
BRANCH   8  17
ATOM     17  O   UNL A   1      31.348  29.456  25.534  1.00  0.00    -0.493 OA
ATOM     18  C   UNL A   1      32.635  29.982  25.844  1.00  0.00     0.278 C 
ENDBRANCH   8  17
BRANCH  10  19
ATOM     19  O   UNL A   1      29.690  29.626  23.279  1.00  0.00    -0.493 OA
ATOM     20  C   UNL A   1      29.379  30.055  21.955  1.00  0.00     0.278 C 
ENDBRANCH  10  19
BRANCH  15  21
ATOM     21  O   UNL A   1      31.745  25.947  20.232  1.00  0.00    -0.493 OA
ATOM     22  H   UNL A   1      31.081  26.583  20.051  1.00  0.00     0.295 HD
ENDBRANCH  15  21
ENDBRANCH   6   7
ENDBRANCH   5   6
ENDBRANCH   3   5
ENDBRANCH   2   3
ENDBRANCH   1   2
BRANCH   1  23
ATOM     23  C   UNL A   1      37.803  20.207  24.842  1.00  0.00     0.275 C 
BRANCH  23  24
ATOM     24  O   UNL A   1      38.227  21.248  25.740  1.00  0.00    -0.458 OA
BRANCH  24  25
ATOM     25  C   UNL A   1      39.442  21.073  26.298  1.00  0.00     0.338 C 
ATOM     26  O   UNL A   1      40.047  20.023  26.466  1.00  0.00    -0.246 OA
BRANCH  25  27
ATOM     27  C   UNL A   1      39.964  22.372  26.739  1.00  0.00     0.060 A 
ATOM     28  C   UNL A   1      41.023  22.398  27.646  1.00  0.00     0.016 A 
ATOM     29  C   UNL A   1      39.490  23.557  26.167  1.00  0.00     0.016 A 
ATOM     30  C   UNL A   1      41.594  23.621  27.998  1.00  0.00     0.010 A 
ATOM     31  C   UNL A   1      40.101  24.771  26.474  1.00  0.00     0.010 A 
ATOM     32  C   UNL A   1      41.145  24.814  27.408  1.00  0.00    -0.014 A 
BRANCH  32  33
ATOM     33  C   UNL A   1      41.751  26.108  27.801  1.00  0.00     0.031 A 
ATOM     34  C   UNL A   1      43.143  26.447  27.353  1.00  0.00     0.074 A 
ATOM     35  C   UNL A   1      41.050  26.979  28.550  1.00  0.00     0.049 A 
ATOM     36  N   UNL A   1      43.798  27.574  27.478  1.00  0.00    -0.248 NA
ATOM     37  C   UNL A   1      43.907  25.380  26.686  1.00  0.00     0.031 C 
ATOM     38  C   UNL A   1      39.717  26.738  29.102  1.00  0.00     0.029 A 
ATOM     39  N   UNL A   1      41.362  28.248  28.970  1.00  0.00    -0.354 N 
ATOM     40  C   UNL A   1      45.033  27.358  26.885  1.00  0.00     0.074 A 
ATOM     41  C   UNL A   1      45.068  25.976  26.462  1.00  0.00     0.031 C 
ATOM     42  C   UNL A   1      39.316  27.834  29.770  1.00  0.00     0.029 A 
ATOM     43  C   UNL A   1      40.361  28.851  29.691  1.00  0.00     0.049 A 
ATOM     44  H   UNL A   1      42.222  28.685  28.773  1.00  0.00     0.167 HD
ATOM     45  C   UNL A   1      46.034  28.245  26.677  1.00  0.00     0.037 A 
ATOM     46  C   UNL A   1      40.291  30.093  30.208  1.00  0.00     0.037 A 
ATOM     47  C   UNL A   1      45.999  29.620  27.094  1.00  0.00     0.049 A 
ATOM     48  C   UNL A   1      41.423  31.057  29.976  1.00  0.00     0.074 A 
ATOM     49  C   UNL A   1      46.937  30.612  26.873  1.00  0.00     0.029 A 
ATOM     50  N   UNL A   1      44.973  30.193  27.828  1.00  0.00    -0.354 N 
ATOM     51  N   UNL A   1      42.538  30.878  29.310  1.00  0.00    -0.248 NA
ATOM     52  C   UNL A   1      41.279  32.403  30.551  1.00  0.00     0.031 C 
ATOM     53  C   UNL A   1      46.495  31.778  27.507  1.00  0.00     0.029 A 
ATOM     54  C   UNL A   1      45.266  31.520  28.092  1.00  0.00     0.049 A 
ATOM     55  H   UNL A   1      44.156  29.725  28.120  1.00  0.00     0.167 HD
ATOM     56  C   UNL A   1      43.216  32.089  29.367  1.00  0.00     0.074 A 
ATOM     57  C   UNL A   1      42.382  33.001  30.120  1.00  0.00     0.031 C 
ATOM     58  C   UNL A   1      44.422  32.414  28.841  1.00  0.00     0.037 A 
BRANCH  45  59
ATOM     59  C   UNL A   1      47.243  27.761  25.937  1.00  0.00     0.064 A 
ATOM     60  C   UNL A   1      47.279  27.761  24.534  1.00  0.00     0.173 A 
ATOM     61  C   UNL A   1      48.389  27.346  26.627  1.00  0.00     0.173 A 
ATOM     62  F   UNL A   1      46.201  28.139  23.831  1.00  0.00    -0.203 F 
ATOM     63  C   UNL A   1      48.418  27.350  23.848  1.00  0.00     0.198 A 
ATOM     64  C   UNL A   1      49.534  26.955  25.938  1.00  0.00     0.198 A 
ATOM     65  F   UNL A   1      48.404  27.331  27.968  1.00  0.00    -0.203 F 
ATOM     66  F   UNL A   1      48.420  27.329  22.509  1.00  0.00    -0.200 F 
ATOM     67  C   UNL A   1      49.546  26.954  24.551  1.00  0.00     0.200 A 
ATOM     68  F   UNL A   1      50.629  26.580  26.616  1.00  0.00    -0.200 F 
ATOM     69  F   UNL A   1      50.646  26.568  23.889  1.00  0.00    -0.200 F 
ENDBRANCH  45  59
BRANCH  46  70
ATOM     70  C   UNL A   1      39.080  30.515  30.954  1.00  0.00     0.064 A 
ATOM     71  C   UNL A   1      39.013  30.389  32.349  1.00  0.00     0.173 A 
ATOM     72  C   UNL A   1      37.966  31.049  30.291  1.00  0.00     0.173 A 
ATOM     73  F   UNL A   1      40.047  29.864  33.023  1.00  0.00    -0.203 F 
ATOM     74  C   UNL A   1      37.870  30.765  33.051  1.00  0.00     0.198 A 
ATOM     75  C   UNL A   1      36.831  31.443  30.997  1.00  0.00     0.198 A 
ATOM     76  F   UNL A   1      37.982  31.189  28.957  1.00  0.00    -0.203 F 
ATOM     77  F   UNL A   1      37.818  30.600  34.379  1.00  0.00    -0.200 F 
ATOM     78  C   UNL A   1      36.781  31.296  32.374  1.00  0.00     0.200 A 
ATOM     79  F   UNL A   1      35.783  31.962  30.341  1.00  0.00    -0.200 F 
ATOM     80  F   UNL A   1      35.683  31.657  33.051  1.00  0.00    -0.200 F 
ENDBRANCH  46  70
BRANCH  58  81
ATOM     81  C   UNL A   1      44.916  33.815  29.051  1.00  0.00     0.064 A 
ATOM     82  C   UNL A   1      45.702  34.151  30.162  1.00  0.00     0.173 A 
ATOM     83  C   UNL A   1      44.664  34.809  28.095  1.00  0.00     0.173 A 
ATOM     84  F   UNL A   1      45.957  33.235  31.109  1.00  0.00    -0.203 F 
ATOM     85  C   UNL A   1      46.210  35.437  30.314  1.00  0.00     0.198 A 
ATOM     86  C   UNL A   1      45.194  36.088  28.237  1.00  0.00     0.198 A 
ATOM     87  F   UNL A   1      43.924  34.533  27.011  1.00  0.00    -0.203 F 
ATOM     88  F   UNL A   1      46.936  35.745  31.397  1.00  0.00    -0.200 F 
ATOM     89  C   UNL A   1      45.964  36.401  29.348  1.00  0.00     0.200 A 
ATOM     90  F   UNL A   1      44.967  37.015  27.297  1.00  0.00    -0.200 F 
ATOM     91  F   UNL A   1      46.468  37.636  29.489  1.00  0.00    -0.200 F 
ENDBRANCH  58  81
ENDBRANCH  32  33
ENDBRANCH  25  27
ENDBRANCH  24  25
ENDBRANCH  23  24
ENDBRANCH   1  23
TORSDOF 16
ENDMDL
