MODEL 1
REMARK VINA RESULT:     -12.0      0.000      0.000
REMARK SMILES C[C@H]([C@@H]1CCCO1)n1c(SCC(=O)OCCOC(=O)c2ccc(-c3c4nc(c(-c5c(F)c(F)c(F)c(F)c5F)c5ccc([nH]5)c(-c5c(F)c(F)c(F)c(F)c5F)c5nc(c(-c6c(F)c(F)c(F)c(F)c6F)c6ccc3[nH]6)C=C5)C=C4)cc2)nc2cnccc21
REMARK SMILES IDX 15 1 14 2 12 3 13 4 11 5 10 6 9 7 8 8 89 9 83 10 84 11 88 12
REMARK SMILES IDX 85 13 87 14 86 15 2 16 1 17 3 18 4 19 7 20 5 21 6 22 16 23
REMARK SMILES IDX 17 24 18 25 19 26 20 27 21 28 82 29 22 30 81 31 23 32 24 33
REMARK SMILES IDX 25 34 75 35 26 36 80 37 74 38 76 39 27 40 79 41 73 42 72 43
REMARK SMILES IDX 28 45 60 46 40 47 59 48 41 49 44 50 58 51 77 52 42 53 43 54
REMARK SMILES IDX 57 56 78 57 45 58 29 59 30 60 38 61 31 62 32 63 36 64 39 65
REMARK SMILES IDX 33 66 34 67 37 68 35 69 61 70 62 71 70 72 63 73 64 74 68 75
REMARK SMILES IDX 71 76 65 77 66 78 69 79 67 80 46 81 47 82 55 83 48 84 49 85
REMARK SMILES IDX 53 86 56 87 50 88 51 89 54 90 52 91
REMARK H PARENT 76 44 44 55
REMARK Flexibility Score: inf
ROOT
ATOM      1  C   UNL A   1      42.071  20.005  26.978  1.00  0.00     0.274 C 
ENDROOT
BRANCH   1   2
ATOM      2  O   UNL A   1      41.294  20.886  26.117  1.00  0.00    -0.461 OA
BRANCH   2   3
ATOM      3  C   UNL A   1      39.997  20.551  25.860  1.00  0.00     0.316 C 
ATOM      4  O   UNL A   1      39.626  19.406  25.614  1.00  0.00    -0.251 OA
BRANCH   3   5
ATOM      5  C   UNL A   1      38.985  21.687  26.017  1.00  0.00     0.200 C 
BRANCH   5   6
ATOM      6  S   UNL A   1      37.631  21.745  24.872  1.00  0.00    -0.076 SA
BRANCH   6   7
ATOM      7  C   UNL A   1      36.181  20.891  25.306  1.00  0.00     0.170 A 
ATOM      8  N   UNL A   1      34.876  21.276  25.563  1.00  0.00    -0.313 N 
ATOM      9  C   UNL A   1      34.073  20.290  24.975  1.00  0.00     0.072 A 
ATOM     10  N   UNL A   1      36.217  19.592  25.063  1.00  0.00    -0.221 NA
ATOM     11  C   UNL A   1      34.939  19.230  24.747  1.00  0.00     0.108 A 
ATOM     12  C   UNL A   1      32.722  20.214  24.616  1.00  0.00     0.049 A 
ATOM     13  C   UNL A   1      34.441  18.043  24.201  1.00  0.00     0.141 A 
ATOM     14  C   UNL A   1      32.329  19.014  24.038  1.00  0.00     0.113 A 
ATOM     15  N   UNL A   1      33.134  17.945  23.842  1.00  0.00    -0.262 NA
BRANCH   8  16
ATOM     16  C   UNL A   1      34.276  22.442  26.193  1.00  0.00     0.116 C 
ATOM     17  C   UNL A   1      33.251  22.090  27.225  1.00  0.00     0.034 C 
BRANCH  16  18
ATOM     18  C   UNL A   1      33.793  23.608  25.319  1.00  0.00     0.141 C 
ATOM     19  C   UNL A   1      34.253  23.715  23.883  1.00  0.00     0.036 C 
ATOM     20  O   UNL A   1      34.055  24.889  25.916  1.00  0.00    -0.376 OA
ATOM     21  C   UNL A   1      33.785  25.119  23.567  1.00  0.00     0.031 C 
ATOM     22  C   UNL A   1      34.098  25.860  24.855  1.00  0.00     0.160 C 
ENDBRANCH  16  18
ENDBRANCH   8  16
ENDBRANCH   6   7
ENDBRANCH   5   6
ENDBRANCH   3   5
ENDBRANCH   2   3
ENDBRANCH   1   2
BRANCH   1  23
ATOM     23  C   UNL A   1      42.990  19.078  26.146  1.00  0.00     0.275 C 
BRANCH  23  24
ATOM     24  O   UNL A   1      43.416  19.811  24.974  1.00  0.00    -0.458 OA
BRANCH  24  25
ATOM     25  C   UNL A   1      44.736  20.093  24.806  1.00  0.00     0.338 C 
ATOM     26  O   UNL A   1      45.578  19.379  24.291  1.00  0.00    -0.246 OA
BRANCH  25  27
ATOM     27  C   UNL A   1      44.868  21.565  25.011  1.00  0.00     0.060 A 
ATOM     28  C   UNL A   1      45.384  22.057  26.220  1.00  0.00     0.016 A 
ATOM     29  C   UNL A   1      44.061  22.382  24.215  1.00  0.00     0.016 A 
ATOM     30  C   UNL A   1      44.866  23.233  26.769  1.00  0.00     0.010 A 
ATOM     31  C   UNL A   1      43.555  23.559  24.770  1.00  0.00     0.010 A 
ATOM     32  C   UNL A   1      43.859  23.931  26.097  1.00  0.00    -0.014 A 
BRANCH  32  33
ATOM     33  C   UNL A   1      43.281  25.148  26.688  1.00  0.00     0.031 A 
ATOM     34  C   UNL A   1      44.068  26.361  26.394  1.00  0.00     0.074 A 
ATOM     35  C   UNL A   1      42.184  25.377  27.445  1.00  0.00     0.049 A 
ATOM     36  N   UNL A   1      45.090  26.759  27.069  1.00  0.00    -0.248 NA
ATOM     37  C   UNL A   1      43.779  27.134  25.185  1.00  0.00     0.031 C 
ATOM     38  C   UNL A   1      40.983  24.583  27.701  1.00  0.00     0.029 A 
ATOM     39  N   UNL A   1      41.955  26.515  28.185  1.00  0.00    -0.354 N 
ATOM     40  C   UNL A   1      45.511  27.926  26.459  1.00  0.00     0.074 A 
ATOM     41  C   UNL A   1      44.792  28.003  25.209  1.00  0.00     0.031 C 
ATOM     42  C   UNL A   1      40.093  25.325  28.417  1.00  0.00     0.029 A 
ATOM     43  C   UNL A   1      40.727  26.572  28.825  1.00  0.00     0.049 A 
ATOM     44  H   UNL A   1      42.618  27.239  28.254  1.00  0.00     0.167 HD
ATOM     45  C   UNL A   1      46.280  28.825  27.130  1.00  0.00     0.037 A 
ATOM     46  C   UNL A   1      40.307  27.568  29.649  1.00  0.00     0.037 A 
ATOM     47  C   UNL A   1      46.764  28.286  28.382  1.00  0.00     0.049 A 
ATOM     48  C   UNL A   1      41.517  28.218  30.214  1.00  0.00     0.074 A 
ATOM     49  C   UNL A   1      47.493  27.168  28.750  1.00  0.00     0.029 A 
ATOM     50  N   UNL A   1      46.192  28.735  29.548  1.00  0.00    -0.354 N 
ATOM     51  N   UNL A   1      42.303  27.666  31.094  1.00  0.00    -0.248 NA
ATOM     52  C   UNL A   1      42.032  29.424  29.585  1.00  0.00     0.031 C 
ATOM     53  C   UNL A   1      46.921  26.734  29.986  1.00  0.00     0.029 A 
ATOM     54  C   UNL A   1      45.897  27.625  30.300  1.00  0.00     0.049 A 
ATOM     55  H   UNL A   1      46.027  29.673  29.798  1.00  0.00     0.167 HD
ATOM     56  C   UNL A   1      43.552  28.195  30.828  1.00  0.00     0.074 A 
ATOM     57  C   UNL A   1      43.299  29.366  29.998  1.00  0.00     0.031 C 
ATOM     58  C   UNL A   1      44.684  27.473  31.068  1.00  0.00     0.037 A 
BRANCH  45  59
ATOM     59  C   UNL A   1      46.353  30.291  26.803  1.00  0.00     0.064 A 
ATOM     60  C   UNL A   1      47.609  30.925  26.784  1.00  0.00     0.173 A 
ATOM     61  C   UNL A   1      45.236  31.150  26.741  1.00  0.00     0.173 A 
ATOM     62  F   UNL A   1      48.739  30.207  26.878  1.00  0.00    -0.203 F 
ATOM     63  C   UNL A   1      47.735  32.315  26.753  1.00  0.00     0.198 A 
ATOM     64  C   UNL A   1      45.365  32.533  26.641  1.00  0.00     0.198 A 
ATOM     65  F   UNL A   1      43.983  30.703  26.890  1.00  0.00    -0.203 F 
ATOM     66  F   UNL A   1      48.947  32.873  26.860  1.00  0.00    -0.200 F 
ATOM     67  C   UNL A   1      46.613  33.118  26.676  1.00  0.00     0.200 A 
ATOM     68  F   UNL A   1      44.263  33.295  26.588  1.00  0.00    -0.200 F 
ATOM     69  F   UNL A   1      46.728  34.452  26.690  1.00  0.00    -0.200 F 
ENDBRANCH  45  59
BRANCH  46  70
ATOM     70  C   UNL A   1      38.965  28.121  29.954  1.00  0.00     0.064 A 
ATOM     71  C   UNL A   1      38.487  28.180  31.280  1.00  0.00     0.173 A 
ATOM     72  C   UNL A   1      38.282  28.906  29.010  1.00  0.00     0.173 A 
ATOM     73  F   UNL A   1      39.097  27.489  32.253  1.00  0.00    -0.203 F 
ATOM     74  C   UNL A   1      37.431  29.019  31.648  1.00  0.00     0.198 A 
ATOM     75  C   UNL A   1      37.222  29.740  29.379  1.00  0.00     0.198 A 
ATOM     76  F   UNL A   1      38.703  28.957  27.738  1.00  0.00    -0.203 F 
ATOM     77  F   UNL A   1      37.066  29.110  32.935  1.00  0.00    -0.200 F 
ATOM     78  C   UNL A   1      36.810  29.812  30.699  1.00  0.00     0.200 A 
ATOM     79  F   UNL A   1      36.649  30.531  28.461  1.00  0.00    -0.200 F 
ATOM     80  F   UNL A   1      35.851  30.674  31.062  1.00  0.00    -0.200 F 
ENDBRANCH  46  70
BRANCH  58  81
ATOM     81  C   UNL A   1      44.574  26.262  31.953  1.00  0.00     0.064 A 
ATOM     82  C   UNL A   1      44.637  26.303  33.357  1.00  0.00     0.173 A 
ATOM     83  C   UNL A   1      44.267  25.030  31.359  1.00  0.00     0.173 A 
ATOM     84  F   UNL A   1      44.822  27.459  34.009  1.00  0.00    -0.203 F 
ATOM     85  C   UNL A   1      44.449  25.154  34.123  1.00  0.00     0.198 A 
ATOM     86  C   UNL A   1      44.038  23.892  32.130  1.00  0.00     0.198 A 
ATOM     87  F   UNL A   1      44.145  24.937  30.026  1.00  0.00    -0.203 F 
ATOM     88  F   UNL A   1      44.530  25.219  35.461  1.00  0.00    -0.200 F 
ATOM     89  C   UNL A   1      44.139  23.952  33.509  1.00  0.00     0.200 A 
ATOM     90  F   UNL A   1      43.690  22.742  31.535  1.00  0.00    -0.200 F 
ATOM     91  F   UNL A   1      43.909  22.858  34.250  1.00  0.00    -0.200 F 
ENDBRANCH  58  81
ENDBRANCH  32  33
ENDBRANCH  25  27
ENDBRANCH  24  25
ENDBRANCH  23  24
ENDBRANCH   1  23
TORSDOF 15
ENDMDL
MODEL 2
REMARK VINA RESULT:     -11.5      1.358      2.966
REMARK SMILES C[C@H]([C@@H]1CCCO1)n1c(SCC(=O)OCCOC(=O)c2ccc(-c3c4nc(c(-c5c(F)c(F)c(F)c(F)c5F)c5ccc([nH]5)c(-c5c(F)c(F)c(F)c(F)c5F)c5nc(c(-c6c(F)c(F)c(F)c(F)c6F)c6ccc3[nH]6)C=C5)C=C4)cc2)nc2cnccc21
REMARK SMILES IDX 15 1 14 2 12 3 13 4 11 5 10 6 9 7 8 8 89 9 83 10 84 11 88 12
REMARK SMILES IDX 85 13 87 14 86 15 2 16 1 17 3 18 4 19 7 20 5 21 6 22 16 23
REMARK SMILES IDX 17 24 18 25 19 26 20 27 21 28 82 29 22 30 81 31 23 32 24 33
REMARK SMILES IDX 25 34 75 35 26 36 80 37 74 38 76 39 27 40 79 41 73 42 72 43
REMARK SMILES IDX 28 45 60 46 40 47 59 48 41 49 44 50 58 51 77 52 42 53 43 54
REMARK SMILES IDX 57 56 78 57 45 58 29 59 30 60 38 61 31 62 32 63 36 64 39 65
REMARK SMILES IDX 33 66 34 67 37 68 35 69 61 70 62 71 70 72 63 73 64 74 68 75
REMARK SMILES IDX 71 76 65 77 66 78 69 79 67 80 46 81 47 82 55 83 48 84 49 85
REMARK SMILES IDX 53 86 56 87 50 88 51 89 54 90 52 91
REMARK H PARENT 76 44 44 55
REMARK Flexibility Score: inf
ROOT
ATOM      1  C   UNL A   1      41.224  19.508  25.889  1.00  0.00     0.274 C 
ENDROOT
BRANCH   1   2
ATOM      2  O   UNL A   1      40.687  20.804  25.497  1.00  0.00    -0.461 OA
BRANCH   2   3
ATOM      3  C   UNL A   1      39.841  21.435  26.361  1.00  0.00     0.316 C 
ATOM      4  O   UNL A   1      40.089  21.612  27.551  1.00  0.00    -0.251 OA
BRANCH   3   5
ATOM      5  C   UNL A   1      38.586  22.036  25.725  1.00  0.00     0.200 C 
BRANCH   5   6
ATOM      6  S   UNL A   1      37.290  20.921  25.252  1.00  0.00    -0.076 SA
BRANCH   6   7
ATOM      7  C   UNL A   1      35.721  21.604  24.946  1.00  0.00     0.170 A 
ATOM      8  N   UNL A   1      34.454  21.070  24.774  1.00  0.00    -0.313 N 
ATOM      9  C   UNL A   1      33.588  21.944  25.443  1.00  0.00     0.072 A 
ATOM     10  N   UNL A   1      35.622  22.894  25.217  1.00  0.00    -0.221 NA
ATOM     11  C   UNL A   1      34.337  23.096  25.633  1.00  0.00     0.108 A 
ATOM     12  C   UNL A   1      32.268  21.852  25.901  1.00  0.00     0.049 A 
ATOM     13  C   UNL A   1      33.746  24.207  26.243  1.00  0.00     0.141 A 
ATOM     14  C   UNL A   1      31.781  22.988  26.535  1.00  0.00     0.113 A 
ATOM     15  N   UNL A   1      32.467  24.142  26.698  1.00  0.00    -0.262 NA
BRANCH   8  16
ATOM     16  C   UNL A   1      33.951  19.850  24.162  1.00  0.00     0.116 C 
ATOM     17  C   UNL A   1      32.589  20.013  23.562  1.00  0.00     0.034 C 
BRANCH  16  18
ATOM     18  C   UNL A   1      34.056  18.522  24.924  1.00  0.00     0.141 C 
ATOM     19  C   UNL A   1      34.569  17.287  24.219  1.00  0.00     0.036 C 
ATOM     20  O   UNL A   1      32.815  18.140  25.540  1.00  0.00    -0.376 OA
ATOM     21  C   UNL A   1      34.202  16.235  25.244  1.00  0.00     0.031 C 
ATOM     22  C   UNL A   1      32.844  16.713  25.723  1.00  0.00     0.160 C 
ENDBRANCH  16  18
ENDBRANCH   8  16
ENDBRANCH   6   7
ENDBRANCH   5   6
ENDBRANCH   3   5
ENDBRANCH   2   3
ENDBRANCH   1   2
BRANCH   1  23
ATOM     23  C   UNL A   1      42.758  19.577  26.090  1.00  0.00     0.275 C 
BRANCH  23  24
ATOM     24  O   UNL A   1      43.372  19.703  24.787  1.00  0.00    -0.458 OA
BRANCH  24  25
ATOM     25  C   UNL A   1      44.724  19.815  24.694  1.00  0.00     0.338 C 
ATOM     26  O   UNL A   1      45.502  18.978  24.270  1.00  0.00    -0.246 OA
BRANCH  25  27
ATOM     27  C   UNL A   1      45.023  21.269  24.837  1.00  0.00     0.060 A 
ATOM     28  C   UNL A   1      45.627  21.744  26.013  1.00  0.00     0.016 A 
ATOM     29  C   UNL A   1      44.287  22.142  24.032  1.00  0.00     0.016 A 
ATOM     30  C   UNL A   1      45.258  22.990  26.528  1.00  0.00     0.010 A 
ATOM     31  C   UNL A   1      43.930  23.387  24.553  1.00  0.00     0.010 A 
ATOM     32  C   UNL A   1      44.314  23.771  25.857  1.00  0.00    -0.014 A 
BRANCH  32  33
ATOM     33  C   UNL A   1      43.891  25.065  26.414  1.00  0.00     0.031 A 
ATOM     34  C   UNL A   1      44.897  26.127  26.230  1.00  0.00     0.074 A 
ATOM     35  C   UNL A   1      42.775  25.473  27.061  1.00  0.00     0.049 A 
ATOM     36  N   UNL A   1      45.896  26.342  27.014  1.00  0.00    -0.248 NA
ATOM     37  C   UNL A   1      44.870  26.946  25.017  1.00  0.00     0.031 C 
ATOM     38  C   UNL A   1      41.438  24.892  27.175  1.00  0.00     0.029 A 
ATOM     39  N   UNL A   1      42.666  26.628  27.800  1.00  0.00    -0.354 N 
ATOM     40  C   UNL A   1      46.569  27.424  26.478  1.00  0.00     0.074 A 
ATOM     41  C   UNL A   1      46.007  27.630  25.164  1.00  0.00     0.031 C 
ATOM     42  C   UNL A   1      40.617  25.771  27.815  1.00  0.00     0.029 A 
ATOM     43  C   UNL A   1      41.406  26.889  28.314  1.00  0.00     0.049 A 
ATOM     44  H   UNL A   1      43.431  27.228  27.953  1.00  0.00     0.167 HD
ATOM     45  C   UNL A   1      47.404  28.175  27.244  1.00  0.00     0.037 A 
ATOM     46  C   UNL A   1      41.076  27.937  29.115  1.00  0.00     0.037 A 
ATOM     47  C   UNL A   1      47.658  27.554  28.525  1.00  0.00     0.049 A 
ATOM     48  C   UNL A   1      42.313  28.368  29.814  1.00  0.00     0.074 A 
ATOM     49  C   UNL A   1      48.146  26.326  28.939  1.00  0.00     0.029 A 
ATOM     50  N   UNL A   1      47.052  28.086  29.638  1.00  0.00    -0.354 N 
ATOM     51  N   UNL A   1      42.899  27.686  30.756  1.00  0.00    -0.248 NA
ATOM     52  C   UNL A   1      43.087  29.473  29.269  1.00  0.00     0.031 C 
ATOM     53  C   UNL A   1      47.384  25.988  30.100  1.00  0.00     0.029 A 
ATOM     54  C   UNL A   1      46.498  27.039  30.329  1.00  0.00     0.049 A 
ATOM     55  H   UNL A   1      47.023  29.038  29.892  1.00  0.00     0.167 HD
ATOM     56  C   UNL A   1      44.240  27.996  30.631  1.00  0.00     0.074 A 
ATOM     57  C   UNL A   1      44.276  29.198  29.808  1.00  0.00     0.031 C 
ATOM     58  C   UNL A   1      45.203  27.090  30.967  1.00  0.00     0.037 A 
BRANCH  45  59
ATOM     59  C   UNL A   1      47.757  29.609  26.961  1.00  0.00     0.064 A 
ATOM     60  C   UNL A   1      49.105  30.007  27.031  1.00  0.00     0.173 A 
ATOM     61  C   UNL A   1      46.816  30.655  26.857  1.00  0.00     0.173 A 
ATOM     62  F   UNL A   1      50.081  29.097  27.171  1.00  0.00    -0.203 F 
ATOM     63  C   UNL A   1      49.478  31.353  27.044  1.00  0.00     0.198 A 
ATOM     64  C   UNL A   1      47.196  31.994  26.801  1.00  0.00     0.198 A 
ATOM     65  F   UNL A   1      45.497  30.437  26.922  1.00  0.00    -0.203 F 
ATOM     66  F   UNL A   1      50.761  31.683  27.236  1.00  0.00    -0.200 F 
ATOM     67  C   UNL A   1      48.523  32.345  26.924  1.00  0.00     0.200 A 
ATOM     68  F   UNL A   1      46.253  32.942  26.705  1.00  0.00    -0.200 F 
ATOM     69  F   UNL A   1      48.873  33.636  26.980  1.00  0.00    -0.200 F 
ENDBRANCH  45  59
BRANCH  46  70
ATOM     70  C   UNL A   1      39.822  28.709  29.295  1.00  0.00     0.064 A 
ATOM     71  C   UNL A   1      39.140  29.255  28.187  1.00  0.00     0.173 A 
ATOM     72  C   UNL A   1      39.098  28.629  30.495  1.00  0.00     0.173 A 
ATOM     73  F   UNL A   1      39.742  29.340  26.992  1.00  0.00    -0.203 F 
ATOM     74  C   UNL A   1      37.798  29.641  28.263  1.00  0.00     0.198 A 
ATOM     75  C   UNL A   1      37.757  29.021  30.571  1.00  0.00     0.198 A 
ATOM     76  F   UNL A   1      39.647  28.070  31.583  1.00  0.00    -0.203 F 
ATOM     77  F   UNL A   1      37.163  30.073  27.164  1.00  0.00    -0.200 F 
ATOM     78  C   UNL A   1      37.102  29.507  29.451  1.00  0.00     0.200 A 
ATOM     79  F   UNL A   1      37.081  28.856  31.716  1.00  0.00    -0.200 F 
ATOM     80  F   UNL A   1      35.796  29.802  29.507  1.00  0.00    -0.200 F 
ENDBRANCH  46  70
BRANCH  58  81
ATOM     81  C   UNL A   1      44.799  25.911  31.807  1.00  0.00     0.064 A 
ATOM     82  C   UNL A   1      44.264  24.719  31.289  1.00  0.00     0.173 A 
ATOM     83  C   UNL A   1      45.083  25.944  33.180  1.00  0.00     0.173 A 
ATOM     84  F   UNL A   1      44.061  24.565  29.973  1.00  0.00    -0.203 F 
ATOM     85  C   UNL A   1      43.985  23.631  32.115  1.00  0.00     0.198 A 
ATOM     86  C   UNL A   1      44.841  24.841  33.996  1.00  0.00     0.198 A 
ATOM     87  F   UNL A   1      45.638  27.037  33.726  1.00  0.00    -0.203 F 
ATOM     88  F   UNL A   1      43.461  22.511  31.595  1.00  0.00    -0.200 F 
ATOM     89  C   UNL A   1      44.283  23.690  33.466  1.00  0.00     0.200 A 
ATOM     90  F   UNL A   1      45.176  24.884  35.293  1.00  0.00    -0.200 F 
ATOM     91  F   UNL A   1      44.059  22.626  34.251  1.00  0.00    -0.200 F 
ENDBRANCH  58  81
ENDBRANCH  32  33
ENDBRANCH  25  27
ENDBRANCH  24  25
ENDBRANCH  23  24
ENDBRANCH   1  23
TORSDOF 15
ENDMDL
MODEL 3
REMARK VINA RESULT:     -11.5      1.179      2.157
REMARK SMILES C[C@H]([C@@H]1CCCO1)n1c(SCC(=O)OCCOC(=O)c2ccc(-c3c4nc(c(-c5c(F)c(F)c(F)c(F)c5F)c5ccc([nH]5)c(-c5c(F)c(F)c(F)c(F)c5F)c5nc(c(-c6c(F)c(F)c(F)c(F)c6F)c6ccc3[nH]6)C=C5)C=C4)cc2)nc2cnccc21
REMARK SMILES IDX 15 1 14 2 12 3 13 4 11 5 10 6 9 7 8 8 89 9 83 10 84 11 88 12
REMARK SMILES IDX 85 13 87 14 86 15 2 16 1 17 3 18 4 19 7 20 5 21 6 22 16 23
REMARK SMILES IDX 17 24 18 25 19 26 20 27 21 28 82 29 22 30 81 31 23 32 24 33
REMARK SMILES IDX 25 34 75 35 26 36 80 37 74 38 76 39 27 40 79 41 73 42 72 43
REMARK SMILES IDX 28 45 60 46 40 47 59 48 41 49 44 50 58 51 77 52 42 53 43 54
REMARK SMILES IDX 57 56 78 57 45 58 29 59 30 60 38 61 31 62 32 63 36 64 39 65
REMARK SMILES IDX 33 66 34 67 37 68 35 69 61 70 62 71 70 72 63 73 64 74 68 75
REMARK SMILES IDX 71 76 65 77 66 78 69 79 67 80 46 81 47 82 55 83 48 84 49 85
REMARK SMILES IDX 53 86 56 87 50 88 51 89 54 90 52 91
REMARK H PARENT 76 44 44 55
REMARK Flexibility Score: inf
ROOT
ATOM      1  C   UNL A   1      41.294  20.317  26.746  1.00  0.00     0.274 C 
ENDROOT
BRANCH   1   2
ATOM      2  O   UNL A   1      39.994  20.266  26.093  1.00  0.00    -0.461 OA
BRANCH   2   3
ATOM      3  C   UNL A   1      39.309  21.435  25.935  1.00  0.00     0.316 C 
ATOM      4  O   UNL A   1      39.765  22.537  26.233  1.00  0.00    -0.251 OA
BRANCH   3   5
ATOM      5  C   UNL A   1      37.955  21.310  25.235  1.00  0.00     0.200 C 
BRANCH   5   6
ATOM      6  S   UNL A   1      36.834  22.679  25.364  1.00  0.00    -0.076 SA
BRANCH   6   7
ATOM      7  C   UNL A   1      35.311  22.546  24.537  1.00  0.00     0.170 A 
ATOM      8  N   UNL A   1      34.028  22.203  24.930  1.00  0.00    -0.313 N 
ATOM      9  C   UNL A   1      33.180  23.074  24.233  1.00  0.00     0.072 A 
ATOM     10  N   UNL A   1      35.263  23.168  23.372  1.00  0.00    -0.221 NA
ATOM     11  C   UNL A   1      33.976  23.598  23.224  1.00  0.00     0.108 A 
ATOM     12  C   UNL A   1      31.842  23.459  24.376  1.00  0.00     0.049 A 
ATOM     13  C   UNL A   1      33.416  24.484  22.299  1.00  0.00     0.141 A 
ATOM     14  C   UNL A   1      31.386  24.378  23.440  1.00  0.00     0.113 A 
ATOM     15  N   UNL A   1      32.119  24.875  22.418  1.00  0.00    -0.262 NA
BRANCH   8  16
ATOM     16  C   UNL A   1      33.489  21.261  25.899  1.00  0.00     0.116 C 
ATOM     17  C   UNL A   1      34.042  21.454  27.276  1.00  0.00     0.034 C 
BRANCH  16  18
ATOM     18  C   UNL A   1      33.419  19.769  25.543  1.00  0.00     0.141 C 
ATOM     19  C   UNL A   1      34.485  19.152  24.666  1.00  0.00     0.036 C 
ATOM     20  O   UNL A   1      32.161  19.402  24.955  1.00  0.00    -0.376 OA
ATOM     21  C   UNL A   1      33.832  17.820  24.367  1.00  0.00     0.031 C 
ATOM     22  C   UNL A   1      32.377  18.210  24.179  1.00  0.00     0.160 C 
ENDBRANCH  16  18
ENDBRANCH   8  16
ENDBRANCH   6   7
ENDBRANCH   5   6
ENDBRANCH   3   5
ENDBRANCH   2   3
ENDBRANCH   1   2
BRANCH   1  23
ATOM     23  C   UNL A   1      42.283  19.315  26.102  1.00  0.00     0.275 C 
BRANCH  23  24
ATOM     24  O   UNL A   1      42.994  20.006  25.050  1.00  0.00    -0.458 OA
BRANCH  24  25
ATOM     25  C   UNL A   1      44.327  20.237  25.184  1.00  0.00     0.338 C 
ATOM     26  O   UNL A   1      45.235  19.465  24.929  1.00  0.00    -0.246 OA
BRANCH  25  27
ATOM     27  C   UNL A   1      44.473  21.715  25.326  1.00  0.00     0.060 A 
ATOM     28  C   UNL A   1      45.065  22.250  26.482  1.00  0.00     0.016 A 
ATOM     29  C   UNL A   1      43.617  22.505  24.555  1.00  0.00     0.016 A 
ATOM     30  C   UNL A   1      44.583  23.446  27.019  1.00  0.00     0.010 A 
ATOM     31  C   UNL A   1      43.148  23.703  25.096  1.00  0.00     0.010 A 
ATOM     32  C   UNL A   1      43.536  24.122  26.388  1.00  0.00    -0.014 A 
BRANCH  32  33
ATOM     33  C   UNL A   1      42.998  25.362  26.969  1.00  0.00     0.031 A 
ATOM     34  C   UNL A   1      43.791  26.555  26.618  1.00  0.00     0.074 A 
ATOM     35  C   UNL A   1      41.931  25.625  27.758  1.00  0.00     0.049 A 
ATOM     36  N   UNL A   1      44.842  26.953  27.247  1.00  0.00    -0.248 NA
ATOM     37  C   UNL A   1      43.470  27.304  25.402  1.00  0.00     0.031 C 
ATOM     38  C   UNL A   1      40.729  24.855  28.076  1.00  0.00     0.029 A 
ATOM     39  N   UNL A   1      41.745  26.784  28.478  1.00  0.00    -0.354 N 
ATOM     40  C   UNL A   1      45.258  28.098  26.595  1.00  0.00     0.074 A 
ATOM     41  C   UNL A   1      44.496  28.158  25.369  1.00  0.00     0.031 C 
ATOM     42  C   UNL A   1      39.876  25.629  28.805  1.00  0.00     0.029 A 
ATOM     43  C   UNL A   1      40.542  26.874  29.160  1.00  0.00     0.049 A 
ATOM     44  H   UNL A   1      42.421  27.499  28.506  1.00  0.00     0.167 HD
ATOM     45  C   UNL A   1      46.063  29.001  27.216  1.00  0.00     0.037 A 
ATOM     46  C   UNL A   1      40.166  27.896  29.974  1.00  0.00     0.037 A 
ATOM     47  C   UNL A   1      46.584  28.484  28.462  1.00  0.00     0.049 A 
ATOM     48  C   UNL A   1      41.405  28.540  30.480  1.00  0.00     0.074 A 
ATOM     49  C   UNL A   1      47.309  27.364  28.832  1.00  0.00     0.029 A 
ATOM     50  N   UNL A   1      46.061  28.969  29.638  1.00  0.00    -0.354 N 
ATOM     51  N   UNL A   1      42.214  27.997  31.345  1.00  0.00    -0.248 NA
ATOM     52  C   UNL A   1      41.915  29.723  29.804  1.00  0.00     0.031 C 
ATOM     53  C   UNL A   1      46.776  26.968  30.097  1.00  0.00     0.029 A 
ATOM     54  C   UNL A   1      45.776  27.882  30.425  1.00  0.00     0.049 A 
ATOM     55  H   UNL A   1      45.918  29.916  29.870  1.00  0.00     0.167 HD
ATOM     56  C   UNL A   1      43.460  28.501  31.022  1.00  0.00     0.074 A 
ATOM     57  C   UNL A   1      43.195  29.655  30.174  1.00  0.00     0.031 C 
ATOM     58  C   UNL A   1      44.589  27.766  31.239  1.00  0.00     0.037 A 
BRANCH  45  59
ATOM     59  C   UNL A   1      46.146  30.458  26.852  1.00  0.00     0.064 A 
ATOM     60  C   UNL A   1      47.411  31.066  26.753  1.00  0.00     0.173 A 
ATOM     61  C   UNL A   1      45.043  31.336  26.827  1.00  0.00     0.173 A 
ATOM     62  F   UNL A   1      48.531  30.329  26.806  1.00  0.00    -0.203 F 
ATOM     63  C   UNL A   1      47.560  32.453  26.684  1.00  0.00     0.198 A 
ATOM     64  C   UNL A   1      45.192  32.714  26.688  1.00  0.00     0.198 A 
ATOM     65  F   UNL A   1      43.791  30.917  27.051  1.00  0.00    -0.203 F 
ATOM     66  F   UNL A   1      48.786  32.990  26.715  1.00  0.00    -0.200 F 
ATOM     67  C   UNL A   1      46.450  33.275  26.645  1.00  0.00     0.200 A 
ATOM     68  F   UNL A   1      44.103  33.496  26.674  1.00  0.00    -0.200 F 
ATOM     69  F   UNL A   1      46.590  34.607  26.622  1.00  0.00    -0.200 F 
ENDBRANCH  45  59
BRANCH  46  70
ATOM     70  C   UNL A   1      38.844  28.476  30.313  1.00  0.00     0.064 A 
ATOM     71  C   UNL A   1      38.351  28.439  31.634  1.00  0.00     0.173 A 
ATOM     72  C   UNL A   1      38.208  29.369  29.435  1.00  0.00     0.173 A 
ATOM     73  F   UNL A   1      38.918  27.640  32.549  1.00  0.00    -0.203 F 
ATOM     74  C   UNL A   1      37.325  29.286  32.064  1.00  0.00     0.198 A 
ATOM     75  C   UNL A   1      37.178  30.213  29.866  1.00  0.00     0.198 A 
ATOM     76  F   UNL A   1      38.648  29.515  28.177  1.00  0.00    -0.203 F 
ATOM     77  F   UNL A   1      36.946  29.279  33.350  1.00  0.00    -0.200 F 
ATOM     78  C   UNL A   1      36.751  30.186  31.183  1.00  0.00     0.200 A 
ATOM     79  F   UNL A   1      36.651  31.105  29.015  1.00  0.00    -0.200 F 
ATOM     80  F   UNL A   1      35.823  31.053  31.611  1.00  0.00    -0.200 F 
ENDBRANCH  46  70
BRANCH  58  81
ATOM     81  C   UNL A   1      44.493  26.579  32.156  1.00  0.00     0.064 A 
ATOM     82  C   UNL A   1      44.529  26.661  33.559  1.00  0.00     0.173 A 
ATOM     83  C   UNL A   1      44.228  25.323  31.593  1.00  0.00     0.173 A 
ATOM     84  F   UNL A   1      44.673  27.839  34.181  1.00  0.00    -0.203 F 
ATOM     85  C   UNL A   1      44.356  25.529  34.355  1.00  0.00     0.198 A 
ATOM     86  C   UNL A   1      44.014  24.202  32.392  1.00  0.00     0.198 A 
ATOM     87  F   UNL A   1      44.134  25.189  30.261  1.00  0.00    -0.203 F 
ATOM     88  F   UNL A   1      44.410  25.634  35.692  1.00  0.00    -0.200 F 
ATOM     89  C   UNL A   1      44.088  24.303  33.770  1.00  0.00     0.200 A 
ATOM     90  F   UNL A   1      43.706  23.027  31.824  1.00  0.00    -0.200 F 
ATOM     91  F   UNL A   1      43.872  23.225  34.538  1.00  0.00    -0.200 F 
ENDBRANCH  58  81
ENDBRANCH  32  33
ENDBRANCH  25  27
ENDBRANCH  24  25
ENDBRANCH  23  24
ENDBRANCH   1  23
TORSDOF 15
ENDMDL
