MODEL 1
REMARK VINA RESULT:     -12.2      0.000      0.000
REMARK SMILES COc1cc2c(cc1OC)[C@H](C(=O)OCCOC(=O)c1ccc(-c3c4nc(c(-c5c(F)c(F)c(F)c(F)c5F)c5ccc([nH]5)c(-c5c(F)c(F)c(F)c(F)c5F)c5nc(c(-c6c(F)c(F)c(F)c(F)c6F)c6ccc3[nH]6)C=C5)C=C4)cc1)[C@H](c1cccs1)N(C)C2=O
REMARK SMILES IDX 16 1 15 2 14 3 12 4 13 5 11 6 3 7 4 8 8 9 5 10 7 11 6 12
REMARK SMILES IDX 91 13 89 14 92 15 83 16 90 17 2 18 1 19 9 20 10 21 84 22
REMARK SMILES IDX 85 23 88 24 86 25 87 26 17 27 18 28 19 29 20 30 21 31 82 32
REMARK SMILES IDX 22 33 81 34 23 35 24 36 25 37 75 38 26 39 80 40 74 41 76 42
REMARK SMILES IDX 27 43 79 44 73 45 72 46 28 48 60 49 40 50 59 51 41 52 44 53
REMARK SMILES IDX 58 54 77 55 42 56 43 57 57 59 78 60 45 61 29 62 30 63 38 64
REMARK SMILES IDX 31 65 32 66 36 67 39 68 33 69 34 70 37 71 35 72 61 73 62 74
REMARK SMILES IDX 70 75 63 76 64 77 68 78 71 79 65 80 66 81 69 82 67 83 46 84
REMARK SMILES IDX 47 85 55 86 48 87 49 88 53 89 56 90 50 91 51 92 54 93 52 94
REMARK H PARENT 76 47 44 58
REMARK Flexibility Score: inf
ROOT
ATOM      1  C   UNL A   1      31.839  30.465  26.734  1.00  0.00     0.275 C 
ENDROOT
BRANCH   1   2
ATOM      2  C   UNL A   1      31.557  29.179  27.510  1.00  0.00     0.274 C 
BRANCH   2   3
ATOM      3  O   UNL A   1      32.561  28.163  27.268  1.00  0.00    -0.462 OA
BRANCH   3   4
ATOM      4  C   UNL A   1      32.091  27.037  26.650  1.00  0.00     0.316 C 
ATOM      5  O   UNL A   1      31.196  26.342  27.113  1.00  0.00    -0.251 OA
BRANCH   4   6
ATOM      6  C   UNL A   1      32.830  26.748  25.345  1.00  0.00     0.158 C 
ATOM      7  C   UNL A   1      31.849  22.957  23.507  1.00  0.00     0.161 A 
ATOM      8  C   UNL A   1      32.445  23.984  22.763  1.00  0.00     0.064 A 
ATOM      9  C   UNL A   1      31.693  23.108  24.892  1.00  0.00     0.161 A 
ATOM     10  C   UNL A   1      32.833  25.174  23.385  1.00  0.00     0.048 A 
ATOM     11  C   UNL A   1      32.106  24.296  25.504  1.00  0.00     0.056 A 
ATOM     12  C   UNL A   1      32.594  25.369  24.754  1.00  0.00    -0.015 A 
ATOM     13  C   UNL A   1      33.441  26.260  22.556  1.00  0.00     0.254 C 
ATOM     14  N   UNL A   1      33.322  27.552  23.071  1.00  0.00    -0.333 N 
ATOM     15  O   UNL A   1      33.988  25.993  21.500  1.00  0.00    -0.269 OA
ATOM     16  C   UNL A   1      32.486  27.792  24.257  1.00  0.00     0.144 C 
ATOM     17  C   UNL A   1      33.806  28.679  22.290  1.00  0.00     0.147 C 
BRANCH   7  18
ATOM     18  O   UNL A   1      31.346  21.845  22.890  1.00  0.00    -0.493 OA
ATOM     19  C   UNL A   1      32.212  20.716  22.906  1.00  0.00     0.278 C 
ENDBRANCH   7  18
BRANCH   9  20
ATOM     20  O   UNL A   1      31.172  22.227  25.803  1.00  0.00    -0.493 OA
ATOM     21  C   UNL A   1      30.218  22.703  26.734  1.00  0.00     0.278 C 
ENDBRANCH   9  20
BRANCH  16  22
ATOM     22  C   UNL A   1      30.992  27.889  23.890  1.00  0.00     0.028 A 
ATOM     23  C   UNL A   1      30.034  26.887  23.954  1.00  0.00     0.017 A 
ATOM     24  S   UNL A   1      30.251  29.352  23.342  1.00  0.00    -0.147 S 
ATOM     25  C   UNL A   1      28.769  27.277  23.429  1.00  0.00     0.012 A 
ATOM     26  C   UNL A   1      28.748  28.602  23.075  1.00  0.00     0.065 A 
ENDBRANCH  16  22
ENDBRANCH   4   6
ENDBRANCH   3   4
ENDBRANCH   2   3
ENDBRANCH   1   2
BRANCH   1  27
ATOM     27  O   UNL A   1      33.259  30.688  26.635  1.00  0.00    -0.458 OA
BRANCH  27  28
ATOM     28  C   UNL A   1      33.715  31.778  27.290  1.00  0.00     0.338 C 
ATOM     29  O   UNL A   1      33.107  32.816  27.529  1.00  0.00    -0.246 OA
BRANCH  28  30
ATOM     30  C   UNL A   1      34.995  31.454  27.931  1.00  0.00     0.060 A 
ATOM     31  C   UNL A   1      35.100  30.168  28.454  1.00  0.00     0.016 A 
ATOM     32  C   UNL A   1      36.037  32.364  28.090  1.00  0.00     0.016 A 
ATOM     33  C   UNL A   1      36.274  29.737  29.057  1.00  0.00     0.010 A 
ATOM     34  C   UNL A   1      37.196  31.958  28.773  1.00  0.00     0.010 A 
ATOM     35  C   UNL A   1      37.323  30.640  29.249  1.00  0.00    -0.014 A 
BRANCH  35  36
ATOM     36  C   UNL A   1      38.465  30.210  30.090  1.00  0.00     0.031 A 
ATOM     37  C   UNL A   1      39.519  29.331  29.485  1.00  0.00     0.074 A 
ATOM     38  C   UNL A   1      38.636  30.697  31.332  1.00  0.00     0.049 A 
ATOM     39  N   UNL A   1      40.572  28.794  30.043  1.00  0.00    -0.248 NA
ATOM     40  C   UNL A   1      39.373  29.034  28.052  1.00  0.00     0.031 C 
ATOM     41  C   UNL A   1      37.757  31.664  31.976  1.00  0.00     0.029 A 
ATOM     42  N   UNL A   1      39.620  30.466  32.260  1.00  0.00    -0.354 N 
ATOM     43  C   UNL A   1      41.201  28.073  29.039  1.00  0.00     0.074 A 
ATOM     44  C   UNL A   1      40.425  28.259  27.831  1.00  0.00     0.031 C 
ATOM     45  C   UNL A   1      38.252  31.968  33.189  1.00  0.00     0.029 A 
ATOM     46  C   UNL A   1      39.442  31.157  33.435  1.00  0.00     0.049 A 
ATOM     47  H   UNL A   1      40.382  29.862  32.100  1.00  0.00     0.167 HD
ATOM     48  C   UNL A   1      42.311  27.303  29.126  1.00  0.00     0.037 A 
ATOM     49  C   UNL A   1      40.140  31.105  34.588  1.00  0.00     0.037 A 
ATOM     50  C   UNL A   1      43.069  27.111  30.333  1.00  0.00     0.049 A 
ATOM     51  C   UNL A   1      41.306  30.153  34.691  1.00  0.00     0.074 A 
ATOM     52  C   UNL A   1      44.164  26.292  30.545  1.00  0.00     0.029 A 
ATOM     53  N   UNL A   1      42.808  27.749  31.537  1.00  0.00    -0.354 N 
ATOM     54  N   UNL A   1      41.846  29.397  33.766  1.00  0.00    -0.248 NA
ATOM     55  C   UNL A   1      41.942  30.026  36.012  1.00  0.00     0.031 C 
ATOM     56  C   UNL A   1      44.534  26.398  31.890  1.00  0.00     0.029 A 
ATOM     57  C   UNL A   1      43.708  27.325  32.502  1.00  0.00     0.049 A 
ATOM     58  H   UNL A   1      42.089  28.405  31.684  1.00  0.00     0.167 HD
ATOM     59  C   UNL A   1      42.887  28.717  34.385  1.00  0.00     0.074 A 
ATOM     60  C   UNL A   1      42.922  29.169  35.759  1.00  0.00     0.031 C 
ATOM     61  C   UNL A   1      43.732  27.792  33.865  1.00  0.00     0.037 A 
BRANCH  48  62
ATOM     62  C   UNL A   1      42.705  26.539  27.899  1.00  0.00     0.064 A 
ATOM     63  C   UNL A   1      42.179  25.272  27.607  1.00  0.00     0.173 A 
ATOM     64  C   UNL A   1      43.639  27.086  27.006  1.00  0.00     0.173 A 
ATOM     65  F   UNL A   1      41.304  24.695  28.445  1.00  0.00    -0.203 F 
ATOM     66  C   UNL A   1      42.596  24.571  26.478  1.00  0.00     0.198 A 
ATOM     67  C   UNL A   1      44.032  26.394  25.864  1.00  0.00     0.198 A 
ATOM     68  F   UNL A   1      44.175  28.293  27.244  1.00  0.00    -0.203 F 
ATOM     69  F   UNL A   1      42.123  23.338  26.245  1.00  0.00    -0.200 F 
ATOM     70  C   UNL A   1      43.517  25.134  25.606  1.00  0.00     0.200 A 
ATOM     71  F   UNL A   1      44.917  26.943  25.022  1.00  0.00    -0.200 F 
ATOM     72  F   UNL A   1      43.918  24.456  24.523  1.00  0.00    -0.200 F 
ENDBRANCH  48  62
BRANCH  49  73
ATOM     73  C   UNL A   1      39.721  31.914  35.765  1.00  0.00     0.064 A 
ATOM     74  C   UNL A   1      38.657  31.511  36.584  1.00  0.00     0.173 A 
ATOM     75  C   UNL A   1      40.338  33.140  36.062  1.00  0.00     0.173 A 
ATOM     76  F   UNL A   1      38.007  30.367  36.324  1.00  0.00    -0.203 F 
ATOM     77  C   UNL A   1      38.214  32.309  37.639  1.00  0.00     0.198 A 
ATOM     78  C   UNL A   1      39.919  33.919  37.138  1.00  0.00     0.198 A 
ATOM     79  F   UNL A   1      41.351  33.585  35.304  1.00  0.00    -0.203 F 
ATOM     80  F   UNL A   1      37.155  31.929  38.366  1.00  0.00    -0.200 F 
ATOM     81  C   UNL A   1      38.850  33.510  37.919  1.00  0.00     0.200 A 
ATOM     82  F   UNL A   1      40.543  35.073  37.409  1.00  0.00    -0.200 F 
ATOM     83  F   UNL A   1      38.423  34.277  38.930  1.00  0.00    -0.200 F 
ENDBRANCH  49  73
BRANCH  61  84
ATOM     84  C   UNL A   1      44.784  27.227  34.777  1.00  0.00     0.064 A 
ATOM     85  C   UNL A   1      46.030  27.850  34.940  1.00  0.00     0.173 A 
ATOM     86  C   UNL A   1      44.525  26.072  35.530  1.00  0.00     0.173 A 
ATOM     87  F   UNL A   1      46.333  28.949  34.232  1.00  0.00    -0.203 F 
ATOM     88  C   UNL A   1      46.987  27.323  35.803  1.00  0.00     0.198 A 
ATOM     89  C   UNL A   1      45.472  25.565  36.415  1.00  0.00     0.198 A 
ATOM     90  F   UNL A   1      43.345  25.441  35.417  1.00  0.00    -0.203 F 
ATOM     91  F   UNL A   1      48.187  27.910  35.909  1.00  0.00    -0.200 F 
ATOM     92  C   UNL A   1      46.704  26.187  36.546  1.00  0.00     0.200 A 
ATOM     93  F   UNL A   1      45.192  24.475  37.143  1.00  0.00    -0.200 F 
ATOM     94  F   UNL A   1      47.623  25.686  37.384  1.00  0.00    -0.200 F 
ENDBRANCH  61  84
ENDBRANCH  35  36
ENDBRANCH  28  30
ENDBRANCH  27  28
ENDBRANCH   1  27
TORSDOF 14
ENDMDL
MODEL 2
REMARK VINA RESULT:     -12.2      0.149      1.924
REMARK SMILES COc1cc2c(cc1OC)[C@H](C(=O)OCCOC(=O)c1ccc(-c3c4nc(c(-c5c(F)c(F)c(F)c(F)c5F)c5ccc([nH]5)c(-c5c(F)c(F)c(F)c(F)c5F)c5nc(c(-c6c(F)c(F)c(F)c(F)c6F)c6ccc3[nH]6)C=C5)C=C4)cc1)[C@H](c1cccs1)N(C)C2=O
REMARK SMILES IDX 16 1 15 2 14 3 12 4 13 5 11 6 3 7 4 8 8 9 5 10 7 11 6 12
REMARK SMILES IDX 91 13 89 14 92 15 83 16 90 17 2 18 1 19 9 20 10 21 84 22
REMARK SMILES IDX 85 23 88 24 86 25 87 26 17 27 18 28 19 29 20 30 21 31 82 32
REMARK SMILES IDX 22 33 81 34 23 35 24 36 25 37 75 38 26 39 80 40 74 41 76 42
REMARK SMILES IDX 27 43 79 44 73 45 72 46 28 48 60 49 40 50 59 51 41 52 44 53
REMARK SMILES IDX 58 54 77 55 42 56 43 57 57 59 78 60 45 61 29 62 30 63 38 64
REMARK SMILES IDX 31 65 32 66 36 67 39 68 33 69 34 70 37 71 35 72 61 73 62 74
REMARK SMILES IDX 70 75 63 76 64 77 68 78 71 79 65 80 66 81 69 82 67 83 46 84
REMARK SMILES IDX 47 85 55 86 48 87 49 88 53 89 56 90 50 91 51 92 54 93 52 94
REMARK H PARENT 76 47 44 58
REMARK Flexibility Score: inf
ROOT
ATOM      1  C   UNL A   1      31.805  30.387  26.677  1.00  0.00     0.275 C 
ENDROOT
BRANCH   1   2
ATOM      2  C   UNL A   1      31.577  29.132  27.520  1.00  0.00     0.274 C 
BRANCH   2   3
ATOM      3  O   UNL A   1      32.567  28.108  27.255  1.00  0.00    -0.462 OA
BRANCH   3   4
ATOM      4  C   UNL A   1      32.077  26.993  26.633  1.00  0.00     0.316 C 
ATOM      5  O   UNL A   1      31.164  26.317  27.089  1.00  0.00    -0.251 OA
BRANCH   4   6
ATOM      6  C   UNL A   1      32.818  26.690  25.332  1.00  0.00     0.158 C 
ATOM      7  C   UNL A   1      31.758  22.929  23.476  1.00  0.00     0.161 A 
ATOM      8  C   UNL A   1      32.383  23.944  22.739  1.00  0.00     0.064 A 
ATOM      9  C   UNL A   1      31.596  23.079  24.861  1.00  0.00     0.161 A 
ATOM     10  C   UNL A   1      32.796  25.122  23.367  1.00  0.00     0.048 A 
ATOM     11  C   UNL A   1      32.033  24.256  25.479  1.00  0.00     0.056 A 
ATOM     12  C   UNL A   1      32.552  25.319  24.735  1.00  0.00    -0.015 A 
ATOM     13  C   UNL A   1      33.436  26.196  22.546  1.00  0.00     0.254 C 
ATOM     14  N   UNL A   1      33.344  27.489  23.064  1.00  0.00    -0.333 N 
ATOM     15  O   UNL A   1      33.983  25.919  21.492  1.00  0.00    -0.269 OA
ATOM     16  C   UNL A   1      32.506  27.745  24.245  1.00  0.00     0.144 C 
ATOM     17  C   UNL A   1      33.861  28.606  22.289  1.00  0.00     0.147 C 
BRANCH   7  18
ATOM     18  O   UNL A   1      31.232  21.831  22.852  1.00  0.00    -0.493 OA
ATOM     19  C   UNL A   1      32.141  20.747  22.697  1.00  0.00     0.278 C 
ENDBRANCH   7  18
BRANCH   9  20
ATOM     20  O   UNL A   1      31.048  22.210  25.765  1.00  0.00    -0.493 OA
ATOM     21  C   UNL A   1      30.248  22.733  26.809  1.00  0.00     0.278 C 
ENDBRANCH   9  20
BRANCH  16  22
ATOM     22  C   UNL A   1      31.017  27.880  23.868  1.00  0.00     0.028 A 
ATOM     23  C   UNL A   1      30.023  26.916  23.973  1.00  0.00     0.017 A 
ATOM     24  S   UNL A   1      30.331  29.341  23.251  1.00  0.00    -0.147 S 
ATOM     25  C   UNL A   1      28.774  27.327  23.426  1.00  0.00     0.012 A 
ATOM     26  C   UNL A   1      28.803  28.635  23.012  1.00  0.00     0.065 A 
ENDBRANCH  16  22
ENDBRANCH   4   6
ENDBRANCH   3   4
ENDBRANCH   2   3
ENDBRANCH   1   2
BRANCH   1  27
ATOM     27  O   UNL A   1      33.214  30.668  26.570  1.00  0.00    -0.458 OA
BRANCH  27  28
ATOM     28  C   UNL A   1      33.634  31.756  27.251  1.00  0.00     0.338 C 
ATOM     29  O   UNL A   1      32.997  32.774  27.501  1.00  0.00    -0.246 OA
BRANCH  28  30
ATOM     30  C   UNL A   1      34.914  31.452  27.901  1.00  0.00     0.060 A 
ATOM     31  C   UNL A   1      35.025  30.179  28.452  1.00  0.00     0.016 A 
ATOM     32  C   UNL A   1      35.952  32.371  28.043  1.00  0.00     0.016 A 
ATOM     33  C   UNL A   1      36.199  29.766  29.068  1.00  0.00     0.010 A 
ATOM     34  C   UNL A   1      37.111  31.986  28.737  1.00  0.00     0.010 A 
ATOM     35  C   UNL A   1      37.243  30.678  29.242  1.00  0.00    -0.014 A 
BRANCH  35  36
ATOM     36  C   UNL A   1      38.385  30.272  30.095  1.00  0.00     0.031 A 
ATOM     37  C   UNL A   1      39.461  29.411  29.502  1.00  0.00     0.074 A 
ATOM     38  C   UNL A   1      38.536  30.766  31.336  1.00  0.00     0.049 A 
ATOM     39  N   UNL A   1      40.518  28.895  30.071  1.00  0.00    -0.248 NA
ATOM     40  C   UNL A   1      39.333  29.105  28.069  1.00  0.00     0.031 C 
ATOM     41  C   UNL A   1      37.634  31.720  31.969  1.00  0.00     0.029 A 
ATOM     42  N   UNL A   1      39.516  30.557  32.274  1.00  0.00    -0.354 N 
ATOM     43  C   UNL A   1      41.169  28.181  29.075  1.00  0.00     0.074 A 
ATOM     44  C   UNL A   1      40.400  28.349  27.860  1.00  0.00     0.031 C 
ATOM     45  C   UNL A   1      38.113  32.037  33.185  1.00  0.00     0.029 A 
ATOM     46  C   UNL A   1      39.316  31.249  33.444  1.00  0.00     0.049 A 
ATOM     47  H   UNL A   1      40.290  29.967  32.122  1.00  0.00     0.167 HD
ATOM     48  C   UNL A   1      42.292  27.432  29.175  1.00  0.00     0.037 A 
ATOM     49  C   UNL A   1      40.004  31.214  34.604  1.00  0.00     0.037 A 
ATOM     50  C   UNL A   1      43.043  27.258  30.389  1.00  0.00     0.049 A 
ATOM     51  C   UNL A   1      41.186  30.283  34.721  1.00  0.00     0.074 A 
ATOM     52  C   UNL A   1      44.151  26.460  30.615  1.00  0.00     0.029 A 
ATOM     53  N   UNL A   1      42.759  27.895  31.589  1.00  0.00    -0.354 N 
ATOM     54  N   UNL A   1      41.748  29.534  33.804  1.00  0.00    -0.248 NA
ATOM     55  C   UNL A   1      41.812  30.172  36.047  1.00  0.00     0.031 C 
ATOM     56  C   UNL A   1      44.506  26.577  31.962  1.00  0.00     0.029 A 
ATOM     57  C   UNL A   1      43.658  27.492  32.563  1.00  0.00     0.049 A 
ATOM     58  H   UNL A   1      42.027  28.539  31.727  1.00  0.00     0.167 HD
ATOM     59  C   UNL A   1      42.796  28.875  34.434  1.00  0.00     0.074 A 
ATOM     60  C   UNL A   1      42.810  29.332  35.807  1.00  0.00     0.031 C 
ATOM     61  C   UNL A   1      43.661  27.963  33.925  1.00  0.00     0.037 A 
BRANCH  48  62
ATOM     62  C   UNL A   1      42.711  26.671  27.955  1.00  0.00     0.064 A 
ATOM     63  C   UNL A   1      43.614  27.196  27.020  1.00  0.00     0.173 A 
ATOM     64  C   UNL A   1      42.183  25.393  27.715  1.00  0.00     0.173 A 
ATOM     65  F   UNL A   1      44.124  28.426  27.191  1.00  0.00    -0.203 F 
ATOM     66  C   UNL A   1      43.953  26.478  25.875  1.00  0.00     0.198 A 
ATOM     67  C   UNL A   1      42.546  24.667  26.584  1.00  0.00     0.198 A 
ATOM     68  F   UNL A   1      41.311  24.849  28.577  1.00  0.00    -0.203 F 
ATOM     69  F   UNL A   1      44.776  27.021  24.966  1.00  0.00    -0.200 F 
ATOM     70  C   UNL A   1      43.423  25.214  25.661  1.00  0.00     0.200 A 
ATOM     71  F   UNL A   1      42.036  23.444  26.383  1.00  0.00    -0.200 F 
ATOM     72  F   UNL A   1      43.748  24.527  24.558  1.00  0.00    -0.200 F 
ENDBRANCH  48  62
BRANCH  49  73
ATOM     73  C   UNL A   1      39.560  32.019  35.774  1.00  0.00     0.064 A 
ATOM     74  C   UNL A   1      40.179  33.234  36.099  1.00  0.00     0.173 A 
ATOM     75  C   UNL A   1      38.545  31.563  36.629  1.00  0.00     0.173 A 
ATOM     76  F   UNL A   1      41.181  33.700  35.338  1.00  0.00    -0.203 F 
ATOM     77  C   UNL A   1      39.816  33.949  37.240  1.00  0.00     0.198 A 
ATOM     78  C   UNL A   1      38.157  32.294  37.749  1.00  0.00     0.198 A 
ATOM     79  F   UNL A   1      37.926  30.399  36.378  1.00  0.00    -0.203 F 
ATOM     80  F   UNL A   1      40.469  35.074  37.560  1.00  0.00    -0.200 F 
ATOM     81  C   UNL A   1      38.801  33.481  38.061  1.00  0.00     0.200 A 
ATOM     82  F   UNL A   1      37.169  31.842  38.533  1.00  0.00    -0.200 F 
ATOM     83  F   UNL A   1      38.454  34.165  39.159  1.00  0.00    -0.200 F 
ENDBRANCH  49  73
BRANCH  61  84
ATOM     84  C   UNL A   1      44.715  27.421  34.848  1.00  0.00     0.064 A 
ATOM     85  C   UNL A   1      44.516  26.243  35.583  1.00  0.00     0.173 A 
ATOM     86  C   UNL A   1      45.956  28.066  34.965  1.00  0.00     0.173 A 
ATOM     87  F   UNL A   1      43.343  25.596  35.517  1.00  0.00    -0.203 F 
ATOM     88  C   UNL A   1      45.511  25.745  36.420  1.00  0.00     0.198 A 
ATOM     89  C   UNL A   1      46.959  27.548  35.779  1.00  0.00     0.198 A 
ATOM     90  F   UNL A   1      46.200  29.193  34.279  1.00  0.00    -0.203 F 
ATOM     91  F   UNL A   1      45.283  24.642  37.147  1.00  0.00    -0.200 F 
ATOM     92  C   UNL A   1      46.734  26.392  36.511  1.00  0.00     0.200 A 
ATOM     93  F   UNL A   1      48.145  28.168  35.855  1.00  0.00    -0.200 F 
ATOM     94  F   UNL A   1      47.694  25.906  37.311  1.00  0.00    -0.200 F 
ENDBRANCH  61  84
ENDBRANCH  35  36
ENDBRANCH  28  30
ENDBRANCH  27  28
ENDBRANCH   1  27
TORSDOF 14
ENDMDL
MODEL 3
REMARK VINA RESULT:     -12.0      4.582      9.862
REMARK SMILES COc1cc2c(cc1OC)[C@H](C(=O)OCCOC(=O)c1ccc(-c3c4nc(c(-c5c(F)c(F)c(F)c(F)c5F)c5ccc([nH]5)c(-c5c(F)c(F)c(F)c(F)c5F)c5nc(c(-c6c(F)c(F)c(F)c(F)c6F)c6ccc3[nH]6)C=C5)C=C4)cc1)[C@H](c1cccs1)N(C)C2=O
REMARK SMILES IDX 16 1 15 2 14 3 12 4 13 5 11 6 3 7 4 8 8 9 5 10 7 11 6 12
REMARK SMILES IDX 91 13 89 14 92 15 83 16 90 17 2 18 1 19 9 20 10 21 84 22
REMARK SMILES IDX 85 23 88 24 86 25 87 26 17 27 18 28 19 29 20 30 21 31 82 32
REMARK SMILES IDX 22 33 81 34 23 35 24 36 25 37 75 38 26 39 80 40 74 41 76 42
REMARK SMILES IDX 27 43 79 44 73 45 72 46 28 48 60 49 40 50 59 51 41 52 44 53
REMARK SMILES IDX 58 54 77 55 42 56 43 57 57 59 78 60 45 61 29 62 30 63 38 64
REMARK SMILES IDX 31 65 32 66 36 67 39 68 33 69 34 70 37 71 35 72 61 73 62 74
REMARK SMILES IDX 70 75 63 76 64 77 68 78 71 79 65 80 66 81 69 82 67 83 46 84
REMARK SMILES IDX 47 85 55 86 48 87 49 88 53 89 56 90 50 91 51 92 54 93 52 94
REMARK H PARENT 76 47 44 58
REMARK Flexibility Score: inf
ROOT
ATOM      1  C   UNL A   1      37.488  20.831  24.983  1.00  0.00     0.275 C 
ENDROOT
BRANCH   1   2
ATOM      2  C   UNL A   1      37.095  21.806  23.872  1.00  0.00     0.274 C 
BRANCH   2   3
ATOM      3  O   UNL A   1      36.698  23.097  24.393  1.00  0.00    -0.462 OA
BRANCH   3   4
ATOM      4  C   UNL A   1      35.518  23.573  23.891  1.00  0.00     0.316 C 
ATOM      5  O   UNL A   1      35.331  23.779  22.699  1.00  0.00    -0.251 OA
BRANCH   4   6
ATOM      6  C   UNL A   1      34.490  23.834  24.990  1.00  0.00     0.158 C 
ATOM      7  C   UNL A   1      30.767  25.557  23.618  1.00  0.00     0.161 A 
ATOM      8  C   UNL A   1      30.846  24.912  24.860  1.00  0.00     0.064 A 
ATOM      9  C   UNL A   1      31.935  25.766  22.871  1.00  0.00     0.161 A 
ATOM     10  C   UNL A   1      32.072  24.432  25.330  1.00  0.00     0.048 A 
ATOM     11  C   UNL A   1      33.157  25.299  23.365  1.00  0.00     0.056 A 
ATOM     12  C   UNL A   1      33.229  24.555  24.545  1.00  0.00    -0.015 A 
ATOM     13  C   UNL A   1      32.116  23.725  26.647  1.00  0.00     0.254 C 
ATOM     14  N   UNL A   1      33.180  22.838  26.821  1.00  0.00    -0.333 N 
ATOM     15  O   UNL A   1      31.254  23.931  27.484  1.00  0.00    -0.269 OA
ATOM     16  C   UNL A   1      34.061  22.521  25.686  1.00  0.00     0.144 C 
ATOM     17  C   UNL A   1      33.253  22.042  28.036  1.00  0.00     0.147 C 
BRANCH   7  18
ATOM     18  O   UNL A   1      29.556  25.912  23.089  1.00  0.00    -0.493 OA
ATOM     19  C   UNL A   1      28.697  26.602  23.989  1.00  0.00     0.278 C 
ENDBRANCH   7  18
BRANCH   9  20
ATOM     20  O   UNL A   1      32.086  26.394  21.664  1.00  0.00    -0.493 OA
ATOM     21  C   UNL A   1      32.477  25.622  20.544  1.00  0.00     0.278 C 
ENDBRANCH   9  20
BRANCH  16  22
ATOM     22  C   UNL A   1      33.436  21.460  24.759  1.00  0.00     0.028 A 
ATOM     23  C   UNL A   1      32.714  21.670  23.593  1.00  0.00     0.017 A 
ATOM     24  S   UNL A   1      33.577  19.761  25.044  1.00  0.00    -0.147 S 
ATOM     25  C   UNL A   1      32.173  20.475  23.037  1.00  0.00     0.012 A 
ATOM     26  C   UNL A   1      32.583  19.361  23.724  1.00  0.00     0.065 A 
ENDBRANCH  16  22
ENDBRANCH   4   6
ENDBRANCH   3   4
ENDBRANCH   2   3
ENDBRANCH   1   2
BRANCH   1  27
ATOM     27  O   UNL A   1      38.039  21.548  26.105  1.00  0.00    -0.458 OA
BRANCH  27  28
ATOM     28  C   UNL A   1      39.328  21.263  26.389  1.00  0.00     0.338 C 
ATOM     29  O   UNL A   1      39.942  20.234  26.129  1.00  0.00    -0.246 OA
BRANCH  28  30
ATOM     30  C   UNL A   1      40.003  22.487  26.840  1.00  0.00     0.060 A 
ATOM     31  C   UNL A   1      39.599  23.664  26.215  1.00  0.00     0.016 A 
ATOM     32  C   UNL A   1      41.034  22.507  27.776  1.00  0.00     0.016 A 
ATOM     33  C   UNL A   1      40.145  24.888  26.578  1.00  0.00     0.010 A 
ATOM     34  C   UNL A   1      41.647  23.732  28.087  1.00  0.00     0.010 A 
ATOM     35  C   UNL A   1      41.197  24.929  27.498  1.00  0.00    -0.014 A 
BRANCH  35  36
ATOM     36  C   UNL A   1      41.900  26.218  27.691  1.00  0.00     0.031 A 
ATOM     37  C   UNL A   1      41.261  27.269  28.550  1.00  0.00     0.074 A 
ATOM     38  C   UNL A   1      43.147  26.408  27.225  1.00  0.00     0.049 A 
ATOM     39  N   UNL A   1      41.666  28.483  28.816  1.00  0.00    -0.248 NA
ATOM     40  C   UNL A   1      40.002  26.891  29.211  1.00  0.00     0.031 C 
ATOM     41  C   UNL A   1      43.926  25.412  26.500  1.00  0.00     0.029 A 
ATOM     42  N   UNL A   1      43.986  27.490  27.315  1.00  0.00    -0.354 N 
ATOM     43  C   UNL A   1      40.701  29.026  29.651  1.00  0.00     0.074 A 
ATOM     44  C   UNL A   1      39.701  28.001  29.868  1.00  0.00     0.031 C 
ATOM     45  C   UNL A   1      45.142  25.917  26.230  1.00  0.00     0.029 A 
ATOM     46  C   UNL A   1      45.199  27.301  26.697  1.00  0.00     0.049 A 
ATOM     47  H   UNL A   1      43.741  28.325  27.778  1.00  0.00     0.167 HD
ATOM     48  C   UNL A   1      40.643  30.275  30.168  1.00  0.00     0.037 A 
ATOM     49  C   UNL A   1      46.217  28.162  26.498  1.00  0.00     0.037 A 
ATOM     50  C   UNL A   1      41.633  31.293  29.937  1.00  0.00     0.049 A 
ATOM     51  C   UNL A   1      46.076  29.582  26.988  1.00  0.00     0.074 A 
ATOM     52  C   UNL A   1      41.630  32.613  30.352  1.00  0.00     0.029 A 
ATOM     53  N   UNL A   1      42.807  31.101  29.223  1.00  0.00    -0.354 N 
ATOM     54  N   UNL A   1      45.118  30.124  27.701  1.00  0.00    -0.248 NA
ATOM     55  C   UNL A   1      47.148  30.520  26.620  1.00  0.00     0.031 C 
ATOM     56  C   UNL A   1      42.778  33.232  29.848  1.00  0.00     0.029 A 
ATOM     57  C   UNL A   1      43.526  32.285  29.168  1.00  0.00     0.049 A 
ATOM     58  H   UNL A   1      43.089  30.250  28.816  1.00  0.00     0.167 HD
ATOM     59  C   UNL A   1      45.474  31.455  27.876  1.00  0.00     0.074 A 
ATOM     60  C   UNL A   1      46.751  31.635  27.218  1.00  0.00     0.031 C 
ATOM     61  C   UNL A   1      44.800  32.443  28.514  1.00  0.00     0.037 A 
BRANCH  48  62
ATOM     62  C   UNL A   1      39.417  30.629  30.952  1.00  0.00     0.064 A 
ATOM     63  C   UNL A   1      39.350  30.474  32.344  1.00  0.00     0.173 A 
ATOM     64  C   UNL A   1      38.283  31.122  30.289  1.00  0.00     0.173 A 
ATOM     65  F   UNL A   1      40.398  29.980  33.020  1.00  0.00    -0.203 F 
ATOM     66  C   UNL A   1      38.181  30.776  33.040  1.00  0.00     0.198 A 
ATOM     67  C   UNL A   1      37.126  31.450  30.990  1.00  0.00     0.198 A 
ATOM     68  F   UNL A   1      38.296  31.284  28.957  1.00  0.00    -0.203 F 
ATOM     69  F   UNL A   1      38.118  30.569  34.363  1.00  0.00    -0.200 F 
ATOM     70  C   UNL A   1      37.073  31.268  32.363  1.00  0.00     0.200 A 
ATOM     71  F   UNL A   1      36.061  31.929  30.335  1.00  0.00    -0.200 F 
ATOM     72  F   UNL A   1      35.949  31.554  33.033  1.00  0.00    -0.200 F 
ENDBRANCH  48  62
BRANCH  49  73
ATOM     73  C   UNL A   1      47.427  27.743  25.740  1.00  0.00     0.064 A 
ATOM     74  C   UNL A   1      48.611  27.383  26.399  1.00  0.00     0.173 A 
ATOM     75  C   UNL A   1      47.446  27.751  24.337  1.00  0.00     0.173 A 
ATOM     76  F   UNL A   1      48.662  27.393  27.740  1.00  0.00    -0.203 F 
ATOM     77  C   UNL A   1      49.768  27.067  25.688  1.00  0.00     0.198 A 
ATOM     78  C   UNL A   1      48.591  27.401  23.625  1.00  0.00     0.198 A 
ATOM     79  F   UNL A   1      46.348  28.102  23.651  1.00  0.00    -0.203 F 
ATOM     80  F   UNL A   1      50.902  26.788  26.344  1.00  0.00    -0.200 F 
ATOM     81  C   UNL A   1      49.755  27.071  24.300  1.00  0.00     0.200 A 
ATOM     82  F   UNL A   1      48.570  27.397  22.286  1.00  0.00    -0.200 F 
ATOM     83  F   UNL A   1      50.867  26.771  23.616  1.00  0.00    -0.200 F 
ENDBRANCH  49  73
BRANCH  61  84
ATOM     84  C   UNL A   1      45.442  33.801  28.557  1.00  0.00     0.064 A 
ATOM     85  C   UNL A   1      46.350  34.156  29.566  1.00  0.00     0.173 A 
ATOM     86  C   UNL A   1      45.178  34.744  27.552  1.00  0.00     0.173 A 
ATOM     87  F   UNL A   1      46.626  33.296  30.558  1.00  0.00    -0.203 F 
ATOM     88  C   UNL A   1      46.950  35.412  29.580  1.00  0.00     0.198 A 
ATOM     89  C   UNL A   1      45.803  35.987  27.552  1.00  0.00     0.198 A 
ATOM     90  F   UNL A   1      44.322  34.452  26.559  1.00  0.00    -0.203 F 
ATOM     91  F   UNL A   1      47.779  35.745  30.579  1.00  0.00    -0.200 F 
ATOM     92  C   UNL A   1      46.682  36.323  28.570  1.00  0.00     0.200 A 
ATOM     93  F   UNL A   1      45.554  36.861  26.567  1.00  0.00    -0.200 F 
ATOM     94  F   UNL A   1      47.268  37.529  28.580  1.00  0.00    -0.200 F 
ENDBRANCH  61  84
ENDBRANCH  35  36
ENDBRANCH  28  30
ENDBRANCH  27  28
ENDBRANCH   1  27
TORSDOF 14
ENDMDL
