MODEL 1
REMARK VINA RESULT:     -12.3      0.000      0.000
REMARK SMILES Cc1cccc(CN(C)c2ccc(C(=O)OCCOC(=O)c3ccc(-c4c5nc(c(-c6c(F)c(F)c(F)c(F)c6F)c6ccc([nH]6)c(-c6c(F)c(F)c(F)c(F)c6F)c6nc(c(-c7c(F)c(F)c(F)c(F)c7F)c7ccc4[nH]7)C=C6)C=C5)cc3)cc2N)n1
REMARK SMILES IDX 17 1 16 2 14 3 15 4 13 5 10 6 11 7 86 8 12 9 85 10 8 11 9 12
REMARK SMILES IDX 7 13 6 14 1 15 2 16 3 17 88 18 4 19 5 20 87 21 18 24 19 25
REMARK SMILES IDX 20 26 21 27 22 28 23 29 84 30 24 31 83 32 25 33 26 34 27 35
REMARK SMILES IDX 77 36 28 37 82 38 76 39 78 40 29 41 81 42 75 43 74 44 30 46
REMARK SMILES IDX 62 47 42 48 61 49 43 50 46 51 60 52 79 53 44 54 45 55 59 57
REMARK SMILES IDX 80 58 47 59 31 60 32 61 40 62 33 63 34 64 38 65 41 66 35 67
REMARK SMILES IDX 36 68 39 69 37 70 63 71 64 72 72 73 65 74 66 75 70 76 73 77
REMARK SMILES IDX 67 78 68 79 71 80 69 81 48 82 49 83 57 84 50 85 51 86 55 87
REMARK SMILES IDX 58 88 52 89 53 90 56 91 54 92
REMARK H PARENT 87 22 87 23 78 45 46 56
REMARK Flexibility Score: inf
ROOT
ATOM      1  C   UNL A   1      35.091  21.785  25.127  1.00  0.00     0.275 C 
ENDROOT
BRANCH   1   2
ATOM      2  O   UNL A   1      34.955  22.826  26.118  1.00  0.00    -0.458 OA
BRANCH   2   3
ATOM      3  C   UNL A   1      33.687  23.152  26.466  1.00  0.00     0.338 C 
ATOM      4  O   UNL A   1      32.913  22.465  27.120  1.00  0.00    -0.246 OA
BRANCH   3   5
ATOM      5  C   UNL A   1      33.341  24.508  25.992  1.00  0.00     0.062 A 
ATOM      6  C   UNL A   1      32.729  27.227  25.285  1.00  0.00     0.060 A 
ATOM      7  C   UNL A   1      33.972  26.634  25.008  1.00  0.00     0.029 A 
ATOM      8  C   UNL A   1      31.894  26.433  26.122  1.00  0.00     0.056 A 
ATOM      9  C   UNL A   1      34.298  25.337  25.418  1.00  0.00     0.018 A 
ATOM     10  C   UNL A   1      32.117  25.056  26.319  1.00  0.00     0.043 A 
BRANCH   6  11
ATOM     11  N   UNL A   1      32.392  28.468  24.734  1.00  0.00    -0.367 N 
ATOM     12  C   UNL A   1      32.691  29.710  25.461  1.00  0.00     0.144 C 
BRANCH  11  13
ATOM     13  C   UNL A   1      31.677  28.707  23.456  1.00  0.00     0.172 C 
BRANCH  13  14
ATOM     14  C   UNL A   1      30.167  28.895  23.498  1.00  0.00     0.060 A 
ATOM     15  C   UNL A   1      27.810  31.694  23.211  1.00  0.00     0.067 C 
ATOM     16  C   UNL A   1      28.329  30.291  23.270  1.00  0.00     0.038 A 
ATOM     17  C   UNL A   1      27.481  29.207  23.068  1.00  0.00     0.023 A 
ATOM     18  N   UNL A   1      29.654  30.150  23.508  1.00  0.00    -0.256 NA
ATOM     19  C   UNL A   1      27.998  27.922  23.170  1.00  0.00     0.004 A 
ATOM     20  C   UNL A   1      29.352  27.760  23.426  1.00  0.00     0.026 A 
ENDBRANCH  13  14
ENDBRANCH  11  13
ENDBRANCH   6  11
BRANCH   8  21
ATOM     21  N   UNL A   1      30.981  26.988  27.020  1.00  0.00    -0.397 N 
ATOM     22  H   UNL A   1      30.445  27.771  26.758  1.00  0.00     0.156 HD
ATOM     23  H   UNL A   1      30.872  26.596  27.917  1.00  0.00     0.156 HD
ENDBRANCH   8  21
ENDBRANCH   3   5
ENDBRANCH   2   3
ENDBRANCH   1   2
BRANCH   1  24
ATOM     24  C   UNL A   1      36.364  20.964  25.345  1.00  0.00     0.275 C 
BRANCH  24  25
ATOM     25  O   UNL A   1      37.533  21.775  25.123  1.00  0.00    -0.458 OA
BRANCH  25  26
ATOM     26  C   UNL A   1      38.639  21.378  25.792  1.00  0.00     0.338 C 
ATOM     27  O   UNL A   1      39.179  20.285  25.762  1.00  0.00    -0.246 OA
BRANCH  26  28
ATOM     28  C   UNL A   1      39.225  22.512  26.520  1.00  0.00     0.060 A 
ATOM     29  C   UNL A   1      38.755  23.776  26.206  1.00  0.00     0.016 A 
ATOM     30  C   UNL A   1      40.354  22.378  27.319  1.00  0.00     0.016 A 
ATOM     31  C   UNL A   1      39.483  24.912  26.535  1.00  0.00     0.010 A 
ATOM     32  C   UNL A   1      41.001  23.533  27.788  1.00  0.00     0.010 A 
ATOM     33  C   UNL A   1      40.606  24.816  27.359  1.00  0.00    -0.014 A 
BRANCH  33  34
ATOM     34  C   UNL A   1      41.369  26.048  27.724  1.00  0.00     0.031 A 
ATOM     35  C   UNL A   1      40.721  27.119  28.564  1.00  0.00     0.074 A 
ATOM     36  C   UNL A   1      42.653  26.205  27.336  1.00  0.00     0.049 A 
ATOM     37  N   UNL A   1      41.133  28.337  28.822  1.00  0.00    -0.248 NA
ATOM     38  C   UNL A   1      39.427  26.786  29.183  1.00  0.00     0.031 C 
ATOM     39  C   UNL A   1      43.439  25.231  26.575  1.00  0.00     0.029 A 
ATOM     40  N   UNL A   1      43.533  27.243  27.535  1.00  0.00    -0.354 N 
ATOM     41  C   UNL A   1      40.123  28.931  29.569  1.00  0.00     0.074 A 
ATOM     42  C   UNL A   1      39.073  27.947  29.716  1.00  0.00     0.031 C 
ATOM     43  C   UNL A   1      44.687  25.690  26.415  1.00  0.00     0.029 A 
ATOM     44  C   UNL A   1      44.762  27.042  26.952  1.00  0.00     0.049 A 
ATOM     45  H   UNL A   1      43.305  28.053  28.047  1.00  0.00     0.167 HD
ATOM     46  C   UNL A   1      40.078  30.184  30.084  1.00  0.00     0.037 A 
ATOM     47  C   UNL A   1      45.816  27.868  26.804  1.00  0.00     0.037 A 
ATOM     48  C   UNL A   1      41.153  31.139  29.985  1.00  0.00     0.049 A 
ATOM     49  C   UNL A   1      45.720  29.270  27.336  1.00  0.00     0.074 A 
ATOM     50  C   UNL A   1      41.213  32.427  30.489  1.00  0.00     0.029 A 
ATOM     51  N   UNL A   1      42.364  30.903  29.351  1.00  0.00    -0.354 N 
ATOM     52  N   UNL A   1      44.739  29.842  27.991  1.00  0.00    -0.248 NA
ATOM     53  C   UNL A   1      46.871  30.148  27.093  1.00  0.00     0.031 C 
ATOM     54  C   UNL A   1      42.436  32.989  30.112  1.00  0.00     0.029 A 
ATOM     55  C   UNL A   1      43.169  32.029  29.431  1.00  0.00     0.049 A 
ATOM     56  H   UNL A   1      42.616  30.060  28.908  1.00  0.00     0.167 HD
ATOM     57  C   UNL A   1      45.163  31.135  28.258  1.00  0.00     0.074 A 
ATOM     58  C   UNL A   1      46.499  31.258  27.713  1.00  0.00     0.031 C 
ATOM     59  C   UNL A   1      44.502  32.134  28.894  1.00  0.00     0.037 A 
BRANCH  46  60
ATOM     60  C   UNL A   1      38.808  30.619  30.763  1.00  0.00     0.064 A 
ATOM     61  C   UNL A   1      37.693  31.080  30.047  1.00  0.00     0.173 A 
ATOM     62  C   UNL A   1      38.696  30.535  32.161  1.00  0.00     0.173 A 
ATOM     63  F   UNL A   1      37.747  31.190  28.711  1.00  0.00    -0.203 F 
ATOM     64  C   UNL A   1      36.530  31.471  30.705  1.00  0.00     0.198 A 
ATOM     65  C   UNL A   1      37.518  30.892  32.813  1.00  0.00     0.198 A 
ATOM     66  F   UNL A   1      39.726  30.093  32.897  1.00  0.00    -0.203 F 
ATOM     67  F   UNL A   1      35.497  31.959  30.003  1.00  0.00    -0.200 F 
ATOM     68  C   UNL A   1      36.440  31.369  32.086  1.00  0.00     0.200 A 
ATOM     69  F   UNL A   1      37.429  30.775  34.145  1.00  0.00    -0.200 F 
ATOM     70  F   UNL A   1      35.315  31.736  32.716  1.00  0.00    -0.200 F 
ENDBRANCH  46  60
BRANCH  47  71
ATOM     71  C   UNL A   1      47.028  27.409  26.072  1.00  0.00     0.064 A 
ATOM     72  C   UNL A   1      48.082  26.774  26.744  1.00  0.00     0.173 A 
ATOM     73  C   UNL A   1      47.162  27.601  24.687  1.00  0.00     0.173 A 
ATOM     74  F   UNL A   1      48.016  26.591  28.071  1.00  0.00    -0.203 F 
ATOM     75  C   UNL A   1      49.228  26.366  26.064  1.00  0.00     0.198 A 
ATOM     76  C   UNL A   1      48.291  27.157  24.003  1.00  0.00     0.198 A 
ATOM     77  F   UNL A   1      46.186  28.204  23.994  1.00  0.00    -0.203 F 
ATOM     78  F   UNL A   1      50.243  25.812  26.740  1.00  0.00    -0.200 F 
ATOM     79  C   UNL A   1      49.328  26.549  24.692  1.00  0.00     0.200 A 
ATOM     80  F   UNL A   1      48.373  27.320  22.676  1.00  0.00    -0.200 F 
ATOM     81  F   UNL A   1      50.427  26.150  24.039  1.00  0.00    -0.200 F 
ENDBRANCH  47  71
BRANCH  59  82
ATOM     82  C   UNL A   1      45.237  33.430  29.083  1.00  0.00     0.064 A 
ATOM     83  C   UNL A   1      45.214  34.443  28.113  1.00  0.00     0.173 A 
ATOM     84  C   UNL A   1      45.957  33.667  30.263  1.00  0.00     0.173 A 
ATOM     85  F   UNL A   1      44.555  34.259  26.959  1.00  0.00    -0.203 F 
ATOM     86  C   UNL A   1      45.913  35.632  28.305  1.00  0.00     0.198 A 
ATOM     87  C   UNL A   1      46.624  34.872  30.467  1.00  0.00     0.198 A 
ATOM     88  F   UNL A   1      46.008  32.733  31.226  1.00  0.00    -0.203 F 
ATOM     89  F   UNL A   1      45.926  36.563  27.340  1.00  0.00    -0.200 F 
ATOM     90  C   UNL A   1      46.610  35.849  29.484  1.00  0.00     0.200 A 
ATOM     91  F   UNL A   1      47.283  35.085  31.614  1.00  0.00    -0.200 F 
ATOM     92  F   UNL A   1      47.276  36.997  29.669  1.00  0.00    -0.200 F 
ENDBRANCH  59  82
ENDBRANCH  33  34
ENDBRANCH  26  28
ENDBRANCH  25  26
ENDBRANCH  24  25
ENDBRANCH   1  24
TORSDOF 15
ENDMDL
MODEL 2
REMARK VINA RESULT:     -12.2      4.824      8.974
REMARK SMILES Cc1cccc(CN(C)c2ccc(C(=O)OCCOC(=O)c3ccc(-c4c5nc(c(-c6c(F)c(F)c(F)c(F)c6F)c6ccc([nH]6)c(-c6c(F)c(F)c(F)c(F)c6F)c6nc(c(-c7c(F)c(F)c(F)c(F)c7F)c7ccc4[nH]7)C=C6)C=C5)cc3)cc2N)n1
REMARK SMILES IDX 17 1 16 2 14 3 15 4 13 5 10 6 11 7 86 8 12 9 85 10 8 11 9 12
REMARK SMILES IDX 7 13 6 14 1 15 2 16 3 17 88 18 4 19 5 20 87 21 18 24 19 25
REMARK SMILES IDX 20 26 21 27 22 28 23 29 84 30 24 31 83 32 25 33 26 34 27 35
REMARK SMILES IDX 77 36 28 37 82 38 76 39 78 40 29 41 81 42 75 43 74 44 30 46
REMARK SMILES IDX 62 47 42 48 61 49 43 50 46 51 60 52 79 53 44 54 45 55 59 57
REMARK SMILES IDX 80 58 47 59 31 60 32 61 40 62 33 63 34 64 38 65 41 66 35 67
REMARK SMILES IDX 36 68 39 69 37 70 63 71 64 72 72 73 65 74 66 75 70 76 73 77
REMARK SMILES IDX 67 78 68 79 71 80 69 81 48 82 49 83 57 84 50 85 51 86 55 87
REMARK SMILES IDX 58 88 52 89 53 90 56 91 54 92
REMARK H PARENT 87 22 87 23 78 45 46 56
REMARK Flexibility Score: inf
ROOT
ATOM      1  C   UNL A   1      42.239  20.542  26.288  1.00  0.00     0.275 C 
ENDROOT
BRANCH   1   2
ATOM      2  O   UNL A   1      40.932  21.151  26.353  1.00  0.00    -0.458 OA
BRANCH   2   3
ATOM      3  C   UNL A   1      39.903  20.401  25.890  1.00  0.00     0.338 C 
ATOM      4  O   UNL A   1      39.893  19.185  25.752  1.00  0.00    -0.246 OA
BRANCH   3   5
ATOM      5  C   UNL A   1      38.723  21.243  25.601  1.00  0.00     0.062 A 
ATOM      6  C   UNL A   1      36.340  22.812  25.251  1.00  0.00     0.060 A 
ATOM      7  C   UNL A   1      37.527  23.347  25.776  1.00  0.00     0.029 A 
ATOM      8  C   UNL A   1      36.367  21.396  25.110  1.00  0.00     0.056 A 
ATOM      9  C   UNL A   1      38.664  22.567  26.018  1.00  0.00     0.018 A 
ATOM     10  C   UNL A   1      37.570  20.661  25.115  1.00  0.00     0.043 A 
BRANCH   6  11
ATOM     11  N   UNL A   1      35.278  23.650  24.892  1.00  0.00    -0.367 N 
ATOM     12  C   UNL A   1      34.749  23.633  23.520  1.00  0.00     0.144 C 
BRANCH  11  13
ATOM     13  C   UNL A   1      34.611  24.657  25.754  1.00  0.00     0.172 C 
BRANCH  13  14
ATOM     14  C   UNL A   1      33.098  24.796  25.663  1.00  0.00     0.060 A 
ATOM     15  C   UNL A   1      30.164  22.952  26.872  1.00  0.00     0.067 C 
ATOM     16  C   UNL A   1      30.991  24.054  26.286  1.00  0.00     0.038 A 
ATOM     17  C   UNL A   1      30.417  25.276  25.950  1.00  0.00     0.023 A 
ATOM     18  N   UNL A   1      32.310  23.794  26.126  1.00  0.00    -0.256 NA
ATOM     19  C   UNL A   1      31.215  26.256  25.374  1.00  0.00     0.004 A 
ATOM     20  C   UNL A   1      32.567  26.002  25.191  1.00  0.00     0.026 A 
ENDBRANCH  13  14
ENDBRANCH  11  13
ENDBRANCH   6  11
BRANCH   8  21
ATOM     21  N   UNL A   1      35.225  20.603  25.239  1.00  0.00    -0.397 N 
ATOM     22  H   UNL A   1      35.230  19.827  25.844  1.00  0.00     0.156 HD
ATOM     23  H   UNL A   1      34.414  20.819  24.724  1.00  0.00     0.156 HD
ENDBRANCH   8  21
ENDBRANCH   3   5
ENDBRANCH   2   3
ENDBRANCH   1   2
BRANCH   1  24
ATOM     24  C   UNL A   1      43.255  21.462  25.610  1.00  0.00     0.275 C 
BRANCH  24  25
ATOM     25  O   UNL A   1      42.601  22.620  25.058  1.00  0.00    -0.458 OA
BRANCH  25  26
ATOM     26  C   UNL A   1      43.304  23.772  25.149  1.00  0.00     0.338 C 
ATOM     27  O   UNL A   1      44.309  24.083  24.535  1.00  0.00    -0.246 OA
BRANCH  26  28
ATOM     28  C   UNL A   1      42.617  24.715  26.043  1.00  0.00     0.060 A 
ATOM     29  C   UNL A   1      43.063  26.026  26.042  1.00  0.00     0.016 A 
ATOM     30  C   UNL A   1      41.720  24.295  27.017  1.00  0.00     0.016 A 
ATOM     31  C   UNL A   1      42.761  26.884  27.091  1.00  0.00     0.010 A 
ATOM     32  C   UNL A   1      41.288  25.211  27.989  1.00  0.00     0.010 A 
ATOM     33  C   UNL A   1      41.843  26.504  28.072  1.00  0.00    -0.014 A 
BRANCH  33  34
ATOM     34  C   UNL A   1      41.510  27.445  29.185  1.00  0.00     0.031 A 
ATOM     35  C   UNL A   1      42.337  27.450  30.446  1.00  0.00     0.074 A 
ATOM     36  C   UNL A   1      40.490  28.322  29.066  1.00  0.00     0.049 A 
ATOM     37  N   UNL A   1      42.101  28.037  31.593  1.00  0.00    -0.248 NA
ATOM     38  C   UNL A   1      43.588  26.674  30.422  1.00  0.00     0.031 C 
ATOM     39  C   UNL A   1      39.639  28.484  27.885  1.00  0.00     0.029 A 
ATOM     40  N   UNL A   1      39.997  29.254  29.949  1.00  0.00    -0.354 N 
ATOM     41  C   UNL A   1      43.131  27.647  32.441  1.00  0.00     0.074 A 
ATOM     42  C   UNL A   1      43.990  26.765  31.682  1.00  0.00     0.031 C 
ATOM     43  C   UNL A   1      38.769  29.480  28.095  1.00  0.00     0.029 A 
ATOM     44  C   UNL A   1      38.912  29.949  29.466  1.00  0.00     0.049 A 
ATOM     45  H   UNL A   1      40.383  29.409  30.841  1.00  0.00     0.167 HD
ATOM     46  C   UNL A   1      43.339  27.995  33.734  1.00  0.00     0.037 A 
ATOM     47  C   UNL A   1      38.082  30.820  30.070  1.00  0.00     0.037 A 
ATOM     48  C   UNL A   1      42.512  28.922  34.466  1.00  0.00     0.049 A 
ATOM     49  C   UNL A   1      38.301  31.147  31.520  1.00  0.00     0.074 A 
ATOM     50  C   UNL A   1      42.649  29.355  35.774  1.00  0.00     0.029 A 
ATOM     51  N   UNL A   1      41.401  29.571  33.947  1.00  0.00    -0.354 N 
ATOM     52  N   UNL A   1      39.243  30.730  32.330  1.00  0.00    -0.248 NA
ATOM     53  C   UNL A   1      37.329  32.053  32.146  1.00  0.00     0.031 C 
ATOM     54  C   UNL A   1      41.591  30.221  36.062  1.00  0.00     0.029 A 
ATOM     55  C   UNL A   1      40.831  30.383  34.915  1.00  0.00     0.049 A 
ATOM     56  H   UNL A   1      41.067  29.470  33.026  1.00  0.00     0.167 HD
ATOM     57  C   UNL A   1      38.994  31.339  33.551  1.00  0.00     0.074 A 
ATOM     58  C   UNL A   1      37.823  32.172  33.370  1.00  0.00     0.031 C 
ATOM     59  C   UNL A   1      39.672  31.216  34.718  1.00  0.00     0.037 A 
BRANCH  46  60
ATOM     60  C   UNL A   1      44.479  27.338  34.463  1.00  0.00     0.064 A 
ATOM     61  C   UNL A   1      45.773  27.880  34.476  1.00  0.00     0.173 A 
ATOM     62  C   UNL A   1      44.258  26.159  35.193  1.00  0.00     0.173 A 
ATOM     63  F   UNL A   1      46.043  28.999  33.788  1.00  0.00    -0.203 F 
ATOM     64  C   UNL A   1      46.807  27.250  35.165  1.00  0.00     0.198 A 
ATOM     65  C   UNL A   1      45.287  25.552  35.910  1.00  0.00     0.198 A 
ATOM     66  F   UNL A   1      43.040  25.599  35.225  1.00  0.00    -0.203 F 
ATOM     67  F   UNL A   1      48.047  27.758  35.119  1.00  0.00    -0.200 F 
ATOM     68  C   UNL A   1      46.562  26.092  35.887  1.00  0.00     0.200 A 
ATOM     69  F   UNL A   1      45.041  24.442  36.623  1.00  0.00    -0.200 F 
ATOM     70  F   UNL A   1      47.557  25.493  36.557  1.00  0.00    -0.200 F 
ENDBRANCH  46  60
BRANCH  47  71
ATOM     71  C   UNL A   1      36.933  31.399  29.320  1.00  0.00     0.064 A 
ATOM     72  C   UNL A   1      36.921  32.748  28.941  1.00  0.00     0.173 A 
ATOM     73  C   UNL A   1      35.818  30.617  28.974  1.00  0.00     0.173 A 
ATOM     74  F   UNL A   1      37.949  33.545  29.270  1.00  0.00    -0.203 F 
ATOM     75  C   UNL A   1      35.835  33.295  28.261  1.00  0.00     0.198 A 
ATOM     76  C   UNL A   1      34.751  31.157  28.260  1.00  0.00     0.198 A 
ATOM     77  F   UNL A   1      35.774  29.321  29.314  1.00  0.00    -0.203 F 
ATOM     78  F   UNL A   1      35.827  34.601  27.959  1.00  0.00    -0.200 F 
ATOM     79  C   UNL A   1      34.755  32.498  27.913  1.00  0.00     0.200 A 
ATOM     80  F   UNL A   1      33.720  30.376  27.911  1.00  0.00    -0.200 F 
ATOM     81  F   UNL A   1      33.715  33.025  27.253  1.00  0.00    -0.200 F 
ENDBRANCH  47  71
BRANCH  59  82
ATOM     82  C   UNL A   1      39.195  32.043  35.877  1.00  0.00     0.064 A 
ATOM     83  C   UNL A   1      38.283  31.544  36.819  1.00  0.00     0.173 A 
ATOM     84  C   UNL A   1      39.676  33.349  36.058  1.00  0.00     0.173 A 
ATOM     85  F   UNL A   1      37.778  30.308  36.682  1.00  0.00    -0.203 F 
ATOM     86  C   UNL A   1      37.846  32.333  37.880  1.00  0.00     0.198 A 
ATOM     87  C   UNL A   1      39.266  34.121  37.141  1.00  0.00     0.198 A 
ATOM     88  F   UNL A   1      40.555  33.874  35.190  1.00  0.00    -0.203 F 
ATOM     89  F   UNL A   1      36.929  31.857  38.733  1.00  0.00    -0.200 F 
ATOM     90  C   UNL A   1      38.343  33.617  38.044  1.00  0.00     0.200 A 
ATOM     91  F   UNL A   1      39.760  35.356  37.306  1.00  0.00    -0.200 F 
ATOM     92  F   UNL A   1      37.926  34.373  39.069  1.00  0.00    -0.200 F 
ENDBRANCH  59  82
ENDBRANCH  33  34
ENDBRANCH  26  28
ENDBRANCH  25  26
ENDBRANCH  24  25
ENDBRANCH   1  24
TORSDOF 15
ENDMDL
MODEL 3
REMARK VINA RESULT:     -12.1      4.556      9.921
REMARK SMILES Cc1cccc(CN(C)c2ccc(C(=O)OCCOC(=O)c3ccc(-c4c5nc(c(-c6c(F)c(F)c(F)c(F)c6F)c6ccc([nH]6)c(-c6c(F)c(F)c(F)c(F)c6F)c6nc(c(-c7c(F)c(F)c(F)c(F)c7F)c7ccc4[nH]7)C=C6)C=C5)cc3)cc2N)n1
REMARK SMILES IDX 17 1 16 2 14 3 15 4 13 5 10 6 11 7 86 8 12 9 85 10 8 11 9 12
REMARK SMILES IDX 7 13 6 14 1 15 2 16 3 17 88 18 4 19 5 20 87 21 18 24 19 25
REMARK SMILES IDX 20 26 21 27 22 28 23 29 84 30 24 31 83 32 25 33 26 34 27 35
REMARK SMILES IDX 77 36 28 37 82 38 76 39 78 40 29 41 81 42 75 43 74 44 30 46
REMARK SMILES IDX 62 47 42 48 61 49 43 50 46 51 60 52 79 53 44 54 45 55 59 57
REMARK SMILES IDX 80 58 47 59 31 60 32 61 40 62 33 63 34 64 38 65 41 66 35 67
REMARK SMILES IDX 36 68 39 69 37 70 63 71 64 72 72 73 65 74 66 75 70 76 73 77
REMARK SMILES IDX 67 78 68 79 71 80 69 81 48 82 49 83 57 84 50 85 51 86 55 87
REMARK SMILES IDX 58 88 52 89 53 90 56 91 54 92
REMARK H PARENT 87 22 87 23 78 45 46 56
REMARK Flexibility Score: inf
ROOT
ATOM      1  C   UNL A   1      31.855  29.014  24.629  1.00  0.00     0.275 C 
ENDROOT
BRANCH   1   2
ATOM      2  O   UNL A   1      30.646  28.282  24.337  1.00  0.00    -0.458 OA
BRANCH   2   3
ATOM      3  C   UNL A   1      30.698  27.453  23.265  1.00  0.00     0.338 C 
ATOM      4  O   UNL A   1      30.429  27.743  22.107  1.00  0.00    -0.246 OA
BRANCH   3   5
ATOM      5  C   UNL A   1      31.184  26.113  23.657  1.00  0.00     0.062 A 
ATOM      6  C   UNL A   1      31.915  23.421  24.352  1.00  0.00     0.060 A 
ATOM      7  C   UNL A   1      32.215  23.988  23.102  1.00  0.00     0.029 A 
ATOM      8  C   UNL A   1      31.046  24.222  25.146  1.00  0.00     0.056 A 
ATOM      9  C   UNL A   1      31.794  25.270  22.735  1.00  0.00     0.018 A 
ATOM     10  C   UNL A   1      30.834  25.591  24.885  1.00  0.00     0.043 A 
BRANCH   6  11
ATOM     11  N   UNL A   1      32.476  22.197  24.733  1.00  0.00    -0.367 N 
ATOM     12  C   UNL A   1      32.236  20.988  23.933  1.00  0.00     0.144 C 
BRANCH  11  13
ATOM     13  C   UNL A   1      33.287  21.932  25.948  1.00  0.00     0.172 C 
BRANCH  13  14
ATOM     14  C   UNL A   1      34.793  22.135  25.869  1.00  0.00     0.060 A 
ATOM     15  C   UNL A   1      37.710  20.150  24.857  1.00  0.00     0.067 C 
ATOM     16  C   UNL A   1      36.878  21.332  25.246  1.00  0.00     0.038 A 
ATOM     17  C   UNL A   1      37.414  22.617  25.240  1.00  0.00     0.023 A 
ATOM     18  N   UNL A   1      35.591  21.077  25.579  1.00  0.00    -0.256 NA
ATOM     19  C   UNL A   1      36.617  23.679  25.645  1.00  0.00     0.004 A 
ATOM     20  C   UNL A   1      35.299  23.433  26.002  1.00  0.00     0.026 A 
ENDBRANCH  13  14
ENDBRANCH  11  13
ENDBRANCH   6  11
BRANCH   8  21
ATOM     21  N   UNL A   1      30.134  23.676  26.051  1.00  0.00    -0.397 N 
ATOM     22  H   UNL A   1      30.179  23.919  27.003  1.00  0.00     0.156 HD
ATOM     23  H   UNL A   1      29.445  23.047  25.736  1.00  0.00     0.156 HD
ENDBRANCH   8  21
ENDBRANCH   3   5
ENDBRANCH   2   3
ENDBRANCH   1   2
BRANCH   1  24
ATOM     24  C   UNL A   1      31.602  30.137  25.638  1.00  0.00     0.275 C 
BRANCH  24  25
ATOM     25  O   UNL A   1      32.534  30.054  26.732  1.00  0.00    -0.458 OA
BRANCH  25  26
ATOM     26  C   UNL A   1      33.082  31.232  27.107  1.00  0.00     0.338 C 
ATOM     27  O   UNL A   1      32.534  32.317  27.191  1.00  0.00    -0.246 OA
BRANCH  26  28
ATOM     28  C   UNL A   1      34.473  31.029  27.538  1.00  0.00     0.060 A 
ATOM     29  C   UNL A   1      34.870  29.729  27.801  1.00  0.00     0.016 A 
ATOM     30  C   UNL A   1      35.299  32.086  27.897  1.00  0.00     0.016 A 
ATOM     31  C   UNL A   1      36.001  29.467  28.562  1.00  0.00     0.010 A 
ATOM     32  C   UNL A   1      36.525  31.813  28.526  1.00  0.00     0.010 A 
ATOM     33  C   UNL A   1      36.869  30.503  28.915  1.00  0.00    -0.014 A 
BRANCH  33  34
ATOM     34  C   UNL A   1      38.095  30.205  29.717  1.00  0.00     0.031 A 
ATOM     35  C   UNL A   1      39.177  29.324  29.148  1.00  0.00     0.074 A 
ATOM     36  C   UNL A   1      38.265  30.745  30.944  1.00  0.00     0.049 A 
ATOM     37  N   UNL A   1      40.213  28.787  29.745  1.00  0.00    -0.248 NA
ATOM     38  C   UNL A   1      39.072  28.982  27.720  1.00  0.00     0.031 C 
ATOM     39  C   UNL A   1      37.340  31.668  31.605  1.00  0.00     0.029 A 
ATOM     40  N   UNL A   1      39.285  30.603  31.856  1.00  0.00    -0.354 N 
ATOM     41  C   UNL A   1      40.837  27.995  28.789  1.00  0.00     0.074 A 
ATOM     42  C   UNL A   1      40.062  28.112  27.574  1.00  0.00     0.031 C 
ATOM     43  C   UNL A   1      37.851  32.045  32.784  1.00  0.00     0.029 A 
ATOM     44  C   UNL A   1      39.080  31.300  33.023  1.00  0.00     0.049 A 
ATOM     45  H   UNL A   1      40.085  30.054  31.689  1.00  0.00     0.167 HD
ATOM     46  C   UNL A   1      41.957  27.241  28.916  1.00  0.00     0.037 A 
ATOM     47  C   UNL A   1      39.762  31.299  34.184  1.00  0.00     0.037 A 
ATOM     48  C   UNL A   1      42.759  27.177  30.112  1.00  0.00     0.049 A 
ATOM     49  C   UNL A   1      40.968  30.413  34.318  1.00  0.00     0.074 A 
ATOM     50  C   UNL A   1      43.920  26.458  30.335  1.00  0.00     0.029 A 
ATOM     51  N   UNL A   1      42.490  27.872  31.282  1.00  0.00    -0.354 N 
ATOM     52  N   UNL A   1      41.519  29.624  33.427  1.00  0.00    -0.248 NA
ATOM     53  C   UNL A   1      41.637  30.403  35.624  1.00  0.00     0.031 C 
ATOM     54  C   UNL A   1      44.322  26.674  31.657  1.00  0.00     0.029 A 
ATOM     55  C   UNL A   1      43.450  27.580  32.238  1.00  0.00     0.049 A 
ATOM     56  H   UNL A   1      41.728  28.482  31.415  1.00  0.00     0.167 HD
ATOM     57  C   UNL A   1      42.610  29.043  34.056  1.00  0.00     0.074 A 
ATOM     58  C   UNL A   1      42.657  29.587  35.398  1.00  0.00     0.031 C 
ATOM     59  C   UNL A   1      43.491  28.137  33.566  1.00  0.00     0.037 A 
BRANCH  46  60
ATOM     60  C   UNL A   1      42.361  26.383  27.748  1.00  0.00     0.064 A 
ATOM     61  C   UNL A   1      41.785  25.127  27.504  1.00  0.00     0.173 A 
ATOM     62  C   UNL A   1      43.321  26.849  26.834  1.00  0.00     0.173 A 
ATOM     63  F   UNL A   1      40.872  24.628  28.350  1.00  0.00    -0.203 F 
ATOM     64  C   UNL A   1      42.178  24.359  26.411  1.00  0.00     0.198 A 
ATOM     65  C   UNL A   1      43.684  26.094  25.722  1.00  0.00     0.198 A 
ATOM     66  F   UNL A   1      43.898  28.047  27.011  1.00  0.00    -0.203 F 
ATOM     67  F   UNL A   1      41.653  23.138  26.229  1.00  0.00    -0.200 F 
ATOM     68  C   UNL A   1      43.121  24.845  25.517  1.00  0.00     0.200 A 
ATOM     69  F   UNL A   1      44.582  26.576  24.850  1.00  0.00    -0.200 F 
ATOM     70  F   UNL A   1      43.489  24.108  24.460  1.00  0.00    -0.200 F 
ENDBRANCH  46  60
BRANCH  47  71
ATOM     71  C   UNL A   1      39.287  32.122  35.331  1.00  0.00     0.064 A 
ATOM     72  C   UNL A   1      39.633  33.476  35.442  1.00  0.00     0.173 A 
ATOM     73  C   UNL A   1      38.484  31.571  36.343  1.00  0.00     0.173 A 
ATOM     74  F   UNL A   1      40.420  34.044  34.517  1.00  0.00    -0.203 F 
ATOM     75  C   UNL A   1      39.208  34.240  36.527  1.00  0.00     0.198 A 
ATOM     76  C   UNL A   1      38.029  32.347  37.406  1.00  0.00     0.198 A 
ATOM     77  F   UNL A   1      38.125  30.280  36.288  1.00  0.00    -0.203 F 
ATOM     78  F   UNL A   1      39.599  35.518  36.637  1.00  0.00    -0.200 F 
ATOM     79  C   UNL A   1      38.400  33.678  37.503  1.00  0.00     0.200 A 
ATOM     80  F   UNL A   1      37.232  31.803  38.336  1.00  0.00    -0.200 F 
ATOM     81  F   UNL A   1      37.987  34.417  38.542  1.00  0.00    -0.200 F 
ENDBRANCH  47  71
BRANCH  59  82
ATOM     82  C   UNL A   1      44.615  27.718  34.471  1.00  0.00     0.064 A 
ATOM     83  C   UNL A   1      45.844  28.396  34.490  1.00  0.00     0.173 A 
ATOM     84  C   UNL A   1      44.450  26.635  35.346  1.00  0.00     0.173 A 
ATOM     85  F   UNL A   1      46.059  29.428  33.659  1.00  0.00    -0.203 F 
ATOM     86  C   UNL A   1      46.875  27.982  35.329  1.00  0.00     0.198 A 
ATOM     87  C   UNL A   1      45.471  26.248  36.210  1.00  0.00     0.198 A 
ATOM     88  F   UNL A   1      43.293  25.955  35.372  1.00  0.00    -0.203 F 
ATOM     89  F   UNL A   1      48.060  28.607  35.287  1.00  0.00    -0.200 F 
ATOM     90  C   UNL A   1      46.686  26.915  36.192  1.00  0.00     0.200 A 
ATOM     91  F   UNL A   1      45.280  25.226  37.055  1.00  0.00    -0.200 F 
ATOM     92  F   UNL A   1      47.678  26.523  37.004  1.00  0.00    -0.200 F 
ENDBRANCH  59  82
ENDBRANCH  33  34
ENDBRANCH  26  28
ENDBRANCH  25  26
ENDBRANCH  24  25
ENDBRANCH   1  24
TORSDOF 15
ENDMDL
