MODEL 1
REMARK VINA RESULT:     -11.0      0.000      0.000
REMARK SMILES Cc1cc(F)ccc1-n1ccc(C)c(C(=O)OCCOC(=O)c2ccc(-c3c4nc(c(-c5c(F)c(F)c(F)c(F)c5F)c5ccc([nH]5)c(-c5c(F)c(F)c(F)c(F)c5F)c5nc(c(-c6c(F)c(F)c(F)c(F)c6F)c6ccc3[nH]6)C=C5)C=C4)cc2)c1=O
REMARK SMILES IDX 19 1 18 2 17 3 15 4 16 5 14 6 9 7 10 8 86 9 11 10 87 11
REMARK SMILES IDX 12 12 13 13 8 14 1 15 2 16 3 17 4 18 7 19 5 20 6 21 20 22
REMARK SMILES IDX 21 23 22 24 23 25 24 26 85 27 25 28 84 29 26 30 27 31 28 32
REMARK SMILES IDX 78 33 29 34 83 35 77 36 79 37 30 38 82 39 76 40 75 41 31 43
REMARK SMILES IDX 63 44 43 45 62 46 44 47 47 48 61 49 80 50 45 51 46 52 60 54
REMARK SMILES IDX 81 55 48 56 32 57 33 58 41 59 34 60 35 61 39 62 42 63 36 64
REMARK SMILES IDX 37 65 40 66 38 67 64 68 65 69 73 70 66 71 67 72 71 73 74 74
REMARK SMILES IDX 68 75 69 76 72 77 70 78 49 79 50 80 58 81 51 82 52 83 56 84
REMARK SMILES IDX 59 85 53 86 54 87 57 88 55 89
REMARK H PARENT 79 42 47 53
REMARK Flexibility Score: inf
ROOT
ATOM      1  C   UNL A   1      35.016  32.327  31.770  1.00  0.00     0.275 C 
ENDROOT
BRANCH   1   2
ATOM      2  C   UNL A   1      35.616  32.797  33.106  1.00  0.00     0.275 C 
BRANCH   2   3
ATOM      3  O   UNL A   1      36.764  32.042  33.572  1.00  0.00    -0.458 OA
BRANCH   3   4
ATOM      4  C   UNL A   1      37.313  32.443  34.756  1.00  0.00     0.344 C 
ATOM      5  O   UNL A   1      36.699  32.864  35.729  1.00  0.00    -0.246 OA
BRANCH   4   6
ATOM      6  C   UNL A   1      38.802  32.382  34.695  1.00  0.00     0.128 A 
ATOM      7  N   UNL A   1      40.856  31.025  34.817  1.00  0.00    -0.283 N 
ATOM      8  C   UNL A   1      41.599  32.124  34.444  1.00  0.00     0.095 A 
ATOM      9  C   UNL A   1      39.462  31.068  34.995  1.00  0.00     0.270 A 
ATOM     10  C   UNL A   1      41.015  33.287  34.182  1.00  0.00     0.023 A 
ATOM     11  O   UNL A   1      38.775  30.109  35.350  1.00  0.00    -0.268 OA
ATOM     12  C   UNL A   1      39.579  33.401  34.262  1.00  0.00    -0.029 A 
ATOM     13  C   UNL A   1      39.090  34.711  33.782  1.00  0.00     0.045 C 
BRANCH   7  14
ATOM     14  C   UNL A   1      41.541  29.807  35.016  1.00  0.00     0.052 A 
ATOM     15  C   UNL A   1      42.738  30.723  37.091  1.00  0.00     0.047 C 
ATOM     16  C   UNL A   1      42.398  29.626  36.119  1.00  0.00    -0.024 A 
ATOM     17  C   UNL A   1      42.932  28.348  36.331  1.00  0.00     0.044 A 
ATOM     18  C   UNL A   1      42.591  27.292  35.488  1.00  0.00     0.123 A 
ATOM     19  C   UNL A   1      41.193  28.732  34.184  1.00  0.00     0.030 A 
ATOM     20  F   UNL A   1      43.092  26.074  35.726  1.00  0.00    -0.207 F 
ATOM     21  C   UNL A   1      41.725  27.471  34.418  1.00  0.00     0.041 A 
ENDBRANCH   7  14
ENDBRANCH   4   6
ENDBRANCH   3   4
ENDBRANCH   2   3
ENDBRANCH   1   2
BRANCH   1  22
ATOM     22  O   UNL A   1      35.790  31.247  31.228  1.00  0.00    -0.458 OA
BRANCH  22  23
ATOM     23  C   UNL A   1      36.127  31.334  29.925  1.00  0.00     0.338 C 
ATOM     24  O   UNL A   1      36.219  32.345  29.234  1.00  0.00    -0.246 OA
BRANCH  23  25
ATOM     25  C   UNL A   1      36.800  30.065  29.631  1.00  0.00     0.060 A 
ATOM     26  C   UNL A   1      37.257  29.175  30.611  1.00  0.00     0.016 A 
ATOM     27  C   UNL A   1      37.216  29.937  28.317  1.00  0.00     0.016 A 
ATOM     28  C   UNL A   1      38.312  28.298  30.306  1.00  0.00     0.010 A 
ATOM     29  C   UNL A   1      38.207  29.025  28.023  1.00  0.00     0.010 A 
ATOM     30  C   UNL A   1      38.862  28.313  29.025  1.00  0.00    -0.014 A 
BRANCH  30  31
ATOM     31  C   UNL A   1      40.186  27.799  28.639  1.00  0.00     0.031 A 
ATOM     32  C   UNL A   1      40.418  26.367  28.358  1.00  0.00     0.074 A 
ATOM     33  C   UNL A   1      41.192  28.651  28.322  1.00  0.00     0.049 A 
ATOM     34  N   UNL A   1      41.540  25.762  28.571  1.00  0.00    -0.248 NA
ATOM     35  C   UNL A   1      39.393  25.500  27.806  1.00  0.00     0.031 C 
ATOM     36  C   UNL A   1      42.449  28.322  27.646  1.00  0.00     0.029 A 
ATOM     37  N   UNL A   1      41.329  30.004  28.641  1.00  0.00    -0.354 N 
ATOM     38  C   UNL A   1      41.479  24.522  27.971  1.00  0.00     0.074 A 
ATOM     39  C   UNL A   1      40.084  24.369  27.623  1.00  0.00     0.031 C 
ATOM     40  C   UNL A   1      43.326  29.319  27.827  1.00  0.00     0.029 A 
ATOM     41  C   UNL A   1      42.715  30.298  28.701  1.00  0.00     0.049 A 
ATOM     42  H   UNL A   1      40.594  30.641  28.794  1.00  0.00     0.167 HD
ATOM     43  C   UNL A   1      42.637  23.825  27.747  1.00  0.00     0.037 A 
ATOM     44  C   UNL A   1      43.264  30.746  29.869  1.00  0.00     0.037 A 
ATOM     45  C   UNL A   1      43.808  24.595  28.197  1.00  0.00     0.049 A 
ATOM     46  C   UNL A   1      44.033  29.692  30.627  1.00  0.00     0.074 A 
ATOM     47  C   UNL A   1      44.786  25.318  27.534  1.00  0.00     0.029 A 
ATOM     48  N   UNL A   1      43.962  24.887  29.542  1.00  0.00    -0.354 N 
ATOM     49  N   UNL A   1      44.427  28.548  30.145  1.00  0.00    -0.248 NA
ATOM     50  C   UNL A   1      44.254  29.817  32.068  1.00  0.00     0.031 C 
ATOM     51  C   UNL A   1      45.478  26.106  28.499  1.00  0.00     0.029 A 
ATOM     52  C   UNL A   1      44.945  25.839  29.750  1.00  0.00     0.049 A 
ATOM     53  H   UNL A   1      43.438  24.468  30.262  1.00  0.00     0.167 HD
ATOM     54  C   UNL A   1      44.778  27.743  31.197  1.00  0.00     0.074 A 
ATOM     55  C   UNL A   1      44.627  28.571  32.379  1.00  0.00     0.031 C 
ATOM     56  C   UNL A   1      45.111  26.426  31.071  1.00  0.00     0.037 A 
BRANCH  43  57
ATOM     57  C   UNL A   1      42.817  22.524  26.965  1.00  0.00     0.064 A 
ATOM     58  C   UNL A   1      42.126  21.357  27.374  1.00  0.00     0.173 A 
ATOM     59  C   UNL A   1      43.660  22.320  25.854  1.00  0.00     0.173 A 
ATOM     60  F   UNL A   1      41.219  21.392  28.361  1.00  0.00    -0.203 F 
ATOM     61  C   UNL A   1      42.324  20.103  26.782  1.00  0.00     0.198 A 
ATOM     62  C   UNL A   1      43.849  21.069  25.252  1.00  0.00     0.198 A 
ATOM     63  F   UNL A   1      44.345  23.304  25.277  1.00  0.00    -0.203 F 
ATOM     64  F   UNL A   1      41.663  19.034  27.246  1.00  0.00    -0.200 F 
ATOM     65  C   UNL A   1      43.197  19.956  25.726  1.00  0.00     0.200 A 
ATOM     66  F   UNL A   1      44.682  20.962  24.206  1.00  0.00    -0.200 F 
ATOM     67  F   UNL A   1      43.400  18.758  25.162  1.00  0.00    -0.200 F 
ENDBRANCH  43  57
BRANCH  44  68
ATOM     68  C   UNL A   1      42.358  31.720  30.525  1.00  0.00     0.064 A 
ATOM     69  C   UNL A   1      42.454  33.048  30.080  1.00  0.00     0.173 A 
ATOM     70  C   UNL A   1      41.150  31.282  31.086  1.00  0.00     0.173 A 
ATOM     71  F   UNL A   1      43.618  33.515  29.601  1.00  0.00    -0.203 F 
ATOM     72  C   UNL A   1      41.314  33.827  29.975  1.00  0.00     0.198 A 
ATOM     73  C   UNL A   1      40.021  32.082  31.010  1.00  0.00     0.198 A 
ATOM     74  F   UNL A   1      41.020  30.033  31.559  1.00  0.00    -0.203 F 
ATOM     75  F   UNL A   1      41.373  35.023  29.374  1.00  0.00    -0.200 F 
ATOM     76  C   UNL A   1      40.094  33.328  30.407  1.00  0.00     0.200 A 
ATOM     77  F   UNL A   1      38.845  31.610  31.444  1.00  0.00    -0.200 F 
ATOM     78  F   UNL A   1      38.981  34.049  30.229  1.00  0.00    -0.200 F 
ENDBRANCH  44  68
BRANCH  56  79
ATOM     79  C   UNL A   1      45.600  25.644  32.259  1.00  0.00     0.064 A 
ATOM     80  C   UNL A   1      46.973  25.568  32.569  1.00  0.00     0.173 A 
ATOM     81  C   UNL A   1      44.743  24.904  33.093  1.00  0.00     0.173 A 
ATOM     82  F   UNL A   1      47.893  26.139  31.776  1.00  0.00    -0.203 F 
ATOM     83  C   UNL A   1      47.443  24.907  33.703  1.00  0.00     0.198 A 
ATOM     84  C   UNL A   1      45.225  24.177  34.184  1.00  0.00     0.198 A 
ATOM     85  F   UNL A   1      43.417  24.886  32.897  1.00  0.00    -0.203 F 
ATOM     86  F   UNL A   1      48.746  24.964  34.012  1.00  0.00    -0.200 F 
ATOM     87  C   UNL A   1      46.568  24.204  34.506  1.00  0.00     0.200 A 
ATOM     88  F   UNL A   1      44.373  23.461  34.931  1.00  0.00    -0.200 F 
ATOM     89  F   UNL A   1      47.020  23.551  35.585  1.00  0.00    -0.200 F 
ENDBRANCH  56  79
ENDBRANCH  30  31
ENDBRANCH  23  25
ENDBRANCH  22  23
ENDBRANCH   1  22
TORSDOF 12
ENDMDL
MODEL 2
REMARK VINA RESULT:     -11.0      3.377      6.559
REMARK SMILES Cc1cc(F)ccc1-n1ccc(C)c(C(=O)OCCOC(=O)c2ccc(-c3c4nc(c(-c5c(F)c(F)c(F)c(F)c5F)c5ccc([nH]5)c(-c5c(F)c(F)c(F)c(F)c5F)c5nc(c(-c6c(F)c(F)c(F)c(F)c6F)c6ccc3[nH]6)C=C5)C=C4)cc2)c1=O
REMARK SMILES IDX 19 1 18 2 17 3 15 4 16 5 14 6 9 7 10 8 86 9 11 10 87 11
REMARK SMILES IDX 12 12 13 13 8 14 1 15 2 16 3 17 4 18 7 19 5 20 6 21 20 22
REMARK SMILES IDX 21 23 22 24 23 25 24 26 85 27 25 28 84 29 26 30 27 31 28 32
REMARK SMILES IDX 78 33 29 34 83 35 77 36 79 37 30 38 82 39 76 40 75 41 31 43
REMARK SMILES IDX 63 44 43 45 62 46 44 47 47 48 61 49 80 50 45 51 46 52 60 54
REMARK SMILES IDX 81 55 48 56 32 57 33 58 41 59 34 60 35 61 39 62 42 63 36 64
REMARK SMILES IDX 37 65 40 66 38 67 64 68 65 69 73 70 66 71 67 72 71 73 74 74
REMARK SMILES IDX 68 75 69 76 72 77 70 78 49 79 50 80 58 81 51 82 52 83 56 84
REMARK SMILES IDX 59 85 53 86 54 87 57 88 55 89
REMARK H PARENT 79 42 47 53
REMARK Flexibility Score: inf
ROOT
ATOM      1  C   UNL A   1      34.228  30.753  27.984  1.00  0.00     0.275 C 
ENDROOT
BRANCH   1   2
ATOM      2  C   UNL A   1      33.859  30.011  26.689  1.00  0.00     0.275 C 
BRANCH   2   3
ATOM      3  O   UNL A   1      33.853  28.563  26.782  1.00  0.00    -0.458 OA
BRANCH   3   4
ATOM      4  C   UNL A   1      32.780  27.925  26.229  1.00  0.00     0.344 C 
ATOM      5  O   UNL A   1      31.630  27.951  26.650  1.00  0.00    -0.246 OA
BRANCH   4   6
ATOM      6  C   UNL A   1      33.203  27.101  25.060  1.00  0.00     0.128 A 
ATOM      7  N   UNL A   1      33.709  24.875  24.131  1.00  0.00    -0.283 N 
ATOM      8  C   UNL A   1      33.842  25.433  22.877  1.00  0.00     0.095 A 
ATOM      9  C   UNL A   1      33.421  25.632  25.279  1.00  0.00     0.270 A 
ATOM     10  C   UNL A   1      33.653  26.732  22.685  1.00  0.00     0.023 A 
ATOM     11  O   UNL A   1      33.318  25.165  26.414  1.00  0.00    -0.268 OA
ATOM     12  C   UNL A   1      33.275  27.574  23.794  1.00  0.00    -0.029 A 
ATOM     13  C   UNL A   1      32.949  28.952  23.371  1.00  0.00     0.045 C 
BRANCH   7  14
ATOM     14  C   UNL A   1      33.862  23.476  24.245  1.00  0.00     0.052 A 
ATOM     15  C   UNL A   1      36.341  23.713  24.856  1.00  0.00     0.047 C 
ATOM     16  C   UNL A   1      35.088  22.909  24.639  1.00  0.00    -0.024 A 
ATOM     17  C   UNL A   1      35.127  21.527  24.869  1.00  0.00     0.044 A 
ATOM     18  C   UNL A   1      33.972  20.757  24.739  1.00  0.00     0.123 A 
ATOM     19  C   UNL A   1      32.702  22.693  24.133  1.00  0.00     0.030 A 
ATOM     20  F   UNL A   1      34.027  19.443  24.990  1.00  0.00    -0.207 F 
ATOM     21  C   UNL A   1      32.761  21.328  24.376  1.00  0.00     0.041 A 
ENDBRANCH   7  14
ENDBRANCH   4   6
ENDBRANCH   3   4
ENDBRANCH   2   3
ENDBRANCH   1   2
BRANCH   1  22
ATOM     22  O   UNL A   1      35.619  31.103  27.980  1.00  0.00    -0.458 OA
BRANCH  22  23
ATOM     23  C   UNL A   1      36.281  30.980  29.149  1.00  0.00     0.338 C 
ATOM     24  O   UNL A   1      36.069  31.572  30.204  1.00  0.00    -0.246 OA
BRANCH  23  25
ATOM     25  C   UNL A   1      36.981  29.696  29.045  1.00  0.00     0.060 A 
ATOM     26  C   UNL A   1      37.415  28.950  30.147  1.00  0.00     0.016 A 
ATOM     27  C   UNL A   1      37.444  29.406  27.773  1.00  0.00     0.016 A 
ATOM     28  C   UNL A   1      38.492  28.059  29.995  1.00  0.00     0.010 A 
ATOM     29  C   UNL A   1      38.458  28.480  27.634  1.00  0.00     0.010 A 
ATOM     30  C   UNL A   1      39.087  27.917  28.742  1.00  0.00    -0.014 A 
BRANCH  30  31
ATOM     31  C   UNL A   1      40.430  27.381  28.471  1.00  0.00     0.031 A 
ATOM     32  C   UNL A   1      40.650  25.963  28.119  1.00  0.00     0.074 A 
ATOM     33  C   UNL A   1      41.490  28.214  28.327  1.00  0.00     0.049 A 
ATOM     34  N   UNL A   1      41.723  25.304  28.413  1.00  0.00    -0.248 NA
ATOM     35  C   UNL A   1      39.669  25.172  27.397  1.00  0.00     0.031 C 
ATOM     36  C   UNL A   1      42.805  27.884  27.773  1.00  0.00     0.029 A 
ATOM     37  N   UNL A   1      41.629  29.537  28.751  1.00  0.00    -0.354 N 
ATOM     38  C   UNL A   1      41.693  24.109  27.725  1.00  0.00     0.074 A 
ATOM     39  C   UNL A   1      40.343  24.031  27.215  1.00  0.00     0.031 C 
ATOM     40  C   UNL A   1      43.685  28.834  28.118  1.00  0.00     0.029 A 
ATOM     41  C   UNL A   1      43.008  29.775  28.985  1.00  0.00     0.049 A 
ATOM     42  H   UNL A   1      40.901  30.190  28.866  1.00  0.00     0.167 HD
ATOM     43  C   UNL A   1      42.848  23.386  27.583  1.00  0.00     0.037 A 
ATOM     44  C   UNL A   1      43.434  30.126  30.235  1.00  0.00     0.037 A 
ATOM     45  C   UNL A   1      43.983  24.082  28.212  1.00  0.00     0.049 A 
ATOM     46  C   UNL A   1      44.081  28.997  30.998  1.00  0.00     0.074 A 
ATOM     47  C   UNL A   1      45.050  24.810  27.713  1.00  0.00     0.029 A 
ATOM     48  N   UNL A   1      43.993  24.278  29.583  1.00  0.00    -0.354 N 
ATOM     49  N   UNL A   1      44.494  27.873  30.485  1.00  0.00    -0.248 NA
ATOM     50  C   UNL A   1      44.141  29.019  32.460  1.00  0.00     0.031 C 
ATOM     51  C   UNL A   1      45.652  25.507  28.802  1.00  0.00     0.029 A 
ATOM     52  C   UNL A   1      44.974  25.179  29.964  1.00  0.00     0.049 A 
ATOM     53  H   UNL A   1      43.378  23.834  30.210  1.00  0.00     0.167 HD
ATOM     54  C   UNL A   1      44.700  26.988  31.512  1.00  0.00     0.074 A 
ATOM     55  C   UNL A   1      44.440  27.743  32.724  1.00  0.00     0.031 C 
ATOM     56  C   UNL A   1      45.006  25.671  31.332  1.00  0.00     0.037 A 
BRANCH  43  57
ATOM     57  C   UNL A   1      43.078  22.134  26.738  1.00  0.00     0.064 A 
ATOM     58  C   UNL A   1      42.364  20.945  27.035  1.00  0.00     0.173 A 
ATOM     59  C   UNL A   1      43.987  21.993  25.670  1.00  0.00     0.173 A 
ATOM     60  F   UNL A   1      41.399  20.924  27.965  1.00  0.00    -0.203 F 
ATOM     61  C   UNL A   1      42.600  19.728  26.382  1.00  0.00     0.198 A 
ATOM     62  C   UNL A   1      44.214  20.780  25.008  1.00  0.00     0.198 A 
ATOM     63  F   UNL A   1      44.704  23.008  25.195  1.00  0.00    -0.203 F 
ATOM     64  F   UNL A   1      41.913  18.635  26.742  1.00  0.00    -0.200 F 
ATOM     65  C   UNL A   1      43.535  19.642  25.375  1.00  0.00     0.200 A 
ATOM     66  F   UNL A   1      45.110  20.733  24.010  1.00  0.00    -0.200 F 
ATOM     67  F   UNL A   1      43.775  18.479  24.754  1.00  0.00    -0.200 F 
ENDBRANCH  43  57
BRANCH  44  68
ATOM     68  C   UNL A   1      42.488  31.088  30.852  1.00  0.00     0.064 A 
ATOM     69  C   UNL A   1      42.590  32.418  30.415  1.00  0.00     0.173 A 
ATOM     70  C   UNL A   1      41.261  30.635  31.357  1.00  0.00     0.173 A 
ATOM     71  F   UNL A   1      43.768  32.899  29.991  1.00  0.00    -0.203 F 
ATOM     72  C   UNL A   1      41.447  33.185  30.261  1.00  0.00     0.198 A 
ATOM     73  C   UNL A   1      40.128  31.422  31.233  1.00  0.00     0.198 A 
ATOM     74  F   UNL A   1      41.124  29.382  31.820  1.00  0.00    -0.203 F 
ATOM     75  F   UNL A   1      41.520  34.383  29.666  1.00  0.00    -0.200 F 
ATOM     76  C   UNL A   1      40.215  32.671  30.636  1.00  0.00     0.200 A 
ATOM     77  F   UNL A   1      38.939  30.936  31.612  1.00  0.00    -0.200 F 
ATOM     78  F   UNL A   1      39.103  33.380  30.410  1.00  0.00    -0.200 F 
ENDBRANCH  44  68
BRANCH  56  79
ATOM     79  C   UNL A   1      45.334  24.796  32.511  1.00  0.00     0.064 A 
ATOM     80  C   UNL A   1      46.528  24.970  33.241  1.00  0.00     0.173 A 
ATOM     81  C   UNL A   1      44.516  23.729  32.923  1.00  0.00     0.173 A 
ATOM     82  F   UNL A   1      47.439  25.882  32.866  1.00  0.00    -0.203 F 
ATOM     83  C   UNL A   1      46.821  24.217  34.376  1.00  0.00     0.198 A 
ATOM     84  C   UNL A   1      44.850  22.925  34.014  1.00  0.00     0.198 A 
ATOM     85  F   UNL A   1      43.359  23.453  32.305  1.00  0.00    -0.203 F 
ATOM     86  F   UNL A   1      47.914  24.502  35.098  1.00  0.00    -0.200 F 
ATOM     87  C   UNL A   1      45.985  23.187  34.757  1.00  0.00     0.200 A 
ATOM     88  F   UNL A   1      44.055  21.900  34.350  1.00  0.00    -0.200 F 
ATOM     89  F   UNL A   1      46.274  22.449  35.837  1.00  0.00    -0.200 F 
ENDBRANCH  56  79
ENDBRANCH  30  31
ENDBRANCH  23  25
ENDBRANCH  22  23
ENDBRANCH   1  22
TORSDOF 12
ENDMDL
MODEL 3
REMARK VINA RESULT:     -10.9      3.956     10.789
REMARK SMILES Cc1cc(F)ccc1-n1ccc(C)c(C(=O)OCCOC(=O)c2ccc(-c3c4nc(c(-c5c(F)c(F)c(F)c(F)c5F)c5ccc([nH]5)c(-c5c(F)c(F)c(F)c(F)c5F)c5nc(c(-c6c(F)c(F)c(F)c(F)c6F)c6ccc3[nH]6)C=C5)C=C4)cc2)c1=O
REMARK SMILES IDX 19 1 18 2 17 3 15 4 16 5 14 6 9 7 10 8 86 9 11 10 87 11
REMARK SMILES IDX 12 12 13 13 8 14 1 15 2 16 3 17 4 18 7 19 5 20 6 21 20 22
REMARK SMILES IDX 21 23 22 24 23 25 24 26 85 27 25 28 84 29 26 30 27 31 28 32
REMARK SMILES IDX 78 33 29 34 83 35 77 36 79 37 30 38 82 39 76 40 75 41 31 43
REMARK SMILES IDX 63 44 43 45 62 46 44 47 47 48 61 49 80 50 45 51 46 52 60 54
REMARK SMILES IDX 81 55 48 56 32 57 33 58 41 59 34 60 35 61 39 62 42 63 36 64
REMARK SMILES IDX 37 65 40 66 38 67 64 68 65 69 73 70 66 71 67 72 71 73 74 74
REMARK SMILES IDX 68 75 69 76 72 77 70 78 49 79 50 80 58 81 51 82 52 83 56 84
REMARK SMILES IDX 59 85 53 86 54 87 57 88 55 89
REMARK H PARENT 79 42 47 53
REMARK Flexibility Score: inf
ROOT
ATOM      1  C   UNL A   1      43.347  23.575  24.941  1.00  0.00     0.275 C 
ENDROOT
BRANCH   1   2
ATOM      2  C   UNL A   1      44.810  24.030  25.065  1.00  0.00     0.275 C 
BRANCH   2   3
ATOM      3  O   UNL A   1      45.017  25.466  25.070  1.00  0.00    -0.458 OA
BRANCH   3   4
ATOM      4  C   UNL A   1      46.314  25.892  25.036  1.00  0.00     0.344 C 
ATOM      5  O   UNL A   1      47.160  25.559  24.215  1.00  0.00    -0.246 OA
BRANCH   4   6
ATOM      6  C   UNL A   1      46.609  26.777  26.199  1.00  0.00     0.128 A 
ATOM      7  N   UNL A   1      46.458  29.010  27.232  1.00  0.00    -0.283 N 
ATOM      8  C   UNL A   1      46.975  28.498  28.403  1.00  0.00     0.095 A 
ATOM      9  C   UNL A   1      46.268  28.234  26.075  1.00  0.00     0.270 A 
ATOM     10  C   UNL A   1      47.280  27.211  28.510  1.00  0.00     0.023 A 
ATOM     11  O   UNL A   1      45.830  28.668  25.010  1.00  0.00    -0.268 OA
ATOM     12  C   UNL A   1      47.042  26.323  27.397  1.00  0.00    -0.029 A 
ATOM     13  C   UNL A   1      47.283  24.907  27.744  1.00  0.00     0.045 C 
BRANCH   7  14
ATOM     14  C   UNL A   1      46.099  30.375  27.216  1.00  0.00     0.052 A 
ATOM     15  C   UNL A   1      48.553  31.104  27.053  1.00  0.00     0.047 C 
ATOM     16  C   UNL A   1      47.074  31.381  27.078  1.00  0.00    -0.024 A 
ATOM     17  C   UNL A   1      46.634  32.703  26.926  1.00  0.00     0.044 A 
ATOM     18  C   UNL A   1      45.271  32.993  26.882  1.00  0.00     0.123 A 
ATOM     19  C   UNL A   1      44.730  30.677  27.154  1.00  0.00     0.030 A 
ATOM     20  F   UNL A   1      44.874  34.259  26.710  1.00  0.00    -0.207 F 
ATOM     21  C   UNL A   1      44.316  31.992  26.992  1.00  0.00     0.041 A 
ENDBRANCH   7  14
ENDBRANCH   4   6
ENDBRANCH   3   4
ENDBRANCH   2   3
ENDBRANCH   1   2
BRANCH   1  22
ATOM     22  O   UNL A   1      42.464  24.591  25.437  1.00  0.00    -0.458 OA
BRANCH  22  23
ATOM     23  C   UNL A   1      41.569  24.217  26.373  1.00  0.00     0.338 C 
ATOM     24  O   UNL A   1      41.622  23.246  27.125  1.00  0.00    -0.246 OA
BRANCH  23  25
ATOM     25  C   UNL A   1      40.776  25.423  26.632  1.00  0.00     0.060 A 
ATOM     26  C   UNL A   1      41.108  26.695  26.153  1.00  0.00     0.016 A 
ATOM     27  C   UNL A   1      39.827  25.271  27.629  1.00  0.00     0.016 A 
ATOM     28  C   UNL A   1      40.648  27.831  26.841  1.00  0.00     0.010 A 
ATOM     29  C   UNL A   1      39.336  26.401  28.250  1.00  0.00     0.010 A 
ATOM     30  C   UNL A   1      39.847  27.666  27.970  1.00  0.00    -0.014 A 
BRANCH  30  31
ATOM     31  C   UNL A   1      39.617  28.662  29.029  1.00  0.00     0.031 A 
ATOM     32  C   UNL A   1      38.632  29.752  28.878  1.00  0.00     0.074 A 
ATOM     33  C   UNL A   1      40.149  28.491  30.265  1.00  0.00     0.049 A 
ATOM     34  N   UNL A   1      38.751  30.916  29.429  1.00  0.00    -0.248 NA
ATOM     35  C   UNL A   1      37.421  29.612  28.089  1.00  0.00     0.031 C 
ATOM     36  C   UNL A   1      39.786  29.208  31.490  1.00  0.00     0.029 A 
ATOM     37  N   UNL A   1      41.218  27.682  30.655  1.00  0.00    -0.354 N 
ATOM     38  C   UNL A   1      37.552  31.583  29.286  1.00  0.00     0.074 A 
ATOM     39  C   UNL A   1      36.813  30.777  28.341  1.00  0.00     0.031 C 
ATOM     40  C   UNL A   1      40.748  29.034  32.408  1.00  0.00     0.029 A 
ATOM     41  C   UNL A   1      41.818  28.276  31.795  1.00  0.00     0.049 A 
ATOM     42  H   UNL A   1      41.504  26.848  30.218  1.00  0.00     0.167 HD
ATOM     43  C   UNL A   1      37.294  32.677  30.069  1.00  0.00     0.037 A 
ATOM     44  C   UNL A   1      43.124  28.676  31.745  1.00  0.00     0.037 A 
ATOM     45  C   UNL A   1      38.410  32.935  30.994  1.00  0.00     0.049 A 
ATOM     46  C   UNL A   1      43.300  30.165  31.580  1.00  0.00     0.074 A 
ATOM     47  C   UNL A   1      38.594  32.720  32.349  1.00  0.00     0.029 A 
ATOM     48  N   UNL A   1      39.651  33.290  30.490  1.00  0.00    -0.354 N 
ATOM     49  N   UNL A   1      42.374  31.063  31.759  1.00  0.00    -0.248 NA
ATOM     50  C   UNL A   1      44.535  30.715  31.021  1.00  0.00     0.031 C 
ATOM     51  C   UNL A   1      39.982  32.877  32.633  1.00  0.00     0.029 A 
ATOM     52  C   UNL A   1      40.636  33.220  31.461  1.00  0.00     0.049 A 
ATOM     53  H   UNL A   1      39.813  33.560  29.558  1.00  0.00     0.167 HD
ATOM     54  C   UNL A   1      42.805  32.236  31.196  1.00  0.00     0.074 A 
ATOM     55  C   UNL A   1      44.150  31.961  30.725  1.00  0.00     0.031 C 
ATOM     56  C   UNL A   1      42.033  33.354  31.079  1.00  0.00     0.037 A 
BRANCH  43  57
ATOM     57  C   UNL A   1      35.988  33.461  30.190  1.00  0.00     0.064 A 
ATOM     58  C   UNL A   1      35.440  34.094  29.047  1.00  0.00     0.173 A 
ATOM     59  C   UNL A   1      35.243  33.679  31.366  1.00  0.00     0.173 A 
ATOM     60  F   UNL A   1      35.974  33.921  27.829  1.00  0.00    -0.203 F 
ATOM     61  C   UNL A   1      34.311  34.922  29.098  1.00  0.00     0.198 A 
ATOM     62  C   UNL A   1      34.107  34.496  31.417  1.00  0.00     0.198 A 
ATOM     63  F   UNL A   1      35.554  33.118  32.532  1.00  0.00    -0.203 F 
ATOM     64  F   UNL A   1      33.871  35.519  27.982  1.00  0.00    -0.200 F 
ATOM     65  C   UNL A   1      33.650  35.134  30.288  1.00  0.00     0.200 A 
ATOM     66  F   UNL A   1      33.465  34.661  32.584  1.00  0.00    -0.200 F 
ATOM     67  F   UNL A   1      32.578  35.935  30.347  1.00  0.00    -0.200 F 
ENDBRANCH  43  57
BRANCH  44  68
ATOM     68  C   UNL A   1      43.943  27.675  31.019  1.00  0.00     0.064 A 
ATOM     69  C   UNL A   1      44.372  26.569  31.770  1.00  0.00     0.173 A 
ATOM     70  C   UNL A   1      43.809  27.537  29.630  1.00  0.00     0.173 A 
ATOM     71  F   UNL A   1      44.576  26.690  33.091  1.00  0.00    -0.203 F 
ATOM     72  C   UNL A   1      44.426  25.314  31.186  1.00  0.00     0.198 A 
ATOM     73  C   UNL A   1      43.899  26.283  29.048  1.00  0.00     0.198 A 
ATOM     74  F   UNL A   1      43.435  28.574  28.866  1.00  0.00    -0.203 F 
ATOM     75  F   UNL A   1      44.649  24.233  31.944  1.00  0.00    -0.200 F 
ATOM     76  C   UNL A   1      44.153  25.170  29.834  1.00  0.00     0.200 A 
ATOM     77  F   UNL A   1      43.655  26.142  27.738  1.00  0.00    -0.200 F 
ATOM     78  F   UNL A   1      44.123  23.948  29.290  1.00  0.00    -0.200 F 
ENDBRANCH  44  68
BRANCH  56  79
ATOM     79  C   UNL A   1      42.621  34.637  30.557  1.00  0.00     0.064 A 
ATOM     80  C   UNL A   1      43.170  35.598  31.431  1.00  0.00     0.173 A 
ATOM     81  C   UNL A   1      42.612  34.984  29.195  1.00  0.00     0.173 A 
ATOM     82  F   UNL A   1      43.128  35.424  32.762  1.00  0.00    -0.203 F 
ATOM     83  C   UNL A   1      43.780  36.761  30.966  1.00  0.00     0.198 A 
ATOM     84  C   UNL A   1      43.154  36.188  28.739  1.00  0.00     0.198 A 
ATOM     85  F   UNL A   1      42.107  34.161  28.264  1.00  0.00    -0.203 F 
ATOM     86  F   UNL A   1      44.388  37.583  31.833  1.00  0.00    -0.200 F 
ATOM     87  C   UNL A   1      43.764  37.060  29.619  1.00  0.00     0.200 A 
ATOM     88  F   UNL A   1      43.093  36.490  27.434  1.00  0.00    -0.200 F 
ATOM     89  F   UNL A   1      44.333  38.187  29.172  1.00  0.00    -0.200 F 
ENDBRANCH  56  79
ENDBRANCH  30  31
ENDBRANCH  23  25
ENDBRANCH  22  23
ENDBRANCH   1  22
TORSDOF 12
ENDMDL
