MODEL 1
REMARK VINA RESULT:     -13.2      0.000      0.000
REMARK SMILES O=C(OCCOC(=O)[C@@H]1CC(=O)N(c2ccc(Cl)cc2C(=O)c2ccccc2)C1)c1ccc(-c2c3nc(c(-c4c(F)c(F)c(F)c(F)c4F)c4ccc([nH]4)c(-c4c(F)c(F)c(F)c(F)c4F)c4nc(c(-c5c(F)c(F)c(F)c(F)c5F)c5ccc2[nH]5)C=C4)C=C3)cc1
REMARK SMILES IDX 5 1 4 2 3 3 2 4 1 5 30 6 31 7 92 8 32 9 91 10 33 11 34 12
REMARK SMILES IDX 35 13 85 14 36 15 90 16 84 17 86 18 37 19 89 20 83 21 82 22
REMARK SMILES IDX 38 24 70 25 50 26 69 27 51 28 54 29 68 30 87 31 52 32 53 33
REMARK SMILES IDX 67 35 88 36 55 37 39 38 40 39 48 40 41 41 42 42 46 43 49 44
REMARK SMILES IDX 43 45 44 46 47 47 45 48 71 49 72 50 80 51 73 52 74 53 78 54
REMARK SMILES IDX 81 55 75 56 76 57 79 58 77 59 56 60 57 61 65 62 58 63 59 64
REMARK SMILES IDX 63 65 66 66 60 67 61 68 64 69 62 70 6 71 7 72 8 73 9 74
REMARK SMILES IDX 10 75 29 76 11 77 13 78 12 79 14 80 15 81 20 82 16 83 19 84
REMARK SMILES IDX 17 85 18 86 21 87 22 88 23 89 24 90 28 91 25 92 27 93 26 94
REMARK H PARENT 86 23 54 34
REMARK Flexibility Score: inf
ROOT
ATOM      1  C   UNL A   1      32.416  28.502  23.204  1.00  0.00     0.274 C 
ENDROOT
BRANCH   1   2
ATOM      2  C   UNL A   1      31.945  28.987  24.579  1.00  0.00     0.275 C 
BRANCH   2   3
ATOM      3  O   UNL A   1      32.764  30.072  25.072  1.00  0.00    -0.458 OA
BRANCH   3   4
ATOM      4  C   UNL A   1      32.931  30.601  26.307  1.00  0.00     0.338 C 
ATOM      5  O   UNL A   1      32.080  31.400  26.700  1.00  0.00    -0.246 OA
BRANCH   4   6
ATOM      6  C   UNL A   1      34.083  30.336  27.241  1.00  0.00     0.060 A 
ATOM      7  C   UNL A   1      34.540  29.088  27.641  1.00  0.00     0.016 A 
ATOM      8  C   UNL A   1      34.841  31.447  27.682  1.00  0.00     0.016 A 
ATOM      9  C   UNL A   1      35.739  28.947  28.349  1.00  0.00     0.010 A 
ATOM     10  C   UNL A   1      36.041  31.300  28.419  1.00  0.00     0.010 A 
ATOM     11  C   UNL A   1      36.526  30.028  28.732  1.00  0.00    -0.014 A 
BRANCH  11  12
ATOM     12  C   UNL A   1      37.686  29.737  29.631  1.00  0.00     0.031 A 
ATOM     13  C   UNL A   1      38.832  28.981  29.053  1.00  0.00     0.074 A 
ATOM     14  C   UNL A   1      37.867  30.290  30.851  1.00  0.00     0.049 A 
ATOM     15  N   UNL A   1      39.943  28.622  29.635  1.00  0.00    -0.248 NA
ATOM     16  C   UNL A   1      38.734  28.616  27.633  1.00  0.00     0.031 C 
ATOM     17  C   UNL A   1      36.935  31.200  31.464  1.00  0.00     0.029 A 
ATOM     18  N   UNL A   1      38.879  30.225  31.786  1.00  0.00    -0.354 N 
ATOM     19  C   UNL A   1      40.656  27.940  28.671  1.00  0.00     0.074 A 
ATOM     20  C   UNL A   1      39.876  27.972  27.452  1.00  0.00     0.031 C 
ATOM     21  C   UNL A   1      37.375  31.609  32.656  1.00  0.00     0.029 A 
ATOM     22  C   UNL A   1      38.643  30.977  32.924  1.00  0.00     0.049 A 
ATOM     23  H   UNL A   1      39.695  29.690  31.656  1.00  0.00     0.167 HD
ATOM     24  C   UNL A   1      41.840  27.312  28.818  1.00  0.00     0.037 A 
ATOM     25  C   UNL A   1      39.327  31.150  34.072  1.00  0.00     0.037 A 
ATOM     26  C   UNL A   1      42.615  27.299  30.031  1.00  0.00     0.049 A 
ATOM     27  C   UNL A   1      40.600  30.381  34.226  1.00  0.00     0.074 A 
ATOM     28  C   UNL A   1      43.798  26.627  30.276  1.00  0.00     0.029 A 
ATOM     29  N   UNL A   1      42.293  27.979  31.197  1.00  0.00    -0.354 N 
ATOM     30  N   UNL A   1      41.213  29.643  33.337  1.00  0.00    -0.248 NA
ATOM     31  C   UNL A   1      41.259  30.427  35.537  1.00  0.00     0.031 C 
ATOM     32  C   UNL A   1      44.152  26.834  31.610  1.00  0.00     0.029 A 
ATOM     33  C   UNL A   1      43.237  27.705  32.176  1.00  0.00     0.049 A 
ATOM     34  H   UNL A   1      41.513  28.567  31.312  1.00  0.00     0.167 HD
ATOM     35  C   UNL A   1      42.325  29.132  33.981  1.00  0.00     0.074 A 
ATOM     36  C   UNL A   1      42.337  29.692  35.315  1.00  0.00     0.031 C 
ATOM     37  C   UNL A   1      43.234  28.251  33.507  1.00  0.00     0.037 A 
BRANCH  24  38
ATOM     38  C   UNL A   1      42.297  26.470  27.675  1.00  0.00     0.064 A 
ATOM     39  C   UNL A   1      43.239  26.912  26.738  1.00  0.00     0.173 A 
ATOM     40  C   UNL A   1      41.777  25.175  27.537  1.00  0.00     0.173 A 
ATOM     41  F   UNL A   1      43.724  28.161  26.803  1.00  0.00    -0.203 F 
ATOM     42  C   UNL A   1      43.647  26.080  25.701  1.00  0.00     0.198 A 
ATOM     43  C   UNL A   1      42.214  24.335  26.523  1.00  0.00     0.198 A 
ATOM     44  F   UNL A   1      40.852  24.723  28.398  1.00  0.00    -0.203 F 
ATOM     45  F   UNL A   1      44.513  26.532  24.784  1.00  0.00    -0.200 F 
ATOM     46  C   UNL A   1      43.146  24.789  25.604  1.00  0.00     0.200 A 
ATOM     47  F   UNL A   1      41.732  23.087  26.437  1.00  0.00    -0.200 F 
ATOM     48  F   UNL A   1      43.556  23.982  24.616  1.00  0.00    -0.200 F 
ENDBRANCH  24  38
BRANCH  25  49
ATOM     49  C   UNL A   1      38.805  31.983  35.205  1.00  0.00     0.064 A 
ATOM     50  C   UNL A   1      39.038  33.367  35.273  1.00  0.00     0.173 A 
ATOM     51  C   UNL A   1      38.163  31.393  36.307  1.00  0.00     0.173 A 
ATOM     52  F   UNL A   1      39.671  33.991  34.268  1.00  0.00    -0.203 F 
ATOM     53  C   UNL A   1      38.713  34.105  36.414  1.00  0.00     0.198 A 
ATOM     54  C   UNL A   1      37.794  32.139  37.424  1.00  0.00     0.198 A 
ATOM     55  F   UNL A   1      37.903  30.077  36.310  1.00  0.00    -0.203 F 
ATOM     56  F   UNL A   1      39.040  35.402  36.487  1.00  0.00    -0.200 F 
ATOM     57  C   UNL A   1      38.099  33.487  37.492  1.00  0.00     0.200 A 
ATOM     58  F   UNL A   1      37.158  31.542  38.443  1.00  0.00    -0.200 F 
ATOM     59  F   UNL A   1      37.807  34.188  38.596  1.00  0.00    -0.200 F 
ENDBRANCH  25  49
BRANCH  37  60
ATOM     60  C   UNL A   1      44.326  27.849  34.449  1.00  0.00     0.064 A 
ATOM     61  C   UNL A   1      44.202  26.727  35.283  1.00  0.00     0.173 A 
ATOM     62  C   UNL A   1      45.509  28.596  34.517  1.00  0.00     0.173 A 
ATOM     63  F   UNL A   1      43.078  25.995  35.269  1.00  0.00    -0.203 F 
ATOM     64  C   UNL A   1      45.210  26.392  36.181  1.00  0.00     0.198 A 
ATOM     65  C   UNL A   1      46.533  28.233  35.386  1.00  0.00     0.198 A 
ATOM     66  F   UNL A   1      45.675  29.677  33.740  1.00  0.00    -0.203 F 
ATOM     67  F   UNL A   1      45.041  25.360  37.019  1.00  0.00    -0.200 F 
ATOM     68  C   UNL A   1      46.377  27.139  36.224  1.00  0.00     0.200 A 
ATOM     69  F   UNL A   1      47.667  28.946  35.415  1.00  0.00    -0.200 F 
ATOM     70  F   UNL A   1      47.350  26.812  37.085  1.00  0.00    -0.200 F 
ENDBRANCH  37  60
ENDBRANCH  11  12
ENDBRANCH   4   6
ENDBRANCH   3   4
ENDBRANCH   2   3
ENDBRANCH   1   2
BRANCH   1  71
ATOM     71  O   UNL A   1      31.883  27.192  22.949  1.00  0.00    -0.462 OA
BRANCH  71  72
ATOM     72  C   UNL A   1      32.681  26.311  22.284  1.00  0.00     0.311 C 
ATOM     73  O   UNL A   1      33.644  26.615  21.612  1.00  0.00    -0.252 OA
BRANCH  72  74
ATOM     74  C   UNL A   1      32.270  24.899  22.635  1.00  0.00     0.128 C 
ATOM     75  C   UNL A   1      31.601  24.790  23.984  1.00  0.00     0.117 C 
ATOM     76  C   UNL A   1      33.415  23.916  22.765  1.00  0.00     0.141 C 
ATOM     77  C   UNL A   1      32.765  24.516  24.899  1.00  0.00     0.227 C 
ATOM     78  N   UNL A   1      33.826  23.948  24.139  1.00  0.00    -0.311 N 
ATOM     79  O   UNL A   1      32.719  24.702  26.105  1.00  0.00    -0.274 OA
BRANCH  78  80
ATOM     80  C   UNL A   1      34.893  23.214  24.780  1.00  0.00     0.055 A 
ATOM     81  C   UNL A   1      36.009  24.030  25.126  1.00  0.00     0.028 A 
ATOM     82  C   UNL A   1      35.045  21.830  25.062  1.00  0.00     0.048 A 
ATOM     83  C   UNL A   1      37.261  23.538  25.500  1.00  0.00     0.023 A 
ATOM     84  C   UNL A   1      36.365  21.345  25.332  1.00  0.00     0.035 A 
ATOM     85  C   UNL A   1      37.456  22.181  25.515  1.00  0.00     0.041 A 
ATOM     86  Cl  UNL A   1      39.010  21.523  25.818  1.00  0.00    -0.084 Cl
BRANCH  82  87
ATOM     87  C   UNL A   1      34.076  20.736  25.393  1.00  0.00     0.195 C 
ATOM     88  O   UNL A   1      33.593  20.754  26.536  1.00  0.00    -0.289 OA
BRANCH  87  89
ATOM     89  C   UNL A   1      33.584  19.631  24.577  1.00  0.00     0.023 A 
ATOM     90  C   UNL A   1      34.340  18.439  24.574  1.00  0.00     0.012 A 
ATOM     91  C   UNL A   1      32.529  19.786  23.692  1.00  0.00     0.012 A 
ATOM     92  C   UNL A   1      34.002  17.384  23.730  1.00  0.00     0.001 A 
ATOM     93  C   UNL A   1      32.198  18.725  22.846  1.00  0.00     0.001 A 
ATOM     94  C   UNL A   1      32.908  17.519  22.884  1.00  0.00     0.000 A 
ENDBRANCH  87  89
ENDBRANCH  82  87
ENDBRANCH  78  80
ENDBRANCH  72  74
ENDBRANCH  71  72
ENDBRANCH   1  71
TORSDOF 14
ENDMDL
MODEL 2
REMARK VINA RESULT:     -13.1      1.017      1.721
REMARK SMILES O=C(OCCOC(=O)[C@@H]1CC(=O)N(c2ccc(Cl)cc2C(=O)c2ccccc2)C1)c1ccc(-c2c3nc(c(-c4c(F)c(F)c(F)c(F)c4F)c4ccc([nH]4)c(-c4c(F)c(F)c(F)c(F)c4F)c4nc(c(-c5c(F)c(F)c(F)c(F)c5F)c5ccc2[nH]5)C=C4)C=C3)cc1
REMARK SMILES IDX 5 1 4 2 3 3 2 4 1 5 30 6 31 7 92 8 32 9 91 10 33 11 34 12
REMARK SMILES IDX 35 13 85 14 36 15 90 16 84 17 86 18 37 19 89 20 83 21 82 22
REMARK SMILES IDX 38 24 70 25 50 26 69 27 51 28 54 29 68 30 87 31 52 32 53 33
REMARK SMILES IDX 67 35 88 36 55 37 39 38 40 39 48 40 41 41 42 42 46 43 49 44
REMARK SMILES IDX 43 45 44 46 47 47 45 48 71 49 72 50 80 51 73 52 74 53 78 54
REMARK SMILES IDX 81 55 75 56 76 57 79 58 77 59 56 60 57 61 65 62 58 63 59 64
REMARK SMILES IDX 63 65 66 66 60 67 61 68 64 69 62 70 6 71 7 72 8 73 9 74
REMARK SMILES IDX 10 75 29 76 11 77 13 78 12 79 14 80 15 81 20 82 16 83 19 84
REMARK SMILES IDX 17 85 18 86 21 87 22 88 23 89 24 90 28 91 25 92 27 93 26 94
REMARK H PARENT 86 23 54 34
REMARK Flexibility Score: inf
ROOT
ATOM      1  C   UNL A   1      31.403  28.450  24.317  1.00  0.00     0.274 C 
ENDROOT
BRANCH   1   2
ATOM      2  C   UNL A   1      31.372  29.812  25.016  1.00  0.00     0.275 C 
BRANCH   2   3
ATOM      3  O   UNL A   1      32.666  30.167  25.553  1.00  0.00    -0.458 OA
BRANCH   3   4
ATOM      4  C   UNL A   1      33.039  30.927  26.609  1.00  0.00     0.338 C 
ATOM      5  O   UNL A   1      32.387  31.948  26.832  1.00  0.00    -0.246 OA
BRANCH   4   6
ATOM      6  C   UNL A   1      34.206  30.665  27.527  1.00  0.00     0.060 A 
ATOM      7  C   UNL A   1      34.632  29.422  27.971  1.00  0.00     0.016 A 
ATOM      8  C   UNL A   1      35.010  31.768  27.900  1.00  0.00     0.016 A 
ATOM      9  C   UNL A   1      35.844  29.271  28.656  1.00  0.00     0.010 A 
ATOM     10  C   UNL A   1      36.223  31.614  28.613  1.00  0.00     0.010 A 
ATOM     11  C   UNL A   1      36.674  30.341  28.971  1.00  0.00    -0.014 A 
BRANCH  11  12
ATOM     12  C   UNL A   1      37.848  30.051  29.854  1.00  0.00     0.031 A 
ATOM     13  C   UNL A   1      38.996  29.317  29.254  1.00  0.00     0.074 A 
ATOM     14  C   UNL A   1      38.035  30.590  31.080  1.00  0.00     0.049 A 
ATOM     15  N   UNL A   1      40.116  28.963  29.820  1.00  0.00    -0.248 NA
ATOM     16  C   UNL A   1      38.887  28.970  27.830  1.00  0.00     0.031 C 
ATOM     17  C   UNL A   1      37.099  31.482  31.714  1.00  0.00     0.029 A 
ATOM     18  N   UNL A   1      39.056  30.524  32.003  1.00  0.00    -0.354 N 
ATOM     19  C   UNL A   1      40.827  28.301  28.840  1.00  0.00     0.074 A 
ATOM     20  C   UNL A   1      40.034  28.341  27.629  1.00  0.00     0.031 C 
ATOM     21  C   UNL A   1      37.546  31.879  32.907  1.00  0.00     0.029 A 
ATOM     22  C   UNL A   1      38.824  31.258  33.153  1.00  0.00     0.049 A 
ATOM     23  H   UNL A   1      39.877  30.001  31.857  1.00  0.00     0.167 HD
ATOM     24  C   UNL A   1      42.019  27.686  28.966  1.00  0.00     0.037 A 
ATOM     25  C   UNL A   1      39.518  31.424  34.297  1.00  0.00     0.037 A 
ATOM     26  C   UNL A   1      42.807  27.665  30.170  1.00  0.00     0.049 A 
ATOM     27  C   UNL A   1      40.801  30.667  34.427  1.00  0.00     0.074 A 
ATOM     28  C   UNL A   1      44.000  27.003  30.394  1.00  0.00     0.029 A 
ATOM     29  N   UNL A   1      42.490  28.326  31.349  1.00  0.00    -0.354 N 
ATOM     30  N   UNL A   1      41.414  29.949  33.522  1.00  0.00    -0.248 NA
ATOM     31  C   UNL A   1      41.473  30.704  35.732  1.00  0.00     0.031 C 
ATOM     32  C   UNL A   1      44.365  27.196  31.728  1.00  0.00     0.029 A 
ATOM     33  C   UNL A   1      43.447  28.050  32.314  1.00  0.00     0.049 A 
ATOM     34  H   UNL A   1      41.704  28.903  31.480  1.00  0.00     0.167 HD
ATOM     35  C   UNL A   1      42.537  29.442  34.147  1.00  0.00     0.074 A 
ATOM     36  C   UNL A   1      42.557  29.983  35.489  1.00  0.00     0.031 C 
ATOM     37  C   UNL A   1      43.452  28.577  33.652  1.00  0.00     0.037 A 
BRANCH  24  38
ATOM     38  C   UNL A   1      42.474  26.865  27.807  1.00  0.00     0.064 A 
ATOM     39  C   UNL A   1      42.082  25.534  27.620  1.00  0.00     0.173 A 
ATOM     40  C   UNL A   1      43.317  27.451  26.851  1.00  0.00     0.173 A 
ATOM     41  F   UNL A   1      41.318  24.918  28.536  1.00  0.00    -0.203 F 
ATOM     42  C   UNL A   1      42.518  24.818  26.510  1.00  0.00     0.198 A 
ATOM     43  C   UNL A   1      43.719  26.746  25.726  1.00  0.00     0.198 A 
ATOM     44  F   UNL A   1      43.738  28.716  27.006  1.00  0.00    -0.203 F 
ATOM     45  F   UNL A   1      42.173  23.531  26.369  1.00  0.00    -0.200 F 
ATOM     46  C   UNL A   1      43.322  25.428  25.558  1.00  0.00     0.200 A 
ATOM     47  F   UNL A   1      44.491  27.341  24.806  1.00  0.00    -0.200 F 
ATOM     48  F   UNL A   1      43.724  24.743  24.480  1.00  0.00    -0.200 F 
ENDBRANCH  24  38
BRANCH  25  49
ATOM     49  C   UNL A   1      38.999  32.236  35.446  1.00  0.00     0.064 A 
ATOM     50  C   UNL A   1      39.327  33.593  35.600  1.00  0.00     0.173 A 
ATOM     51  C   UNL A   1      38.258  31.640  36.482  1.00  0.00     0.173 A 
ATOM     52  F   UNL A   1      40.055  34.218  34.662  1.00  0.00    -0.203 F 
ATOM     53  C   UNL A   1      38.996  34.295  36.762  1.00  0.00     0.198 A 
ATOM     54  C   UNL A   1      37.886  32.355  37.619  1.00  0.00     0.198 A 
ATOM     55  F   UNL A   1      37.905  30.349  36.402  1.00  0.00    -0.203 F 
ATOM     56  F   UNL A   1      39.411  35.559  36.921  1.00  0.00    -0.200 F 
ATOM     57  C   UNL A   1      38.283  33.672  37.774  1.00  0.00     0.200 A 
ATOM     58  F   UNL A   1      37.156  31.757  38.571  1.00  0.00    -0.200 F 
ATOM     59  F   UNL A   1      37.984  34.336  38.898  1.00  0.00    -0.200 F 
ENDBRANCH  25  49
BRANCH  37  60
ATOM     60  C   UNL A   1      44.558  28.175  34.578  1.00  0.00     0.064 A 
ATOM     61  C   UNL A   1      44.434  27.072  35.437  1.00  0.00     0.173 A 
ATOM     62  C   UNL A   1      45.754  28.904  34.605  1.00  0.00     0.173 A 
ATOM     63  F   UNL A   1      43.298  26.359  35.462  1.00  0.00    -0.203 F 
ATOM     64  C   UNL A   1      45.457  26.738  36.318  1.00  0.00     0.198 A 
ATOM     65  C   UNL A   1      46.791  28.540  35.458  1.00  0.00     0.198 A 
ATOM     66  F   UNL A   1      45.920  29.966  33.803  1.00  0.00    -0.203 F 
ATOM     67  F   UNL A   1      45.290  25.725  37.180  1.00  0.00    -0.200 F 
ATOM     68  C   UNL A   1      46.637  27.465  36.321  1.00  0.00     0.200 A 
ATOM     69  F   UNL A   1      47.937  29.234  35.447  1.00  0.00    -0.200 F 
ATOM     70  F   UNL A   1      47.623  27.139  37.166  1.00  0.00    -0.200 F 
ENDBRANCH  37  60
ENDBRANCH  11  12
ENDBRANCH   4   6
ENDBRANCH   3   4
ENDBRANCH   2   3
ENDBRANCH   1   2
BRANCH   1  71
ATOM     71  O   UNL A   1      32.153  27.518  25.114  1.00  0.00    -0.462 OA
BRANCH  71  72
ATOM     72  C   UNL A   1      31.456  26.733  25.980  1.00  0.00     0.311 C 
ATOM     73  O   UNL A   1      31.103  27.065  27.092  1.00  0.00    -0.252 OA
BRANCH  72  74
ATOM     74  C   UNL A   1      31.063  25.447  25.287  1.00  0.00     0.128 C 
ATOM     75  C   UNL A   1      30.443  24.433  26.218  1.00  0.00     0.117 C 
ATOM     76  C   UNL A   1      32.217  24.668  24.689  1.00  0.00     0.141 C 
ATOM     77  C   UNL A   1      31.638  23.643  26.677  1.00  0.00     0.227 C 
ATOM     78  N   UNL A   1      32.675  23.771  25.709  1.00  0.00    -0.311 N 
ATOM     79  O   UNL A   1      31.634  22.959  27.689  1.00  0.00    -0.274 OA
BRANCH  78  80
ATOM     80  C   UNL A   1      33.767  22.825  25.657  1.00  0.00     0.055 A 
ATOM     81  C   UNL A   1      34.999  23.362  26.130  1.00  0.00     0.028 A 
ATOM     82  C   UNL A   1      33.837  21.495  25.162  1.00  0.00     0.048 A 
ATOM     83  C   UNL A   1      36.247  22.764  25.939  1.00  0.00     0.023 A 
ATOM     84  C   UNL A   1      35.132  20.959  24.872  1.00  0.00     0.035 A 
ATOM     85  C   UNL A   1      36.312  21.595  25.224  1.00  0.00     0.041 A 
ATOM     86  Cl  UNL A   1      37.826  20.895  24.828  1.00  0.00    -0.084 Cl
BRANCH  82  87
ATOM     87  C   UNL A   1      32.845  20.374  25.085  1.00  0.00     0.195 C 
ATOM     88  O   UNL A   1      31.648  20.690  25.171  1.00  0.00    -0.289 OA
BRANCH  87  89
ATOM     89  C   UNL A   1      33.051  18.941  24.912  1.00  0.00     0.023 A 
ATOM     90  C   UNL A   1      33.488  18.496  23.646  1.00  0.00     0.012 A 
ATOM     91  C   UNL A   1      32.663  18.022  25.874  1.00  0.00     0.012 A 
ATOM     92  C   UNL A   1      33.593  17.135  23.366  1.00  0.00     0.001 A 
ATOM     93  C   UNL A   1      32.767  16.660  25.585  1.00  0.00     0.001 A 
ATOM     94  C   UNL A   1      33.258  16.215  24.353  1.00  0.00     0.000 A 
ENDBRANCH  87  89
ENDBRANCH  82  87
ENDBRANCH  78  80
ENDBRANCH  72  74
ENDBRANCH  71  72
ENDBRANCH   1  71
TORSDOF 14
ENDMDL
MODEL 3
REMARK VINA RESULT:     -13.0      4.057      7.280
REMARK SMILES O=C(OCCOC(=O)[C@@H]1CC(=O)N(c2ccc(Cl)cc2C(=O)c2ccccc2)C1)c1ccc(-c2c3nc(c(-c4c(F)c(F)c(F)c(F)c4F)c4ccc([nH]4)c(-c4c(F)c(F)c(F)c(F)c4F)c4nc(c(-c5c(F)c(F)c(F)c(F)c5F)c5ccc2[nH]5)C=C4)C=C3)cc1
REMARK SMILES IDX 5 1 4 2 3 3 2 4 1 5 30 6 31 7 92 8 32 9 91 10 33 11 34 12
REMARK SMILES IDX 35 13 85 14 36 15 90 16 84 17 86 18 37 19 89 20 83 21 82 22
REMARK SMILES IDX 38 24 70 25 50 26 69 27 51 28 54 29 68 30 87 31 52 32 53 33
REMARK SMILES IDX 67 35 88 36 55 37 39 38 40 39 48 40 41 41 42 42 46 43 49 44
REMARK SMILES IDX 43 45 44 46 47 47 45 48 71 49 72 50 80 51 73 52 74 53 78 54
REMARK SMILES IDX 81 55 75 56 76 57 79 58 77 59 56 60 57 61 65 62 58 63 59 64
REMARK SMILES IDX 63 65 66 66 60 67 61 68 64 69 62 70 6 71 7 72 8 73 9 74
REMARK SMILES IDX 10 75 29 76 11 77 13 78 12 79 14 80 15 81 20 82 16 83 19 84
REMARK SMILES IDX 17 85 18 86 21 87 22 88 23 89 24 90 28 91 25 92 27 93 26 94
REMARK H PARENT 86 23 54 34
REMARK Flexibility Score: inf
ROOT
ATOM      1  C   UNL A   1      35.101  20.623  25.005  1.00  0.00     0.274 C 
ENDROOT
BRANCH   1   2
ATOM      2  C   UNL A   1      36.387  21.412  24.743  1.00  0.00     0.275 C 
BRANCH   2   3
ATOM      3  O   UNL A   1      37.264  21.401  25.892  1.00  0.00    -0.458 OA
BRANCH   3   4
ATOM      4  C   UNL A   1      38.601  21.571  26.022  1.00  0.00     0.338 C 
ATOM      5  O   UNL A   1      39.319  20.591  25.822  1.00  0.00    -0.246 OA
BRANCH   4   6
ATOM      6  C   UNL A   1      39.301  22.843  26.426  1.00  0.00     0.060 A 
ATOM      7  C   UNL A   1      38.947  24.128  26.040  1.00  0.00     0.016 A 
ATOM      8  C   UNL A   1      40.358  22.744  27.361  1.00  0.00     0.016 A 
ATOM      9  C   UNL A   1      39.537  25.252  26.630  1.00  0.00     0.010 A 
ATOM     10  C   UNL A   1      40.968  23.883  27.938  1.00  0.00     0.010 A 
ATOM     11  C   UNL A   1      40.531  25.166  27.598  1.00  0.00    -0.014 A 
BRANCH  11  12
ATOM     12  C   UNL A   1      41.188  26.446  28.011  1.00  0.00     0.031 A 
ATOM     13  C   UNL A   1      42.577  26.693  27.533  1.00  0.00     0.074 A 
ATOM     14  C   UNL A   1      40.546  27.482  28.596  1.00  0.00     0.049 A 
ATOM     15  N   UNL A   1      43.339  27.727  27.755  1.00  0.00    -0.248 NA
ATOM     16  C   UNL A   1      43.169  25.664  26.666  1.00  0.00     0.031 C 
ATOM     17  C   UNL A   1      39.148  27.466  28.941  1.00  0.00     0.029 A 
ATOM     18  N   UNL A   1      40.932  28.751  28.974  1.00  0.00    -0.354 N 
ATOM     19  C   UNL A   1      44.524  27.454  27.103  1.00  0.00     0.074 A 
ATOM     20  C   UNL A   1      44.367  26.178  26.437  1.00  0.00     0.031 C 
ATOM     21  C   UNL A   1      38.773  28.626  29.483  1.00  0.00     0.029 A 
ATOM     22  C   UNL A   1      39.919  29.500  29.546  1.00  0.00     0.049 A 
ATOM     23  H   UNL A   1      41.847  29.092  28.848  1.00  0.00     0.167 HD
ATOM     24  C   UNL A   1      45.649  28.197  27.103  1.00  0.00     0.037 A 
ATOM     25  C   UNL A   1      39.878  30.734  30.086  1.00  0.00     0.037 A 
ATOM     26  C   UNL A   1      45.790  29.471  27.755  1.00  0.00     0.049 A 
ATOM     27  C   UNL A   1      41.163  31.498  30.132  1.00  0.00     0.074 A 
ATOM     28  C   UNL A   1      46.924  30.256  27.853  1.00  0.00     0.029 A 
ATOM     29  N   UNL A   1      44.777  30.150  28.419  1.00  0.00    -0.354 N 
ATOM     30  N   UNL A   1      42.315  31.177  29.602  1.00  0.00    -0.248 NA
ATOM     31  C   UNL A   1      41.166  32.765  30.872  1.00  0.00     0.031 C 
ATOM     32  C   UNL A   1      46.622  31.367  28.642  1.00  0.00     0.029 A 
ATOM     33  C   UNL A   1      45.276  31.323  28.964  1.00  0.00     0.049 A 
ATOM     34  H   UNL A   1      43.844  29.844  28.492  1.00  0.00     0.167 HD
ATOM     35  C   UNL A   1      43.181  32.196  29.951  1.00  0.00     0.074 A 
ATOM     36  C   UNL A   1      42.410  33.177  30.683  1.00  0.00     0.031 C 
ATOM     37  C   UNL A   1      44.508  32.287  29.706  1.00  0.00     0.037 A 
BRANCH  24  38
ATOM     38  C   UNL A   1      46.859  27.576  26.490  1.00  0.00     0.064 A 
ATOM     39  C   UNL A   1      47.233  27.798  25.159  1.00  0.00     0.173 A 
ATOM     40  C   UNL A   1      47.670  26.748  27.281  1.00  0.00     0.173 A 
ATOM     41  F   UNL A   1      46.459  28.542  24.353  1.00  0.00    -0.203 F 
ATOM     42  C   UNL A   1      48.383  27.211  24.641  1.00  0.00     0.198 A 
ATOM     43  C   UNL A   1      48.836  26.195  26.771  1.00  0.00     0.198 A 
ATOM     44  F   UNL A   1      47.333  26.488  28.553  1.00  0.00    -0.203 F 
ATOM     45  F   UNL A   1      48.703  27.393  23.353  1.00  0.00    -0.200 F 
ATOM     46  C   UNL A   1      49.190  26.424  25.451  1.00  0.00     0.200 A 
ATOM     47  F   UNL A   1      49.615  25.440  27.558  1.00  0.00    -0.200 F 
ATOM     48  F   UNL A   1      50.307  25.877  24.956  1.00  0.00    -0.200 F 
ENDBRANCH  24  38
BRANCH  25  49
ATOM     49  C   UNL A   1      38.641  31.298  30.720  1.00  0.00     0.064 A 
ATOM     50  C   UNL A   1      38.375  31.142  32.090  1.00  0.00     0.173 A 
ATOM     51  C   UNL A   1      37.639  31.905  29.944  1.00  0.00     0.173 A 
ATOM     52  F   UNL A   1      39.277  30.546  32.885  1.00  0.00    -0.203 F 
ATOM     53  C   UNL A   1      37.142  31.504  32.639  1.00  0.00     0.198 A 
ATOM     54  C   UNL A   1      36.428  32.312  30.501  1.00  0.00     0.198 A 
ATOM     55  F   UNL A   1      37.824  32.092  28.629  1.00  0.00    -0.203 F 
ATOM     56  F   UNL A   1      36.883  31.249  33.928  1.00  0.00    -0.200 F 
ATOM     57  C   UNL A   1      36.167  32.081  31.841  1.00  0.00     0.200 A 
ATOM     58  F   UNL A   1      35.509  32.912  29.731  1.00  0.00    -0.200 F 
ATOM     59  F   UNL A   1      34.976  32.409  32.360  1.00  0.00    -0.200 F 
ENDBRANCH  25  49
BRANCH  37  60
ATOM     60  C   UNL A   1      45.202  33.504  30.235  1.00  0.00     0.064 A 
ATOM     61  C   UNL A   1      45.299  34.682  29.478  1.00  0.00     0.173 A 
ATOM     62  C   UNL A   1      45.775  33.489  31.513  1.00  0.00     0.173 A 
ATOM     63  F   UNL A   1      44.785  34.734  28.240  1.00  0.00    -0.203 F 
ATOM     64  C   UNL A   1      45.982  35.789  29.969  1.00  0.00     0.198 A 
ATOM     65  C   UNL A   1      46.420  34.613  32.018  1.00  0.00     0.198 A 
ATOM     66  F   UNL A   1      45.708  32.386  32.274  1.00  0.00    -0.203 F 
ATOM     67  F   UNL A   1      46.126  36.878  29.202  1.00  0.00    -0.200 F 
ATOM     68  C   UNL A   1      46.533  35.757  31.241  1.00  0.00     0.200 A 
ATOM     69  F   UNL A   1      46.937  34.587  33.253  1.00  0.00    -0.200 F 
ATOM     70  F   UNL A   1      47.185  36.826  31.715  1.00  0.00    -0.200 F 
ENDBRANCH  37  60
ENDBRANCH  11  12
ENDBRANCH   4   6
ENDBRANCH   3   4
ENDBRANCH   2   3
ENDBRANCH   1   2
BRANCH   1  71
ATOM     71  O   UNL A   1      33.994  21.284  24.368  1.00  0.00    -0.462 OA
BRANCH  71  72
ATOM     72  C   UNL A   1      32.929  21.613  25.149  1.00  0.00     0.311 C 
ATOM     73  O   UNL A   1      31.900  20.975  25.228  1.00  0.00    -0.252 OA
BRANCH  72  74
ATOM     74  C   UNL A   1      33.286  22.806  26.008  1.00  0.00     0.128 C 
ATOM     75  C   UNL A   1      32.395  22.958  27.218  1.00  0.00     0.117 C 
ATOM     76  C   UNL A   1      33.134  24.150  25.327  1.00  0.00     0.141 C 
ATOM     77  C   UNL A   1      31.300  23.851  26.700  1.00  0.00     0.227 C 
ATOM     78  N   UNL A   1      31.793  24.588  25.587  1.00  0.00    -0.311 N 
ATOM     79  O   UNL A   1      30.207  23.941  27.238  1.00  0.00    -0.274 OA
BRANCH  78  80
ATOM     80  C   UNL A   1      31.135  25.796  25.142  1.00  0.00     0.055 A 
ATOM     81  C   UNL A   1      30.144  25.563  24.145  1.00  0.00     0.028 A 
ATOM     82  C   UNL A   1      31.349  27.161  25.476  1.00  0.00     0.048 A 
ATOM     83  C   UNL A   1      29.562  26.562  23.362  1.00  0.00     0.023 A 
ATOM     84  C   UNL A   1      30.830  28.154  24.584  1.00  0.00     0.035 A 
ATOM     85  C   UNL A   1      29.981  27.857  23.530  1.00  0.00     0.041 A 
ATOM     86  Cl  UNL A   1      29.414  29.101  22.496  1.00  0.00    -0.084 Cl
BRANCH  82  87
ATOM     87  C   UNL A   1      31.808  27.854  26.722  1.00  0.00     0.195 C 
ATOM     88  O   UNL A   1      31.219  27.550  27.771  1.00  0.00    -0.289 OA
BRANCH  87  89
ATOM     89  C   UNL A   1      32.862  28.843  26.919  1.00  0.00     0.023 A 
ATOM     90  C   UNL A   1      34.192  28.373  26.973  1.00  0.00     0.012 A 
ATOM     91  C   UNL A   1      32.580  30.164  27.230  1.00  0.00     0.012 A 
ATOM     92  C   UNL A   1      35.241  29.237  27.277  1.00  0.00     0.001 A 
ATOM     93  C   UNL A   1      33.637  31.024  27.536  1.00  0.00     0.001 A 
ATOM     94  C   UNL A   1      34.962  30.575  27.531  1.00  0.00     0.000 A 
ENDBRANCH  87  89
ENDBRANCH  82  87
ENDBRANCH  78  80
ENDBRANCH  72  74
ENDBRANCH  71  72
ENDBRANCH   1  71
TORSDOF 14
ENDMDL
