MODEL 1
REMARK VINA RESULT:     -12.8      0.000      0.000
REMARK SMILES Cc1sc(-c2ccco2)nc1C(=O)N[C@@H](C(=O)OCCOC(=O)c1ccc(-c2c3nc(c(-c4c(F)c(F)c(F)c(F)c4F)c4ccc([nH]4)c(-c4c(F)c(F)c(F)c(F)c4F)c4nc(c(-c5c(F)c(F)c(F)c(F)c5F)c5ccc2[nH]5)C=C4)C=C3)cc1)C(C)C
REMARK SMILES IDX 19 1 18 2 16 3 17 4 15 5 14 6 12 7 13 8 11 10 1 11 2 12 3 13
REMARK SMILES IDX 4 14 10 15 5 16 6 17 9 18 7 19 8 20 87 21 88 22 89 23 20 24
REMARK SMILES IDX 21 25 22 26 23 27 24 28 25 29 86 30 26 31 85 32 27 33 28 34
REMARK SMILES IDX 29 35 79 36 30 37 84 38 78 39 80 40 31 41 83 42 77 43 76 44
REMARK SMILES IDX 32 46 64 47 44 48 63 49 45 50 48 51 62 52 81 53 46 54 47 55
REMARK SMILES IDX 61 57 82 58 49 59 33 60 34 61 42 62 35 63 36 64 40 65 43 66
REMARK SMILES IDX 37 67 38 68 41 69 39 70 65 71 66 72 74 73 67 74 68 75 72 76
REMARK SMILES IDX 75 77 69 78 70 79 73 80 71 81 50 82 51 83 59 84 52 85 53 86
REMARK SMILES IDX 57 87 60 88 54 89 55 90 58 91 56 92
REMARK H PARENT 14 9 80 45 48 56
REMARK Flexibility Score: inf
ROOT
ATOM      1  C   UNL A   1      31.579  28.802  24.640  1.00  0.00     0.274 C 
ENDROOT
BRANCH   1   2
ATOM      2  O   UNL A   1      30.804  27.784  25.314  1.00  0.00    -0.461 OA
BRANCH   2   3
ATOM      3  C   UNL A   1      31.381  27.134  26.369  1.00  0.00     0.329 C 
ATOM      4  O   UNL A   1      31.427  27.577  27.510  1.00  0.00    -0.250 OA
BRANCH   3   5
ATOM      5  C   UNL A   1      31.988  25.760  25.954  1.00  0.00     0.195 C 
BRANCH   5   6
ATOM      6  N   UNL A   1      31.482  24.751  26.873  1.00  0.00    -0.337 N 
ATOM      7  C   UNL A   1      31.060  23.466  26.637  1.00  0.00     0.271 C 
ATOM      8  O   UNL A   1      30.399  22.949  27.542  1.00  0.00    -0.267 OA
ATOM      9  H   UNL A   1      31.433  25.037  27.813  1.00  0.00     0.164 HD
BRANCH   7  10
ATOM     10  C   UNL A   1      31.460  22.690  25.444  1.00  0.00     0.142 A 
ATOM     11  C   UNL A   1      30.698  24.039  23.282  1.00  0.00     0.059 C 
ATOM     12  C   UNL A   1      31.356  22.965  24.079  1.00  0.00     0.035 A 
ATOM     13  S   UNL A   1      32.151  21.723  23.175  1.00  0.00    -0.115 S 
ATOM     14  C   UNL A   1      32.238  20.769  24.580  1.00  0.00     0.160 A 
ATOM     15  N   UNL A   1      31.911  21.383  25.692  1.00  0.00    -0.227 NA
BRANCH  14  16
ATOM     16  C   UNL A   1      32.528  19.370  24.519  1.00  0.00     0.162 A 
ATOM     17  C   UNL A   1      33.275  18.708  23.558  1.00  0.00     0.053 A 
ATOM     18  O   UNL A   1      32.153  18.465  25.481  1.00  0.00    -0.462 OA
ATOM     19  C   UNL A   1      33.380  17.358  23.963  1.00  0.00     0.043 A 
ATOM     20  C   UNL A   1      32.658  17.257  25.127  1.00  0.00     0.196 A 
ENDBRANCH  14  16
ENDBRANCH   7  10
ENDBRANCH   5   6
BRANCH   5  21
ATOM     21  C   UNL A   1      33.527  25.764  25.841  1.00  0.00     0.017 C 
ATOM     22  C   UNL A   1      34.123  24.384  26.150  1.00  0.00     0.010 C 
ATOM     23  C   UNL A   1      33.963  26.155  24.418  1.00  0.00     0.010 C 
ENDBRANCH   5  21
ENDBRANCH   3   5
ENDBRANCH   2   3
ENDBRANCH   1   2
BRANCH   1  24
ATOM     24  C   UNL A   1      31.683  30.058  25.503  1.00  0.00     0.275 C 
BRANCH  24  25
ATOM     25  O   UNL A   1      33.023  30.139  26.009  1.00  0.00    -0.458 OA
BRANCH  25  26
ATOM     26  C   UNL A   1      33.271  31.118  26.903  1.00  0.00     0.338 C 
ATOM     27  O   UNL A   1      32.526  32.025  27.251  1.00  0.00    -0.246 OA
BRANCH  26  28
ATOM     28  C   UNL A   1      34.596  30.887  27.495  1.00  0.00     0.060 A 
ATOM     29  C   UNL A   1      34.979  29.578  27.783  1.00  0.00     0.016 A 
ATOM     30  C   UNL A   1      35.408  31.951  27.875  1.00  0.00     0.016 A 
ATOM     31  C   UNL A   1      36.125  29.327  28.526  1.00  0.00     0.010 A 
ATOM     32  C   UNL A   1      36.612  31.690  28.540  1.00  0.00     0.010 A 
ATOM     33  C   UNL A   1      36.965  30.377  28.905  1.00  0.00    -0.014 A 
BRANCH  33  34
ATOM     34  C   UNL A   1      38.157  30.106  29.752  1.00  0.00     0.031 A 
ATOM     35  C   UNL A   1      39.284  29.279  29.196  1.00  0.00     0.074 A 
ATOM     36  C   UNL A   1      38.268  30.628  30.988  1.00  0.00     0.049 A 
ATOM     37  N   UNL A   1      40.295  28.729  29.817  1.00  0.00    -0.248 NA
ATOM     38  C   UNL A   1      39.264  29.034  27.744  1.00  0.00     0.031 C 
ATOM     39  C   UNL A   1      37.307  31.530  31.623  1.00  0.00     0.029 A 
ATOM     40  N   UNL A   1      39.256  30.483  31.933  1.00  0.00    -0.354 N 
ATOM     41  C   UNL A   1      40.985  28.011  28.851  1.00  0.00     0.074 A 
ATOM     42  C   UNL A   1      40.294  28.213  27.595  1.00  0.00     0.031 C 
ATOM     43  C   UNL A   1      37.766  31.886  32.832  1.00  0.00     0.029 A 
ATOM     44  C   UNL A   1      39.002  31.158  33.102  1.00  0.00     0.049 A 
ATOM     45  H   UNL A   1      40.068  29.946  31.786  1.00  0.00     0.167 HD
ATOM     46  C   UNL A   1      42.089  27.242  29.005  1.00  0.00     0.037 A 
ATOM     47  C   UNL A   1      39.658  31.149  34.278  1.00  0.00     0.037 A 
ATOM     48  C   UNL A   1      42.810  27.102  30.241  1.00  0.00     0.049 A 
ATOM     49  C   UNL A   1      40.860  30.260  34.438  1.00  0.00     0.074 A 
ATOM     50  C   UNL A   1      43.931  26.336  30.507  1.00  0.00     0.029 A 
ATOM     51  N   UNL A   1      42.492  27.770  31.415  1.00  0.00    -0.354 N 
ATOM     52  N   UNL A   1      41.441  29.488  33.553  1.00  0.00    -0.248 NA
ATOM     53  C   UNL A   1      41.476  30.217  35.771  1.00  0.00     0.031 C 
ATOM     54  C   UNL A   1      44.279  26.524  31.850  1.00  0.00     0.029 A 
ATOM     55  C   UNL A   1      43.394  27.431  32.409  1.00  0.00     0.049 A 
ATOM     56  H   UNL A   1      41.738  28.393  31.524  1.00  0.00     0.167 HD
ATOM     57  C   UNL A   1      42.486  28.866  34.219  1.00  0.00     0.074 A 
ATOM     58  C   UNL A   1      42.479  29.371  35.577  1.00  0.00     0.031 C 
ATOM     59  C   UNL A   1      43.368  27.948  33.752  1.00  0.00     0.037 A 
BRANCH  46  60
ATOM     60  C   UNL A   1      42.550  26.451  27.819  1.00  0.00     0.064 A 
ATOM     61  C   UNL A   1      42.041  25.179  27.527  1.00  0.00     0.173 A 
ATOM     62  C   UNL A   1      43.507  26.995  26.949  1.00  0.00     0.173 A 
ATOM     63  F   UNL A   1      41.140  24.609  28.342  1.00  0.00    -0.203 F 
ATOM     64  C   UNL A   1      42.487  24.470  26.414  1.00  0.00     0.198 A 
ATOM     65  C   UNL A   1      43.934  26.294  25.824  1.00  0.00     0.198 A 
ATOM     66  F   UNL A   1      44.025  28.209  27.186  1.00  0.00    -0.203 F 
ATOM     67  F   UNL A   1      42.017  23.238  26.173  1.00  0.00    -0.200 F 
ATOM     68  C   UNL A   1      43.428  25.030  25.561  1.00  0.00     0.200 A 
ATOM     69  F   UNL A   1      44.837  26.839  24.999  1.00  0.00    -0.200 F 
ATOM     70  F   UNL A   1      43.852  24.348  24.489  1.00  0.00    -0.200 F 
ENDBRANCH  46  60
BRANCH  47  71
ATOM     71  C   UNL A   1      39.148  31.954  35.418  1.00  0.00     0.064 A 
ATOM     72  C   UNL A   1      39.459  33.314  35.539  1.00  0.00     0.173 A 
ATOM     73  C   UNL A   1      38.340  31.378  36.411  1.00  0.00     0.173 A 
ATOM     74  F   UNL A   1      40.252  33.902  34.631  1.00  0.00    -0.203 F 
ATOM     75  C   UNL A   1      38.987  34.068  36.611  1.00  0.00     0.198 A 
ATOM     76  C   UNL A   1      37.843  32.139  37.467  1.00  0.00     0.198 A 
ATOM     77  F   UNL A   1      38.017  30.079  36.346  1.00  0.00    -0.203 F 
ATOM     78  F   UNL A   1      39.330  35.358  36.724  1.00  0.00    -0.200 F 
ATOM     79  C   UNL A   1      38.172  33.482  37.570  1.00  0.00     0.200 A 
ATOM     80  F   UNL A   1      37.047  31.572  38.383  1.00  0.00    -0.200 F 
ATOM     81  F   UNL A   1      37.711  34.209  38.596  1.00  0.00    -0.200 F 
ENDBRANCH  47  71
BRANCH  59  82
ATOM     82  C   UNL A   1      44.403  27.448  34.712  1.00  0.00     0.064 A 
ATOM     83  C   UNL A   1      45.616  28.125  34.891  1.00  0.00     0.173 A 
ATOM     84  C   UNL A   1      44.162  26.303  35.485  1.00  0.00     0.173 A 
ATOM     85  F   UNL A   1      45.895  29.216  34.161  1.00  0.00    -0.203 F 
ATOM     86  C   UNL A   1      46.564  27.663  35.801  1.00  0.00     0.198 A 
ATOM     87  C   UNL A   1      45.103  25.855  36.408  1.00  0.00     0.198 A 
ATOM     88  F   UNL A   1      43.014  25.624  35.348  1.00  0.00    -0.203 F 
ATOM     89  F   UNL A   1      47.733  28.304  35.933  1.00  0.00    -0.200 F 
ATOM     90  C   UNL A   1      46.303  26.532  36.562  1.00  0.00     0.200 A 
ATOM     91  F   UNL A   1      44.848  24.767  37.147  1.00  0.00    -0.200 F 
ATOM     92  F   UNL A   1      47.214  26.090  37.439  1.00  0.00    -0.200 F 
ENDBRANCH  59  82
ENDBRANCH  33  34
ENDBRANCH  26  28
ENDBRANCH  25  26
ENDBRANCH  24  25
ENDBRANCH   1  24
TORSDOF 15
ENDMDL
MODEL 2
REMARK VINA RESULT:     -12.8      2.026      2.787
REMARK SMILES Cc1sc(-c2ccco2)nc1C(=O)N[C@@H](C(=O)OCCOC(=O)c1ccc(-c2c3nc(c(-c4c(F)c(F)c(F)c(F)c4F)c4ccc([nH]4)c(-c4c(F)c(F)c(F)c(F)c4F)c4nc(c(-c5c(F)c(F)c(F)c(F)c5F)c5ccc2[nH]5)C=C4)C=C3)cc1)C(C)C
REMARK SMILES IDX 19 1 18 2 16 3 17 4 15 5 14 6 12 7 13 8 11 10 1 11 2 12 3 13
REMARK SMILES IDX 4 14 10 15 5 16 6 17 9 18 7 19 8 20 87 21 88 22 89 23 20 24
REMARK SMILES IDX 21 25 22 26 23 27 24 28 25 29 86 30 26 31 85 32 27 33 28 34
REMARK SMILES IDX 29 35 79 36 30 37 84 38 78 39 80 40 31 41 83 42 77 43 76 44
REMARK SMILES IDX 32 46 64 47 44 48 63 49 45 50 48 51 62 52 81 53 46 54 47 55
REMARK SMILES IDX 61 57 82 58 49 59 33 60 34 61 42 62 35 63 36 64 40 65 43 66
REMARK SMILES IDX 37 67 38 68 41 69 39 70 65 71 66 72 74 73 67 74 68 75 72 76
REMARK SMILES IDX 75 77 69 78 70 79 73 80 71 81 50 82 51 83 59 84 52 85 53 86
REMARK SMILES IDX 57 87 60 88 54 89 55 90 58 91 56 92
REMARK H PARENT 14 9 80 45 48 56
REMARK Flexibility Score: inf
ROOT
ATOM      1  C   UNL A   1      33.231  29.357  25.012  1.00  0.00     0.274 C 
ENDROOT
BRANCH   1   2
ATOM      2  O   UNL A   1      32.689  28.163  24.405  1.00  0.00    -0.461 OA
BRANCH   2   3
ATOM      3  C   UNL A   1      32.627  28.110  23.040  1.00  0.00     0.329 C 
ATOM      4  O   UNL A   1      33.411  28.682  22.293  1.00  0.00    -0.250 OA
BRANCH   3   5
ATOM      5  C   UNL A   1      31.434  27.244  22.537  1.00  0.00     0.195 C 
BRANCH   5   6
ATOM      6  N   UNL A   1      31.854  26.567  21.319  1.00  0.00    -0.337 N 
ATOM      7  C   UNL A   1      32.666  25.473  21.145  1.00  0.00     0.271 C 
ATOM      8  O   UNL A   1      33.095  25.306  20.000  1.00  0.00    -0.267 OA
ATOM      9  H   UNL A   1      31.501  26.956  20.488  1.00  0.00     0.164 HD
BRANCH   7  10
ATOM     10  C   UNL A   1      32.923  24.480  22.209  1.00  0.00     0.142 A 
ATOM     11  C   UNL A   1      30.585  23.751  23.247  1.00  0.00     0.059 C 
ATOM     12  C   UNL A   1      32.058  23.743  23.021  1.00  0.00     0.035 A 
ATOM     13  S   UNL A   1      32.970  22.625  23.975  1.00  0.00    -0.115 S 
ATOM     14  C   UNL A   1      34.401  23.431  23.535  1.00  0.00     0.160 A 
ATOM     15  N   UNL A   1      34.268  24.323  22.584  1.00  0.00    -0.227 NA
BRANCH  14  16
ATOM     16  C   UNL A   1      35.626  23.225  24.245  1.00  0.00     0.162 A 
ATOM     17  C   UNL A   1      36.524  22.182  24.085  1.00  0.00     0.053 A 
ATOM     18  O   UNL A   1      36.137  24.106  25.166  1.00  0.00    -0.462 OA
ATOM     19  C   UNL A   1      37.632  22.451  24.921  1.00  0.00     0.043 A 
ATOM     20  C   UNL A   1      37.335  23.621  25.576  1.00  0.00     0.196 A 
ENDBRANCH  14  16
ENDBRANCH   7  10
ENDBRANCH   5   6
BRANCH   5  21
ATOM     21  C   UNL A   1      30.115  28.030  22.373  1.00  0.00     0.017 C 
ATOM     22  C   UNL A   1      29.118  27.708  23.494  1.00  0.00     0.010 C 
ATOM     23  C   UNL A   1      30.382  29.544  22.403  1.00  0.00     0.010 C 
ENDBRANCH   5  21
ENDBRANCH   3   5
ENDBRANCH   2   3
ENDBRANCH   1   2
BRANCH   1  24
ATOM     24  C   UNL A   1      32.137  30.134  25.741  1.00  0.00     0.275 C 
BRANCH  24  25
ATOM     25  O   UNL A   1      32.581  30.372  27.085  1.00  0.00    -0.458 OA
BRANCH  25  26
ATOM     26  C   UNL A   1      33.230  31.532  27.308  1.00  0.00     0.338 C 
ATOM     27  O   UNL A   1      32.800  32.671  27.181  1.00  0.00    -0.246 OA
BRANCH  26  28
ATOM     28  C   UNL A   1      34.569  31.226  27.834  1.00  0.00     0.060 A 
ATOM     29  C   UNL A   1      34.842  29.924  28.246  1.00  0.00     0.016 A 
ATOM     30  C   UNL A   1      35.509  32.232  28.032  1.00  0.00     0.016 A 
ATOM     31  C   UNL A   1      36.011  29.634  28.936  1.00  0.00     0.010 A 
ATOM     32  C   UNL A   1      36.730  31.918  28.640  1.00  0.00     0.010 A 
ATOM     33  C   UNL A   1      36.978  30.622  29.132  1.00  0.00    -0.014 A 
BRANCH  33  34
ATOM     34  C   UNL A   1      38.201  30.319  29.923  1.00  0.00     0.031 A 
ATOM     35  C   UNL A   1      39.283  29.472  29.313  1.00  0.00     0.074 A 
ATOM     36  C   UNL A   1      38.378  30.829  31.157  1.00  0.00     0.049 A 
ATOM     37  N   UNL A   1      40.308  28.896  29.885  1.00  0.00    -0.248 NA
ATOM     38  C   UNL A   1      39.194  29.239  27.862  1.00  0.00     0.031 C 
ATOM     39  C   UNL A   1      37.466  31.747  31.839  1.00  0.00     0.029 A 
ATOM     40  N   UNL A   1      39.403  30.656  32.055  1.00  0.00    -0.354 N 
ATOM     41  C   UNL A   1      40.939  28.170  28.884  1.00  0.00     0.074 A 
ATOM     42  C   UNL A   1      40.197  28.397  27.661  1.00  0.00     0.031 C 
ATOM     43  C   UNL A   1      37.986  32.084  33.030  1.00  0.00     0.029 A 
ATOM     44  C   UNL A   1      39.216  31.328  33.239  1.00  0.00     0.049 A 
ATOM     45  H   UNL A   1      40.196  30.102  31.870  1.00  0.00     0.167 HD
ATOM     46  C   UNL A   1      42.031  27.376  28.984  1.00  0.00     0.037 A 
ATOM     47  C   UNL A   1      39.923  31.295  34.385  1.00  0.00     0.037 A 
ATOM     48  C   UNL A   1      42.803  27.211  30.186  1.00  0.00     0.049 A 
ATOM     49  C   UNL A   1      41.111  30.380  34.486  1.00  0.00     0.074 A 
ATOM     50  C   UNL A   1      43.918  26.419  30.397  1.00  0.00     0.029 A 
ATOM     51  N   UNL A   1      42.553  27.877  31.377  1.00  0.00    -0.354 N 
ATOM     52  N   UNL A   1      41.635  29.602  33.571  1.00  0.00    -0.248 NA
ATOM     53  C   UNL A   1      41.785  30.313  35.790  1.00  0.00     0.031 C 
ATOM     54  C   UNL A   1      44.329  26.589  31.724  1.00  0.00     0.029 A 
ATOM     55  C   UNL A   1      43.490  27.511  32.328  1.00  0.00     0.049 A 
ATOM     56  H   UNL A   1      41.818  28.516  31.523  1.00  0.00     0.167 HD
ATOM     57  C   UNL A   1      42.695  28.952  34.185  1.00  0.00     0.074 A 
ATOM     58  C   UNL A   1      42.759  29.447  35.545  1.00  0.00     0.031 C 
ATOM     59  C   UNL A   1      43.534  28.019  33.674  1.00  0.00     0.037 A 
BRANCH  46  60
ATOM     60  C   UNL A   1      42.422  26.584  27.773  1.00  0.00     0.064 A 
ATOM     61  C   UNL A   1      43.396  27.030  26.871  1.00  0.00     0.173 A 
ATOM     62  C   UNL A   1      41.817  25.340  27.530  1.00  0.00     0.173 A 
ATOM     63  F   UNL A   1      43.985  28.222  27.050  1.00  0.00    -0.203 F 
ATOM     64  C   UNL A   1      43.739  26.268  25.757  1.00  0.00     0.198 A 
ATOM     65  C   UNL A   1      42.179  24.570  26.429  1.00  0.00     0.198 A 
ATOM     66  F   UNL A   1      40.878  24.870  28.365  1.00  0.00    -0.203 F 
ATOM     67  F   UNL A   1      44.645  26.731  24.884  1.00  0.00    -0.200 F 
ATOM     68  C   UNL A   1      43.136  25.037  25.540  1.00  0.00     0.200 A 
ATOM     69  F   UNL A   1      41.600  23.379  26.225  1.00  0.00    -0.200 F 
ATOM     70  F   UNL A   1      43.471  24.304  24.470  1.00  0.00    -0.200 F 
ENDBRANCH  46  60
BRANCH  47  71
ATOM     71  C   UNL A   1      39.482  32.103  35.552  1.00  0.00     0.064 A 
ATOM     72  C   UNL A   1      39.961  33.403  35.753  1.00  0.00     0.173 A 
ATOM     73  C   UNL A   1      38.573  31.589  36.490  1.00  0.00     0.173 A 
ATOM     74  F   UNL A   1      40.854  33.927  34.900  1.00  0.00    -0.203 F 
ATOM     75  C   UNL A   1      39.554  34.158  36.851  1.00  0.00     0.198 A 
ATOM     76  C   UNL A   1      38.143  32.355  37.571  1.00  0.00     0.198 A 
ATOM     77  F   UNL A   1      38.089  30.347  36.347  1.00  0.00    -0.203 F 
ATOM     78  F   UNL A   1      40.055  35.386  37.042  1.00  0.00    -0.200 F 
ATOM     79  C   UNL A   1      38.638  33.637  37.754  1.00  0.00     0.200 A 
ATOM     80  F   UNL A   1      37.250  31.851  38.433  1.00  0.00    -0.200 F 
ATOM     81  F   UNL A   1      38.239  34.366  38.805  1.00  0.00    -0.200 F 
ENDBRANCH  47  71
BRANCH  59  82
ATOM     82  C   UNL A   1      44.600  27.489  34.583  1.00  0.00     0.064 A 
ATOM     83  C   UNL A   1      45.837  28.136  34.710  1.00  0.00     0.173 A 
ATOM     84  C   UNL A   1      44.367  26.346  35.362  1.00  0.00     0.173 A 
ATOM     85  F   UNL A   1      46.108  29.223  33.972  1.00  0.00    -0.203 F 
ATOM     86  C   UNL A   1      46.813  27.646  35.573  1.00  0.00     0.198 A 
ATOM     87  C   UNL A   1      45.338  25.871  36.239  1.00  0.00     0.198 A 
ATOM     88  F   UNL A   1      43.198  25.696  35.275  1.00  0.00    -0.203 F 
ATOM     89  F   UNL A   1      48.002  28.258  35.654  1.00  0.00    -0.200 F 
ATOM     90  C   UNL A   1      46.560  26.518  36.341  1.00  0.00     0.200 A 
ATOM     91  F   UNL A   1      45.090  24.786  36.985  1.00  0.00    -0.200 F 
ATOM     92  F   UNL A   1      47.499  26.050  37.174  1.00  0.00    -0.200 F 
ENDBRANCH  59  82
ENDBRANCH  33  34
ENDBRANCH  26  28
ENDBRANCH  25  26
ENDBRANCH  24  25
ENDBRANCH   1  24
TORSDOF 15
ENDMDL
MODEL 3
REMARK VINA RESULT:     -12.8      4.530      9.990
REMARK SMILES Cc1sc(-c2ccco2)nc1C(=O)N[C@@H](C(=O)OCCOC(=O)c1ccc(-c2c3nc(c(-c4c(F)c(F)c(F)c(F)c4F)c4ccc([nH]4)c(-c4c(F)c(F)c(F)c(F)c4F)c4nc(c(-c5c(F)c(F)c(F)c(F)c5F)c5ccc2[nH]5)C=C4)C=C3)cc1)C(C)C
REMARK SMILES IDX 19 1 18 2 16 3 17 4 15 5 14 6 12 7 13 8 11 10 1 11 2 12 3 13
REMARK SMILES IDX 4 14 10 15 5 16 6 17 9 18 7 19 8 20 87 21 88 22 89 23 20 24
REMARK SMILES IDX 21 25 22 26 23 27 24 28 25 29 86 30 26 31 85 32 27 33 28 34
REMARK SMILES IDX 29 35 79 36 30 37 84 38 78 39 80 40 31 41 83 42 77 43 76 44
REMARK SMILES IDX 32 46 64 47 44 48 63 49 45 50 48 51 62 52 81 53 46 54 47 55
REMARK SMILES IDX 61 57 82 58 49 59 33 60 34 61 42 62 35 63 36 64 40 65 43 66
REMARK SMILES IDX 37 67 38 68 41 69 39 70 65 71 66 72 74 73 67 74 68 75 72 76
REMARK SMILES IDX 75 77 69 78 70 79 73 80 71 81 50 82 51 83 59 84 52 85 53 86
REMARK SMILES IDX 57 87 60 88 54 89 55 90 58 91 56 92
REMARK H PARENT 14 9 80 45 48 56
REMARK Flexibility Score: inf
ROOT
ATOM      1  C   UNL A   1      36.712  22.951  23.475  1.00  0.00     0.274 C 
ENDROOT
BRANCH   1   2
ATOM      2  O   UNL A   1      35.444  22.961  22.780  1.00  0.00    -0.461 OA
BRANCH   2   3
ATOM      3  C   UNL A   1      34.302  22.920  23.530  1.00  0.00     0.329 C 
ATOM      4  O   UNL A   1      33.740  21.887  23.873  1.00  0.00    -0.250 OA
BRANCH   3   5
ATOM      5  C   UNL A   1      33.786  24.343  23.896  1.00  0.00     0.195 C 
BRANCH   5   6
ATOM      6  N   UNL A   1      33.897  25.179  22.710  1.00  0.00    -0.337 N 
ATOM      7  C   UNL A   1      32.933  25.858  22.007  1.00  0.00     0.271 C 
ATOM      8  O   UNL A   1      33.261  26.229  20.877  1.00  0.00    -0.267 OA
ATOM      9  H   UNL A   1      34.810  25.271  22.355  1.00  0.00     0.164 HD
BRANCH   7  10
ATOM     10  C   UNL A   1      31.627  26.238  22.587  1.00  0.00     0.142 A 
ATOM     11  C   UNL A   1      30.508  24.055  23.616  1.00  0.00     0.059 C 
ATOM     12  C   UNL A   1      30.674  25.501  23.292  1.00  0.00     0.035 A 
ATOM     13  S   UNL A   1      29.418  26.554  23.844  1.00  0.00    -0.115 S 
ATOM     14  C   UNL A   1      30.015  27.782  22.830  1.00  0.00     0.160 A 
ATOM     15  N   UNL A   1      31.179  27.533  22.280  1.00  0.00    -0.227 NA
BRANCH  14  16
ATOM     16  C   UNL A   1      29.235  28.938  22.513  1.00  0.00     0.162 A 
ATOM     17  C   UNL A   1      28.028  29.317  23.079  1.00  0.00     0.053 A 
ATOM     18  O   UNL A   1      29.625  29.908  21.623  1.00  0.00    -0.462 OA
ATOM     19  C   UNL A   1      27.684  30.575  22.532  1.00  0.00     0.043 A 
ATOM     20  C   UNL A   1      28.676  30.878  21.632  1.00  0.00     0.196 A 
ENDBRANCH  14  16
ENDBRANCH   7  10
ENDBRANCH   5   6
BRANCH   5  21
ATOM     21  C   UNL A   1      34.467  24.956  25.139  1.00  0.00     0.017 C 
ATOM     22  C   UNL A   1      33.716  26.194  25.647  1.00  0.00     0.010 C 
ATOM     23  C   UNL A   1      34.515  23.933  26.288  1.00  0.00     0.010 C 
ENDBRANCH   5  21
ENDBRANCH   3   5
ENDBRANCH   2   3
ENDBRANCH   1   2
BRANCH   1  24
ATOM     24  C   UNL A   1      36.918  21.623  24.199  1.00  0.00     0.275 C 
BRANCH  24  25
ATOM     25  O   UNL A   1      37.312  21.910  25.549  1.00  0.00    -0.458 OA
BRANCH  25  26
ATOM     26  C   UNL A   1      38.570  21.570  25.894  1.00  0.00     0.338 C 
ATOM     27  O   UNL A   1      39.144  20.507  25.696  1.00  0.00    -0.246 OA
BRANCH  26  28
ATOM     28  C   UNL A   1      39.222  22.741  26.499  1.00  0.00     0.060 A 
ATOM     29  C   UNL A   1      38.775  24.012  26.143  1.00  0.00     0.016 A 
ATOM     30  C   UNL A   1      40.340  22.598  27.315  1.00  0.00     0.016 A 
ATOM     31  C   UNL A   1      39.487  25.141  26.523  1.00  0.00     0.010 A 
ATOM     32  C   UNL A   1      41.000  23.742  27.779  1.00  0.00     0.010 A 
ATOM     33  C   UNL A   1      40.602  25.025  27.356  1.00  0.00    -0.014 A 
BRANCH  33  34
ATOM     34  C   UNL A   1      41.394  26.233  27.710  1.00  0.00     0.031 A 
ATOM     35  C   UNL A   1      40.778  27.289  28.585  1.00  0.00     0.074 A 
ATOM     36  C   UNL A   1      42.670  26.376  27.301  1.00  0.00     0.049 A 
ATOM     37  N   UNL A   1      41.185  28.509  28.827  1.00  0.00    -0.248 NA
ATOM     38  C   UNL A   1      39.531  26.922  29.278  1.00  0.00     0.031 C 
ATOM     39  C   UNL A   1      43.435  25.392  26.535  1.00  0.00     0.029 A 
ATOM     40  N   UNL A   1      43.557  27.408  27.489  1.00  0.00    -0.354 N 
ATOM     41  C   UNL A   1      40.208  29.078  29.632  1.00  0.00     0.074 A 
ATOM     42  C   UNL A   1      39.199  28.066  29.859  1.00  0.00     0.031 C 
ATOM     43  C   UNL A   1      44.683  25.849  26.349  1.00  0.00     0.029 A 
ATOM     44  C   UNL A   1      44.777  27.200  26.892  1.00  0.00     0.049 A 
ATOM     45  H   UNL A   1      43.340  28.220  28.002  1.00  0.00     0.167 HD
ATOM     46  C   UNL A   1      40.155  30.340  30.122  1.00  0.00     0.037 A 
ATOM     47  C   UNL A   1      45.832  28.025  26.747  1.00  0.00     0.037 A 
ATOM     48  C   UNL A   1      41.194  31.318  29.950  1.00  0.00     0.049 A 
ATOM     49  C   UNL A   1      45.738  29.431  27.269  1.00  0.00     0.074 A 
ATOM     50  C   UNL A   1      41.233  32.628  30.394  1.00  0.00     0.029 A 
ATOM     51  N   UNL A   1      42.396  31.080  29.299  1.00  0.00    -0.354 N 
ATOM     52  N   UNL A   1      44.761  30.006  27.926  1.00  0.00    -0.248 NA
ATOM     53  C   UNL A   1      46.881  30.315  26.996  1.00  0.00     0.031 C 
ATOM     54  C   UNL A   1      42.450  33.190  29.992  1.00  0.00     0.029 A 
ATOM     55  C   UNL A   1      43.181  32.219  29.326  1.00  0.00     0.049 A 
ATOM     56  H   UNL A   1      42.652  30.226  28.880  1.00  0.00     0.167 HD
ATOM     57  C   UNL A   1      45.167  31.314  28.145  1.00  0.00     0.074 A 
ATOM     58  C   UNL A   1      46.492  31.443  27.574  1.00  0.00     0.031 C 
ATOM     59  C   UNL A   1      44.498  32.323  28.753  1.00  0.00     0.037 A 
BRANCH  46  60
ATOM     60  C   UNL A   1      38.908  30.747  30.846  1.00  0.00     0.064 A 
ATOM     61  C   UNL A   1      38.783  30.638  32.237  1.00  0.00     0.173 A 
ATOM     62  C   UNL A   1      37.826  31.277  30.126  1.00  0.00     0.173 A 
ATOM     63  F   UNL A   1      39.782  30.116  32.966  1.00  0.00    -0.203 F 
ATOM     64  C   UNL A   1      37.611  31.028  32.881  1.00  0.00     0.198 A 
ATOM     65  C   UNL A   1      36.666  31.689  30.775  1.00  0.00     0.198 A 
ATOM     66  F   UNL A   1      37.898  31.401  28.792  1.00  0.00    -0.203 F 
ATOM     67  F   UNL A   1      37.496  30.879  34.208  1.00  0.00    -0.200 F 
ATOM     68  C   UNL A   1      36.557  31.559  32.151  1.00  0.00     0.200 A 
ATOM     69  F   UNL A   1      35.652  32.207  30.068  1.00  0.00    -0.200 F 
ATOM     70  F   UNL A   1      35.433  31.938  32.773  1.00  0.00    -0.200 F 
ENDBRANCH  46  60
BRANCH  47  71
ATOM     71  C   UNL A   1      47.040  27.562  26.015  1.00  0.00     0.064 A 
ATOM     72  C   UNL A   1      48.131  27.010  26.699  1.00  0.00     0.173 A 
ATOM     73  C   UNL A   1      47.128  27.665  24.619  1.00  0.00     0.173 A 
ATOM     74  F   UNL A   1      48.106  26.918  28.037  1.00  0.00    -0.203 F 
ATOM     75  C   UNL A   1      49.266  26.582  26.014  1.00  0.00     0.198 A 
ATOM     76  C   UNL A   1      48.251  27.210  23.932  1.00  0.00     0.198 A 
ATOM     77  F   UNL A   1      46.113  28.191  23.918  1.00  0.00    -0.203 F 
ATOM     78  F   UNL A   1      50.312  26.092  26.693  1.00  0.00    -0.200 F 
ATOM     79  C   UNL A   1      49.322  26.674  24.630  1.00  0.00     0.200 A 
ATOM     80  F   UNL A   1      48.294  27.289  22.595  1.00  0.00    -0.200 F 
ATOM     81  F   UNL A   1      50.411  26.254  23.971  1.00  0.00    -0.200 F 
ENDBRANCH  47  71
BRANCH  59  82
ATOM     82  C   UNL A   1      45.196  33.645  28.846  1.00  0.00     0.064 A 
ATOM     83  C   UNL A   1      46.064  33.937  29.906  1.00  0.00     0.173 A 
ATOM     84  C   UNL A   1      45.022  34.613  27.846  1.00  0.00     0.173 A 
ATOM     85  F   UNL A   1      46.247  33.047  30.893  1.00  0.00    -0.203 F 
ATOM     86  C   UNL A   1      46.724  35.162  29.972  1.00  0.00     0.198 A 
ATOM     87  C   UNL A   1      45.699  35.828  27.904  1.00  0.00     0.198 A 
ATOM     88  F   UNL A   1      44.202  34.376  26.811  1.00  0.00    -0.203 F 
ATOM     89  F   UNL A   1      47.522  35.435  31.012  1.00  0.00    -0.200 F 
ATOM     90  C   UNL A   1      46.544  36.103  28.968  1.00  0.00     0.200 A 
ATOM     91  F   UNL A   1      45.531  36.733  26.931  1.00  0.00    -0.200 F 
ATOM     92  F   UNL A   1      47.182  37.279  29.031  1.00  0.00    -0.200 F 
ENDBRANCH  59  82
ENDBRANCH  33  34
ENDBRANCH  26  28
ENDBRANCH  25  26
ENDBRANCH  24  25
ENDBRANCH   1  24
TORSDOF 15
ENDMDL
