MODEL 1
REMARK VINA RESULT:     -12.1      0.000      0.000
REMARK SMILES Cc1cc2nc(C(F)(F)F)c(=O)n([C@H](C)C(=O)OCCOC(=O)c3ccc(-c4c5nc(c(-c6c(F)c(F)c(F)c(F)c6F)c6ccc([nH]6)c(-c6c(F)c(F)c(F)c(F)c6F)c6nc(c(-c7c(F)c(F)c(F)c(F)c7F)c7ccc4[nH]7)C=C6)C=C5)cc3)c2cc1C
REMARK SMILES IDX 19 1 18 2 16 3 17 4 14 5 15 6 13 7 1 8 2 9 3 10 89 11 4 12
REMARK SMILES IDX 88 13 90 14 5 15 87 16 6 17 11 18 12 19 7 20 8 21 9 22 10 23
REMARK SMILES IDX 20 24 21 25 22 26 23 27 24 28 25 29 86 30 26 31 85 32 27 33
REMARK SMILES IDX 28 34 29 35 79 36 30 37 84 38 78 39 80 40 31 41 83 42 77 43
REMARK SMILES IDX 76 44 32 46 64 47 44 48 63 49 45 50 48 51 62 52 81 53 46 54
REMARK SMILES IDX 47 55 61 57 82 58 49 59 33 60 34 61 42 62 35 63 36 64 40 65
REMARK SMILES IDX 43 66 37 67 38 68 41 69 39 70 65 71 66 72 74 73 67 74 68 75
REMARK SMILES IDX 72 76 75 77 69 78 70 79 73 80 71 81 50 82 51 83 59 84 52 85
REMARK SMILES IDX 53 86 57 87 60 88 54 89 55 90 58 91 56 92
REMARK H PARENT 80 45 48 56
REMARK Flexibility Score: inf
ROOT
ATOM      1  C   UNL A   1      32.726  31.231  27.241  1.00  0.00     0.274 C 
ENDROOT
BRANCH   1   2
ATOM      2  O   UNL A   1      32.190  30.438  26.169  1.00  0.00    -0.461 OA
BRANCH   2   3
ATOM      3  C   UNL A   1      33.050  29.604  25.535  1.00  0.00     0.329 C 
ATOM      4  O   UNL A   1      34.064  29.134  26.046  1.00  0.00    -0.250 OA
BRANCH   3   5
ATOM      5  C   UNL A   1      32.667  29.324  24.069  1.00  0.00     0.197 C 
ATOM      6  C   UNL A   1      33.757  28.804  23.130  1.00  0.00     0.044 C 
BRANCH   5   7
ATOM      7  N   UNL A   1      31.445  28.516  24.100  1.00  0.00    -0.291 N 
ATOM      8  C   UNL A   1      31.031  22.987  25.668  1.00  0.00     0.044 C 
ATOM      9  C   UNL A   1      31.233  24.396  25.180  1.00  0.00    -0.046 A 
ATOM     10  C   UNL A   1      30.131  25.089  24.661  1.00  0.00     0.034 A 
ATOM     11  C   UNL A   1      32.457  25.072  25.308  1.00  0.00    -0.046 A 
ATOM     12  C   UNL A   1      30.214  26.434  24.286  1.00  0.00     0.088 A 
ATOM     13  C   UNL A   1      32.542  26.426  24.922  1.00  0.00     0.032 A 
ATOM     14  C   UNL A   1      33.670  24.397  25.894  1.00  0.00     0.044 C 
ATOM     15  N   UNL A   1      29.048  27.024  23.778  1.00  0.00    -0.236 NA
ATOM     16  C   UNL A   1      31.429  27.125  24.424  1.00  0.00     0.071 A 
ATOM     17  C   UNL A   1      29.060  28.299  23.506  1.00  0.00     0.210 A 
ATOM     18  C   UNL A   1      30.260  29.168  23.759  1.00  0.00     0.282 A 
ATOM     19  O   UNL A   1      30.161  30.380  23.632  1.00  0.00    -0.267 OA
BRANCH  17  20
ATOM     20  C   UNL A   1      27.859  29.010  22.943  1.00  0.00     0.438 C 
ATOM     21  F   UNL A   1      28.029  29.330  21.625  1.00  0.00    -0.164 F 
ATOM     22  F   UNL A   1      26.741  28.232  22.993  1.00  0.00    -0.164 F 
ATOM     23  F   UNL A   1      27.537  30.185  23.549  1.00  0.00    -0.164 F 
ENDBRANCH  17  20
ENDBRANCH   5   7
ENDBRANCH   3   5
ENDBRANCH   2   3
ENDBRANCH   1   2
BRANCH   1  24
ATOM     24  C   UNL A   1      32.128  32.639  27.203  1.00  0.00     0.275 C 
BRANCH  24  25
ATOM     25  O   UNL A   1      33.146  33.656  27.263  1.00  0.00    -0.458 OA
BRANCH  25  26
ATOM     26  C   UNL A   1      33.337  34.229  28.475  1.00  0.00     0.338 C 
ATOM     27  O   UNL A   1      32.605  35.001  29.064  1.00  0.00    -0.246 OA
BRANCH  26  28
ATOM     28  C   UNL A   1      34.530  33.639  29.095  1.00  0.00     0.060 A 
ATOM     29  C   UNL A   1      35.807  34.036  28.705  1.00  0.00     0.016 A 
ATOM     30  C   UNL A   1      34.354  32.699  30.112  1.00  0.00     0.016 A 
ATOM     31  C   UNL A   1      36.914  33.448  29.319  1.00  0.00     0.010 A 
ATOM     32  C   UNL A   1      35.454  32.137  30.745  1.00  0.00     0.010 A 
ATOM     33  C   UNL A   1      36.743  32.489  30.333  1.00  0.00    -0.014 A 
BRANCH  33  34
ATOM     34  C   UNL A   1      37.908  31.825  30.957  1.00  0.00     0.031 A 
ATOM     35  C   UNL A   1      38.334  32.208  32.346  1.00  0.00     0.074 A 
ATOM     36  C   UNL A   1      38.590  30.901  30.258  1.00  0.00     0.049 A 
ATOM     37  N   UNL A   1      39.321  31.736  33.065  1.00  0.00    -0.248 NA
ATOM     38  C   UNL A   1      37.563  33.272  33.009  1.00  0.00     0.031 C 
ATOM     39  C   UNL A   1      38.286  30.493  28.886  1.00  0.00     0.029 A 
ATOM     40  N   UNL A   1      39.673  30.137  30.604  1.00  0.00    -0.354 N 
ATOM     41  C   UNL A   1      39.281  32.437  34.263  1.00  0.00     0.074 A 
ATOM     42  C   UNL A   1      38.218  33.411  34.153  1.00  0.00     0.031 C 
ATOM     43  C   UNL A   1      39.139  29.523  28.521  1.00  0.00     0.029 A 
ATOM     44  C   UNL A   1      40.069  29.270  29.618  1.00  0.00     0.049 A 
ATOM     45  H   UNL A   1      40.123  30.204  31.478  1.00  0.00     0.167 HD
ATOM     46  C   UNL A   1      40.042  32.256  35.367  1.00  0.00     0.037 A 
ATOM     47  C   UNL A   1      41.070  28.369  29.606  1.00  0.00     0.037 A 
ATOM     48  C   UNL A   1      41.092  31.276  35.469  1.00  0.00     0.049 A 
ATOM     49  C   UNL A   1      41.924  28.215  30.834  1.00  0.00     0.074 A 
ATOM     50  C   UNL A   1      41.897  30.984  36.555  1.00  0.00     0.029 A 
ATOM     51  N   UNL A   1      41.484  30.431  34.440  1.00  0.00    -0.354 N 
ATOM     52  N   UNL A   1      41.836  28.834  31.987  1.00  0.00    -0.248 NA
ATOM     53  C   UNL A   1      43.014  27.233  30.761  1.00  0.00     0.031 C 
ATOM     54  C   UNL A   1      42.810  29.998  36.168  1.00  0.00     0.029 A 
ATOM     55  C   UNL A   1      42.540  29.636  34.858  1.00  0.00     0.049 A 
ATOM     56  H   UNL A   1      41.074  30.400  33.546  1.00  0.00     0.167 HD
ATOM     57  C   UNL A   1      42.847  28.311  32.781  1.00  0.00     0.074 A 
ATOM     58  C   UNL A   1      43.516  27.299  31.987  1.00  0.00     0.031 C 
ATOM     59  C   UNL A   1      43.199  28.643  34.047  1.00  0.00     0.037 A 
BRANCH  46  60
ATOM     60  C   UNL A   1      39.761  33.122  36.562  1.00  0.00     0.064 A 
ATOM     61  C   UNL A   1      40.405  34.357  36.738  1.00  0.00     0.173 A 
ATOM     62  C   UNL A   1      38.793  32.749  37.506  1.00  0.00     0.173 A 
ATOM     63  F   UNL A   1      41.348  34.756  35.870  1.00  0.00    -0.203 F 
ATOM     64  C   UNL A   1      40.103  35.177  37.822  1.00  0.00     0.198 A 
ATOM     65  C   UNL A   1      38.470  33.585  38.572  1.00  0.00     0.198 A 
ATOM     66  F   UNL A   1      38.143  31.582  37.384  1.00  0.00    -0.203 F 
ATOM     67  F   UNL A   1      40.758  36.334  37.988  1.00  0.00    -0.200 F 
ATOM     68  C   UNL A   1      39.128  34.796  38.732  1.00  0.00     0.200 A 
ATOM     69  F   UNL A   1      37.517  33.223  39.442  1.00  0.00    -0.200 F 
ATOM     70  F   UNL A   1      38.824  35.595  39.763  1.00  0.00    -0.200 F 
ENDBRANCH  46  60
BRANCH  47  71
ATOM     71  C   UNL A   1      41.286  27.525  28.403  1.00  0.00     0.064 A 
ATOM     72  C   UNL A   1      40.542  26.354  28.203  1.00  0.00     0.173 A 
ATOM     73  C   UNL A   1      42.218  27.882  27.417  1.00  0.00     0.173 A 
ATOM     74  F   UNL A   1      39.652  25.962  29.126  1.00  0.00    -0.203 F 
ATOM     75  C   UNL A   1      40.730  25.566  27.070  1.00  0.00     0.198 A 
ATOM     76  C   UNL A   1      42.383  27.110  26.269  1.00  0.00     0.198 A 
ATOM     77  F   UNL A   1      42.952  28.996  27.556  1.00  0.00    -0.203 F 
ATOM     78  F   UNL A   1      40.031  24.433  26.922  1.00  0.00    -0.200 F 
ATOM     79  C   UNL A   1      41.644  25.949  26.099  1.00  0.00     0.200 A 
ATOM     80  F   UNL A   1      43.254  27.493  25.326  1.00  0.00    -0.200 F 
ATOM     81  F   UNL A   1      41.813  25.198  25.003  1.00  0.00    -0.200 F 
ENDBRANCH  47  71
BRANCH  59  82
ATOM     82  C   UNL A   1      44.363  27.911  34.652  1.00  0.00     0.064 A 
ATOM     83  C   UNL A   1      44.189  26.690  35.322  1.00  0.00     0.173 A 
ATOM     84  C   UNL A   1      45.669  28.405  34.518  1.00  0.00     0.173 A 
ATOM     85  F   UNL A   1      42.958  26.181  35.488  1.00  0.00    -0.203 F 
ATOM     86  C   UNL A   1      45.275  26.006  35.858  1.00  0.00     0.198 A 
ATOM     87  C   UNL A   1      46.757  27.700  35.025  1.00  0.00     0.198 A 
ATOM     88  F   UNL A   1      45.892  29.563  33.878  1.00  0.00    -0.203 F 
ATOM     89  F   UNL A   1      45.078  24.867  36.537  1.00  0.00    -0.200 F 
ATOM     90  C   UNL A   1      46.559  26.506  35.701  1.00  0.00     0.200 A 
ATOM     91  F   UNL A   1      47.999  28.176  34.855  1.00  0.00    -0.200 F 
ATOM     92  F   UNL A   1      47.606  25.839  36.207  1.00  0.00    -0.200 F 
ENDBRANCH  59  82
ENDBRANCH  33  34
ENDBRANCH  26  28
ENDBRANCH  25  26
ENDBRANCH  24  25
ENDBRANCH   1  24
TORSDOF 13
ENDMDL
MODEL 2
REMARK VINA RESULT:     -12.0      5.969      9.725
REMARK SMILES Cc1cc2nc(C(F)(F)F)c(=O)n([C@H](C)C(=O)OCCOC(=O)c3ccc(-c4c5nc(c(-c6c(F)c(F)c(F)c(F)c6F)c6ccc([nH]6)c(-c6c(F)c(F)c(F)c(F)c6F)c6nc(c(-c7c(F)c(F)c(F)c(F)c7F)c7ccc4[nH]7)C=C6)C=C5)cc3)c2cc1C
REMARK SMILES IDX 19 1 18 2 16 3 17 4 14 5 15 6 13 7 1 8 2 9 3 10 89 11 4 12
REMARK SMILES IDX 88 13 90 14 5 15 87 16 6 17 11 18 12 19 7 20 8 21 9 22 10 23
REMARK SMILES IDX 20 24 21 25 22 26 23 27 24 28 25 29 86 30 26 31 85 32 27 33
REMARK SMILES IDX 28 34 29 35 79 36 30 37 84 38 78 39 80 40 31 41 83 42 77 43
REMARK SMILES IDX 76 44 32 46 64 47 44 48 63 49 45 50 48 51 62 52 81 53 46 54
REMARK SMILES IDX 47 55 61 57 82 58 49 59 33 60 34 61 42 62 35 63 36 64 40 65
REMARK SMILES IDX 43 66 37 67 38 68 41 69 39 70 65 71 66 72 74 73 67 74 68 75
REMARK SMILES IDX 72 76 75 77 69 78 70 79 73 80 71 81 50 82 51 83 59 84 52 85
REMARK SMILES IDX 53 86 57 87 60 88 54 89 55 90 58 91 56 92
REMARK H PARENT 80 45 48 56
REMARK Flexibility Score: inf
ROOT
ATOM      1  C   UNL A   1      38.623  21.101  25.687  1.00  0.00     0.274 C 
ENDROOT
BRANCH   1   2
ATOM      2  O   UNL A   1      37.236  21.008  25.318  1.00  0.00    -0.461 OA
BRANCH   2   3
ATOM      3  C   UNL A   1      36.420  21.999  25.751  1.00  0.00     0.329 C 
ATOM      4  O   UNL A   1      36.729  23.188  25.784  1.00  0.00    -0.250 OA
BRANCH   3   5
ATOM      5  C   UNL A   1      35.054  21.494  26.256  1.00  0.00     0.197 C 
ATOM      6  C   UNL A   1      34.405  22.233  27.426  1.00  0.00     0.044 C 
BRANCH   5   7
ATOM      7  N   UNL A   1      34.200  21.339  25.076  1.00  0.00    -0.291 N 
ATOM      8  C   UNL A   1      31.778  25.578  22.017  1.00  0.00     0.044 C 
ATOM      9  C   UNL A   1      32.361  24.525  22.920  1.00  0.00    -0.046 A 
ATOM     10  C   UNL A   1      32.077  23.179  22.649  1.00  0.00     0.034 A 
ATOM     11  C   UNL A   1      33.249  24.832  23.963  1.00  0.00    -0.046 A 
ATOM     12  C   UNL A   1      32.665  22.140  23.377  1.00  0.00     0.088 A 
ATOM     13  C   UNL A   1      33.836  23.782  24.701  1.00  0.00     0.032 A 
ATOM     14  C   UNL A   1      33.627  26.255  24.281  1.00  0.00     0.044 C 
ATOM     15  N   UNL A   1      32.305  20.833  23.019  1.00  0.00    -0.236 NA
ATOM     16  C   UNL A   1      33.568  22.434  24.412  1.00  0.00     0.071 A 
ATOM     17  C   UNL A   1      32.903  19.835  23.610  1.00  0.00     0.210 A 
ATOM     18  C   UNL A   1      33.994  20.034  24.624  1.00  0.00     0.282 A 
ATOM     19  O   UNL A   1      34.623  19.066  25.027  1.00  0.00    -0.267 OA
BRANCH  17  20
ATOM     20  C   UNL A   1      32.568  18.402  23.299  1.00  0.00     0.438 C 
ATOM     21  F   UNL A   1      31.867  17.812  24.313  1.00  0.00    -0.164 F 
ATOM     22  F   UNL A   1      31.778  18.296  22.193  1.00  0.00    -0.164 F 
ATOM     23  F   UNL A   1      33.635  17.583  23.089  1.00  0.00    -0.164 F 
ENDBRANCH  17  20
ENDBRANCH   5   7
ENDBRANCH   3   5
ENDBRANCH   2   3
ENDBRANCH   1   2
BRANCH   1  24
ATOM     24  C   UNL A   1      39.338  19.783  25.379  1.00  0.00     0.275 C 
BRANCH  24  25
ATOM     25  O   UNL A   1      40.215  19.386  26.452  1.00  0.00    -0.458 OA
BRANCH  25  26
ATOM     26  C   UNL A   1      41.540  19.432  26.176  1.00  0.00     0.338 C 
ATOM     27  O   UNL A   1      42.229  18.576  25.654  1.00  0.00    -0.246 OA
BRANCH  26  28
ATOM     28  C   UNL A   1      42.035  20.786  26.455  1.00  0.00     0.060 A 
ATOM     29  C   UNL A   1      42.278  21.203  27.762  1.00  0.00     0.016 A 
ATOM     30  C   UNL A   1      42.293  21.634  25.376  1.00  0.00     0.016 A 
ATOM     31  C   UNL A   1      42.747  22.499  27.982  1.00  0.00     0.010 A 
ATOM     32  C   UNL A   1      42.787  22.913  25.592  1.00  0.00     0.010 A 
ATOM     33  C   UNL A   1      42.993  23.363  26.900  1.00  0.00    -0.014 A 
BRANCH  33  34
ATOM     34  C   UNL A   1      43.443  24.754  27.124  1.00  0.00     0.031 A 
ATOM     35  C   UNL A   1      42.483  25.774  27.668  1.00  0.00     0.074 A 
ATOM     36  C   UNL A   1      44.705  25.095  26.810  1.00  0.00     0.049 A 
ATOM     37  N   UNL A   1      42.688  27.037  27.939  1.00  0.00    -0.248 NA
ATOM     38  C   UNL A   1      41.106  25.320  27.925  1.00  0.00     0.031 C 
ATOM     39  C   UNL A   1      45.700  24.192  26.232  1.00  0.00     0.029 A 
ATOM     40  N   UNL A   1      45.365  26.288  26.935  1.00  0.00    -0.354 N 
ATOM     41  C   UNL A   1      41.475  27.523  28.406  1.00  0.00     0.074 A 
ATOM     42  C   UNL A   1      40.520  26.441  28.320  1.00  0.00     0.031 C 
ATOM     43  C   UNL A   1      46.859  24.854  26.090  1.00  0.00     0.029 A 
ATOM     44  C   UNL A   1      46.676  26.233  26.531  1.00  0.00     0.049 A 
ATOM     45  H   UNL A   1      44.941  27.106  27.282  1.00  0.00     0.167 HD
ATOM     46  C   UNL A   1      41.195  28.754  28.895  1.00  0.00     0.037 A 
ATOM     47  C   UNL A   1      47.621  27.192  26.524  1.00  0.00     0.037 A 
ATOM     48  C   UNL A   1      42.158  29.822  28.985  1.00  0.00     0.049 A 
ATOM     49  C   UNL A   1      47.273  28.561  27.039  1.00  0.00     0.074 A 
ATOM     50  C   UNL A   1      41.989  31.094  29.501  1.00  0.00     0.029 A 
ATOM     51  N   UNL A   1      43.471  29.739  28.542  1.00  0.00    -0.354 N 
ATOM     52  N   UNL A   1      46.141  28.994  27.542  1.00  0.00    -0.248 NA
ATOM     53  C   UNL A   1      48.335  29.575  26.990  1.00  0.00     0.031 C 
ATOM     54  C   UNL A   1      43.184  31.798  29.323  1.00  0.00     0.029 A 
ATOM     55  C   UNL A   1      44.115  30.949  28.746  1.00  0.00     0.049 A 
ATOM     56  H   UNL A   1      43.883  28.940  28.141  1.00  0.00     0.167 HD
ATOM     57  C   UNL A   1      46.357  30.322  27.881  1.00  0.00     0.074 A 
ATOM     58  C   UNL A   1      47.738  30.615  27.555  1.00  0.00     0.031 C 
ATOM     59  C   UNL A   1      45.488  31.223  28.403  1.00  0.00     0.037 A 
BRANCH  46  60
ATOM     60  C   UNL A   1      39.800  29.013  29.388  1.00  0.00     0.064 A 
ATOM     61  C   UNL A   1      38.785  29.442  28.518  1.00  0.00     0.173 A 
ATOM     62  C   UNL A   1      39.454  28.766  30.725  1.00  0.00     0.173 A 
ATOM     63  F   UNL A   1      39.065  29.703  27.232  1.00  0.00    -0.203 F 
ATOM     64  C   UNL A   1      37.483  29.632  28.971  1.00  0.00     0.198 A 
ATOM     65  C   UNL A   1      38.144  28.927  31.169  1.00  0.00     0.198 A 
ATOM     66  F   UNL A   1      40.384  28.350  31.598  1.00  0.00    -0.203 F 
ATOM     67  F   UNL A   1      36.540  30.079  28.131  1.00  0.00    -0.200 F 
ATOM     68  C   UNL A   1      37.161  29.364  30.294  1.00  0.00     0.200 A 
ATOM     69  F   UNL A   1      37.831  28.653  32.443  1.00  0.00    -0.200 F 
ATOM     70  F   UNL A   1      35.903  29.527  30.724  1.00  0.00    -0.200 F 
ENDBRANCH  46  60
BRANCH  47  71
ATOM     71  C   UNL A   1      48.990  26.871  26.045  1.00  0.00     0.064 A 
ATOM     72  C   UNL A   1      49.955  26.354  26.920  1.00  0.00     0.173 A 
ATOM     73  C   UNL A   1      49.357  27.048  24.703  1.00  0.00     0.173 A 
ATOM     74  F   UNL A   1      49.658  26.183  28.217  1.00  0.00    -0.203 F 
ATOM     75  C   UNL A   1      51.236  26.037  26.475  1.00  0.00     0.198 A 
ATOM     76  C   UNL A   1      50.628  26.703  24.251  1.00  0.00     0.198 A 
ATOM     77  F   UNL A   1      48.469  27.535  23.822  1.00  0.00    -0.203 F 
ATOM     78  F   UNL A   1      52.150  25.578  27.341  1.00  0.00    -0.200 F 
ATOM     79  C   UNL A   1      51.569  26.203  25.138  1.00  0.00     0.200 A 
ATOM     80  F   UNL A   1      50.940  26.848  22.956  1.00  0.00    -0.200 F 
ATOM     81  F   UNL A   1      52.798  25.885  24.707  1.00  0.00    -0.200 F 
ENDBRANCH  47  71
BRANCH  59  82
ATOM     82  C   UNL A   1      46.003  32.612  28.651  1.00  0.00     0.064 A 
ATOM     83  C   UNL A   1      45.884  33.619  27.681  1.00  0.00     0.173 A 
ATOM     84  C   UNL A   1      46.575  32.955  29.886  1.00  0.00     0.173 A 
ATOM     85  F   UNL A   1      45.356  33.338  26.479  1.00  0.00    -0.203 F 
ATOM     86  C   UNL A   1      46.341  34.909  27.928  1.00  0.00     0.198 A 
ATOM     87  C   UNL A   1      46.999  34.256  30.142  1.00  0.00     0.198 A 
ATOM     88  F   UNL A   1      46.703  32.033  30.852  1.00  0.00    -0.203 F 
ATOM     89  F   UNL A   1      46.262  35.841  26.968  1.00  0.00    -0.200 F 
ATOM     90  C   UNL A   1      46.889  35.230  29.161  1.00  0.00     0.200 A 
ATOM     91  F   UNL A   1      47.510  34.568  31.341  1.00  0.00    -0.200 F 
ATOM     92  F   UNL A   1      47.317  36.476  29.401  1.00  0.00    -0.200 F 
ENDBRANCH  59  82
ENDBRANCH  33  34
ENDBRANCH  26  28
ENDBRANCH  25  26
ENDBRANCH  24  25
ENDBRANCH   1  24
TORSDOF 13
ENDMDL
MODEL 3
REMARK VINA RESULT:     -12.0      2.126      2.890
REMARK SMILES Cc1cc2nc(C(F)(F)F)c(=O)n([C@H](C)C(=O)OCCOC(=O)c3ccc(-c4c5nc(c(-c6c(F)c(F)c(F)c(F)c6F)c6ccc([nH]6)c(-c6c(F)c(F)c(F)c(F)c6F)c6nc(c(-c7c(F)c(F)c(F)c(F)c7F)c7ccc4[nH]7)C=C6)C=C5)cc3)c2cc1C
REMARK SMILES IDX 19 1 18 2 16 3 17 4 14 5 15 6 13 7 1 8 2 9 3 10 89 11 4 12
REMARK SMILES IDX 88 13 90 14 5 15 87 16 6 17 11 18 12 19 7 20 8 21 9 22 10 23
REMARK SMILES IDX 20 24 21 25 22 26 23 27 24 28 25 29 86 30 26 31 85 32 27 33
REMARK SMILES IDX 28 34 29 35 79 36 30 37 84 38 78 39 80 40 31 41 83 42 77 43
REMARK SMILES IDX 76 44 32 46 64 47 44 48 63 49 45 50 48 51 62 52 81 53 46 54
REMARK SMILES IDX 47 55 61 57 82 58 49 59 33 60 34 61 42 62 35 63 36 64 40 65
REMARK SMILES IDX 43 66 37 67 38 68 41 69 39 70 65 71 66 72 74 73 67 74 68 75
REMARK SMILES IDX 72 76 75 77 69 78 70 79 73 80 71 81 50 82 51 83 59 84 52 85
REMARK SMILES IDX 53 86 57 87 60 88 54 89 55 90 58 91 56 92
REMARK H PARENT 80 45 48 56
REMARK Flexibility Score: inf
ROOT
ATOM      1  C   UNL A   1      31.735  29.180  27.183  1.00  0.00     0.274 C 
ENDROOT
BRANCH   1   2
ATOM      2  O   UNL A   1      31.424  28.147  26.232  1.00  0.00    -0.461 OA
BRANCH   2   3
ATOM      3  C   UNL A   1      32.246  27.070  26.206  1.00  0.00     0.329 C 
ATOM      4  O   UNL A   1      33.468  27.127  26.327  1.00  0.00    -0.250 OA
BRANCH   3   5
ATOM      5  C   UNL A   1      31.509  25.740  25.960  1.00  0.00     0.197 C 
ATOM      6  C   UNL A   1      29.982  25.771  25.881  1.00  0.00     0.044 C 
BRANCH   5   7
ATOM      7  N   UNL A   1      32.171  25.095  24.823  1.00  0.00    -0.291 N 
ATOM      8  C   UNL A   1      35.620  20.485  25.030  1.00  0.00     0.044 C 
ATOM      9  C   UNL A   1      34.792  21.741  25.067  1.00  0.00    -0.046 A 
ATOM     10  C   UNL A   1      34.593  22.447  23.873  1.00  0.00     0.034 A 
ATOM     11  C   UNL A   1      34.137  22.180  26.229  1.00  0.00    -0.046 A 
ATOM     12  C   UNL A   1      33.751  23.561  23.806  1.00  0.00     0.088 A 
ATOM     13  C   UNL A   1      33.294  23.309  26.161  1.00  0.00     0.032 A 
ATOM     14  C   UNL A   1      34.278  21.444  27.536  1.00  0.00     0.044 C 
ATOM     15  N   UNL A   1      33.629  24.189  22.558  1.00  0.00    -0.236 NA
ATOM     16  C   UNL A   1      33.078  24.001  24.958  1.00  0.00     0.071 A 
ATOM     17  C   UNL A   1      32.781  25.173  22.433  1.00  0.00     0.210 A 
ATOM     18  C   UNL A   1      31.899  25.626  23.562  1.00  0.00     0.282 A 
ATOM     19  O   UNL A   1      31.017  26.445  23.343  1.00  0.00    -0.267 OA
BRANCH  17  20
ATOM     20  C   UNL A   1      32.598  25.914  21.136  1.00  0.00     0.438 C 
ATOM     21  F   UNL A   1      31.285  26.218  20.906  1.00  0.00    -0.164 F 
ATOM     22  F   UNL A   1      33.259  27.105  21.136  1.00  0.00    -0.164 F 
ATOM     23  F   UNL A   1      33.003  25.249  20.020  1.00  0.00    -0.164 F 
ENDBRANCH  17  20
ENDBRANCH   5   7
ENDBRANCH   3   5
ENDBRANCH   2   3
ENDBRANCH   1   2
BRANCH   1  24
ATOM     24  C   UNL A   1      31.998  30.501  26.458  1.00  0.00     0.275 C 
BRANCH  24  25
ATOM     25  O   UNL A   1      33.402  30.826  26.429  1.00  0.00    -0.458 OA
BRANCH  25  26
ATOM     26  C   UNL A   1      33.809  31.754  27.328  1.00  0.00     0.338 C 
ATOM     27  O   UNL A   1      33.244  32.779  27.658  1.00  0.00    -0.246 OA
BRANCH  26  28
ATOM     28  C   UNL A   1      35.010  31.257  28.011  1.00  0.00     0.060 A 
ATOM     29  C   UNL A   1      35.099  29.929  28.423  1.00  0.00     0.016 A 
ATOM     30  C   UNL A   1      36.077  32.137  28.202  1.00  0.00     0.016 A 
ATOM     31  C   UNL A   1      36.258  29.499  29.070  1.00  0.00     0.010 A 
ATOM     32  C   UNL A   1      37.242  31.702  28.819  1.00  0.00     0.010 A 
ATOM     33  C   UNL A   1      37.330  30.384  29.280  1.00  0.00    -0.014 A 
BRANCH  33  34
ATOM     34  C   UNL A   1      38.543  29.953  30.008  1.00  0.00     0.031 A 
ATOM     35  C   UNL A   1      38.811  30.471  31.392  1.00  0.00     0.074 A 
ATOM     36  C   UNL A   1      39.409  29.119  29.406  1.00  0.00     0.049 A 
ATOM     37  N   UNL A   1      39.812  30.206  32.193  1.00  0.00    -0.248 NA
ATOM     38  C   UNL A   1      37.836  31.426  31.945  1.00  0.00     0.031 C 
ATOM     39  C   UNL A   1      39.265  28.597  28.047  1.00  0.00     0.029 A 
ATOM     40  N   UNL A   1      40.576  28.563  29.858  1.00  0.00    -0.354 N 
ATOM     41  C   UNL A   1      39.581  30.950  33.342  1.00  0.00     0.074 A 
ATOM     42  C   UNL A   1      38.385  31.730  33.113  1.00  0.00     0.031 C 
ATOM     43  C   UNL A   1      40.285  27.763  27.790  1.00  0.00     0.029 A 
ATOM     44  C   UNL A   1      41.170  27.723  28.950  1.00  0.00     0.049 A 
ATOM     45  H   UNL A   1      40.952  28.747  30.750  1.00  0.00     0.167 HD
ATOM     46  C   UNL A   1      40.288  30.954  34.496  1.00  0.00     0.037 A 
ATOM     47  C   UNL A   1      42.301  26.999  29.050  1.00  0.00     0.037 A 
ATOM     48  C   UNL A   1      41.473  30.166  34.716  1.00  0.00     0.049 A 
ATOM     49  C   UNL A   1      43.087  27.051  30.331  1.00  0.00     0.074 A 
ATOM     50  C   UNL A   1      42.241  30.066  35.862  1.00  0.00     0.029 A 
ATOM     51  N   UNL A   1      42.062  29.345  33.764  1.00  0.00    -0.354 N 
ATOM     52  N   UNL A   1      42.825  27.705  31.437  1.00  0.00    -0.248 NA
ATOM     53  C   UNL A   1      44.323  26.258  30.379  1.00  0.00     0.031 C 
ATOM     54  C   UNL A   1      43.325  29.225  35.587  1.00  0.00     0.029 A 
ATOM     55  C   UNL A   1      43.203  28.757  34.288  1.00  0.00     0.049 A 
ATOM     56  H   UNL A   1      41.721  29.201  32.852  1.00  0.00     0.167 HD
ATOM     57  C   UNL A   1      43.854  27.396  32.317  1.00  0.00     0.074 A 
ATOM     58  C   UNL A   1      44.727  26.469  31.624  1.00  0.00     0.031 C 
ATOM     59  C   UNL A   1      44.064  27.846  33.578  1.00  0.00     0.037 A 
BRANCH  46  60
ATOM     60  C   UNL A   1      39.794  31.822  35.618  1.00  0.00     0.064 A 
ATOM     61  C   UNL A   1      40.293  33.119  35.814  1.00  0.00     0.173 A 
ATOM     62  C   UNL A   1      38.765  31.382  36.466  1.00  0.00     0.173 A 
ATOM     63  F   UNL A   1      41.285  33.584  35.038  1.00  0.00    -0.203 F 
ATOM     64  C   UNL A   1      39.795  33.936  36.825  1.00  0.00     0.198 A 
ATOM     65  C   UNL A   1      38.248  32.212  37.456  1.00  0.00     0.198 A 
ATOM     66  F   UNL A   1      38.248  30.153  36.320  1.00  0.00    -0.203 F 
ATOM     67  F   UNL A   1      40.314  35.156  37.016  1.00  0.00    -0.200 F 
ATOM     68  C   UNL A   1      38.765  33.486  37.638  1.00  0.00     0.200 A 
ATOM     69  F   UNL A   1      37.242  31.782  38.231  1.00  0.00    -0.200 F 
ATOM     70  F   UNL A   1      38.273  34.280  38.598  1.00  0.00    -0.200 F 
ENDBRANCH  46  60
BRANCH  47  71
ATOM     71  C   UNL A   1      42.729  26.142  27.914  1.00  0.00     0.064 A 
ATOM     72  C   UNL A   1      42.234  24.838  27.773  1.00  0.00     0.173 A 
ATOM     73  C   UNL A   1      43.616  26.613  26.935  1.00  0.00     0.173 A 
ATOM     74  F   UNL A   1      41.398  24.337  28.693  1.00  0.00    -0.203 F 
ATOM     75  C   UNL A   1      42.620  24.034  26.702  1.00  0.00     0.198 A 
ATOM     76  C   UNL A   1      43.977  25.820  25.849  1.00  0.00     0.198 A 
ATOM     77  F   UNL A   1      44.114  27.856  27.020  1.00  0.00    -0.203 F 
ATOM     78  F   UNL A   1      42.161  22.779  26.611  1.00  0.00    -0.200 F 
ATOM     79  C   UNL A   1      43.484  24.528  25.736  1.00  0.00     0.200 A 
ATOM     80  F   UNL A   1      44.797  26.307  24.908  1.00  0.00    -0.200 F 
ATOM     81  F   UNL A   1      43.843  23.759  24.699  1.00  0.00    -0.200 F 
ENDBRANCH  47  71
BRANCH  59  82
ATOM     82  C   UNL A   1      45.288  27.347  34.291  1.00  0.00     0.064 A 
ATOM     83  C   UNL A   1      45.263  26.162  35.044  1.00  0.00     0.173 A 
ATOM     84  C   UNL A   1      46.510  28.028  34.181  1.00  0.00     0.173 A 
ATOM     85  F   UNL A   1      44.116  25.481  35.190  1.00  0.00    -0.203 F 
ATOM     86  C   UNL A   1      46.408  25.694  35.680  1.00  0.00     0.198 A 
ATOM     87  C   UNL A   1      47.662  27.537  34.790  1.00  0.00     0.198 A 
ATOM     88  F   UNL A   1      46.592  29.160  33.465  1.00  0.00    -0.203 F 
ATOM     89  F   UNL A   1      46.347  24.587  36.434  1.00  0.00    -0.200 F 
ATOM     90  C   UNL A   1      47.608  26.375  35.546  1.00  0.00     0.200 A 
ATOM     91  F   UNL A   1      48.825  28.187  34.643  1.00  0.00    -0.200 F 
ATOM     92  F   UNL A   1      48.712  25.915  36.149  1.00  0.00    -0.200 F 
ENDBRANCH  59  82
ENDBRANCH  33  34
ENDBRANCH  26  28
ENDBRANCH  25  26
ENDBRANCH  24  25
ENDBRANCH   1  24
TORSDOF 13
ENDMDL
