MODEL 1
REMARK VINA RESULT:     -10.7      0.000      0.000
REMARK SMILES Cc1csc(CSCC[C@H]([NH3+])C(=O)OCCOC(=O)c2ccc(-c3c4nc(c(-c5c(F)c(F)c(F)c(F)c5F)c5ccc([nH]5)c(-c5c(F)c(F)c(F)c(F)c5F)c5nc(c(-c6c(F)c(F)c(F)c(F)c6F)c6ccc3[nH]6)C=C5)C=C4)cc2)n1
REMARK SMILES IDX 14 1 12 2 13 3 10 4 9 5 8 6 7 7 6 8 5 9 1 10 2 11 3 12 83 13
REMARK SMILES IDX 4 14 11 15 15 19 16 20 17 21 18 22 19 23 20 24 21 25 82 26
REMARK SMILES IDX 22 27 81 28 23 29 24 30 25 31 75 32 26 33 80 34 74 35 76 36
REMARK SMILES IDX 27 37 79 38 73 39 72 40 28 42 60 43 40 44 59 45 41 46 44 47
REMARK SMILES IDX 58 48 77 49 42 50 43 51 57 53 78 54 45 55 29 56 30 57 38 58
REMARK SMILES IDX 31 59 32 60 36 61 39 62 33 63 34 64 37 65 35 66 61 67 62 68
REMARK SMILES IDX 70 69 63 70 64 71 68 72 71 73 65 74 66 75 69 76 67 77 46 78
REMARK SMILES IDX 47 79 55 80 48 81 49 82 53 83 56 84 50 85 51 86 54 87 52 88
REMARK H PARENT 11 16 11 17 11 18 76 41 44 52
REMARK Flexibility Score: inf
ROOT
ATOM      1  O   UNL A   1      42.864  21.423  25.546  1.00  0.00    -0.458 OA
ENDROOT
BRANCH   1   2
ATOM      2  C   UNL A   1      42.332  20.188  25.762  1.00  0.00     0.364 C 
ATOM      3  O   UNL A   1      42.616  19.190  25.113  1.00  0.00    -0.245 OA
BRANCH   2   4
ATOM      4  C   UNL A   1      41.319  20.191  26.921  1.00  0.00     0.292 C 
BRANCH   4   5
ATOM      5  C   UNL A   1      40.969  21.597  27.433  1.00  0.00     0.088 C 
BRANCH   5   6
ATOM      6  C   UNL A   1      39.760  22.327  26.838  1.00  0.00     0.077 C 
BRANCH   6   7
ATOM      7  S   UNL A   1      38.676  21.397  25.697  1.00  0.00    -0.154 SA
BRANCH   7   8
ATOM      8  C   UNL A   1      37.289  22.517  25.365  1.00  0.00     0.137 C 
BRANCH   8   9
ATOM      9  C   UNL A   1      35.893  21.986  25.545  1.00  0.00     0.103 A 
ATOM     10  C   UNL A   1      33.366  19.628  24.516  1.00  0.00     0.067 C 
ATOM     11  C   UNL A   1      34.067  20.786  25.120  1.00  0.00     0.049 A 
ATOM     12  C   UNL A   1      33.493  21.773  25.890  1.00  0.00     0.090 A 
ATOM     13  N   UNL A   1      35.431  20.926  24.911  1.00  0.00    -0.246 NA
ATOM     14  S   UNL A   1      34.696  22.833  26.452  1.00  0.00    -0.126 S 
ENDBRANCH   8   9
ENDBRANCH   7   8
ENDBRANCH   6   7
ENDBRANCH   5   6
ENDBRANCH   4   5
BRANCH   4  15
ATOM     15  N   UNL A   1      41.657  19.244  28.007  1.00  0.00    -0.346 N 
ATOM     16  H   UNL A   1      42.118  18.424  27.612  1.00  0.00     0.345 HD
ATOM     17  H   UNL A   1      40.803  18.955  28.486  1.00  0.00     0.345 HD
ATOM     18  H   UNL A   1      42.281  19.699  28.673  1.00  0.00     0.345 HD
ENDBRANCH   4  15
ENDBRANCH   2   4
ENDBRANCH   1   2
BRANCH   1  19
ATOM     19  C   UNL A   1      44.242  21.531  25.122  1.00  0.00     0.274 C 
BRANCH  19  20
ATOM     20  C   UNL A   1      44.395  22.699  24.147  1.00  0.00     0.275 C 
BRANCH  20  21
ATOM     21  O   UNL A   1      43.651  23.823  24.640  1.00  0.00    -0.458 OA
BRANCH  21  22
ATOM     22  C   UNL A   1      44.415  24.840  25.100  1.00  0.00     0.338 C 
ATOM     23  O   UNL A   1      45.448  25.274  24.611  1.00  0.00    -0.246 OA
BRANCH  22  24
ATOM     24  C   UNL A   1      43.654  25.546  26.142  1.00  0.00     0.060 A 
ATOM     25  C   UNL A   1      43.990  26.883  26.371  1.00  0.00     0.016 A 
ATOM     26  C   UNL A   1      42.624  24.934  26.860  1.00  0.00     0.016 A 
ATOM     27  C   UNL A   1      43.306  27.618  27.325  1.00  0.00     0.010 A 
ATOM     28  C   UNL A   1      41.947  25.666  27.834  1.00  0.00     0.010 A 
ATOM     29  C   UNL A   1      42.306  27.002  28.084  1.00  0.00    -0.014 A 
BRANCH  29  30
ATOM     30  C   UNL A   1      41.765  27.732  29.248  1.00  0.00     0.031 A 
ATOM     31  C   UNL A   1      42.508  27.648  30.548  1.00  0.00     0.074 A 
ATOM     32  C   UNL A   1      40.686  28.519  29.105  1.00  0.00     0.049 A 
ATOM     33  N   UNL A   1      42.244  28.215  31.695  1.00  0.00    -0.248 NA
ATOM     34  C   UNL A   1      43.719  26.808  30.559  1.00  0.00     0.031 C 
ATOM     35  C   UNL A   1      39.937  28.709  27.863  1.00  0.00     0.029 A 
ATOM     36  N   UNL A   1      40.045  29.320  30.011  1.00  0.00    -0.354 N 
ATOM     37  C   UNL A   1      43.239  27.789  32.563  1.00  0.00     0.074 A 
ATOM     38  C   UNL A   1      44.102  26.896  31.823  1.00  0.00     0.031 C 
ATOM     39  C   UNL A   1      38.942  29.584  28.083  1.00  0.00     0.029 A 
ATOM     40  C   UNL A   1      38.962  29.983  29.487  1.00  0.00     0.049 A 
ATOM     41  H   UNL A   1      40.332  29.413  30.949  1.00  0.00     0.167 HD
ATOM     42  C   UNL A   1      43.413  28.122  33.863  1.00  0.00     0.037 A 
ATOM     43  C   UNL A   1      38.085  30.806  30.089  1.00  0.00     0.037 A 
ATOM     44  C   UNL A   1      42.552  29.027  34.576  1.00  0.00     0.049 A 
ATOM     45  C   UNL A   1      38.277  31.112  31.552  1.00  0.00     0.074 A 
ATOM     46  C   UNL A   1      42.642  29.453  35.889  1.00  0.00     0.029 A 
ATOM     47  N   UNL A   1      41.434  29.644  34.030  1.00  0.00    -0.354 N 
ATOM     48  N   UNL A   1      39.229  30.720  32.366  1.00  0.00    -0.248 NA
ATOM     49  C   UNL A   1      37.274  31.982  32.178  1.00  0.00     0.031 C 
ATOM     50  C   UNL A   1      41.543  30.276  36.154  1.00  0.00     0.029 A 
ATOM     51  C   UNL A   1      40.807  30.422  34.989  1.00  0.00     0.049 A 
ATOM     52  H   UNL A   1      41.131  29.542  33.099  1.00  0.00     0.167 HD
ATOM     53  C   UNL A   1      38.957  31.320  33.590  1.00  0.00     0.074 A 
ATOM     54  C   UNL A   1      37.767  32.124  33.399  1.00  0.00     0.031 C 
ATOM     55  C   UNL A   1      39.624  31.215  34.767  1.00  0.00     0.037 A 
BRANCH  42  56
ATOM     56  C   UNL A   1      44.544  27.471  34.606  1.00  0.00     0.064 A 
ATOM     57  C   UNL A   1      45.815  28.058  34.699  1.00  0.00     0.173 A 
ATOM     58  C   UNL A   1      44.340  26.246  35.260  1.00  0.00     0.173 A 
ATOM     59  F   UNL A   1      46.072  29.217  34.074  1.00  0.00    -0.203 F 
ATOM     60  C   UNL A   1      46.843  27.434  35.403  1.00  0.00     0.198 A 
ATOM     61  C   UNL A   1      45.361  25.641  35.989  1.00  0.00     0.198 A 
ATOM     62  F   UNL A   1      43.146  25.637  35.199  1.00  0.00    -0.203 F 
ATOM     63  F   UNL A   1      48.062  27.990  35.440  1.00  0.00    -0.200 F 
ATOM     64  C   UNL A   1      46.612  26.232  36.055  1.00  0.00     0.200 A 
ATOM     65  F   UNL A   1      45.131  24.485  36.627  1.00  0.00    -0.200 F 
ATOM     66  F   UNL A   1      47.599  25.639  36.742  1.00  0.00    -0.200 F 
ENDBRANCH  42  56
BRANCH  43  67
ATOM     67  C   UNL A   1      36.948  31.390  29.328  1.00  0.00     0.064 A 
ATOM     68  C   UNL A   1      36.917  32.754  29.002  1.00  0.00     0.173 A 
ATOM     69  C   UNL A   1      35.847  30.607  28.949  1.00  0.00     0.173 A 
ATOM     70  F   UNL A   1      37.933  33.552  29.361  1.00  0.00    -0.203 F 
ATOM     71  C   UNL A   1      35.815  33.318  28.362  1.00  0.00     0.198 A 
ATOM     72  C   UNL A   1      34.761  31.165  28.275  1.00  0.00     0.198 A 
ATOM     73  F   UNL A   1      35.822  29.297  29.234  1.00  0.00    -0.203 F 
ATOM     74  F   UNL A   1      35.783  34.637  28.125  1.00  0.00    -0.200 F 
ATOM     75  C   UNL A   1      34.741  32.522  27.995  1.00  0.00     0.200 A 
ATOM     76  F   UNL A   1      33.732  30.389  27.911  1.00  0.00    -0.200 F 
ATOM     77  F   UNL A   1      33.678  33.066  27.384  1.00  0.00    -0.200 F 
ENDBRANCH  43  67
BRANCH  55  78
ATOM     78  C   UNL A   1      39.096  32.026  35.918  1.00  0.00     0.064 A 
ATOM     79  C   UNL A   1      39.472  33.363  36.115  1.00  0.00     0.173 A 
ATOM     80  C   UNL A   1      38.206  31.451  36.838  1.00  0.00     0.173 A 
ATOM     81  F   UNL A   1      40.330  33.956  35.270  1.00  0.00    -0.203 F 
ATOM     82  C   UNL A   1      39.020  34.076  37.221  1.00  0.00     0.198 A 
ATOM     83  C   UNL A   1      37.723  32.182  37.919  1.00  0.00     0.198 A 
ATOM     84  F   UNL A   1      37.803  30.180  36.689  1.00  0.00    -0.203 F 
ATOM     85  F   UNL A   1      39.458  35.326  37.433  1.00  0.00    -0.200 F 
ATOM     86  C   UNL A   1      38.143  33.488  38.119  1.00  0.00     0.200 A 
ATOM     87  F   UNL A   1      36.860  31.618  38.775  1.00  0.00    -0.200 F 
ATOM     88  F   UNL A   1      37.714  34.175  39.187  1.00  0.00    -0.200 F 
ENDBRANCH  55  78
ENDBRANCH  29  30
ENDBRANCH  22  24
ENDBRANCH  21  22
ENDBRANCH  20  21
ENDBRANCH  19  20
ENDBRANCH   1  19
TORSDOF 17
ENDMDL
MODEL 2
REMARK VINA RESULT:     -10.2      4.858      7.603
REMARK SMILES Cc1csc(CSCC[C@H]([NH3+])C(=O)OCCOC(=O)c2ccc(-c3c4nc(c(-c5c(F)c(F)c(F)c(F)c5F)c5ccc([nH]5)c(-c5c(F)c(F)c(F)c(F)c5F)c5nc(c(-c6c(F)c(F)c(F)c(F)c6F)c6ccc3[nH]6)C=C5)C=C4)cc2)n1
REMARK SMILES IDX 14 1 12 2 13 3 10 4 9 5 8 6 7 7 6 8 5 9 1 10 2 11 3 12 83 13
REMARK SMILES IDX 4 14 11 15 15 19 16 20 17 21 18 22 19 23 20 24 21 25 82 26
REMARK SMILES IDX 22 27 81 28 23 29 24 30 25 31 75 32 26 33 80 34 74 35 76 36
REMARK SMILES IDX 27 37 79 38 73 39 72 40 28 42 60 43 40 44 59 45 41 46 44 47
REMARK SMILES IDX 58 48 77 49 42 50 43 51 57 53 78 54 45 55 29 56 30 57 38 58
REMARK SMILES IDX 31 59 32 60 36 61 39 62 33 63 34 64 37 65 35 66 61 67 62 68
REMARK SMILES IDX 70 69 63 70 64 71 68 72 71 73 65 74 66 75 69 76 67 77 46 78
REMARK SMILES IDX 47 79 55 80 48 81 49 82 53 83 56 84 50 85 51 86 54 87 52 88
REMARK H PARENT 11 16 11 17 11 18 76 41 44 52
REMARK Flexibility Score: inf
ROOT
ATOM      1  O   UNL A   1      35.771  21.498  25.946  1.00  0.00    -0.458 OA
ENDROOT
BRANCH   1   2
ATOM      2  C   UNL A   1      34.538  21.406  26.518  1.00  0.00     0.364 C 
ATOM      3  O   UNL A   1      34.245  21.876  27.609  1.00  0.00    -0.245 OA
BRANCH   2   4
ATOM      4  C   UNL A   1      33.548  20.627  25.633  1.00  0.00     0.292 C 
BRANCH   4   5
ATOM      5  C   UNL A   1      32.524  21.522  24.917  1.00  0.00     0.088 C 
BRANCH   5   6
ATOM      6  C   UNL A   1      31.404  22.173  25.734  1.00  0.00     0.077 C 
BRANCH   6   7
ATOM      7  S   UNL A   1      31.293  23.997  25.732  1.00  0.00    -0.154 SA
BRANCH   7   8
ATOM      8  C   UNL A   1      32.989  24.562  25.430  1.00  0.00     0.137 C 
BRANCH   8   9
ATOM      9  C   UNL A   1      33.265  25.328  24.166  1.00  0.00     0.103 A 
ATOM     10  C   UNL A   1      33.961  28.507  22.612  1.00  0.00     0.067 C 
ATOM     11  C   UNL A   1      33.589  27.093  22.847  1.00  0.00     0.049 A 
ATOM     12  C   UNL A   1      33.234  26.174  21.884  1.00  0.00     0.090 A 
ATOM     13  N   UNL A   1      33.585  26.608  24.146  1.00  0.00    -0.246 NA
ATOM     14  S   UNL A   1      32.995  24.654  22.603  1.00  0.00    -0.126 S 
ENDBRANCH   8   9
ENDBRANCH   7   8
ENDBRANCH   6   7
ENDBRANCH   5   6
ENDBRANCH   4   5
BRANCH   4  15
ATOM     15  N   UNL A   1      32.931  19.466  26.312  1.00  0.00    -0.346 N 
ATOM     16  H   UNL A   1      33.490  19.213  27.128  1.00  0.00     0.345 HD
ATOM     17  H   UNL A   1      32.892  18.676  25.668  1.00  0.00     0.345 HD
ATOM     18  H   UNL A   1      31.985  19.708  26.609  1.00  0.00     0.345 HD
ENDBRANCH   4  15
ENDBRANCH   2   4
ENDBRANCH   1   2
BRANCH   1  19
ATOM     19  C   UNL A   1      36.151  20.535  24.937  1.00  0.00     0.274 C 
BRANCH  19  20
ATOM     20  C   UNL A   1      37.655  20.273  25.011  1.00  0.00     0.275 C 
BRANCH  20  21
ATOM     21  O   UNL A   1      38.306  21.422  25.571  1.00  0.00    -0.458 OA
BRANCH  21  22
ATOM     22  C   UNL A   1      39.447  21.146  26.243  1.00  0.00     0.338 C 
ATOM     23  O   UNL A   1      40.079  20.099  26.236  1.00  0.00    -0.246 OA
BRANCH  22  24
ATOM     24  C   UNL A   1      39.980  22.409  26.774  1.00  0.00     0.060 A 
ATOM     25  C   UNL A   1      39.390  23.588  26.311  1.00  0.00     0.016 A 
ATOM     26  C   UNL A   1      41.009  22.448  27.718  1.00  0.00     0.016 A 
ATOM     27  C   UNL A   1      39.827  24.816  26.778  1.00  0.00     0.010 A 
ATOM     28  C   UNL A   1      41.465  23.684  28.176  1.00  0.00     0.010 A 
ATOM     29  C   UNL A   1      40.890  24.869  27.687  1.00  0.00    -0.014 A 
BRANCH  29  30
ATOM     30  C   UNL A   1      41.489  26.186  27.981  1.00  0.00     0.031 A 
ATOM     31  C   UNL A   1      42.856  26.482  27.437  1.00  0.00     0.074 A 
ATOM     32  C   UNL A   1      40.780  27.115  28.641  1.00  0.00     0.049 A 
ATOM     33  N   UNL A   1      43.574  27.568  27.542  1.00  0.00    -0.248 NA
ATOM     34  C   UNL A   1      43.503  25.406  26.666  1.00  0.00     0.031 C 
ATOM     35  C   UNL A   1      39.421  26.934  29.153  1.00  0.00     0.029 A 
ATOM     36  N   UNL A   1      41.098  28.403  28.979  1.00  0.00    -0.354 N 
ATOM     37  C   UNL A   1      44.759  27.301  26.870  1.00  0.00     0.074 A 
ATOM     38  C   UNL A   1      44.678  25.944  26.380  1.00  0.00     0.031 C 
ATOM     39  C   UNL A   1      39.017  28.078  29.731  1.00  0.00     0.029 A 
ATOM     40  C   UNL A   1      40.101  29.053  29.663  1.00  0.00     0.049 A 
ATOM     41  H   UNL A   1      41.960  28.823  28.753  1.00  0.00     0.167 HD
ATOM     42  C   UNL A   1      45.816  28.124  26.680  1.00  0.00     0.037 A 
ATOM     43  C   UNL A   1      40.084  30.294  30.183  1.00  0.00     0.037 A 
ATOM     44  C   UNL A   1      45.868  29.478  27.161  1.00  0.00     0.049 A 
ATOM     45  C   UNL A   1      41.300  31.165  30.000  1.00  0.00     0.074 A 
ATOM     46  C   UNL A   1      46.878  30.411  27.012  1.00  0.00     0.029 A 
ATOM     47  N   UNL A   1      44.861  30.092  27.895  1.00  0.00    -0.354 N 
ATOM     48  N   UNL A   1      42.413  30.914  29.351  1.00  0.00    -0.248 NA
ATOM     49  C   UNL A   1      41.254  32.495  30.619  1.00  0.00     0.031 C 
ATOM     50  C   UNL A   1      46.509  31.566  27.708  1.00  0.00     0.029 A 
ATOM     51  C   UNL A   1      45.239  31.381  28.232  1.00  0.00     0.049 A 
ATOM     52  H   UNL A   1      44.004  29.672  28.139  1.00  0.00     0.167 HD
ATOM     53  C   UNL A   1      43.184  32.065  29.455  1.00  0.00     0.074 A 
ATOM     54  C   UNL A   1      42.397  33.021  30.207  1.00  0.00     0.031 C 
ATOM     55  C   UNL A   1      44.431  32.312  28.980  1.00  0.00     0.037 A 
BRANCH  42  56
ATOM     56  C   UNL A   1      47.014  27.569  25.964  1.00  0.00     0.064 A 
ATOM     57  C   UNL A   1      47.179  27.689  24.576  1.00  0.00     0.173 A 
ATOM     58  C   UNL A   1      48.030  26.927  26.690  1.00  0.00     0.173 A 
ATOM     59  F   UNL A   1      46.228  28.273  23.831  1.00  0.00    -0.203 F 
ATOM     60  C   UNL A   1      48.306  27.172  23.940  1.00  0.00     0.198 A 
ATOM     61  C   UNL A   1      49.169  26.440  26.056  1.00  0.00     0.198 A 
ATOM     62  F   UNL A   1      47.920  26.779  28.019  1.00  0.00    -0.203 F 
ATOM     63  F   UNL A   1      48.420  27.258  22.608  1.00  0.00    -0.200 F 
ATOM     64  C   UNL A   1      49.304  26.557  24.682  1.00  0.00     0.200 A 
ATOM     65  F   UNL A   1      50.136  25.856  26.777  1.00  0.00    -0.200 F 
ATOM     66  F   UNL A   1      50.392  26.070  24.070  1.00  0.00    -0.200 F 
ENDBRANCH  42  56
BRANCH  43  67
ATOM     67  C   UNL A   1      38.895  30.786  30.930  1.00  0.00     0.064 A 
ATOM     68  C   UNL A   1      38.794  30.627  32.320  1.00  0.00     0.173 A 
ATOM     69  C   UNL A   1      37.814  31.385  30.266  1.00  0.00     0.173 A 
ATOM     70  F   UNL A   1      39.790  30.040  33.001  1.00  0.00    -0.203 F 
ATOM     71  C   UNL A   1      37.646  31.013  33.009  1.00  0.00     0.198 A 
ATOM     72  C   UNL A   1      36.681  31.805  30.962  1.00  0.00     0.198 A 
ATOM     73  F   UNL A   1      37.855  31.562  28.937  1.00  0.00    -0.203 F 
ATOM     74  F   UNL A   1      37.551  30.786  34.327  1.00  0.00    -0.200 F 
ATOM     75  C   UNL A   1      36.593  31.606  32.330  1.00  0.00     0.200 A 
ATOM     76  F   UNL A   1      35.672  32.389  30.302  1.00  0.00    -0.200 F 
ATOM     77  F   UNL A   1      35.487  31.971  32.992  1.00  0.00    -0.200 F 
ENDBRANCH  43  67
BRANCH  55  78
ATOM     78  C   UNL A   1      44.990  33.684  29.228  1.00  0.00     0.064 A 
ATOM     79  C   UNL A   1      45.765  33.975  30.362  1.00  0.00     0.173 A 
ATOM     80  C   UNL A   1      44.741  34.724  28.319  1.00  0.00     0.173 A 
ATOM     81  F   UNL A   1      46.023  33.019  31.267  1.00  0.00    -0.203 F 
ATOM     82  C   UNL A   1      46.221  35.267  30.604  1.00  0.00     0.198 A 
ATOM     83  C   UNL A   1      45.235  36.005  28.544  1.00  0.00     0.198 A 
ATOM     84  F   UNL A   1      44.018  34.499  27.212  1.00  0.00    -0.203 F 
ATOM     85  F   UNL A   1      46.888  35.538  31.735  1.00  0.00    -0.200 F 
ATOM     86  C   UNL A   1      45.960  36.280  29.693  1.00  0.00     0.200 A 
ATOM     87  F   UNL A   1      45.000  36.978  27.653  1.00  0.00    -0.200 F 
ATOM     88  F   UNL A   1      46.396  37.525  29.931  1.00  0.00    -0.200 F 
ENDBRANCH  55  78
ENDBRANCH  29  30
ENDBRANCH  22  24
ENDBRANCH  21  22
ENDBRANCH  20  21
ENDBRANCH  19  20
ENDBRANCH   1  19
TORSDOF 17
ENDMDL
MODEL 3
REMARK VINA RESULT:     -10.2      4.202      9.062
REMARK SMILES Cc1csc(CSCC[C@H]([NH3+])C(=O)OCCOC(=O)c2ccc(-c3c4nc(c(-c5c(F)c(F)c(F)c(F)c5F)c5ccc([nH]5)c(-c5c(F)c(F)c(F)c(F)c5F)c5nc(c(-c6c(F)c(F)c(F)c(F)c6F)c6ccc3[nH]6)C=C5)C=C4)cc2)n1
REMARK SMILES IDX 14 1 12 2 13 3 10 4 9 5 8 6 7 7 6 8 5 9 1 10 2 11 3 12 83 13
REMARK SMILES IDX 4 14 11 15 15 19 16 20 17 21 18 22 19 23 20 24 21 25 82 26
REMARK SMILES IDX 22 27 81 28 23 29 24 30 25 31 75 32 26 33 80 34 74 35 76 36
REMARK SMILES IDX 27 37 79 38 73 39 72 40 28 42 60 43 40 44 59 45 41 46 44 47
REMARK SMILES IDX 58 48 77 49 42 50 43 51 57 53 78 54 45 55 29 56 30 57 38 58
REMARK SMILES IDX 31 59 32 60 36 61 39 62 33 63 34 64 37 65 35 66 61 67 62 68
REMARK SMILES IDX 70 69 63 70 64 71 68 72 71 73 65 74 66 75 69 76 67 77 46 78
REMARK SMILES IDX 47 79 55 80 48 81 49 82 53 83 56 84 50 85 51 86 54 87 52 88
REMARK H PARENT 11 16 11 17 11 18 76 41 44 52
REMARK Flexibility Score: inf
ROOT
ATOM      1  O   UNL A   1      32.105  28.620  25.941  1.00  0.00    -0.458 OA
ENDROOT
BRANCH   1   2
ATOM      2  C   UNL A   1      31.451  27.669  26.666  1.00  0.00     0.364 C 
ATOM      3  O   UNL A   1      31.042  27.829  27.808  1.00  0.00    -0.245 OA
BRANCH   2   4
ATOM      4  C   UNL A   1      31.291  26.354  25.880  1.00  0.00     0.292 C 
BRANCH   4   5
ATOM      5  C   UNL A   1      30.065  26.332  24.955  1.00  0.00     0.088 C 
BRANCH   5   6
ATOM      6  C   UNL A   1      30.229  26.754  23.491  1.00  0.00     0.077 C 
BRANCH   6   7
ATOM      7  S   UNL A   1      31.924  26.857  22.815  1.00  0.00    -0.154 SA
BRANCH   7   8
ATOM      8  C   UNL A   1      32.223  25.232  22.069  1.00  0.00     0.137 C 
BRANCH   8   9
ATOM      9  C   UNL A   1      33.084  24.255  22.822  1.00  0.00     0.103 A 
ATOM     10  C   UNL A   1      36.384  22.944  23.448  1.00  0.00     0.067 C 
ATOM     11  C   UNL A   1      34.914  23.122  23.388  1.00  0.00     0.049 A 
ATOM     12  C   UNL A   1      33.969  22.268  23.912  1.00  0.00     0.090 A 
ATOM     13  N   UNL A   1      34.401  24.241  22.751  1.00  0.00    -0.246 NA
ATOM     14  S   UNL A   1      32.419  22.929  23.699  1.00  0.00    -0.126 S 
ENDBRANCH   8   9
ENDBRANCH   7   8
ENDBRANCH   6   7
ENDBRANCH   5   6
ENDBRANCH   4   5
BRANCH   4  15
ATOM     15  N   UNL A   1      31.406  25.142  26.722  1.00  0.00    -0.346 N 
ATOM     16  H   UNL A   1      31.402  24.313  26.127  1.00  0.00     0.345 HD
ATOM     17  H   UNL A   1      30.616  25.101  27.368  1.00  0.00     0.345 HD
ATOM     18  H   UNL A   1      32.276  25.177  27.253  1.00  0.00     0.345 HD
ENDBRANCH   4  15
ENDBRANCH   2   4
ENDBRANCH   1   2
BRANCH   1  19
ATOM     19  C   UNL A   1      31.401  29.827  25.571  1.00  0.00     0.274 C 
BRANCH  19  20
ATOM     20  C   UNL A   1      31.828  30.977  26.484  1.00  0.00     0.275 C 
BRANCH  20  21
ATOM     21  O   UNL A   1      33.187  30.770  26.896  1.00  0.00    -0.458 OA
BRANCH  21  22
ATOM     22  C   UNL A   1      33.751  31.833  27.514  1.00  0.00     0.338 C 
ATOM     23  O   UNL A   1      33.217  32.894  27.804  1.00  0.00    -0.246 OA
BRANCH  22  24
ATOM     24  C   UNL A   1      35.054  31.410  28.049  1.00  0.00     0.060 A 
ATOM     25  C   UNL A   1      35.199  30.055  28.360  1.00  0.00     0.016 A 
ATOM     26  C   UNL A   1      36.116  32.301  28.221  1.00  0.00     0.016 A 
ATOM     27  C   UNL A   1      36.403  29.579  28.853  1.00  0.00     0.010 A 
ATOM     28  C   UNL A   1      37.323  31.828  28.736  1.00  0.00     0.010 A 
ATOM     29  C   UNL A   1      37.458  30.471  29.075  1.00  0.00    -0.014 A 
BRANCH  29  30
ATOM     30  C   UNL A   1      38.636  29.984  29.820  1.00  0.00     0.031 A 
ATOM     31  C   UNL A   1      38.821  30.444  31.236  1.00  0.00     0.074 A 
ATOM     32  C   UNL A   1      39.459  29.084  29.260  1.00  0.00     0.049 A 
ATOM     33  N   UNL A   1      39.758  30.138  32.093  1.00  0.00    -0.248 NA
ATOM     34  C   UNL A   1      37.809  31.379  31.760  1.00  0.00     0.031 C 
ATOM     35  C   UNL A   1      39.320  28.535  27.912  1.00  0.00     0.029 A 
ATOM     36  N   UNL A   1      40.567  28.458  29.766  1.00  0.00    -0.354 N 
ATOM     37  C   UNL A   1      39.461  30.852  33.246  1.00  0.00     0.074 A 
ATOM     38  C   UNL A   1      38.271  31.627  32.976  1.00  0.00     0.031 C 
ATOM     39  C   UNL A   1      40.301  27.642  27.700  1.00  0.00     0.029 A 
ATOM     40  C   UNL A   1      41.156  27.587  28.882  1.00  0.00     0.049 A 
ATOM     41  H   UNL A   1      40.909  28.616  30.677  1.00  0.00     0.167 HD
ATOM     42  C   UNL A   1      40.126  30.852  34.424  1.00  0.00     0.037 A 
ATOM     43  C   UNL A   1      42.270  26.845  29.021  1.00  0.00     0.037 A 
ATOM     44  C   UNL A   1      41.299  30.058  34.677  1.00  0.00     0.049 A 
ATOM     45  C   UNL A   1      43.017  26.911  30.328  1.00  0.00     0.074 A 
ATOM     46  C   UNL A   1      42.045  29.964  35.837  1.00  0.00     0.029 A 
ATOM     47  N   UNL A   1      41.901  29.224  33.744  1.00  0.00    -0.354 N 
ATOM     48  N   UNL A   1      42.725  27.576  31.421  1.00  0.00    -0.248 NA
ATOM     49  C   UNL A   1      44.249  26.118  30.421  1.00  0.00     0.031 C 
ATOM     50  C   UNL A   1      43.133  29.121  35.587  1.00  0.00     0.029 A 
ATOM     51  C   UNL A   1      43.027  28.634  34.293  1.00  0.00     0.049 A 
ATOM     52  H   UNL A   1      41.575  29.074  32.827  1.00  0.00     0.167 HD
ATOM     53  C   UNL A   1      43.716  27.256  32.341  1.00  0.00     0.074 A 
ATOM     54  C   UNL A   1      44.600  26.316  31.682  1.00  0.00     0.031 C 
ATOM     55  C   UNL A   1      43.887  27.699  33.612  1.00  0.00     0.037 A 
BRANCH  42  56
ATOM     56  C   UNL A   1      39.631  31.767  35.506  1.00  0.00     0.064 A 
ATOM     57  C   UNL A   1      40.105  33.079  35.653  1.00  0.00     0.173 A 
ATOM     58  C   UNL A   1      38.639  31.327  36.397  1.00  0.00     0.173 A 
ATOM     59  F   UNL A   1      41.069  33.544  34.844  1.00  0.00    -0.203 F 
ATOM     60  C   UNL A   1      39.620  33.909  36.662  1.00  0.00     0.198 A 
ATOM     61  C   UNL A   1      38.133  32.169  37.383  1.00  0.00     0.198 A 
ATOM     62  F   UNL A   1      38.153  30.080  36.305  1.00  0.00    -0.203 F 
ATOM     63  F   UNL A   1      40.121  35.142  36.813  1.00  0.00    -0.200 F 
ATOM     64  C   UNL A   1      38.627  33.456  37.519  1.00  0.00     0.200 A 
ATOM     65  F   UNL A   1      37.166  31.732  38.203  1.00  0.00    -0.200 F 
ATOM     66  F   UNL A   1      38.153  34.259  38.482  1.00  0.00    -0.200 F 
ENDBRANCH  42  56
BRANCH  43  67
ATOM     67  C   UNL A   1      42.755  25.990  27.904  1.00  0.00     0.064 A 
ATOM     68  C   UNL A   1      43.656  26.485  26.950  1.00  0.00     0.173 A 
ATOM     69  C   UNL A   1      42.293  24.676  27.740  1.00  0.00     0.173 A 
ATOM     70  F   UNL A   1      44.111  27.743  27.047  1.00  0.00    -0.203 F 
ATOM     71  C   UNL A   1      44.047  25.713  25.858  1.00  0.00     0.198 A 
ATOM     72  C   UNL A   1      42.714  23.891  26.667  1.00  0.00     0.198 A 
ATOM     73  F   UNL A   1      41.430  24.150  28.621  1.00  0.00    -0.203 F 
ATOM     74  F   UNL A   1      44.855  26.236  24.925  1.00  0.00    -0.200 F 
ATOM     75  C   UNL A   1      43.579  24.415  25.720  1.00  0.00     0.200 A 
ATOM     76  F   UNL A   1      42.269  22.633  26.546  1.00  0.00    -0.200 F 
ATOM     77  F   UNL A   1      43.950  23.675  24.666  1.00  0.00    -0.200 F 
ENDBRANCH  43  67
BRANCH  55  78
ATOM     78  C   UNL A   1      45.051  27.133  34.375  1.00  0.00     0.064 A 
ATOM     79  C   UNL A   1      46.312  27.749  34.367  1.00  0.00     0.173 A 
ATOM     80  C   UNL A   1      44.902  25.952  35.119  1.00  0.00     0.173 A 
ATOM     81  F   UNL A   1      46.510  28.873  33.663  1.00  0.00    -0.203 F 
ATOM     82  C   UNL A   1      47.392  27.174  35.030  1.00  0.00     0.198 A 
ATOM     83  C   UNL A   1      45.974  25.404  35.815  1.00  0.00     0.198 A 
ATOM     84  F   UNL A   1      43.715  25.329  35.172  1.00  0.00    -0.203 F 
ATOM     85  F   UNL A   1      48.606  27.737  34.941  1.00  0.00    -0.200 F 
ATOM     86  C   UNL A   1      47.222  26.006  35.757  1.00  0.00     0.200 A 
ATOM     87  F   UNL A   1      45.804  24.286  36.534  1.00  0.00    -0.200 F 
ATOM     88  F   UNL A   1      48.265  25.451  36.390  1.00  0.00    -0.200 F 
ENDBRANCH  55  78
ENDBRANCH  29  30
ENDBRANCH  22  24
ENDBRANCH  21  22
ENDBRANCH  20  21
ENDBRANCH  19  20
ENDBRANCH   1  19
TORSDOF 17
ENDMDL
