MODEL 1
REMARK VINA RESULT:     -13.2      0.000      0.000
REMARK SMILES CN1C(=O)/C(=C\c2ccc(-c3ccccc3C(=O)OCCOC(=O)c3ccc(-c4c5nc(c(-c6c(F)c(F)c(F)c(F)c6F)c6ccc([nH]6)c(-c6c(F)c(F)c(F)c(F)c6F)c6nc(c(-c7c(F)c(F)c(F)c(F)c7F)c7ccc4[nH]7)C=C6)C=C5)cc3)o2)C(=O)[NH+]=C1S
REMARK SMILES IDX 20 1 19 2 17 3 18 4 16 5 11 6 12 7 13 8 15 9 14 10 10 11
REMARK SMILES IDX 7 12 8 13 88 14 9 15 6 16 1 17 2 18 3 19 92 20 4 21 5 22
REMARK SMILES IDX 91 23 89 24 90 26 93 27 21 29 22 30 23 31 24 32 25 33 26 34
REMARK SMILES IDX 87 35 27 36 86 37 28 38 29 39 30 40 80 41 31 42 85 43 79 44
REMARK SMILES IDX 81 45 32 46 84 47 78 48 77 49 33 51 65 52 45 53 64 54 46 55
REMARK SMILES IDX 49 56 63 57 82 58 47 59 48 60 62 62 83 63 50 64 34 65 35 66
REMARK SMILES IDX 43 67 36 68 37 69 41 70 44 71 38 72 39 73 42 74 40 75 66 76
REMARK SMILES IDX 67 77 75 78 68 79 69 80 73 81 76 82 70 83 71 84 74 85 72 86
REMARK SMILES IDX 51 87 52 88 60 89 53 90 54 91 58 92 61 93 55 94 56 95 59 96
REMARK SMILES IDX 57 97
REMARK H PARENT 91 25 93 28 81 50 49 61
REMARK Flexibility Score: inf
ROOT
ATOM      1  C   UNL A   1      33.092  29.331  24.924  1.00  0.00     0.275 C 
ENDROOT
BRANCH   1   2
ATOM      2  O   UNL A   1      32.530  28.043  24.599  1.00  0.00    -0.458 OA
BRANCH   2   3
ATOM      3  C   UNL A   1      32.033  27.863  23.353  1.00  0.00     0.338 C 
ATOM      4  O   UNL A   1      32.682  27.636  22.344  1.00  0.00    -0.246 OA
BRANCH   3   5
ATOM      5  C   UNL A   1      30.545  27.903  23.355  1.00  0.00     0.071 A 
ATOM      6  C   UNL A   1      29.753  26.765  23.583  1.00  0.00     0.032 A 
ATOM      7  C   UNL A   1      28.353  26.905  23.587  1.00  0.00     0.013 A 
ATOM      8  C   UNL A   1      27.750  28.144  23.355  1.00  0.00     0.001 A 
ATOM      9  C   UNL A   1      29.928  29.151  23.159  1.00  0.00     0.016 A 
ATOM     10  C   UNL A   1      28.539  29.266  23.131  1.00  0.00     0.001 A 
BRANCH   6  11
ATOM     11  C   UNL A   1      30.335  25.460  23.838  1.00  0.00     0.135 A 
ATOM     12  C   UNL A   1      31.352  24.007  25.150  1.00  0.00     0.128 A 
ATOM     13  C   UNL A   1      30.941  23.327  24.010  1.00  0.00     0.051 A 
ATOM     14  O   UNL A   1      30.921  25.303  25.055  1.00  0.00    -0.457 OA
ATOM     15  C   UNL A   1      30.381  24.277  23.134  1.00  0.00     0.051 A 
BRANCH  12  16
ATOM     16  C   UNL A   1      32.147  23.533  26.220  1.00  0.00     0.071 C 
ATOM     17  C   UNL A   1      36.051  23.335  23.362  1.00  0.00     0.301 C 
ATOM     18  N   UNL A   1      35.418  23.162  24.668  1.00  0.00    -0.189 N 
ATOM     19  C   UNL A   1      34.221  23.809  24.868  1.00  0.00     0.349 C 
ATOM     20  C   UNL A   1      36.001  22.492  25.713  1.00  0.00     0.318 C 
ATOM     21  O   UNL A   1      33.821  24.698  24.121  1.00  0.00    -0.240 OA
ATOM     22  C   UNL A   1      33.479  23.386  26.077  1.00  0.00     0.157 C 
ATOM     23  N   UNL A   1      35.483  22.305  26.872  1.00  0.00    -0.200 N 
ATOM     24  C   UNL A   1      34.216  22.722  27.171  1.00  0.00     0.347 C 
ATOM     25  H   UNL A   1      36.012  21.847  27.565  1.00  0.00     0.316 HD
ATOM     26  O   UNL A   1      33.700  22.518  28.258  1.00  0.00    -0.241 OA
BRANCH  20  27
ATOM     27  S   UNL A   1      37.604  21.838  25.485  1.00  0.00    -0.055 SA
ATOM     28  H   UNL A   1      38.317  22.659  24.669  1.00  0.00     0.116 HD
ENDBRANCH  20  27
ENDBRANCH  12  16
ENDBRANCH   6  11
ENDBRANCH   3   5
ENDBRANCH   2   3
ENDBRANCH   1   2
BRANCH   1  29
ATOM     29  C   UNL A   1      32.070  30.186  25.667  1.00  0.00     0.275 C 
BRANCH  29  30
ATOM     30  O   UNL A   1      32.488  30.348  27.033  1.00  0.00    -0.458 OA
BRANCH  30  31
ATOM     31  C   UNL A   1      33.157  31.496  27.270  1.00  0.00     0.338 C 
ATOM     32  O   UNL A   1      32.733  32.639  27.245  1.00  0.00    -0.246 OA
BRANCH  31  33
ATOM     33  C   UNL A   1      34.512  31.180  27.723  1.00  0.00     0.060 A 
ATOM     34  C   UNL A   1      34.780  29.858  28.061  1.00  0.00     0.016 A 
ATOM     35  C   UNL A   1      35.435  32.182  27.991  1.00  0.00     0.016 A 
ATOM     36  C   UNL A   1      35.923  29.538  28.776  1.00  0.00     0.010 A 
ATOM     37  C   UNL A   1      36.635  31.843  28.624  1.00  0.00     0.010 A 
ATOM     38  C   UNL A   1      36.871  30.526  29.066  1.00  0.00    -0.014 A 
BRANCH  38  39
ATOM     39  C   UNL A   1      38.068  30.192  29.887  1.00  0.00     0.031 A 
ATOM     40  C   UNL A   1      39.146  29.308  29.315  1.00  0.00     0.074 A 
ATOM     41  C   UNL A   1      38.207  30.702  31.127  1.00  0.00     0.049 A 
ATOM     42  N   UNL A   1      40.169  28.750  29.913  1.00  0.00    -0.248 NA
ATOM     43  C   UNL A   1      39.052  28.994  27.879  1.00  0.00     0.031 C 
ATOM     44  C   UNL A   1      37.271  31.620  31.779  1.00  0.00     0.029 A 
ATOM     45  N   UNL A   1      39.198  30.527  32.061  1.00  0.00    -0.354 N 
ATOM     46  C   UNL A   1      40.809  27.989  28.943  1.00  0.00     0.074 A 
ATOM     47  C   UNL A   1      40.047  28.132  27.722  1.00  0.00     0.031 C 
ATOM     48  C   UNL A   1      37.748  31.956  32.987  1.00  0.00     0.029 A 
ATOM     49  C   UNL A   1      38.968  31.200  33.237  1.00  0.00     0.049 A 
ATOM     50  H   UNL A   1      39.996  29.971  31.904  1.00  0.00     0.167 HD
ATOM     51  C   UNL A   1      41.937  27.247  29.060  1.00  0.00     0.037 A 
ATOM     52  C   UNL A   1      39.639  31.176  34.403  1.00  0.00     0.037 A 
ATOM     53  C   UNL A   1      42.711  27.142  30.270  1.00  0.00     0.049 A 
ATOM     54  C   UNL A   1      40.847  30.286  34.524  1.00  0.00     0.074 A 
ATOM     55  C   UNL A   1      43.855  26.398  30.506  1.00  0.00     0.029 A 
ATOM     56  N   UNL A   1      42.428  27.821  31.448  1.00  0.00    -0.354 N 
ATOM     57  N   UNL A   1      41.410  29.522  33.621  1.00  0.00    -0.248 NA
ATOM     58  C   UNL A   1      41.507  30.252  35.836  1.00  0.00     0.031 C 
ATOM     59  C   UNL A   1      44.241  26.597  31.836  1.00  0.00     0.029 A 
ATOM     60  C   UNL A   1      43.374  27.511  32.412  1.00  0.00     0.049 A 
ATOM     61  H   UNL A   1      41.667  28.430  31.579  1.00  0.00     0.167 HD
ATOM     62  C   UNL A   1      42.511  28.948  34.241  1.00  0.00     0.074 A 
ATOM     63  C   UNL A   1      42.547  29.469  35.591  1.00  0.00     0.031 C 
ATOM     64  C   UNL A   1      43.409  28.063  33.742  1.00  0.00     0.037 A 
BRANCH  51  65
ATOM     65  C   UNL A   1      42.398  26.476  27.854  1.00  0.00     0.064 A 
ATOM     66  C   UNL A   1      43.349  26.994  26.963  1.00  0.00     0.173 A 
ATOM     67  C   UNL A   1      41.914  25.179  27.612  1.00  0.00     0.173 A 
ATOM     68  F   UNL A   1      43.835  28.231  27.138  1.00  0.00    -0.203 F 
ATOM     69  C   UNL A   1      43.781  26.253  25.864  1.00  0.00     0.198 A 
ATOM     70  C   UNL A   1      42.372  24.430  26.532  1.00  0.00     0.198 A 
ATOM     71  F   UNL A   1      41.006  24.633  28.435  1.00  0.00    -0.203 F 
ATOM     72  F   UNL A   1      44.657  26.788  25.001  1.00  0.00    -0.200 F 
ATOM     73  C   UNL A   1      43.301  24.970  25.655  1.00  0.00     0.200 A 
ATOM     74  F   UNL A   1      41.918  23.184  26.342  1.00  0.00    -0.200 F 
ATOM     75  F   UNL A   1      43.727  24.255  24.606  1.00  0.00    -0.200 F 
ENDBRANCH  51  65
BRANCH  52  76
ATOM     76  C   UNL A   1      39.167  31.977  35.565  1.00  0.00     0.064 A 
ATOM     77  C   UNL A   1      39.619  33.290  35.768  1.00  0.00     0.173 A 
ATOM     78  C   UNL A   1      38.294  31.437  36.522  1.00  0.00     0.173 A 
ATOM     79  F   UNL A   1      40.472  33.846  34.895  1.00  0.00    -0.203 F 
ATOM     80  C   UNL A   1      39.247  34.014  36.900  1.00  0.00     0.198 A 
ATOM     81  C   UNL A   1      37.889  32.178  37.631  1.00  0.00     0.198 A 
ATOM     82  F   UNL A   1      37.829  30.188  36.380  1.00  0.00    -0.203 F 
ATOM     83  F   UNL A   1      39.754  35.238  37.103  1.00  0.00    -0.200 F 
ATOM     84  C   UNL A   1      38.378  33.460  37.827  1.00  0.00     0.200 A 
ATOM     85  F   UNL A   1      37.035  31.644  38.515  1.00  0.00    -0.200 F 
ATOM     86  F   UNL A   1      38.026  34.155  38.916  1.00  0.00    -0.200 F 
ENDBRANCH  52  76
BRANCH  64  87
ATOM     87  C   UNL A   1      44.549  27.673  34.639  1.00  0.00     0.064 A 
ATOM     88  C   UNL A   1      45.751  28.397  34.673  1.00  0.00     0.173 A 
ATOM     89  C   UNL A   1      44.435  26.549  35.472  1.00  0.00     0.173 A 
ATOM     90  F   UNL A   1      45.917  29.469  33.885  1.00  0.00    -0.203 F 
ATOM     91  C   UNL A   1      46.813  27.980  35.471  1.00  0.00     0.198 A 
ATOM     92  C   UNL A   1      45.485  26.160  36.298  1.00  0.00     0.198 A 
ATOM     93  F   UNL A   1      43.305  25.827  35.485  1.00  0.00    -0.203 F 
ATOM     94  F   UNL A   1      47.978  28.641  35.429  1.00  0.00    -0.200 F 
ATOM     95  C   UNL A   1      46.678  26.866  36.286  1.00  0.00     0.200 A 
ATOM     96  F   UNL A   1      45.346  25.092  37.096  1.00  0.00    -0.200 F 
ATOM     97  F   UNL A   1      47.704  26.464  37.050  1.00  0.00    -0.200 F 
ENDBRANCH  64  87
ENDBRANCH  38  39
ENDBRANCH  31  33
ENDBRANCH  30  31
ENDBRANCH  29  30
ENDBRANCH   1  29
TORSDOF 14
ENDMDL
MODEL 2
REMARK VINA RESULT:     -13.1      0.343      1.595
REMARK SMILES CN1C(=O)/C(=C\c2ccc(-c3ccccc3C(=O)OCCOC(=O)c3ccc(-c4c5nc(c(-c6c(F)c(F)c(F)c(F)c6F)c6ccc([nH]6)c(-c6c(F)c(F)c(F)c(F)c6F)c6nc(c(-c7c(F)c(F)c(F)c(F)c7F)c7ccc4[nH]7)C=C6)C=C5)cc3)o2)C(=O)[NH+]=C1S
REMARK SMILES IDX 20 1 19 2 17 3 18 4 16 5 11 6 12 7 13 8 15 9 14 10 10 11
REMARK SMILES IDX 7 12 8 13 88 14 9 15 6 16 1 17 2 18 3 19 92 20 4 21 5 22
REMARK SMILES IDX 91 23 89 24 90 26 93 27 21 29 22 30 23 31 24 32 25 33 26 34
REMARK SMILES IDX 87 35 27 36 86 37 28 38 29 39 30 40 80 41 31 42 85 43 79 44
REMARK SMILES IDX 81 45 32 46 84 47 78 48 77 49 33 51 65 52 45 53 64 54 46 55
REMARK SMILES IDX 49 56 63 57 82 58 47 59 48 60 62 62 83 63 50 64 34 65 35 66
REMARK SMILES IDX 43 67 36 68 37 69 41 70 44 71 38 72 39 73 42 74 40 75 66 76
REMARK SMILES IDX 67 77 75 78 68 79 69 80 73 81 76 82 70 83 71 84 74 85 72 86
REMARK SMILES IDX 51 87 52 88 60 89 53 90 54 91 58 92 61 93 55 94 56 95 59 96
REMARK SMILES IDX 57 97
REMARK H PARENT 91 25 93 28 81 50 49 61
REMARK Flexibility Score: inf
ROOT
ATOM      1  C   UNL A   1      33.144  29.321  24.745  1.00  0.00     0.275 C 
ENDROOT
BRANCH   1   2
ATOM      2  O   UNL A   1      32.611  28.010  24.467  1.00  0.00    -0.458 OA
BRANCH   2   3
ATOM      3  C   UNL A   1      32.070  27.790  23.246  1.00  0.00     0.338 C 
ATOM      4  O   UNL A   1      32.683  27.531  22.222  1.00  0.00    -0.246 OA
BRANCH   3   5
ATOM      5  C   UNL A   1      30.583  27.828  23.300  1.00  0.00     0.071 A 
ATOM      6  C   UNL A   1      29.802  26.693  23.574  1.00  0.00     0.032 A 
ATOM      7  C   UNL A   1      28.403  26.831  23.626  1.00  0.00     0.013 A 
ATOM      8  C   UNL A   1      27.789  28.065  23.397  1.00  0.00     0.001 A 
ATOM      9  C   UNL A   1      29.958  29.072  23.108  1.00  0.00     0.016 A 
ATOM     10  C   UNL A   1      28.568  29.185  23.128  1.00  0.00     0.001 A 
BRANCH   6  11
ATOM     11  C   UNL A   1      30.395  25.392  23.828  1.00  0.00     0.135 A 
ATOM     12  C   UNL A   1      31.433  23.950  25.135  1.00  0.00     0.128 A 
ATOM     13  C   UNL A   1      31.017  23.264  24.001  1.00  0.00     0.051 A 
ATOM     14  O   UNL A   1      30.992  25.243  25.040  1.00  0.00    -0.457 OA
ATOM     15  C   UNL A   1      30.443  24.208  23.127  1.00  0.00     0.051 A 
BRANCH  12  16
ATOM     16  C   UNL A   1      32.241  23.485  26.199  1.00  0.00     0.071 C 
ATOM     17  C   UNL A   1      36.055  23.054  23.248  1.00  0.00     0.301 C 
ATOM     18  N   UNL A   1      35.453  22.947  24.575  1.00  0.00    -0.189 N 
ATOM     19  C   UNL A   1      34.284  23.643  24.784  1.00  0.00     0.349 C 
ATOM     20  C   UNL A   1      36.041  22.293  25.628  1.00  0.00     0.318 C 
ATOM     21  O   UNL A   1      33.895  24.519  24.018  1.00  0.00    -0.240 OA
ATOM     22  C   UNL A   1      33.562  23.287  26.027  1.00  0.00     0.157 C 
ATOM     23  N   UNL A   1      35.549  22.163  26.806  1.00  0.00    -0.200 N 
ATOM     24  C   UNL A   1      34.306  22.634  27.123  1.00  0.00     0.347 C 
ATOM     25  H   UNL A   1      36.081  21.711  27.499  1.00  0.00     0.316 HD
ATOM     26  O   UNL A   1      33.814  22.485  28.229  1.00  0.00    -0.241 OA
BRANCH  20  27
ATOM     27  S   UNL A   1      37.614  21.575  25.380  1.00  0.00    -0.055 SA
ATOM     28  H   UNL A   1      37.518  20.577  24.462  1.00  0.00     0.116 HD
ENDBRANCH  20  27
ENDBRANCH  12  16
ENDBRANCH   6  11
ENDBRANCH   3   5
ENDBRANCH   2   3
ENDBRANCH   1   2
BRANCH   1  29
ATOM     29  C   UNL A   1      32.216  30.086  25.684  1.00  0.00     0.275 C 
BRANCH  29  30
ATOM     30  O   UNL A   1      32.805  30.140  26.995  1.00  0.00    -0.458 OA
BRANCH  30  31
ATOM     31  C   UNL A   1      33.461  31.291  27.254  1.00  0.00     0.338 C 
ATOM     32  O   UNL A   1      33.022  32.429  27.253  1.00  0.00    -0.246 OA
BRANCH  31  33
ATOM     33  C   UNL A   1      34.819  30.983  27.700  1.00  0.00     0.060 A 
ATOM     34  C   UNL A   1      35.107  29.656  27.999  1.00  0.00     0.016 A 
ATOM     35  C   UNL A   1      35.727  31.990  28.000  1.00  0.00     0.016 A 
ATOM     36  C   UNL A   1      36.254  29.332  28.707  1.00  0.00     0.010 A 
ATOM     37  C   UNL A   1      36.931  31.651  28.624  1.00  0.00     0.010 A 
ATOM     38  C   UNL A   1      37.187  30.325  29.027  1.00  0.00    -0.014 A 
BRANCH  38  39
ATOM     39  C   UNL A   1      38.388  29.985  29.840  1.00  0.00     0.031 A 
ATOM     40  C   UNL A   1      39.446  29.077  29.269  1.00  0.00     0.074 A 
ATOM     41  C   UNL A   1      38.548  30.512  31.070  1.00  0.00     0.049 A 
ATOM     42  N   UNL A   1      40.468  28.513  29.864  1.00  0.00    -0.248 NA
ATOM     43  C   UNL A   1      39.331  28.744  27.839  1.00  0.00     0.031 C 
ATOM     44  C   UNL A   1      37.633  31.453  31.719  1.00  0.00     0.029 A 
ATOM     45  N   UNL A   1      39.546  30.335  31.996  1.00  0.00    -0.354 N 
ATOM     46  C   UNL A   1      41.085  27.729  28.898  1.00  0.00     0.074 A 
ATOM     47  C   UNL A   1      40.312  27.865  27.684  1.00  0.00     0.031 C 
ATOM     48  C   UNL A   1      38.128  31.799  32.916  1.00  0.00     0.029 A 
ATOM     49  C   UNL A   1      39.340  31.029  33.164  1.00  0.00     0.049 A 
ATOM     50  H   UNL A   1      40.334  29.765  31.839  1.00  0.00     0.167 HD
ATOM     51  C   UNL A   1      42.203  26.972  29.014  1.00  0.00     0.037 A 
ATOM     52  C   UNL A   1      40.024  31.012  34.323  1.00  0.00     0.037 A 
ATOM     53  C   UNL A   1      42.989  26.872  30.216  1.00  0.00     0.049 A 
ATOM     54  C   UNL A   1      41.220  30.106  34.444  1.00  0.00     0.074 A 
ATOM     55  C   UNL A   1      44.124  26.115  30.451  1.00  0.00     0.029 A 
ATOM     56  N   UNL A   1      42.729  27.572  31.387  1.00  0.00    -0.354 N 
ATOM     57  N   UNL A   1      41.761  29.321  33.546  1.00  0.00    -0.248 NA
ATOM     58  C   UNL A   1      41.894  30.081  35.749  1.00  0.00     0.031 C 
ATOM     59  C   UNL A   1      44.529  26.328  31.774  1.00  0.00     0.029 A 
ATOM     60  C   UNL A   1      43.682  27.263  32.346  1.00  0.00     0.049 A 
ATOM     61  H   UNL A   1      41.979  28.195  31.518  1.00  0.00     0.167 HD
ATOM     62  C   UNL A   1      42.860  28.739  34.162  1.00  0.00     0.074 A 
ATOM     63  C   UNL A   1      42.919  29.279  35.504  1.00  0.00     0.031 C 
ATOM     64  C   UNL A   1      43.740  27.834  33.667  1.00  0.00     0.037 A 
BRANCH  51  65
ATOM     65  C   UNL A   1      42.639  26.176  27.814  1.00  0.00     0.064 A 
ATOM     66  C   UNL A   1      43.628  26.642  26.936  1.00  0.00     0.173 A 
ATOM     67  C   UNL A   1      42.091  24.907  27.566  1.00  0.00     0.173 A 
ATOM     68  F   UNL A   1      44.177  27.852  27.118  1.00  0.00    -0.203 F 
ATOM     69  C   UNL A   1      44.035  25.879  25.843  1.00  0.00     0.198 A 
ATOM     70  C   UNL A   1      42.524  24.133  26.492  1.00  0.00     0.198 A 
ATOM     71  F   UNL A   1      41.144  24.409  28.376  1.00  0.00    -0.203 F 
ATOM     72  F   UNL A   1      44.950  26.365  24.993  1.00  0.00    -0.200 F 
ATOM     73  C   UNL A   1      43.491  24.622  25.628  1.00  0.00     0.200 A 
ATOM     74  F   UNL A   1      42.007  22.912  26.296  1.00  0.00    -0.200 F 
ATOM     75  F   UNL A   1      43.893  23.885  24.585  1.00  0.00    -0.200 F 
ENDBRANCH  51  65
BRANCH  52  76
ATOM     76  C   UNL A   1      39.576  31.837  35.478  1.00  0.00     0.064 A 
ATOM     77  C   UNL A   1      38.627  31.349  36.388  1.00  0.00     0.173 A 
ATOM     78  C   UNL A   1      40.048  33.144  35.673  1.00  0.00     0.173 A 
ATOM     79  F   UNL A   1      38.126  30.114  36.236  1.00  0.00    -0.203 F 
ATOM     80  C   UNL A   1      38.141  32.149  37.422  1.00  0.00     0.198 A 
ATOM     81  C   UNL A   1      39.593  33.927  36.732  1.00  0.00     0.198 A 
ATOM     82  F   UNL A   1      40.957  33.663  34.834  1.00  0.00    -0.203 F 
ATOM     83  F   UNL A   1      37.179  31.681  38.231  1.00  0.00    -0.200 F 
ATOM     84  C   UNL A   1      38.628  33.434  37.596  1.00  0.00     0.200 A 
ATOM     85  F   UNL A   1      40.081  35.163  36.906  1.00  0.00    -0.200 F 
ATOM     86  F   UNL A   1      38.157  34.204  38.586  1.00  0.00    -0.200 F 
ENDBRANCH  52  76
BRANCH  64  87
ATOM     87  C   UNL A   1      44.884  27.440  34.557  1.00  0.00     0.064 A 
ATOM     88  C   UNL A   1      44.807  26.339  35.424  1.00  0.00     0.173 A 
ATOM     89  C   UNL A   1      46.074  28.184  34.544  1.00  0.00     0.173 A 
ATOM     90  F   UNL A   1      43.687  25.605  35.487  1.00  0.00    -0.203 F 
ATOM     91  C   UNL A   1      45.860  26.031  36.280  1.00  0.00     0.198 A 
ATOM     92  C   UNL A   1      47.139  27.847  35.372  1.00  0.00     0.198 A 
ATOM     93  F   UNL A   1      46.203  29.240  33.727  1.00  0.00    -0.203 F 
ATOM     94  F   UNL A   1      45.736  25.023  37.155  1.00  0.00    -0.200 F 
ATOM     95  C   UNL A   1      47.026  26.781  36.250  1.00  0.00     0.200 A 
ATOM     96  F   UNL A   1      48.271  28.564  35.330  1.00  0.00    -0.200 F 
ATOM     97  F   UNL A   1      48.038  26.484  37.079  1.00  0.00    -0.200 F 
ENDBRANCH  64  87
ENDBRANCH  38  39
ENDBRANCH  31  33
ENDBRANCH  30  31
ENDBRANCH  29  30
ENDBRANCH   1  29
TORSDOF 14
ENDMDL
MODEL 3
REMARK VINA RESULT:     -13.1      4.276      9.631
REMARK SMILES CN1C(=O)/C(=C\c2ccc(-c3ccccc3C(=O)OCCOC(=O)c3ccc(-c4c5nc(c(-c6c(F)c(F)c(F)c(F)c6F)c6ccc([nH]6)c(-c6c(F)c(F)c(F)c(F)c6F)c6nc(c(-c7c(F)c(F)c(F)c(F)c7F)c7ccc4[nH]7)C=C6)C=C5)cc3)o2)C(=O)[NH+]=C1S
REMARK SMILES IDX 20 1 19 2 17 3 18 4 16 5 11 6 12 7 13 8 15 9 14 10 10 11
REMARK SMILES IDX 7 12 8 13 88 14 9 15 6 16 1 17 2 18 3 19 92 20 4 21 5 22
REMARK SMILES IDX 91 23 89 24 90 26 93 27 21 29 22 30 23 31 24 32 25 33 26 34
REMARK SMILES IDX 87 35 27 36 86 37 28 38 29 39 30 40 80 41 31 42 85 43 79 44
REMARK SMILES IDX 81 45 32 46 84 47 78 48 77 49 33 51 65 52 45 53 64 54 46 55
REMARK SMILES IDX 49 56 63 57 82 58 47 59 48 60 62 62 83 63 50 64 34 65 35 66
REMARK SMILES IDX 43 67 36 68 37 69 41 70 44 71 38 72 39 73 42 74 40 75 66 76
REMARK SMILES IDX 67 77 75 78 68 79 69 80 73 81 76 82 70 83 71 84 74 85 72 86
REMARK SMILES IDX 51 87 52 88 60 89 53 90 54 91 58 92 61 93 55 94 56 95 59 96
REMARK SMILES IDX 57 97
REMARK H PARENT 91 25 93 28 81 50 49 61
REMARK Flexibility Score: inf
ROOT
ATOM      1  C   UNL A   1      35.604  21.794  26.191  1.00  0.00     0.275 C 
ENDROOT
BRANCH   1   2
ATOM      2  O   UNL A   1      34.510  22.417  25.488  1.00  0.00    -0.458 OA
BRANCH   2   3
ATOM      3  C   UNL A   1      33.272  21.893  25.647  1.00  0.00     0.338 C 
ATOM      4  O   UNL A   1      32.523  22.086  26.591  1.00  0.00    -0.246 OA
BRANCH   3   5
ATOM      5  C   UNL A   1      32.876  21.079  24.465  1.00  0.00     0.071 A 
ATOM      6  C   UNL A   1      32.200  21.622  23.359  1.00  0.00     0.032 A 
ATOM      7  C   UNL A   1      31.886  20.778  22.278  1.00  0.00     0.013 A 
ATOM      8  C   UNL A   1      32.221  19.422  22.298  1.00  0.00     0.001 A 
ATOM      9  C   UNL A   1      33.242  19.722  24.458  1.00  0.00     0.016 A 
ATOM     10  C   UNL A   1      32.892  18.891  23.394  1.00  0.00     0.001 A 
BRANCH   6  11
ATOM     11  C   UNL A   1      31.839  23.026  23.289  1.00  0.00     0.135 A 
ATOM     12  C   UNL A   1      32.339  25.146  22.944  1.00  0.00     0.128 A 
ATOM     13  C   UNL A   1      30.956  25.052  23.036  1.00  0.00     0.051 A 
ATOM     14  O   UNL A   1      32.863  23.886  23.042  1.00  0.00    -0.457 OA
ATOM     15  C   UNL A   1      30.648  23.714  23.355  1.00  0.00     0.051 A 
BRANCH  12  16
ATOM     16  C   UNL A   1      33.137  26.311  22.848  1.00  0.00     0.071 C 
ATOM     17  C   UNL A   1      31.787  27.724  27.278  1.00  0.00     0.301 C 
ATOM     18  N   UNL A   1      32.562  27.930  26.056  1.00  0.00    -0.189 N 
ATOM     19  C   UNL A   1      32.761  26.830  25.254  1.00  0.00     0.349 C 
ATOM     20  C   UNL A   1      33.177  29.113  25.735  1.00  0.00     0.318 C 
ATOM     21  O   UNL A   1      32.551  25.685  25.645  1.00  0.00    -0.240 OA
ATOM     22  C   UNL A   1      33.293  27.130  23.906  1.00  0.00     0.157 C 
ATOM     23  N   UNL A   1      33.858  29.346  24.673  1.00  0.00    -0.200 N 
ATOM     24  C   UNL A   1      33.991  28.412  23.683  1.00  0.00     0.347 C 
ATOM     25  H   UNL A   1      34.295  30.221  24.567  1.00  0.00     0.316 HD
ATOM     26  O   UNL A   1      34.606  28.635  22.653  1.00  0.00    -0.241 OA
BRANCH  20  27
ATOM     27  S   UNL A   1      33.059  30.440  26.865  1.00  0.00    -0.055 SA
ATOM     28  H   UNL A   1      31.756  30.806  27.000  1.00  0.00     0.116 HD
ENDBRANCH  20  27
ENDBRANCH  12  16
ENDBRANCH   6  11
ENDBRANCH   3   5
ENDBRANCH   2   3
ENDBRANCH   1   2
BRANCH   1  29
ATOM     29  C   UNL A   1      36.529  21.079  25.210  1.00  0.00     0.275 C 
BRANCH  29  30
ATOM     30  O   UNL A   1      37.738  21.841  25.053  1.00  0.00    -0.458 OA
BRANCH  30  31
ATOM     31  C   UNL A   1      38.752  21.430  25.843  1.00  0.00     0.338 C 
ATOM     32  O   UNL A   1      39.241  20.317  25.929  1.00  0.00    -0.246 OA
BRANCH  31  33
ATOM     33  C   UNL A   1      39.325  22.586  26.533  1.00  0.00     0.060 A 
ATOM     34  C   UNL A   1      38.841  23.842  26.185  1.00  0.00     0.016 A 
ATOM     35  C   UNL A   1      40.436  22.457  27.356  1.00  0.00     0.016 A 
ATOM     36  C   UNL A   1      39.530  24.985  26.559  1.00  0.00     0.010 A 
ATOM     37  C   UNL A   1      41.073  23.613  27.816  1.00  0.00     0.010 A 
ATOM     38  C   UNL A   1      40.656  24.888  27.384  1.00  0.00    -0.014 A 
BRANCH  38  39
ATOM     39  C   UNL A   1      41.430  26.112  27.734  1.00  0.00     0.031 A 
ATOM     40  C   UNL A   1      40.796  27.181  28.586  1.00  0.00     0.074 A 
ATOM     41  C   UNL A   1      42.705  26.252  27.320  1.00  0.00     0.049 A 
ATOM     42  N   UNL A   1      41.220  28.391  28.854  1.00  0.00    -0.248 NA
ATOM     43  C   UNL A   1      39.502  26.852  29.208  1.00  0.00     0.031 C 
ATOM     44  C   UNL A   1      43.461  25.267  26.544  1.00  0.00     0.029 A 
ATOM     45  N   UNL A   1      43.597  27.280  27.501  1.00  0.00    -0.354 N 
ATOM     46  C   UNL A   1      40.230  28.978  29.632  1.00  0.00     0.074 A 
ATOM     47  C   UNL A   1      39.170  28.004  29.773  1.00  0.00     0.031 C 
ATOM     48  C   UNL A   1      44.708  25.719  26.348  1.00  0.00     0.029 A 
ATOM     49  C   UNL A   1      44.811  27.066  26.895  1.00  0.00     0.049 A 
ATOM     50  H   UNL A   1      43.386  28.093  28.016  1.00  0.00     0.167 HD
ATOM     51  C   UNL A   1      40.213  30.215  30.186  1.00  0.00     0.037 A 
ATOM     52  C   UNL A   1      45.873  27.881  26.752  1.00  0.00     0.037 A 
ATOM     53  C   UNL A   1      41.290  31.164  30.072  1.00  0.00     0.049 A 
ATOM     54  C   UNL A   1      45.796  29.274  27.317  1.00  0.00     0.074 A 
ATOM     55  C   UNL A   1      41.367  32.453  30.571  1.00  0.00     0.029 A 
ATOM     56  N   UNL A   1      42.493  30.916  29.424  1.00  0.00    -0.354 N 
ATOM     57  N   UNL A   1      44.832  29.842  27.998  1.00  0.00    -0.248 NA
ATOM     58  C   UNL A   1      46.958  30.141  27.083  1.00  0.00     0.031 C 
ATOM     59  C   UNL A   1      42.600  32.997  30.194  1.00  0.00     0.029 A 
ATOM     60  C   UNL A   1      43.316  32.028  29.511  1.00  0.00     0.049 A 
ATOM     61  H   UNL A   1      42.727  30.075  28.969  1.00  0.00     0.167 HD
ATOM     62  C   UNL A   1      45.284  31.117  28.308  1.00  0.00     0.074 A 
ATOM     63  C   UNL A   1      46.619  31.230  27.757  1.00  0.00     0.031 C 
ATOM     64  C   UNL A   1      44.653  32.110  28.981  1.00  0.00     0.037 A 
BRANCH  51  65
ATOM     65  C   UNL A   1      38.986  30.623  30.954  1.00  0.00     0.064 A 
ATOM     66  C   UNL A   1      38.908  30.490  32.348  1.00  0.00     0.173 A 
ATOM     67  C   UNL A   1      37.891  31.198  30.290  1.00  0.00     0.173 A 
ATOM     68  F   UNL A   1      39.919  29.935  33.032  1.00  0.00    -0.203 F 
ATOM     69  C   UNL A   1      37.771  30.896  33.045  1.00  0.00     0.198 A 
ATOM     70  C   UNL A   1      36.770  31.633  30.993  1.00  0.00     0.198 A 
ATOM     71  F   UNL A   1      37.913  31.353  28.958  1.00  0.00    -0.203 F 
ATOM     72  F   UNL A   1      37.702  30.718  34.372  1.00  0.00    -0.200 F 
ATOM     73  C   UNL A   1      36.709  31.476  32.369  1.00  0.00     0.200 A 
ATOM     74  F   UNL A   1      35.751  32.208  30.340  1.00  0.00    -0.200 F 
ATOM     75  F   UNL A   1      35.623  31.879  33.043  1.00  0.00    -0.200 F 
ENDBRANCH  51  65
BRANCH  52  76
ATOM     76  C   UNL A   1      47.080  27.428  26.009  1.00  0.00     0.064 A 
ATOM     77  C   UNL A   1      48.165  26.847  26.682  1.00  0.00     0.173 A 
ATOM     78  C   UNL A   1      47.199  27.609  24.623  1.00  0.00     0.173 A 
ATOM     79  F   UNL A   1      48.113  26.672  28.011  1.00  0.00    -0.203 F 
ATOM     80  C   UNL A   1      49.333  26.499  26.003  1.00  0.00     0.198 A 
ATOM     81  C   UNL A   1      48.350  27.222  23.939  1.00  0.00     0.198 A 
ATOM     82  F   UNL A   1      46.193  28.159  23.927  1.00  0.00    -0.203 F 
ATOM     83  F   UNL A   1      50.380  26.015  26.685  1.00  0.00    -0.200 F 
ATOM     84  C   UNL A   1      49.422  26.683  24.632  1.00  0.00     0.200 A 
ATOM     85  F   UNL A   1      48.424  27.385  22.611  1.00  0.00    -0.200 F 
ATOM     86  F   UNL A   1      50.545  26.354  23.982  1.00  0.00    -0.200 F 
ENDBRANCH  52  76
BRANCH  64  87
ATOM     87  C   UNL A   1      45.434  33.369  29.227  1.00  0.00     0.064 A 
ATOM     88  C   UNL A   1      46.219  33.545  30.377  1.00  0.00     0.173 A 
ATOM     89  C   UNL A   1      45.387  34.419  28.296  1.00  0.00     0.173 A 
ATOM     90  F   UNL A   1      46.285  32.579  31.305  1.00  0.00    -0.203 F 
ATOM     91  C   UNL A   1      46.887  34.745  30.608  1.00  0.00     0.198 A 
ATOM     92  C   UNL A   1      46.089  35.600  28.513  1.00  0.00     0.198 A 
ATOM     93  F   UNL A   1      44.659  34.299  27.176  1.00  0.00    -0.203 F 
ATOM     94  F   UNL A   1      47.568  34.920  31.749  1.00  0.00    -0.200 F 
ATOM     95  C   UNL A   1      46.826  35.768  29.674  1.00  0.00     0.200 A 
ATOM     96  F   UNL A   1      46.041  36.582  27.601  1.00  0.00    -0.200 F 
ATOM     97  F   UNL A   1      47.466  36.924  29.902  1.00  0.00    -0.200 F 
ENDBRANCH  64  87
ENDBRANCH  38  39
ENDBRANCH  31  33
ENDBRANCH  30  31
ENDBRANCH  29  30
ENDBRANCH   1  29
TORSDOF 14
ENDMDL
