MODEL 1
REMARK VINA RESULT:     -12.7      0.000      0.000
REMARK SMILES COc1cc(C)c(S(=O)(=O)Nc2cc(C(=O)OCCOC(=O)c3ccc(-c4c5nc(c(-c6c(F)c(F)c(F)c(F)c6F)c6ccc([nH]6)c(-c6c(F)c(F)c(F)c(F)c6F)c6nc(c(-c7c(F)c(F)c(F)c(F)c7F)c7ccc4[nH]7)C=C6)C=C5)cc3)ccc2F)cc1OC
REMARK SMILES IDX 18 1 17 2 15 3 16 4 14 5 12 6 13 7 88 8 87 9 89 10 86 11
REMARK SMILES IDX 11 12 8 14 9 15 10 16 7 17 3 18 4 19 91 20 5 21 90 22 6 23
REMARK SMILES IDX 2 24 1 25 92 26 93 27 19 28 20 29 21 30 22 31 23 32 24 33
REMARK SMILES IDX 85 34 25 35 84 36 26 37 27 38 28 39 78 40 29 41 83 42 77 43
REMARK SMILES IDX 79 44 30 45 82 46 76 47 75 48 31 50 63 51 43 52 62 53 44 54
REMARK SMILES IDX 47 55 61 56 80 57 45 58 46 59 60 61 81 62 48 63 32 64 33 65
REMARK SMILES IDX 41 66 34 67 35 68 39 69 42 70 36 71 37 72 40 73 38 74 64 75
REMARK SMILES IDX 65 76 73 77 66 78 67 79 71 80 74 81 68 82 69 83 72 84 70 85
REMARK SMILES IDX 49 86 50 87 58 88 51 89 52 90 56 91 59 92 53 93 54 94 57 95
REMARK SMILES IDX 55 96
REMARK H PARENT 11 13 79 49 47 60
REMARK Flexibility Score: inf
ROOT
ATOM      1  C   UNL A   1      32.924  35.738  29.724  1.00  0.00     0.275 C 
ENDROOT
BRANCH   1   2
ATOM      2  O   UNL A   1      34.109  34.974  29.429  1.00  0.00    -0.458 OA
BRANCH   2   3
ATOM      3  C   UNL A   1      33.839  33.898  28.671  1.00  0.00     0.338 C 
ATOM      4  O   UNL A   1      32.954  33.813  27.833  1.00  0.00    -0.246 OA
BRANCH   3   5
ATOM      5  C   UNL A   1      34.616  32.688  28.938  1.00  0.00     0.062 A 
ATOM      6  C   UNL A   1      35.005  30.691  27.649  1.00  0.00     0.085 A 
ATOM      7  C   UNL A   1      34.111  31.564  28.260  1.00  0.00     0.045 A 
ATOM      8  C   UNL A   1      36.379  30.812  27.941  1.00  0.00     0.147 A 
ATOM      9  C   UNL A   1      36.873  31.866  28.715  1.00  0.00     0.042 A 
ATOM     10  F   UNL A   1      37.258  30.018  27.309  1.00  0.00    -0.205 F 
ATOM     11  C   UNL A   1      35.990  32.841  29.178  1.00  0.00     0.019 A 
BRANCH   6  12
ATOM     12  N   UNL A   1      34.665  29.934  26.482  1.00  0.00    -0.277 N 
ATOM     13  H   UNL A   1      35.312  29.971  25.741  1.00  0.00     0.180 HD
BRANCH  12  14
ATOM     14  S   UNL A   1      33.306  28.996  26.222  1.00  0.00     0.262 S 
ATOM     15  O   UNL A   1      32.348  29.819  25.513  1.00  0.00    -0.201 OA
ATOM     16  O   UNL A   1      32.990  28.427  27.515  1.00  0.00    -0.201 OA
BRANCH  14  17
ATOM     17  C   UNL A   1      33.662  27.600  25.149  1.00  0.00     0.094 A 
ATOM     18  C   UNL A   1      33.521  25.157  23.736  1.00  0.00     0.161 A 
ATOM     19  C   UNL A   1      33.520  26.395  23.093  1.00  0.00     0.055 A 
ATOM     20  C   UNL A   1      33.762  25.134  25.103  1.00  0.00     0.162 A 
ATOM     21  C   UNL A   1      33.701  27.631  23.758  1.00  0.00    -0.027 A 
ATOM     22  C   UNL A   1      33.766  26.350  25.805  1.00  0.00     0.073 A 
ATOM     23  C   UNL A   1      33.864  28.867  22.927  1.00  0.00     0.046 C 
BRANCH  18  24
ATOM     24  O   UNL A   1      33.032  24.049  23.090  1.00  0.00    -0.493 OA
ATOM     25  C   UNL A   1      31.626  23.856  23.194  1.00  0.00     0.278 C 
ENDBRANCH  18  24
BRANCH  20  26
ATOM     26  O   UNL A   1      33.903  24.006  25.868  1.00  0.00    -0.493 OA
ATOM     27  C   UNL A   1      35.246  23.569  26.052  1.00  0.00     0.278 C 
ENDBRANCH  20  26
ENDBRANCH  14  17
ENDBRANCH  12  14
ENDBRANCH   6  12
ENDBRANCH   3   5
ENDBRANCH   2   3
ENDBRANCH   1   2
BRANCH   1  28
ATOM     28  C   UNL A   1      32.987  36.417  31.093  1.00  0.00     0.275 C 
BRANCH  28  29
ATOM     29  O   UNL A   1      33.200  35.630  32.298  1.00  0.00    -0.458 OA
BRANCH  29  30
ATOM     30  C   UNL A   1      34.130  35.955  33.228  1.00  0.00     0.338 C 
ATOM     31  O   UNL A   1      34.095  36.978  33.899  1.00  0.00    -0.246 OA
BRANCH  30  32
ATOM     32  C   UNL A   1      35.268  35.001  33.275  1.00  0.00     0.060 A 
ATOM     33  C   UNL A   1      35.399  34.076  34.334  1.00  0.00     0.016 A 
ATOM     34  C   UNL A   1      36.120  34.919  32.185  1.00  0.00     0.016 A 
ATOM     35  C   UNL A   1      36.336  33.023  34.270  1.00  0.00     0.010 A 
ATOM     36  C   UNL A   1      36.974  33.844  32.092  1.00  0.00     0.010 A 
ATOM     37  C   UNL A   1      37.136  32.895  33.137  1.00  0.00    -0.014 A 
BRANCH  37  38
ATOM     38  C   UNL A   1      38.337  32.037  32.973  1.00  0.00     0.031 A 
ATOM     39  C   UNL A   1      38.445  30.742  32.234  1.00  0.00     0.074 A 
ATOM     40  C   UNL A   1      39.424  32.832  33.092  1.00  0.00     0.049 A 
ATOM     41  N   UNL A   1      39.280  30.591  31.258  1.00  0.00    -0.248 NA
ATOM     42  C   UNL A   1      37.673  29.511  32.460  1.00  0.00     0.031 C 
ATOM     43  C   UNL A   1      40.752  32.756  32.514  1.00  0.00     0.029 A 
ATOM     44  N   UNL A   1      39.528  33.903  33.997  1.00  0.00    -0.354 N 
ATOM     45  C   UNL A   1      39.105  29.346  30.698  1.00  0.00     0.074 A 
ATOM     46  C   UNL A   1      38.008  28.737  31.407  1.00  0.00     0.031 C 
ATOM     47  C   UNL A   1      41.597  33.413  33.333  1.00  0.00     0.029 A 
ATOM     48  C   UNL A   1      40.828  33.770  34.519  1.00  0.00     0.049 A 
ATOM     49  H   UNL A   1      38.852  34.585  34.216  1.00  0.00     0.167 HD
ATOM     50  C   UNL A   1      40.097  28.844  29.914  1.00  0.00     0.037 A 
ATOM     51  C   UNL A   1      40.902  33.152  35.742  1.00  0.00     0.037 A 
ATOM     52  C   UNL A   1      41.355  29.284  30.479  1.00  0.00     0.049 A 
ATOM     53  C   UNL A   1      41.517  31.759  35.657  1.00  0.00     0.074 A 
ATOM     54  C   UNL A   1      42.301  30.266  30.283  1.00  0.00     0.029 A 
ATOM     55  N   UNL A   1      41.605  28.749  31.718  1.00  0.00    -0.354 N 
ATOM     56  N   UNL A   1      41.776  31.133  34.539  1.00  0.00    -0.248 NA
ATOM     57  C   UNL A   1      41.865  30.948  36.821  1.00  0.00     0.031 C 
ATOM     58  C   UNL A   1      43.038  30.385  31.517  1.00  0.00     0.029 A 
ATOM     59  C   UNL A   1      42.545  29.452  32.419  1.00  0.00     0.049 A 
ATOM     60  H   UNL A   1      41.156  27.944  32.064  1.00  0.00     0.167 HD
ATOM     61  C   UNL A   1      42.329  29.915  34.792  1.00  0.00     0.074 A 
ATOM     62  C   UNL A   1      42.338  29.829  36.241  1.00  0.00     0.031 C 
ATOM     63  C   UNL A   1      42.730  29.059  33.807  1.00  0.00     0.037 A 
BRANCH  50  64
ATOM     64  C   UNL A   1      39.998  27.931  28.724  1.00  0.00     0.064 A 
ATOM     65  C   UNL A   1      39.479  26.627  28.901  1.00  0.00     0.173 A 
ATOM     66  C   UNL A   1      40.599  28.177  27.478  1.00  0.00     0.173 A 
ATOM     67  F   UNL A   1      38.851  26.275  30.033  1.00  0.00    -0.203 F 
ATOM     68  C   UNL A   1      39.637  25.619  27.948  1.00  0.00     0.198 A 
ATOM     69  C   UNL A   1      40.743  27.166  26.514  1.00  0.00     0.198 A 
ATOM     70  F   UNL A   1      41.124  29.375  27.191  1.00  0.00    -0.203 F 
ATOM     71  F   UNL A   1      39.197  24.381  28.212  1.00  0.00    -0.200 F 
ATOM     72  C   UNL A   1      40.288  25.882  26.762  1.00  0.00     0.200 A 
ATOM     73  F   UNL A   1      41.382  27.425  25.364  1.00  0.00    -0.200 F 
ATOM     74  F   UNL A   1      40.495  24.901  25.874  1.00  0.00    -0.200 F 
ENDBRANCH  50  64
BRANCH  51  75
ATOM     75  C   UNL A   1      39.754  33.582  36.629  1.00  0.00     0.064 A 
ATOM     76  C   UNL A   1      38.768  32.610  36.945  1.00  0.00     0.173 A 
ATOM     77  C   UNL A   1      39.822  34.698  37.474  1.00  0.00     0.173 A 
ATOM     78  F   UNL A   1      38.655  31.504  36.190  1.00  0.00    -0.203 F 
ATOM     79  C   UNL A   1      38.007  32.680  38.113  1.00  0.00     0.198 A 
ATOM     80  C   UNL A   1      39.016  34.787  38.621  1.00  0.00     0.198 A 
ATOM     81  F   UNL A   1      40.743  35.651  37.273  1.00  0.00    -0.203 F 
ATOM     82  F   UNL A   1      37.209  31.658  38.455  1.00  0.00    -0.200 F 
ATOM     83  C   UNL A   1      38.145  33.761  38.960  1.00  0.00     0.200 A 
ATOM     84  F   UNL A   1      39.160  35.827  39.456  1.00  0.00    -0.200 F 
ATOM     85  F   UNL A   1      37.479  33.797  40.124  1.00  0.00    -0.200 F 
ENDBRANCH  51  75
BRANCH  63  86
ATOM     86  C   UNL A   1      43.278  27.696  34.110  1.00  0.00     0.064 A 
ATOM     87  C   UNL A   1      42.437  26.647  34.496  1.00  0.00     0.173 A 
ATOM     88  C   UNL A   1      44.665  27.425  34.121  1.00  0.00     0.173 A 
ATOM     89  F   UNL A   1      41.109  26.826  34.549  1.00  0.00    -0.203 F 
ATOM     90  C   UNL A   1      42.948  25.394  34.831  1.00  0.00     0.198 A 
ATOM     91  C   UNL A   1      45.176  26.199  34.530  1.00  0.00     0.198 A 
ATOM     92  F   UNL A   1      45.565  28.324  33.694  1.00  0.00    -0.203 F 
ATOM     93  F   UNL A   1      42.107  24.392  35.117  1.00  0.00    -0.200 F 
ATOM     94  C   UNL A   1      44.316  25.176  34.866  1.00  0.00     0.200 A 
ATOM     95  F   UNL A   1      46.503  26.016  34.575  1.00  0.00    -0.200 F 
ATOM     96  F   UNL A   1      44.804  23.976  35.206  1.00  0.00    -0.200 F 
ENDBRANCH  63  86
ENDBRANCH  37  38
ENDBRANCH  30  32
ENDBRANCH  29  30
ENDBRANCH  28  29
ENDBRANCH   1  28
TORSDOF 16
ENDMDL
MODEL 2
REMARK VINA RESULT:     -12.7      5.841     11.756
REMARK SMILES COc1cc(C)c(S(=O)(=O)Nc2cc(C(=O)OCCOC(=O)c3ccc(-c4c5nc(c(-c6c(F)c(F)c(F)c(F)c6F)c6ccc([nH]6)c(-c6c(F)c(F)c(F)c(F)c6F)c6nc(c(-c7c(F)c(F)c(F)c(F)c7F)c7ccc4[nH]7)C=C6)C=C5)cc3)ccc2F)cc1OC
REMARK SMILES IDX 18 1 17 2 15 3 16 4 14 5 12 6 13 7 88 8 87 9 89 10 86 11
REMARK SMILES IDX 11 12 8 14 9 15 10 16 7 17 3 18 4 19 91 20 5 21 90 22 6 23
REMARK SMILES IDX 2 24 1 25 92 26 93 27 19 28 20 29 21 30 22 31 23 32 24 33
REMARK SMILES IDX 85 34 25 35 84 36 26 37 27 38 28 39 78 40 29 41 83 42 77 43
REMARK SMILES IDX 79 44 30 45 82 46 76 47 75 48 31 50 63 51 43 52 62 53 44 54
REMARK SMILES IDX 47 55 61 56 80 57 45 58 46 59 60 61 81 62 48 63 32 64 33 65
REMARK SMILES IDX 41 66 34 67 35 68 39 69 42 70 36 71 37 72 40 73 38 74 64 75
REMARK SMILES IDX 65 76 73 77 66 78 67 79 71 80 74 81 68 82 69 83 72 84 70 85
REMARK SMILES IDX 49 86 50 87 58 88 51 89 52 90 56 91 59 92 53 93 54 94 57 95
REMARK SMILES IDX 55 96
REMARK H PARENT 11 13 79 49 47 60
REMARK Flexibility Score: inf
ROOT
ATOM      1  C   UNL A   1      42.702  19.279  25.744  1.00  0.00     0.275 C 
ENDROOT
BRANCH   1   2
ATOM      2  O   UNL A   1      42.730  20.309  26.751  1.00  0.00    -0.458 OA
BRANCH   2   3
ATOM      3  C   UNL A   1      41.496  20.703  27.104  1.00  0.00     0.338 C 
ATOM      4  O   UNL A   1      40.710  20.072  27.795  1.00  0.00    -0.246 OA
BRANCH   3   5
ATOM      5  C   UNL A   1      41.013  21.960  26.533  1.00  0.00     0.062 A 
ATOM      6  C   UNL A   1      38.806  22.893  26.297  1.00  0.00     0.085 A 
ATOM      7  C   UNL A   1      39.699  21.858  26.042  1.00  0.00     0.045 A 
ATOM      8  C   UNL A   1      39.304  24.111  26.805  1.00  0.00     0.147 A 
ATOM      9  C   UNL A   1      40.641  24.253  27.185  1.00  0.00     0.042 A 
ATOM     10  F   UNL A   1      38.444  25.095  27.115  1.00  0.00    -0.205 F 
ATOM     11  C   UNL A   1      41.494  23.153  27.094  1.00  0.00     0.019 A 
BRANCH   6  12
ATOM     12  N   UNL A   1      37.395  22.679  26.422  1.00  0.00    -0.277 N 
ATOM     13  H   UNL A   1      37.077  22.416  27.316  1.00  0.00     0.180 HD
BRANCH  12  14
ATOM     14  S   UNL A   1      36.222  22.819  25.239  1.00  0.00     0.262 S 
ATOM     15  O   UNL A   1      36.896  22.757  23.959  1.00  0.00    -0.201 OA
ATOM     16  O   UNL A   1      35.444  23.981  25.619  1.00  0.00    -0.201 OA
BRANCH  14  17
ATOM     17  C   UNL A   1      35.078  21.434  25.275  1.00  0.00     0.094 A 
ATOM     18  C   UNL A   1      32.953  19.654  24.730  1.00  0.00     0.161 A 
ATOM     19  C   UNL A   1      34.291  19.296  24.563  1.00  0.00     0.055 A 
ATOM     20  C   UNL A   1      32.676  20.872  25.336  1.00  0.00     0.162 A 
ATOM     21  C   UNL A   1      35.381  20.120  24.932  1.00  0.00    -0.027 A 
ATOM     22  C   UNL A   1      33.732  21.775  25.544  1.00  0.00     0.073 A 
ATOM     23  C   UNL A   1      36.760  19.540  24.871  1.00  0.00     0.046 C 
BRANCH  18  24
ATOM     24  O   UNL A   1      31.970  18.958  24.073  1.00  0.00    -0.493 OA
ATOM     25  C   UNL A   1      32.410  18.187  22.961  1.00  0.00     0.278 C 
ENDBRANCH  18  24
BRANCH  20  26
ATOM     26  O   UNL A   1      31.429  21.330  25.671  1.00  0.00    -0.493 OA
ATOM     27  C   UNL A   1      31.154  22.670  25.272  1.00  0.00     0.278 C 
ENDBRANCH  20  26
ENDBRANCH  14  17
ENDBRANCH  12  14
ENDBRANCH   6  12
ENDBRANCH   3   5
ENDBRANCH   2   3
ENDBRANCH   1   2
BRANCH   1  28
ATOM     28  C   UNL A   1      44.037  19.136  25.010  1.00  0.00     0.275 C 
BRANCH  28  29
ATOM     29  O   UNL A   1      44.654  20.289  24.373  1.00  0.00    -0.458 OA
BRANCH  29  30
ATOM     30  C   UNL A   1      45.788  20.863  24.842  1.00  0.00     0.338 C 
ATOM     31  O   UNL A   1      46.853  20.273  24.959  1.00  0.00    -0.246 OA
BRANCH  30  32
ATOM     32  C   UNL A   1      45.585  22.258  25.313  1.00  0.00     0.060 A 
ATOM     33  C   UNL A   1      45.722  23.351  24.430  1.00  0.00     0.016 A 
ATOM     34  C   UNL A   1      45.104  22.470  26.595  1.00  0.00     0.016 A 
ATOM     35  C   UNL A   1      45.310  24.648  24.805  1.00  0.00     0.010 A 
ATOM     36  C   UNL A   1      44.629  23.718  26.926  1.00  0.00     0.010 A 
ATOM     37  C   UNL A   1      44.752  24.843  26.066  1.00  0.00    -0.014 A 
BRANCH  37  38
ATOM     38  C   UNL A   1      44.494  26.136  26.748  1.00  0.00     0.031 A 
ATOM     39  C   UNL A   1      43.213  26.905  26.803  1.00  0.00     0.074 A 
ATOM     40  C   UNL A   1      45.384  26.247  27.760  1.00  0.00     0.049 A 
ATOM     41  N   UNL A   1      42.651  27.197  27.930  1.00  0.00    -0.248 NA
ATOM     42  C   UNL A   1      42.421  27.414  25.674  1.00  0.00     0.031 C 
ATOM     43  C   UNL A   1      45.316  26.912  29.047  1.00  0.00     0.029 A 
ATOM     44  N   UNL A   1      46.724  25.824  27.687  1.00  0.00    -0.354 N 
ATOM     45  C   UNL A   1      41.446  27.818  27.690  1.00  0.00     0.074 A 
ATOM     46  C   UNL A   1      41.281  27.836  26.259  1.00  0.00     0.031 C 
ATOM     47  C   UNL A   1      46.575  27.206  29.427  1.00  0.00     0.029 A 
ATOM     48  C   UNL A   1      47.436  26.872  28.299  1.00  0.00     0.049 A 
ATOM     49  H   UNL A   1      47.080  24.991  27.299  1.00  0.00     0.167 HD
ATOM     50  C   UNL A   1      40.869  28.524  28.700  1.00  0.00     0.037 A 
ATOM     51  C   UNL A   1      48.010  27.767  27.432  1.00  0.00     0.037 A 
ATOM     52  C   UNL A   1      41.937  29.143  29.456  1.00  0.00     0.049 A 
ATOM     53  C   UNL A   1      47.317  29.126  27.449  1.00  0.00     0.074 A 
ATOM     54  C   UNL A   1      42.659  28.930  30.611  1.00  0.00     0.029 A 
ATOM     55  N   UNL A   1      42.627  30.088  28.739  1.00  0.00    -0.354 N 
ATOM     56  N   UNL A   1      46.192  29.372  28.067  1.00  0.00    -0.248 NA
ATOM     57  C   UNL A   1      47.818  30.306  26.751  1.00  0.00     0.031 C 
ATOM     58  C   UNL A   1      43.879  29.689  30.483  1.00  0.00     0.029 A 
ATOM     59  C   UNL A   1      43.854  30.369  29.274  1.00  0.00     0.049 A 
ATOM     60  H   UNL A   1      42.275  30.519  27.926  1.00  0.00     0.167 HD
ATOM     61  C   UNL A   1      45.835  30.676  27.905  1.00  0.00     0.074 A 
ATOM     62  C   UNL A   1      46.873  31.218  27.045  1.00  0.00     0.031 C 
ATOM     63  C   UNL A   1      44.718  31.220  28.471  1.00  0.00     0.037 A 
BRANCH  50  64
ATOM     64  C   UNL A   1      39.412  28.743  28.996  1.00  0.00     0.064 A 
ATOM     65  C   UNL A   1      38.621  29.452  28.061  1.00  0.00     0.173 A 
ATOM     66  C   UNL A   1      38.806  28.505  30.242  1.00  0.00     0.173 A 
ATOM     67  F   UNL A   1      39.070  29.713  26.825  1.00  0.00    -0.203 F 
ATOM     68  C   UNL A   1      37.365  29.970  28.380  1.00  0.00     0.198 A 
ATOM     69  C   UNL A   1      37.536  29.015  30.555  1.00  0.00     0.198 A 
ATOM     70  F   UNL A   1      39.455  27.841  31.208  1.00  0.00    -0.203 F 
ATOM     71  F   UNL A   1      36.701  30.707  27.477  1.00  0.00    -0.200 F 
ATOM     72  C   UNL A   1      36.830  29.770  29.634  1.00  0.00     0.200 A 
ATOM     73  F   UNL A   1      37.022  28.823  31.778  1.00  0.00    -0.200 F 
ATOM     74  F   UNL A   1      35.653  30.320  29.961  1.00  0.00    -0.200 F 
ENDBRANCH  50  64
BRANCH  51  75
ATOM     75  C   UNL A   1      48.574  27.053  26.222  1.00  0.00     0.064 A 
ATOM     76  C   UNL A   1      47.931  27.268  24.974  1.00  0.00     0.173 A 
ATOM     77  C   UNL A   1      49.885  26.562  26.171  1.00  0.00     0.173 A 
ATOM     78  F   UNL A   1      46.680  27.756  24.943  1.00  0.00    -0.203 F 
ATOM     79  C   UNL A   1      48.610  27.143  23.762  1.00  0.00     0.198 A 
ATOM     80  C   UNL A   1      50.545  26.387  24.944  1.00  0.00     0.198 A 
ATOM     81  F   UNL A   1      50.582  26.358  27.298  1.00  0.00    -0.203 F 
ATOM     82  F   UNL A   1      48.015  27.517  22.619  1.00  0.00    -0.200 F 
ATOM     83  C   UNL A   1      49.924  26.719  23.748  1.00  0.00     0.200 A 
ATOM     84  F   UNL A   1      51.827  25.994  24.928  1.00  0.00    -0.200 F 
ATOM     85  F   UNL A   1      50.608  26.674  22.595  1.00  0.00    -0.200 F 
ENDBRANCH  51  75
BRANCH  63  86
ATOM     86  C   UNL A   1      44.313  32.643  28.225  1.00  0.00     0.064 A 
ATOM     87  C   UNL A   1      43.929  33.077  26.952  1.00  0.00     0.173 A 
ATOM     88  C   UNL A   1      44.391  33.635  29.229  1.00  0.00     0.173 A 
ATOM     89  F   UNL A   1      43.864  32.209  25.931  1.00  0.00    -0.203 F 
ATOM     90  C   UNL A   1      43.604  34.410  26.708  1.00  0.00     0.198 A 
ATOM     91  C   UNL A   1      44.141  34.976  28.966  1.00  0.00     0.198 A 
ATOM     92  F   UNL A   1      44.668  33.329  30.506  1.00  0.00    -0.203 F 
ATOM     93  F   UNL A   1      43.164  34.772  25.496  1.00  0.00    -0.200 F 
ATOM     94  C   UNL A   1      43.728  35.362  27.708  1.00  0.00     0.200 A 
ATOM     95  F   UNL A   1      44.285  35.882  29.943  1.00  0.00    -0.200 F 
ATOM     96  F   UNL A   1      43.432  36.645  27.465  1.00  0.00    -0.200 F 
ENDBRANCH  63  86
ENDBRANCH  37  38
ENDBRANCH  30  32
ENDBRANCH  29  30
ENDBRANCH  28  29
ENDBRANCH   1  28
TORSDOF 16
ENDMDL
MODEL 3
REMARK VINA RESULT:     -12.2      5.989     11.513
REMARK SMILES COc1cc(C)c(S(=O)(=O)Nc2cc(C(=O)OCCOC(=O)c3ccc(-c4c5nc(c(-c6c(F)c(F)c(F)c(F)c6F)c6ccc([nH]6)c(-c6c(F)c(F)c(F)c(F)c6F)c6nc(c(-c7c(F)c(F)c(F)c(F)c7F)c7ccc4[nH]7)C=C6)C=C5)cc3)ccc2F)cc1OC
REMARK SMILES IDX 18 1 17 2 15 3 16 4 14 5 12 6 13 7 88 8 87 9 89 10 86 11
REMARK SMILES IDX 11 12 8 14 9 15 10 16 7 17 3 18 4 19 91 20 5 21 90 22 6 23
REMARK SMILES IDX 2 24 1 25 92 26 93 27 19 28 20 29 21 30 22 31 23 32 24 33
REMARK SMILES IDX 85 34 25 35 84 36 26 37 27 38 28 39 78 40 29 41 83 42 77 43
REMARK SMILES IDX 79 44 30 45 82 46 76 47 75 48 31 50 63 51 43 52 62 53 44 54
REMARK SMILES IDX 47 55 61 56 80 57 45 58 46 59 60 61 81 62 48 63 32 64 33 65
REMARK SMILES IDX 41 66 34 67 35 68 39 69 42 70 36 71 37 72 40 73 38 74 64 75
REMARK SMILES IDX 65 76 73 77 66 78 67 79 71 80 74 81 68 82 69 83 72 84 70 85
REMARK SMILES IDX 49 86 50 87 58 88 51 89 52 90 56 91 59 92 53 93 54 94 57 95
REMARK SMILES IDX 55 96
REMARK H PARENT 11 13 79 49 47 60
REMARK Flexibility Score: inf
ROOT
ATOM      1  C   UNL A   1      42.496  18.747  26.126  1.00  0.00     0.275 C 
ENDROOT
BRANCH   1   2
ATOM      2  O   UNL A   1      41.214  19.379  25.946  1.00  0.00    -0.458 OA
BRANCH   2   3
ATOM      3  C   UNL A   1      40.925  20.229  26.945  1.00  0.00     0.338 C 
ATOM      4  O   UNL A   1      40.806  19.936  28.125  1.00  0.00    -0.246 OA
BRANCH   3   5
ATOM      5  C   UNL A   1      40.636  21.614  26.574  1.00  0.00     0.062 A 
ATOM      6  C   UNL A   1      38.583  22.759  26.053  1.00  0.00     0.085 A 
ATOM      7  C   UNL A   1      39.477  21.729  25.786  1.00  0.00     0.045 A 
ATOM      8  C   UNL A   1      38.981  23.796  26.921  1.00  0.00     0.147 A 
ATOM      9  C   UNL A   1      40.190  23.742  27.620  1.00  0.00     0.042 A 
ATOM     10  F   UNL A   1      38.104  24.763  27.237  1.00  0.00    -0.205 F 
ATOM     11  C   UNL A   1      41.004  22.618  27.483  1.00  0.00     0.019 A 
BRANCH   6  12
ATOM     12  N   UNL A   1      37.178  22.643  25.800  1.00  0.00    -0.277 N 
ATOM     13  H   UNL A   1      36.589  23.174  26.385  1.00  0.00     0.180 HD
BRANCH  12  14
ATOM     14  S   UNL A   1      36.412  21.719  24.636  1.00  0.00     0.262 S 
ATOM     15  O   UNL A   1      36.624  20.330  24.986  1.00  0.00    -0.201 OA
ATOM     16  O   UNL A   1      36.876  22.250  23.371  1.00  0.00    -0.201 OA
BRANCH  14  17
ATOM     17  C   UNL A   1      34.634  21.977  24.651  1.00  0.00     0.094 A 
ATOM     18  C   UNL A   1      31.901  22.002  25.366  1.00  0.00     0.161 A 
ATOM     19  C   UNL A   1      32.655  23.170  25.247  1.00  0.00     0.055 A 
ATOM     20  C   UNL A   1      32.483  20.808  24.961  1.00  0.00     0.162 A 
ATOM     21  C   UNL A   1      33.991  23.204  24.784  1.00  0.00    -0.027 A 
ATOM     22  C   UNL A   1      33.857  20.795  24.670  1.00  0.00     0.073 A 
ATOM     23  C   UNL A   1      34.619  24.540  24.528  1.00  0.00     0.046 C 
BRANCH  18  24
ATOM     24  O   UNL A   1      30.746  22.003  26.107  1.00  0.00    -0.493 OA
ATOM     25  C   UNL A   1      30.352  23.272  26.616  1.00  0.00     0.278 C 
ENDBRANCH  18  24
BRANCH  20  26
ATOM     26  O   UNL A   1      31.855  19.592  24.911  1.00  0.00    -0.493 OA
ATOM     27  C   UNL A   1      32.526  18.600  24.137  1.00  0.00     0.278 C 
ENDBRANCH  20  26
ENDBRANCH  14  17
ENDBRANCH  12  14
ENDBRANCH   6  12
ENDBRANCH   3   5
ENDBRANCH   2   3
ENDBRANCH   1   2
BRANCH   1  28
ATOM     28  C   UNL A   1      43.564  19.303  25.183  1.00  0.00     0.275 C 
BRANCH  28  29
ATOM     29  O   UNL A   1      43.755  20.739  25.049  1.00  0.00    -0.458 OA
BRANCH  29  30
ATOM     30  C   UNL A   1      44.954  21.337  25.245  1.00  0.00     0.338 C 
ATOM     31  O   UNL A   1      46.027  20.751  25.189  1.00  0.00    -0.246 OA
BRANCH  30  32
ATOM     32  C   UNL A   1      44.837  22.762  25.651  1.00  0.00     0.060 A 
ATOM     33  C   UNL A   1      44.920  23.799  24.697  1.00  0.00     0.016 A 
ATOM     34  C   UNL A   1      44.487  23.060  26.958  1.00  0.00     0.016 A 
ATOM     35  C   UNL A   1      44.582  25.128  25.034  1.00  0.00     0.010 A 
ATOM     36  C   UNL A   1      44.081  24.340  27.260  1.00  0.00     0.010 A 
ATOM     37  C   UNL A   1      44.153  25.411  26.328  1.00  0.00    -0.014 A 
BRANCH  37  38
ATOM     38  C   UNL A   1      43.998  26.748  26.955  1.00  0.00     0.031 A 
ATOM     39  C   UNL A   1      42.791  27.629  26.952  1.00  0.00     0.074 A 
ATOM     40  C   UNL A   1      44.875  26.820  27.983  1.00  0.00     0.049 A 
ATOM     41  N   UNL A   1      42.235  28.014  28.053  1.00  0.00    -0.248 NA
ATOM     42  C   UNL A   1      42.070  28.161  25.786  1.00  0.00     0.031 C 
ATOM     43  C   UNL A   1      44.841  27.537  29.243  1.00  0.00     0.029 A 
ATOM     44  N   UNL A   1      46.172  26.276  27.957  1.00  0.00    -0.354 N 
ATOM     45  C   UNL A   1      41.095  28.729  27.762  1.00  0.00     0.074 A 
ATOM     46  C   UNL A   1      40.961  28.706  26.328  1.00  0.00     0.031 C 
ATOM     47  C   UNL A   1      46.113  27.733  29.641  1.00  0.00     0.029 A 
ATOM     48  C   UNL A   1      46.963  27.280  28.546  1.00  0.00     0.049 A 
ATOM     49  H   UNL A   1      46.460  25.401  27.609  1.00  0.00     0.167 HD
ATOM     50  C   UNL A   1      40.563  29.523  28.731  1.00  0.00     0.037 A 
ATOM     51  C   UNL A   1      47.632  28.087  27.660  1.00  0.00     0.037 A 
ATOM     52  C   UNL A   1      41.668  30.074  29.489  1.00  0.00     0.049 A 
ATOM     53  C   UNL A   1      47.063  29.501  27.610  1.00  0.00     0.074 A 
ATOM     54  C   UNL A   1      42.345  29.843  30.667  1.00  0.00     0.029 A 
ATOM     55  N   UNL A   1      42.453  30.925  28.753  1.00  0.00    -0.354 N 
ATOM     56  N   UNL A   1      45.953  29.870  28.192  1.00  0.00    -0.248 NA
ATOM     57  C   UNL A   1      47.681  30.603  26.881  1.00  0.00     0.031 C 
ATOM     58  C   UNL A   1      43.630  30.485  30.540  1.00  0.00     0.029 A 
ATOM     59  C   UNL A   1      43.689  31.117  29.305  1.00  0.00     0.049 A 
ATOM     60  H   UNL A   1      42.158  31.353  27.917  1.00  0.00     0.167 HD
ATOM     61  C   UNL A   1      45.717  31.193  27.974  1.00  0.00     0.074 A 
ATOM     62  C   UNL A   1      46.816  31.606  27.118  1.00  0.00     0.031 C 
ATOM     63  C   UNL A   1      44.643  31.856  28.492  1.00  0.00     0.037 A 
BRANCH  50  64
ATOM     64  C   UNL A   1      39.127  29.881  28.984  1.00  0.00     0.064 A 
ATOM     65  C   UNL A   1      38.109  29.043  28.468  1.00  0.00     0.173 A 
ATOM     66  C   UNL A   1      38.690  31.115  29.496  1.00  0.00     0.173 A 
ATOM     67  F   UNL A   1      38.390  27.826  27.982  1.00  0.00    -0.203 F 
ATOM     68  C   UNL A   1      36.776  29.448  28.378  1.00  0.00     0.198 A 
ATOM     69  C   UNL A   1      37.346  31.514  29.418  1.00  0.00     0.198 A 
ATOM     70  F   UNL A   1      39.559  31.993  30.014  1.00  0.00    -0.203 F 
ATOM     71  F   UNL A   1      35.875  28.641  27.801  1.00  0.00    -0.200 F 
ATOM     72  C   UNL A   1      36.397  30.692  28.834  1.00  0.00     0.200 A 
ATOM     73  F   UNL A   1      36.982  32.727  29.857  1.00  0.00    -0.200 F 
ATOM     74  F   UNL A   1      35.131  31.105  28.691  1.00  0.00    -0.200 F 
ENDBRANCH  50  64
BRANCH  51  75
ATOM     75  C   UNL A   1      48.154  27.278  26.491  1.00  0.00     0.064 A 
ATOM     76  C   UNL A   1      47.544  27.485  25.226  1.00  0.00     0.173 A 
ATOM     77  C   UNL A   1      49.424  26.687  26.481  1.00  0.00     0.173 A 
ATOM     78  F   UNL A   1      46.334  28.065  25.154  1.00  0.00    -0.203 F 
ATOM     79  C   UNL A   1      48.225  27.255  24.030  1.00  0.00     0.198 A 
ATOM     80  C   UNL A   1      50.083  26.408  25.274  1.00  0.00     0.198 A 
ATOM     81  F   UNL A   1      50.090  26.482  27.627  1.00  0.00    -0.203 F 
ATOM     82  F   UNL A   1      47.674  27.621  22.863  1.00  0.00    -0.200 F 
ATOM     83  C   UNL A   1      49.503  26.733  24.055  1.00  0.00     0.200 A 
ATOM     84  F   UNL A   1      51.332  25.918  25.294  1.00  0.00    -0.200 F 
ATOM     85  F   UNL A   1      50.195  26.584  22.915  1.00  0.00    -0.200 F 
ENDBRANCH  51  75
BRANCH  63  86
ATOM     86  C   UNL A   1      44.371  33.298  28.184  1.00  0.00     0.064 A 
ATOM     87  C   UNL A   1      44.506  34.286  29.166  1.00  0.00     0.173 A 
ATOM     88  C   UNL A   1      43.874  33.723  26.931  1.00  0.00     0.173 A 
ATOM     89  F   UNL A   1      44.937  33.966  30.395  1.00  0.00    -0.203 F 
ATOM     90  C   UNL A   1      44.202  35.619  28.898  1.00  0.00     0.198 A 
ATOM     91  C   UNL A   1      43.499  35.039  26.691  1.00  0.00     0.198 A 
ATOM     92  F   UNL A   1      43.778  32.885  25.887  1.00  0.00    -0.203 F 
ATOM     93  F   UNL A   1      44.420  36.548  29.838  1.00  0.00    -0.200 F 
ATOM     94  C   UNL A   1      43.681  35.992  27.669  1.00  0.00     0.200 A 
ATOM     95  F   UNL A   1      42.980  35.374  25.502  1.00  0.00    -0.200 F 
ATOM     96  F   UNL A   1      43.374  37.272  27.422  1.00  0.00    -0.200 F 
ENDBRANCH  63  86
ENDBRANCH  37  38
ENDBRANCH  30  32
ENDBRANCH  29  30
ENDBRANCH  28  29
ENDBRANCH   1  28
TORSDOF 16
ENDMDL
