MODEL 1
REMARK VINA RESULT:     -11.3      0.000      0.000
REMARK SMILES CC[N@@H+](C[C@@H]1CCCO1)[C@@H](C)c1ccc(C(=O)OCCOC(=O)c2ccc(-c3c4nc(c(-c5c(F)c(F)c(F)c(F)c5F)c5ccc([nH]5)c(-c5c(F)c(F)c(F)c(F)c5F)c5nc(c(-c6c(F)c(F)c(F)c(F)c6F)c6ccc3[nH]6)C=C5)C=C4)cc2)o1
REMARK SMILES IDX 19 1 18 2 16 3 17 4 15 5 12 6 13 7 87 8 14 9 10 10 11 11
REMARK SMILES IDX 3 12 2 14 1 15 4 16 5 17 6 18 9 19 7 20 8 21 20 22 21 23
REMARK SMILES IDX 22 24 23 25 24 26 25 27 86 28 26 29 85 30 27 31 28 32 29 33
REMARK SMILES IDX 79 34 30 35 84 36 78 37 80 38 31 39 83 40 77 41 76 42 32 44
REMARK SMILES IDX 64 45 44 46 63 47 45 48 48 49 62 50 81 51 46 52 47 53 61 55
REMARK SMILES IDX 82 56 49 57 33 58 34 59 42 60 35 61 36 62 40 63 43 64 37 65
REMARK SMILES IDX 38 66 41 67 39 68 65 69 66 70 74 71 67 72 68 73 72 74 75 75
REMARK SMILES IDX 69 76 70 77 73 78 71 79 50 80 51 81 59 82 52 83 53 84 57 85
REMARK SMILES IDX 60 86 54 87 55 88 58 89 56 90
REMARK H PARENT 3 13 80 43 48 54
REMARK Flexibility Score: inf
ROOT
ATOM      1  C   UNL A   1      31.812  28.629  26.989  1.00  0.00     0.275 C 
ENDROOT
BRANCH   1   2
ATOM      2  O   UNL A   1      31.451  27.818  25.854  1.00  0.00    -0.456 OA
BRANCH   2   3
ATOM      3  C   UNL A   1      31.205  26.509  26.154  1.00  0.00     0.374 C 
ATOM      4  O   UNL A   1      30.132  26.097  26.584  1.00  0.00    -0.242 OA
BRANCH   3   5
ATOM      5  C   UNL A   1      32.342  25.678  25.846  1.00  0.00     0.212 A 
ATOM      6  C   UNL A   1      33.378  23.719  25.871  1.00  0.00     0.162 A 
ATOM      7  C   UNL A   1      34.251  24.624  25.292  1.00  0.00     0.053 A 
ATOM      8  O   UNL A   1      32.230  24.362  26.181  1.00  0.00    -0.448 OA
ATOM      9  C   UNL A   1      33.572  25.876  25.247  1.00  0.00     0.059 A 
BRANCH   6  10
ATOM     10  C   UNL A   1      33.379  22.215  25.982  1.00  0.00     0.248 C 
ATOM     11  C   UNL A   1      33.724  21.873  27.436  1.00  0.00     0.084 C 
BRANCH  10  12
ATOM     12  N   UNL A   1      34.039  21.432  24.901  1.00  0.00    -0.324 N 
ATOM     13  H   UNL A   1      34.095  22.178  24.208  1.00  0.00     0.348 HD
BRANCH  12  14
ATOM     14  C   UNL A   1      35.449  21.019  24.983  1.00  0.00     0.259 C 
ATOM     15  C   UNL A   1      36.533  21.873  24.338  1.00  0.00     0.071 C 
ENDBRANCH  12  14
BRANCH  12  16
ATOM     16  C   UNL A   1      33.210  20.264  24.481  1.00  0.00     0.295 C 
BRANCH  16  17
ATOM     17  C   UNL A   1      33.571  18.788  24.869  1.00  0.00     0.173 C 
ATOM     18  C   UNL A   1      33.729  17.879  23.658  1.00  0.00     0.040 C 
ATOM     19  O   UNL A   1      32.619  18.138  25.721  1.00  0.00    -0.372 OA
ATOM     20  C   UNL A   1      33.413  16.502  24.189  1.00  0.00     0.031 C 
ATOM     21  C   UNL A   1      32.522  16.752  25.384  1.00  0.00     0.161 C 
ENDBRANCH  16  17
ENDBRANCH  12  16
ENDBRANCH  10  12
ENDBRANCH   6  10
ENDBRANCH   3   5
ENDBRANCH   2   3
ENDBRANCH   1   2
BRANCH   1  22
ATOM     22  C   UNL A   1      31.814  30.133  26.679  1.00  0.00     0.275 C 
BRANCH  22  23
ATOM     23  O   UNL A   1      33.133  30.649  26.407  1.00  0.00    -0.458 OA
BRANCH  23  24
ATOM     24  C   UNL A   1      33.556  31.621  27.251  1.00  0.00     0.338 C 
ATOM     25  O   UNL A   1      32.914  32.589  27.625  1.00  0.00    -0.246 OA
BRANCH  24  26
ATOM     26  C   UNL A   1      34.884  31.294  27.810  1.00  0.00     0.060 A 
ATOM     27  C   UNL A   1      35.072  29.985  28.247  1.00  0.00     0.016 A 
ATOM     28  C   UNL A   1      35.895  32.240  28.000  1.00  0.00     0.016 A 
ATOM     29  C   UNL A   1      36.262  29.613  28.864  1.00  0.00     0.010 A 
ATOM     30  C   UNL A   1      37.097  31.860  28.629  1.00  0.00     0.010 A 
ATOM     31  C   UNL A   1      37.287  30.539  29.068  1.00  0.00    -0.014 A 
BRANCH  31  32
ATOM     32  C   UNL A   1      38.497  30.085  29.803  1.00  0.00     0.031 A 
ATOM     33  C   UNL A   1      38.730  30.536  31.217  1.00  0.00     0.074 A 
ATOM     34  C   UNL A   1      39.320  29.170  29.257  1.00  0.00     0.049 A 
ATOM     35  N   UNL A   1      39.685  30.204  32.051  1.00  0.00    -0.248 NA
ATOM     36  C   UNL A   1      37.748  31.479  31.771  1.00  0.00     0.031 C 
ATOM     37  C   UNL A   1      39.162  28.581  27.929  1.00  0.00     0.029 A 
ATOM     38  N   UNL A   1      40.443  28.561  29.763  1.00  0.00    -0.354 N 
ATOM     39  C   UNL A   1      39.423  30.898  33.225  1.00  0.00     0.074 A 
ATOM     40  C   UNL A   1      38.231  31.687  32.987  1.00  0.00     0.031 C 
ATOM     41  C   UNL A   1      40.150  27.694  27.724  1.00  0.00     0.029 A 
ATOM     42  C   UNL A   1      41.027  27.674  28.893  1.00  0.00     0.049 A 
ATOM     43  H   UNL A   1      40.796  28.743  30.665  1.00  0.00     0.167 HD
ATOM     44  C   UNL A   1      40.109  30.876  34.393  1.00  0.00     0.037 A 
ATOM     45  C   UNL A   1      42.151  26.940  29.017  1.00  0.00     0.037 A 
ATOM     46  C   UNL A   1      41.299  30.098  34.632  1.00  0.00     0.049 A 
ATOM     47  C   UNL A   1      42.943  27.001  30.298  1.00  0.00     0.074 A 
ATOM     48  C   UNL A   1      42.063  30.020  35.786  1.00  0.00     0.029 A 
ATOM     49  N   UNL A   1      41.906  29.270  33.700  1.00  0.00    -0.354 N 
ATOM     50  N   UNL A   1      42.685  27.656  31.405  1.00  0.00    -0.248 NA
ATOM     51  C   UNL A   1      44.183  26.212  30.346  1.00  0.00     0.031 C 
ATOM     52  C   UNL A   1      43.159  29.188  35.534  1.00  0.00     0.029 A 
ATOM     53  C   UNL A   1      43.048  28.697  34.245  1.00  0.00     0.049 A 
ATOM     54  H   UNL A   1      41.576  29.112  32.786  1.00  0.00     0.167 HD
ATOM     55  C   UNL A   1      43.713  27.338  32.285  1.00  0.00     0.074 A 
ATOM     56  C   UNL A   1      44.583  26.412  31.593  1.00  0.00     0.031 C 
ATOM     57  C   UNL A   1      43.914  27.775  33.553  1.00  0.00     0.037 A 
BRANCH  44  58
ATOM     58  C   UNL A   1      39.607  31.756  35.501  1.00  0.00     0.064 A 
ATOM     59  C   UNL A   1      40.109  33.050  35.701  1.00  0.00     0.173 A 
ATOM     60  C   UNL A   1      38.588  31.307  36.355  1.00  0.00     0.173 A 
ATOM     61  F   UNL A   1      41.092  33.523  34.920  1.00  0.00    -0.203 F 
ATOM     62  C   UNL A   1      39.629  33.852  36.735  1.00  0.00     0.198 A 
ATOM     63  C   UNL A   1      38.090  32.123  37.368  1.00  0.00     0.198 A 
ATOM     64  F   UNL A   1      38.068  30.080  36.202  1.00  0.00    -0.203 F 
ATOM     65  F   UNL A   1      40.156  35.067  36.939  1.00  0.00    -0.200 F 
ATOM     66  C   UNL A   1      38.616  33.390  37.563  1.00  0.00     0.200 A 
ATOM     67  F   UNL A   1      37.101  31.680  38.157  1.00  0.00    -0.200 F 
ATOM     68  F   UNL A   1      38.151  34.165  38.553  1.00  0.00    -0.200 F 
ENDBRANCH  44  58
BRANCH  45  69
ATOM     69  C   UNL A   1      42.617  26.092  27.887  1.00  0.00     0.064 A 
ATOM     70  C   UNL A   1      43.518  26.581  26.932  1.00  0.00     0.173 A 
ATOM     71  C   UNL A   1      42.130  24.788  27.715  1.00  0.00     0.173 A 
ATOM     72  F   UNL A   1      43.987  27.835  27.034  1.00  0.00    -0.203 F 
ATOM     73  C   UNL A   1      43.896  25.809  25.835  1.00  0.00     0.198 A 
ATOM     74  C   UNL A   1      42.532  24.004  26.636  1.00  0.00     0.198 A 
ATOM     75  F   UNL A   1      41.256  24.275  28.593  1.00  0.00    -0.203 F 
ATOM     76  F   UNL A   1      44.709  26.324  24.904  1.00  0.00    -0.200 F 
ATOM     77  C   UNL A   1      43.406  24.519  25.691  1.00  0.00     0.200 A 
ATOM     78  F   UNL A   1      42.061  22.757  26.503  1.00  0.00    -0.200 F 
ATOM     79  F   UNL A   1      43.764  23.779  24.632  1.00  0.00    -0.200 F 
ENDBRANCH  45  69
BRANCH  57  80
ATOM     80  C   UNL A   1      45.105  27.226  34.289  1.00  0.00     0.064 A 
ATOM     81  C   UNL A   1      45.024  26.059  35.065  1.00  0.00     0.173 A 
ATOM     82  C   UNL A   1      46.348  27.875  34.217  1.00  0.00     0.173 A 
ATOM     83  F   UNL A   1      43.858  25.405  35.180  1.00  0.00    -0.203 F 
ATOM     84  C   UNL A   1      46.128  25.588  35.774  1.00  0.00     0.198 A 
ATOM     85  C   UNL A   1      47.458  27.382  34.897  1.00  0.00     0.198 A 
ATOM     86  F   UNL A   1      46.488  28.990  33.483  1.00  0.00    -0.203 F 
ATOM     87  F   UNL A   1      46.007  24.511  36.561  1.00  0.00    -0.200 F 
ATOM     88  C   UNL A   1      47.344  26.247  35.686  1.00  0.00     0.200 A 
ATOM     89  F   UNL A   1      48.637  28.012  34.800  1.00  0.00    -0.200 F 
ATOM     90  F   UNL A   1      48.404  25.795  36.371  1.00  0.00    -0.200 F 
ENDBRANCH  57  80
ENDBRANCH  31  32
ENDBRANCH  24  26
ENDBRANCH  23  24
ENDBRANCH  22  23
ENDBRANCH   1  22
TORSDOF 16
ENDMDL
MODEL 2
REMARK VINA RESULT:     -11.3      3.311      5.493
REMARK SMILES CC[N@@H+](C[C@@H]1CCCO1)[C@@H](C)c1ccc(C(=O)OCCOC(=O)c2ccc(-c3c4nc(c(-c5c(F)c(F)c(F)c(F)c5F)c5ccc([nH]5)c(-c5c(F)c(F)c(F)c(F)c5F)c5nc(c(-c6c(F)c(F)c(F)c(F)c6F)c6ccc3[nH]6)C=C5)C=C4)cc2)o1
REMARK SMILES IDX 19 1 18 2 16 3 17 4 15 5 12 6 13 7 87 8 14 9 10 10 11 11
REMARK SMILES IDX 3 12 2 14 1 15 4 16 5 17 6 18 9 19 7 20 8 21 20 22 21 23
REMARK SMILES IDX 22 24 23 25 24 26 25 27 86 28 26 29 85 30 27 31 28 32 29 33
REMARK SMILES IDX 79 34 30 35 84 36 78 37 80 38 31 39 83 40 77 41 76 42 32 44
REMARK SMILES IDX 64 45 44 46 63 47 45 48 48 49 62 50 81 51 46 52 47 53 61 55
REMARK SMILES IDX 82 56 49 57 33 58 34 59 42 60 35 61 36 62 40 63 43 64 37 65
REMARK SMILES IDX 38 66 41 67 39 68 65 69 66 70 74 71 67 72 68 73 72 74 75 75
REMARK SMILES IDX 69 76 70 77 73 78 71 79 50 80 51 81 59 82 52 83 53 84 57 85
REMARK SMILES IDX 60 86 54 87 55 88 58 89 56 90
REMARK H PARENT 3 13 80 43 48 54
REMARK Flexibility Score: inf
ROOT
ATOM      1  C   UNL A   1      33.228  34.510  28.447  1.00  0.00     0.275 C 
ENDROOT
BRANCH   1   2
ATOM      2  O   UNL A   1      34.003  33.409  28.958  1.00  0.00    -0.456 OA
BRANCH   2   3
ATOM      3  C   UNL A   1      34.903  32.894  28.070  1.00  0.00     0.374 C 
ATOM      4  O   UNL A   1      35.833  33.534  27.589  1.00  0.00    -0.242 OA
BRANCH   3   5
ATOM      5  C   UNL A   1      34.650  31.496  27.820  1.00  0.00     0.212 A 
ATOM      6  C   UNL A   1      33.274  29.832  27.321  1.00  0.00     0.162 A 
ATOM      7  C   UNL A   1      34.523  29.270  27.516  1.00  0.00     0.053 A 
ATOM      8  O   UNL A   1      33.368  31.171  27.488  1.00  0.00    -0.448 OA
ATOM      9  C   UNL A   1      35.414  30.345  27.805  1.00  0.00     0.059 A 
BRANCH   6  10
ATOM     10  C   UNL A   1      31.982  29.296  26.756  1.00  0.00     0.248 C 
ATOM     11  C   UNL A   1      31.599  28.072  27.598  1.00  0.00     0.084 C 
BRANCH  10  12
ATOM     12  N   UNL A   1      31.848  29.200  25.277  1.00  0.00    -0.324 N 
ATOM     13  H   UNL A   1      31.420  28.275  25.239  1.00  0.00     0.348 HD
BRANCH  12  14
ATOM     14  C   UNL A   1      30.863  29.995  24.527  1.00  0.00     0.259 C 
ATOM     15  C   UNL A   1      29.937  29.316  23.527  1.00  0.00     0.071 C 
ENDBRANCH  12  14
BRANCH  12  16
ATOM     16  C   UNL A   1      33.173  29.291  24.596  1.00  0.00     0.295 C 
BRANCH  16  17
ATOM     17  C   UNL A   1      33.846  28.064  23.889  1.00  0.00     0.173 C 
ATOM     18  C   UNL A   1      33.125  27.645  22.616  1.00  0.00     0.040 C 
ATOM     19  O   UNL A   1      33.938  26.880  24.692  1.00  0.00    -0.372 OA
ATOM     20  C   UNL A   1      33.458  26.179  22.472  1.00  0.00     0.031 C 
ATOM     21  C   UNL A   1      33.758  25.719  23.879  1.00  0.00     0.161 C 
ENDBRANCH  16  17
ENDBRANCH  12  16
ENDBRANCH  10  12
ENDBRANCH   6  10
ENDBRANCH   3   5
ENDBRANCH   2   3
ENDBRANCH   1   2
BRANCH   1  22
ATOM     22  C   UNL A   1      33.056  35.650  29.462  1.00  0.00     0.275 C 
BRANCH  22  23
ATOM     23  O   UNL A   1      32.230  35.281  30.586  1.00  0.00    -0.458 OA
BRANCH  23  24
ATOM     24  C   UNL A   1      32.647  35.757  31.784  1.00  0.00     0.338 C 
ATOM     25  O   UNL A   1      32.098  36.615  32.457  1.00  0.00    -0.246 OA
BRANCH  24  26
ATOM     26  C   UNL A   1      33.808  34.991  32.282  1.00  0.00     0.060 A 
ATOM     27  C   UNL A   1      35.064  35.556  32.072  1.00  0.00     0.016 A 
ATOM     28  C   UNL A   1      33.707  33.719  32.852  1.00  0.00     0.016 A 
ATOM     29  C   UNL A   1      36.216  34.865  32.432  1.00  0.00     0.010 A 
ATOM     30  C   UNL A   1      34.877  33.021  33.212  1.00  0.00     0.010 A 
ATOM     31  C   UNL A   1      36.143  33.592  33.000  1.00  0.00    -0.014 A 
BRANCH  31  32
ATOM     32  C   UNL A   1      37.419  32.885  33.287  1.00  0.00     0.031 A 
ATOM     33  C   UNL A   1      38.146  33.141  34.575  1.00  0.00     0.074 A 
ATOM     34  C   UNL A   1      37.863  31.921  32.458  1.00  0.00     0.049 A 
ATOM     35  N   UNL A   1      39.236  32.582  35.043  1.00  0.00    -0.248 NA
ATOM     36  C   UNL A   1      37.562  34.155  35.464  1.00  0.00     0.031 C 
ATOM     37  C   UNL A   1      37.208  31.509  31.218  1.00  0.00     0.029 A 
ATOM     38  N   UNL A   1      38.961  31.099  32.546  1.00  0.00    -0.354 N 
ATOM     39  C   UNL A   1      39.470  33.177  36.276  1.00  0.00     0.074 A 
ATOM     40  C   UNL A   1      38.420  34.157  36.474  1.00  0.00     0.031 C 
ATOM     41  C   UNL A   1      37.915  30.511  30.661  1.00  0.00     0.029 A 
ATOM     42  C   UNL A   1      39.088  30.234  31.488  1.00  0.00     0.049 A 
ATOM     43  H   UNL A   1      39.598  31.129  33.297  1.00  0.00     0.167 HD
ATOM     44  C   UNL A   1      40.463  32.927  37.163  1.00  0.00     0.037 A 
ATOM     45  C   UNL A   1      40.048  29.331  31.208  1.00  0.00     0.037 A 
ATOM     46  C   UNL A   1      41.513  31.958  36.968  1.00  0.00     0.049 A 
ATOM     47  C   UNL A   1      41.190  29.135  32.172  1.00  0.00     0.074 A 
ATOM     48  C   UNL A   1      42.565  31.643  37.814  1.00  0.00     0.029 A 
ATOM     49  N   UNL A   1      41.652  31.154  35.847  1.00  0.00    -0.354 N 
ATOM     50  N   UNL A   1      41.400  29.698  33.338  1.00  0.00    -0.248 NA
ATOM     51  C   UNL A   1      42.227  28.168  31.780  1.00  0.00     0.031 C 
ATOM     52  C   UNL A   1      43.369  30.689  37.181  1.00  0.00     0.029 A 
ATOM     53  C   UNL A   1      42.786  30.361  35.969  1.00  0.00     0.049 A 
ATOM     54  H   UNL A   1      41.038  31.147  35.078  1.00  0.00     0.167 HD
ATOM     55  C   UNL A   1      42.574  29.136  33.827  1.00  0.00     0.074 A 
ATOM     56  C   UNL A   1      43.016  28.171  32.845  1.00  0.00     0.031 C 
ATOM     57  C   UNL A   1      43.225  29.400  34.988  1.00  0.00     0.037 A 
BRANCH  44  58
ATOM     58  C   UNL A   1      40.485  33.748  38.420  1.00  0.00     0.064 A 
ATOM     59  C   UNL A   1      41.259  34.912  38.528  1.00  0.00     0.173 A 
ATOM     60  C   UNL A   1      39.695  33.379  39.520  1.00  0.00     0.173 A 
ATOM     61  F   UNL A   1      42.040  35.302  37.510  1.00  0.00    -0.203 F 
ATOM     62  C   UNL A   1      41.265  35.661  39.703  1.00  0.00     0.198 A 
ATOM     63  C   UNL A   1      39.680  34.147  40.681  1.00  0.00     0.198 A 
ATOM     64  F   UNL A   1      38.930  32.278  39.465  1.00  0.00    -0.203 F 
ATOM     65  F   UNL A   1      42.049  36.743  39.803  1.00  0.00    -0.200 F 
ATOM     66  C   UNL A   1      40.471  35.281  40.776  1.00  0.00     0.200 A 
ATOM     67  F   UNL A   1      38.901  33.786  41.711  1.00  0.00    -0.200 F 
ATOM     68  F   UNL A   1      40.472  36.007  41.903  1.00  0.00    -0.200 F 
ENDBRANCH  44  58
BRANCH  45  69
ATOM     69  C   UNL A   1      39.992  28.549  29.944  1.00  0.00     0.064 A 
ATOM     70  C   UNL A   1      39.398  27.280  29.896  1.00  0.00     0.173 A 
ATOM     71  C   UNL A   1      40.577  29.038  28.766  1.00  0.00     0.173 A 
ATOM     72  F   UNL A   1      38.855  26.754  31.005  1.00  0.00    -0.203 F 
ATOM     73  C   UNL A   1      39.413  26.521  28.729  1.00  0.00     0.198 A 
ATOM     74  C   UNL A   1      40.563  28.292  27.590  1.00  0.00     0.198 A 
ATOM     75  F   UNL A   1      41.170  30.242  28.759  1.00  0.00    -0.203 F 
ATOM     76  F   UNL A   1      38.894  25.286  28.728  1.00  0.00    -0.200 F 
ATOM     77  C   UNL A   1      39.991  27.030  27.575  1.00  0.00     0.200 A 
ATOM     78  F   UNL A   1      41.117  28.790  26.477  1.00  0.00    -0.200 F 
ATOM     79  F   UNL A   1      40.011  26.297  26.453  1.00  0.00    -0.200 F 
ENDBRANCH  45  69
BRANCH  57  80
ATOM     80  C   UNL A   1      44.467  28.603  35.276  1.00  0.00     0.064 A 
ATOM     81  C   UNL A   1      45.741  29.047  34.886  1.00  0.00     0.173 A 
ATOM     82  C   UNL A   1      44.384  27.376  35.955  1.00  0.00     0.173 A 
ATOM     83  F   UNL A   1      45.877  30.205  34.223  1.00  0.00    -0.203 F 
ATOM     84  C   UNL A   1      46.876  28.274  35.125  1.00  0.00     0.198 A 
ATOM     85  C   UNL A   1      45.525  26.624  36.224  1.00  0.00     0.198 A 
ATOM     86  F   UNL A   1      43.195  26.906  36.359  1.00  0.00    -0.203 F 
ATOM     87  F   UNL A   1      48.071  28.689  34.683  1.00  0.00    -0.200 F 
ATOM     88  C   UNL A   1      46.767  27.067  35.797  1.00  0.00     0.200 A 
ATOM     89  F   UNL A   1      45.420  25.464  36.886  1.00  0.00    -0.200 F 
ATOM     90  F   UNL A   1      47.860  26.324  36.023  1.00  0.00    -0.200 F 
ENDBRANCH  57  80
ENDBRANCH  31  32
ENDBRANCH  24  26
ENDBRANCH  23  24
ENDBRANCH  22  23
ENDBRANCH   1  22
TORSDOF 16
ENDMDL
MODEL 3
REMARK VINA RESULT:     -11.2      4.552     10.114
REMARK SMILES CC[N@@H+](C[C@@H]1CCCO1)[C@@H](C)c1ccc(C(=O)OCCOC(=O)c2ccc(-c3c4nc(c(-c5c(F)c(F)c(F)c(F)c5F)c5ccc([nH]5)c(-c5c(F)c(F)c(F)c(F)c5F)c5nc(c(-c6c(F)c(F)c(F)c(F)c6F)c6ccc3[nH]6)C=C5)C=C4)cc2)o1
REMARK SMILES IDX 19 1 18 2 16 3 17 4 15 5 12 6 13 7 87 8 14 9 10 10 11 11
REMARK SMILES IDX 3 12 2 14 1 15 4 16 5 17 6 18 9 19 7 20 8 21 20 22 21 23
REMARK SMILES IDX 22 24 23 25 24 26 25 27 86 28 26 29 85 30 27 31 28 32 29 33
REMARK SMILES IDX 79 34 30 35 84 36 78 37 80 38 31 39 83 40 77 41 76 42 32 44
REMARK SMILES IDX 64 45 44 46 63 47 45 48 48 49 62 50 81 51 46 52 47 53 61 55
REMARK SMILES IDX 82 56 49 57 33 58 34 59 42 60 35 61 36 62 40 63 43 64 37 65
REMARK SMILES IDX 38 66 41 67 39 68 65 69 66 70 74 71 67 72 68 73 72 74 75 75
REMARK SMILES IDX 69 76 70 77 73 78 71 79 50 80 51 81 59 82 52 83 53 84 57 85
REMARK SMILES IDX 60 86 54 87 55 88 58 89 56 90
REMARK H PARENT 3 13 80 43 48 54
REMARK Flexibility Score: inf
ROOT
ATOM      1  C   UNL A   1      36.613  23.174  23.842  1.00  0.00     0.275 C 
ENDROOT
BRANCH   1   2
ATOM      2  O   UNL A   1      35.553  23.035  22.877  1.00  0.00    -0.456 OA
BRANCH   2   3
ATOM      3  C   UNL A   1      34.297  23.101  23.408  1.00  0.00     0.374 C 
ATOM      4  O   UNL A   1      33.541  22.138  23.497  1.00  0.00    -0.242 OA
BRANCH   3   5
ATOM      5  C   UNL A   1      34.003  24.427  23.895  1.00  0.00     0.212 A 
ATOM      6  C   UNL A   1      33.417  26.536  23.549  1.00  0.00     0.162 A 
ATOM      7  C   UNL A   1      33.640  26.402  24.908  1.00  0.00     0.053 A 
ATOM      8  O   UNL A   1      33.620  25.338  22.956  1.00  0.00    -0.448 OA
ATOM      9  C   UNL A   1      33.985  25.038  25.134  1.00  0.00     0.059 A 
BRANCH   6  10
ATOM     10  C   UNL A   1      32.795  27.625  22.710  1.00  0.00     0.248 C 
ATOM     11  C   UNL A   1      33.606  28.902  22.963  1.00  0.00     0.084 C 
BRANCH  10  12
ATOM     12  N   UNL A   1      31.311  27.730  22.683  1.00  0.00    -0.324 N 
ATOM     13  H   UNL A   1      31.194  27.736  21.670  1.00  0.00     0.348 HD
BRANCH  12  14
ATOM     14  C   UNL A   1      30.440  26.604  23.058  1.00  0.00     0.259 C 
ATOM     15  C   UNL A   1      29.914  26.489  24.483  1.00  0.00     0.071 C 
ENDBRANCH  12  14
BRANCH  12  16
ATOM     16  C   UNL A   1      30.832  28.968  23.364  1.00  0.00     0.295 C 
BRANCH  16  17
ATOM     17  C   UNL A   1      30.025  30.086  22.616  1.00  0.00     0.173 C 
ATOM     18  C   UNL A   1      29.053  30.824  23.525  1.00  0.00     0.040 C 
ATOM     19  O   UNL A   1      29.244  29.625  21.505  1.00  0.00    -0.372 OA
ATOM     20  C   UNL A   1      27.981  31.323  22.588  1.00  0.00     0.031 C 
ATOM     21  C   UNL A   1      28.027  30.370  21.417  1.00  0.00     0.161 C 
ENDBRANCH  16  17
ENDBRANCH  12  16
ENDBRANCH  10  12
ENDBRANCH   6  10
ENDBRANCH   3   5
ENDBRANCH   2   3
ENDBRANCH   1   2
BRANCH   1  22
ATOM     22  C   UNL A   1      37.139  21.827  24.358  1.00  0.00     0.275 C 
BRANCH  22  23
ATOM     23  O   UNL A   1      37.458  21.850  25.765  1.00  0.00    -0.458 OA
BRANCH  23  24
ATOM     24  C   UNL A   1      38.753  21.589  26.065  1.00  0.00     0.338 C 
ATOM     25  O   UNL A   1      39.373  20.573  25.792  1.00  0.00    -0.246 OA
BRANCH  24  26
ATOM     26  C   UNL A   1      39.408  22.773  26.657  1.00  0.00     0.060 A 
ATOM     27  C   UNL A   1      39.038  24.014  26.142  1.00  0.00     0.016 A 
ATOM     28  C   UNL A   1      40.422  22.697  27.616  1.00  0.00     0.016 A 
ATOM     29  C   UNL A   1      39.665  25.174  26.581  1.00  0.00     0.010 A 
ATOM     30  C   UNL A   1      41.058  23.874  28.055  1.00  0.00     0.010 A 
ATOM     31  C   UNL A   1      40.682  25.125  27.536  1.00  0.00    -0.014 A 
BRANCH  31  32
ATOM     32  C   UNL A   1      41.358  26.399  27.898  1.00  0.00     0.031 A 
ATOM     33  C   UNL A   1      42.760  26.664  27.432  1.00  0.00     0.074 A 
ATOM     34  C   UNL A   1      40.677  27.372  28.533  1.00  0.00     0.049 A 
ATOM     35  N   UNL A   1      43.501  27.735  27.585  1.00  0.00    -0.248 NA
ATOM     36  C   UNL A   1      43.414  25.583  26.681  1.00  0.00     0.031 C 
ATOM     37  C   UNL A   1      39.284  27.282  28.964  1.00  0.00     0.029 A 
ATOM     38  N   UNL A   1      41.062  28.638  28.907  1.00  0.00    -0.354 N 
ATOM     39  C   UNL A   1      44.706  27.457  26.954  1.00  0.00     0.074 A 
ATOM     40  C   UNL A   1      44.606  26.107  26.436  1.00  0.00     0.031 C 
ATOM     41  C   UNL A   1      38.929  28.441  29.542  1.00  0.00     0.029 A 
ATOM     42  C   UNL A   1      40.078  29.345  29.550  1.00  0.00     0.049 A 
ATOM     43  H   UNL A   1      41.960  29.002  28.730  1.00  0.00     0.167 HD
ATOM     44  C   UNL A   1      45.794  28.253  26.815  1.00  0.00     0.037 A 
ATOM     45  C   UNL A   1      40.101  30.577  30.096  1.00  0.00     0.037 A 
ATOM     46  C   UNL A   1      45.902  29.594  27.335  1.00  0.00     0.049 A 
ATOM     47  C   UNL A   1      41.356  31.408  30.003  1.00  0.00     0.074 A 
ATOM     48  C   UNL A   1      46.970  30.472  27.244  1.00  0.00     0.029 A 
ATOM     49  N   UNL A   1      44.910  30.250  28.049  1.00  0.00    -0.354 N 
ATOM     50  N   UNL A   1      42.489  31.140  29.401  1.00  0.00    -0.248 NA
ATOM     51  C   UNL A   1      41.328  32.722  30.663  1.00  0.00     0.031 C 
ATOM     52  C   UNL A   1      46.645  31.636  27.950  1.00  0.00     0.029 A 
ATOM     53  C   UNL A   1      45.351  31.511  28.426  1.00  0.00     0.049 A 
ATOM     54  H   UNL A   1      44.024  29.876  28.257  1.00  0.00     0.167 HD
ATOM     55  C   UNL A   1      43.295  32.256  29.586  1.00  0.00     0.074 A 
ATOM     56  C   UNL A   1      42.512  33.216  30.335  1.00  0.00     0.031 C 
ATOM     57  C   UNL A   1      44.570  32.465  29.173  1.00  0.00     0.037 A 
BRANCH  44  58
ATOM     58  C   UNL A   1      46.981  27.676  26.100  1.00  0.00     0.064 A 
ATOM     59  C   UNL A   1      47.086  27.703  24.702  1.00  0.00     0.173 A 
ATOM     60  C   UNL A   1      48.042  27.115  26.828  1.00  0.00     0.173 A 
ATOM     61  F   UNL A   1      46.095  28.218  23.959  1.00  0.00    -0.203 F 
ATOM     62  C   UNL A   1      48.197  27.163  24.057  1.00  0.00     0.198 A 
ATOM     63  C   UNL A   1      49.164  26.604  26.181  1.00  0.00     0.198 A 
ATOM     64  F   UNL A   1      47.995  27.072  28.168  1.00  0.00    -0.203 F 
ATOM     65  F   UNL A   1      48.255  27.156  22.719  1.00  0.00    -0.200 F 
ATOM     66  C   UNL A   1      49.238  26.620  24.797  1.00  0.00     0.200 A 
ATOM     67  F   UNL A   1      50.175  26.093  26.899  1.00  0.00    -0.200 F 
ATOM     68  F   UNL A   1      50.308  26.107  24.176  1.00  0.00    -0.200 F 
ENDBRANCH  44  58
BRANCH  45  69
ATOM     69  C   UNL A   1      38.905  31.102  30.807  1.00  0.00     0.064 A 
ATOM     70  C   UNL A   1      38.738  30.919  32.187  1.00  0.00     0.173 A 
ATOM     71  C   UNL A   1      37.880  31.756  30.109  1.00  0.00     0.173 A 
ATOM     72  F   UNL A   1      39.676  30.269  32.894  1.00  0.00    -0.203 F 
ATOM     73  C   UNL A   1      37.583  31.348  32.836  1.00  0.00     0.198 A 
ATOM     74  C   UNL A   1      36.739  32.213  30.763  1.00  0.00     0.198 A 
ATOM     75  F   UNL A   1      37.983  31.946  28.785  1.00  0.00    -0.203 F 
ATOM     76  F   UNL A   1      37.421  31.104  34.143  1.00  0.00    -0.200 F 
ATOM     77  C   UNL A   1      36.586  31.999  32.125  1.00  0.00     0.200 A 
ATOM     78  F   UNL A   1      35.781  32.847  30.073  1.00  0.00    -0.200 F 
ATOM     79  F   UNL A   1      35.471  32.406  32.748  1.00  0.00    -0.200 F 
ENDBRANCH  45  69
BRANCH  57  80
ATOM     80  C   UNL A   1      45.186  33.800  29.489  1.00  0.00     0.064 A 
ATOM     81  C   UNL A   1      45.064  34.898  28.621  1.00  0.00     0.173 A 
ATOM     82  C   UNL A   1      45.907  33.988  30.679  1.00  0.00     0.173 A 
ATOM     83  F   UNL A   1      44.396  34.772  27.465  1.00  0.00    -0.203 F 
ATOM     84  C   UNL A   1      45.676  36.115  28.911  1.00  0.00     0.198 A 
ATOM     85  C   UNL A   1      46.488  35.217  30.982  1.00  0.00     0.198 A 
ATOM     86  F   UNL A   1      46.049  32.978  31.550  1.00  0.00    -0.203 F 
ATOM     87  F   UNL A   1      45.602  37.126  28.034  1.00  0.00    -0.200 F 
ATOM     88  C   UNL A   1      46.383  36.275  30.093  1.00  0.00     0.200 A 
ATOM     89  F   UNL A   1      47.159  35.374  32.132  1.00  0.00    -0.200 F 
ATOM     90  F   UNL A   1      46.975  37.446  30.368  1.00  0.00    -0.200 F 
ENDBRANCH  57  80
ENDBRANCH  31  32
ENDBRANCH  24  26
ENDBRANCH  23  24
ENDBRANCH  22  23
ENDBRANCH   1  22
TORSDOF 16
ENDMDL
