MODEL 1
REMARK VINA RESULT:     -12.1      0.000      0.000
REMARK SMILES O=C(OCCOC(=O)c1cc(-c2ccc(Cl)cc2)nc2c3c(C4CC4)cc(C(F)(F)F)nc3nn12)c1ccc(-c2c3nc(c(-c4c(F)c(F)c(F)c(F)c4F)c4ccc([nH]4)c(-c4c(F)c(F)c(F)c(F)c4F)c4nc(c(-c5c(F)c(F)c(F)c(F)c5F)c5ccc2[nH]5)C=C4)C=C3)cc1
REMARK SMILES IDX 4 1 3 2 2 3 1 4 36 5 37 6 98 7 38 8 97 9 39 10 40 11 41 12
REMARK SMILES IDX 91 13 42 14 96 15 90 16 92 17 43 18 95 19 89 20 88 21 44 23
REMARK SMILES IDX 76 24 56 25 75 26 57 27 60 28 74 29 93 30 58 31 59 32 73 34
REMARK SMILES IDX 94 35 61 36 45 37 46 38 54 39 47 40 48 41 52 42 55 43 49 44
REMARK SMILES IDX 50 45 53 46 51 47 77 48 78 49 86 50 79 51 80 52 84 53 87 54
REMARK SMILES IDX 81 55 82 56 85 57 83 58 62 59 63 60 71 61 64 62 65 63 69 64
REMARK SMILES IDX 72 65 66 66 67 67 70 68 68 69 5 70 6 71 7 72 8 73 9 74 10 75
REMARK SMILES IDX 35 76 11 77 20 78 34 79 19 80 21 81 33 82 22 83 32 84 26 85
REMARK SMILES IDX 27 86 12 87 13 88 18 89 14 90 17 91 15 92 16 93 23 94 24 95
REMARK SMILES IDX 25 96 28 97 29 98 30 99 31 100
REMARK H PARENT 92 22 60 33
REMARK Flexibility Score: inf
ROOT
ATOM      1  C   UNL A   1      48.083  29.416  27.161  1.00  0.00     0.275 C 
ENDROOT
BRANCH   1   2
ATOM      2  O   UNL A   1      48.030  30.756  26.635  1.00  0.00    -0.458 OA
BRANCH   2   3
ATOM      3  C   UNL A   1      47.040  31.670  26.735  1.00  0.00     0.338 C 
ATOM      4  O   UNL A   1      47.187  32.766  26.196  1.00  0.00    -0.246 OA
BRANCH   3   5
ATOM      5  C   UNL A   1      45.764  31.447  27.477  1.00  0.00     0.060 A 
ATOM      6  C   UNL A   1      44.552  31.055  26.906  1.00  0.00     0.016 A 
ATOM      7  C   UNL A   1      45.833  31.551  28.878  1.00  0.00     0.016 A 
ATOM      8  C   UNL A   1      43.440  30.797  27.685  1.00  0.00     0.010 A 
ATOM      9  C   UNL A   1      44.723  31.281  29.674  1.00  0.00     0.010 A 
ATOM     10  C   UNL A   1      43.525  30.907  29.066  1.00  0.00    -0.014 A 
BRANCH  10  11
ATOM     11  C   UNL A   1      42.277  30.650  29.780  1.00  0.00     0.031 A 
ATOM     12  C   UNL A   1      42.324  29.504  30.735  1.00  0.00     0.074 A 
ATOM     13  C   UNL A   1      41.581  31.743  30.141  1.00  0.00     0.049 A 
ATOM     14  N   UNL A   1      42.839  29.578  31.925  1.00  0.00    -0.248 NA
ATOM     15  C   UNL A   1      42.028  28.137  30.301  1.00  0.00     0.031 C 
ATOM     16  C   UNL A   1      42.141  33.030  30.558  1.00  0.00     0.029 A 
ATOM     17  N   UNL A   1      40.222  31.936  30.150  1.00  0.00    -0.354 N 
ATOM     18  C   UNL A   1      42.972  28.284  32.391  1.00  0.00     0.074 A 
ATOM     19  C   UNL A   1      42.456  27.421  31.353  1.00  0.00     0.031 C 
ATOM     20  C   UNL A   1      41.136  33.834  30.946  1.00  0.00     0.029 A 
ATOM     21  C   UNL A   1      39.861  33.151  30.735  1.00  0.00     0.049 A 
ATOM     22  H   UNL A   1      39.575  31.290  29.786  1.00  0.00     0.167 HD
ATOM     23  C   UNL A   1      43.495  28.005  33.612  1.00  0.00     0.037 A 
ATOM     24  C   UNL A   1      38.801  33.235  31.589  1.00  0.00     0.037 A 
ATOM     25  C   UNL A   1      43.854  29.144  34.399  1.00  0.00     0.049 A 
ATOM     26  C   UNL A   1      39.374  32.569  32.829  1.00  0.00     0.074 A 
ATOM     27  C   UNL A   1      45.001  29.836  34.715  1.00  0.00     0.029 A 
ATOM     28  N   UNL A   1      42.831  29.848  34.990  1.00  0.00    -0.354 N 
ATOM     29  N   UNL A   1      40.217  33.117  33.670  1.00  0.00    -0.248 NA
ATOM     30  C   UNL A   1      39.308  31.107  32.917  1.00  0.00     0.031 C 
ATOM     31  C   UNL A   1      44.561  31.139  35.108  1.00  0.00     0.029 A 
ATOM     32  C   UNL A   1      43.173  31.175  34.963  1.00  0.00     0.049 A 
ATOM     33  H   UNL A   1      42.003  29.469  35.364  1.00  0.00     0.167 HD
ATOM     34  C   UNL A   1      40.983  32.059  34.176  1.00  0.00     0.074 A 
ATOM     35  C   UNL A   1      40.340  30.849  33.712  1.00  0.00     0.031 C 
ATOM     36  C   UNL A   1      42.201  32.230  34.772  1.00  0.00     0.037 A 
BRANCH  23  37
ATOM     37  C   UNL A   1      43.523  26.667  34.226  1.00  0.00     0.064 A 
ATOM     38  C   UNL A   1      44.638  25.857  33.965  1.00  0.00     0.173 A 
ATOM     39  C   UNL A   1      42.421  26.096  34.867  1.00  0.00     0.173 A 
ATOM     40  F   UNL A   1      45.712  26.378  33.348  1.00  0.00    -0.203 F 
ATOM     41  C   UNL A   1      44.634  24.507  34.284  1.00  0.00     0.198 A 
ATOM     42  C   UNL A   1      42.424  24.741  35.198  1.00  0.00     0.198 A 
ATOM     43  F   UNL A   1      41.332  26.833  35.129  1.00  0.00    -0.203 F 
ATOM     44  F   UNL A   1      45.693  23.747  33.973  1.00  0.00    -0.200 F 
ATOM     45  C   UNL A   1      43.522  23.946  34.891  1.00  0.00     0.200 A 
ATOM     46  F   UNL A   1      41.352  24.193  35.786  1.00  0.00    -0.200 F 
ATOM     47  F   UNL A   1      43.504  22.635  35.168  1.00  0.00    -0.200 F 
ENDBRANCH  23  37
BRANCH  24  48
ATOM     48  C   UNL A   1      37.502  32.897  30.923  1.00  0.00     0.064 A 
ATOM     49  C   UNL A   1      36.366  32.720  31.748  1.00  0.00     0.173 A 
ATOM     50  C   UNL A   1      37.277  32.813  29.545  1.00  0.00     0.173 A 
ATOM     51  F   UNL A   1      36.501  32.679  33.084  1.00  0.00    -0.203 F 
ATOM     52  C   UNL A   1      35.077  32.631  31.227  1.00  0.00     0.198 A 
ATOM     53  C   UNL A   1      35.982  32.745  29.021  1.00  0.00     0.198 A 
ATOM     54  F   UNL A   1      38.296  32.822  28.675  1.00  0.00    -0.203 F 
ATOM     55  F   UNL A   1      34.026  32.543  32.054  1.00  0.00    -0.200 F 
ATOM     56  C   UNL A   1      34.883  32.681  29.861  1.00  0.00     0.200 A 
ATOM     57  F   UNL A   1      35.803  32.782  27.693  1.00  0.00    -0.200 F 
ATOM     58  F   UNL A   1      33.643  32.674  29.354  1.00  0.00    -0.200 F 
ENDBRANCH  24  48
BRANCH  36  59
ATOM     59  C   UNL A   1      42.603  33.645  35.011  1.00  0.00     0.064 A 
ATOM     60  C   UNL A   1      43.420  34.311  34.089  1.00  0.00     0.173 A 
ATOM     61  C   UNL A   1      42.142  34.364  36.126  1.00  0.00     0.173 A 
ATOM     62  F   UNL A   1      43.874  33.670  33.001  1.00  0.00    -0.203 F 
ATOM     63  C   UNL A   1      43.748  35.650  34.266  1.00  0.00     0.198 A 
ATOM     64  C   UNL A   1      42.445  35.712  36.281  1.00  0.00     0.198 A 
ATOM     65  F   UNL A   1      41.375  33.774  37.057  1.00  0.00    -0.203 F 
ATOM     66  F   UNL A   1      44.530  36.270  33.371  1.00  0.00    -0.200 F 
ATOM     67  C   UNL A   1      43.248  36.354  35.352  1.00  0.00     0.200 A 
ATOM     68  F   UNL A   1      41.943  36.396  37.320  1.00  0.00    -0.200 F 
ATOM     69  F   UNL A   1      43.530  37.657  35.496  1.00  0.00    -0.200 F 
ENDBRANCH  36  59
ENDBRANCH  10  11
ENDBRANCH   3   5
ENDBRANCH   2   3
ENDBRANCH   1   2
BRANCH   1  70
ATOM     70  C   UNL A   1      47.661  28.384  26.100  1.00  0.00     0.275 C 
BRANCH  70  71
ATOM     71  O   UNL A   1      46.281  27.978  26.244  1.00  0.00    -0.457 OA
BRANCH  71  72
ATOM     72  C   UNL A   1      45.644  27.580  25.108  1.00  0.00     0.357 C 
ATOM     73  O   UNL A   1      46.029  27.773  23.978  1.00  0.00    -0.244 OA
BRANCH  72  74
ATOM     74  C   UNL A   1      44.495  26.705  25.434  1.00  0.00     0.154 A 
ATOM     75  C   UNL A   1      43.445  27.325  26.001  1.00  0.00     0.065 A 
ATOM     76  N   UNL A   1      44.470  25.325  25.223  1.00  0.00    -0.205 N 
ATOM     77  C   UNL A   1      42.291  26.451  26.342  1.00  0.00     0.075 A 
ATOM     78  C   UNL A   1      43.360  24.566  25.655  1.00  0.00     0.166 A 
ATOM     79  N   UNL A   1      45.428  24.538  24.667  1.00  0.00    -0.145 NA
ATOM     80  N   UNL A   1      42.249  25.162  26.190  1.00  0.00    -0.228 NA
ATOM     81  C   UNL A   1      43.707  23.247  25.460  1.00  0.00     0.069 A 
ATOM     82  C   UNL A   1      44.992  23.295  24.848  1.00  0.00     0.184 A 
ATOM     83  C   UNL A   1      42.974  22.099  25.806  1.00  0.00    -0.028 A 
ATOM     84  N   UNL A   1      45.670  22.173  24.506  1.00  0.00    -0.222 NA
ATOM     85  C   UNL A   1      43.730  20.956  25.467  1.00  0.00     0.038 A 
ATOM     86  C   UNL A   1      45.015  21.017  24.852  1.00  0.00     0.147 A 
BRANCH  77  87
ATOM     87  C   UNL A   1      41.126  27.146  26.917  1.00  0.00     0.000 A 
ATOM     88  C   UNL A   1      40.957  28.510  26.666  1.00  0.00     0.012 A 
ATOM     89  C   UNL A   1      40.223  26.444  27.719  1.00  0.00     0.012 A 
ATOM     90  C   UNL A   1      39.856  29.175  27.207  1.00  0.00     0.021 A 
ATOM     91  C   UNL A   1      39.126  27.116  28.263  1.00  0.00     0.021 A 
ATOM     92  C   UNL A   1      38.945  28.476  28.002  1.00  0.00     0.041 A 
ATOM     93  Cl  UNL A   1      37.589  29.300  28.667  1.00  0.00    -0.084 Cl
ENDBRANCH  77  87
BRANCH  83  94
ATOM     94  C   UNL A   1      41.626  22.131  26.463  1.00  0.00     0.020 C 
ATOM     95  C   UNL A   1      41.076  20.958  27.244  1.00  0.00     0.009 C 
ATOM     96  C   UNL A   1      41.540  22.185  27.971  1.00  0.00     0.009 C 
ENDBRANCH  83  94
BRANCH  86  97
ATOM     97  C   UNL A   1      45.722  19.699  24.540  1.00  0.00     0.433 C 
ATOM     98  F   UNL A   1      45.458  18.730  25.462  1.00  0.00    -0.165 F 
ATOM     99  F   UNL A   1      45.381  19.177  23.329  1.00  0.00    -0.165 F 
ATOM    100  F   UNL A   1      47.085  19.810  24.514  1.00  0.00    -0.165 F 
ENDBRANCH  86  97
ENDBRANCH  72  74
ENDBRANCH  71  72
ENDBRANCH  70  71
ENDBRANCH   1  70
TORSDOF 14
ENDMDL
MODEL 2
REMARK VINA RESULT:     -12.1      0.356      1.233
REMARK SMILES O=C(OCCOC(=O)c1cc(-c2ccc(Cl)cc2)nc2c3c(C4CC4)cc(C(F)(F)F)nc3nn12)c1ccc(-c2c3nc(c(-c4c(F)c(F)c(F)c(F)c4F)c4ccc([nH]4)c(-c4c(F)c(F)c(F)c(F)c4F)c4nc(c(-c5c(F)c(F)c(F)c(F)c5F)c5ccc2[nH]5)C=C4)C=C3)cc1
REMARK SMILES IDX 4 1 3 2 2 3 1 4 36 5 37 6 98 7 38 8 97 9 39 10 40 11 41 12
REMARK SMILES IDX 91 13 42 14 96 15 90 16 92 17 43 18 95 19 89 20 88 21 44 23
REMARK SMILES IDX 76 24 56 25 75 26 57 27 60 28 74 29 93 30 58 31 59 32 73 34
REMARK SMILES IDX 94 35 61 36 45 37 46 38 54 39 47 40 48 41 52 42 55 43 49 44
REMARK SMILES IDX 50 45 53 46 51 47 77 48 78 49 86 50 79 51 80 52 84 53 87 54
REMARK SMILES IDX 81 55 82 56 85 57 83 58 62 59 63 60 71 61 64 62 65 63 69 64
REMARK SMILES IDX 72 65 66 66 67 67 70 68 68 69 5 70 6 71 7 72 8 73 9 74 10 75
REMARK SMILES IDX 35 76 11 77 20 78 34 79 19 80 21 81 33 82 22 83 32 84 26 85
REMARK SMILES IDX 27 86 12 87 13 88 18 89 14 90 17 91 15 92 16 93 23 94 24 95
REMARK SMILES IDX 25 96 28 97 29 98 30 99 31 100
REMARK H PARENT 92 22 60 33
REMARK Flexibility Score: inf
ROOT
ATOM      1  C   UNL A   1      47.962  29.505  27.151  1.00  0.00     0.275 C 
ENDROOT
BRANCH   1   2
ATOM      2  O   UNL A   1      47.945  30.831  26.591  1.00  0.00    -0.458 OA
BRANCH   2   3
ATOM      3  C   UNL A   1      46.985  31.778  26.677  1.00  0.00     0.338 C 
ATOM      4  O   UNL A   1      47.174  32.867  26.136  1.00  0.00    -0.246 OA
BRANCH   3   5
ATOM      5  C   UNL A   1      45.693  31.599  27.403  1.00  0.00     0.060 A 
ATOM      6  C   UNL A   1      44.538  31.018  26.876  1.00  0.00     0.016 A 
ATOM      7  C   UNL A   1      45.688  31.966  28.762  1.00  0.00     0.016 A 
ATOM      8  C   UNL A   1      43.411  30.824  27.651  1.00  0.00     0.010 A 
ATOM      9  C   UNL A   1      44.563  31.764  29.556  1.00  0.00     0.010 A 
ATOM     10  C   UNL A   1      43.424  31.194  28.989  1.00  0.00    -0.014 A 
BRANCH  10  11
ATOM     11  C   UNL A   1      42.163  30.979  29.696  1.00  0.00     0.031 A 
ATOM     12  C   UNL A   1      42.168  29.835  30.655  1.00  0.00     0.074 A 
ATOM     13  C   UNL A   1      41.501  32.095  30.049  1.00  0.00     0.049 A 
ATOM     14  N   UNL A   1      42.678  29.897  31.848  1.00  0.00    -0.248 NA
ATOM     15  C   UNL A   1      41.832  28.477  30.224  1.00  0.00     0.031 C 
ATOM     16  C   UNL A   1      42.099  33.365  30.465  1.00  0.00     0.029 A 
ATOM     17  N   UNL A   1      40.149  32.331  30.049  1.00  0.00    -0.354 N 
ATOM     18  C   UNL A   1      42.767  28.601  32.319  1.00  0.00     0.074 A 
ATOM     19  C   UNL A   1      42.231  27.751  31.280  1.00  0.00     0.031 C 
ATOM     20  C   UNL A   1      41.118  34.201  30.845  1.00  0.00     0.029 A 
ATOM     21  C   UNL A   1      39.823  33.558  30.628  1.00  0.00     0.049 A 
ATOM     22  H   UNL A   1      39.484  31.705  29.683  1.00  0.00     0.167 HD
ATOM     23  C   UNL A   1      43.274  28.309  33.544  1.00  0.00     0.037 A 
ATOM     24  C   UNL A   1      38.760  33.680  31.475  1.00  0.00     0.037 A 
ATOM     25  C   UNL A   1      43.664  29.440  34.329  1.00  0.00     0.049 A 
ATOM     26  C   UNL A   1      39.305  32.999  32.720  1.00  0.00     0.074 A 
ATOM     27  C   UNL A   1      44.831  30.095  34.650  1.00  0.00     0.029 A 
ATOM     28  N   UNL A   1      42.660  30.178  34.912  1.00  0.00    -0.354 N 
ATOM     29  N   UNL A   1      40.159  33.523  33.565  1.00  0.00    -0.248 NA
ATOM     30  C   UNL A   1      39.192  31.541  32.813  1.00  0.00     0.031 C 
ATOM     31  C   UNL A   1      44.430  31.413  35.037  1.00  0.00     0.029 A 
ATOM     32  C   UNL A   1      43.045  31.493  34.883  1.00  0.00     0.049 A 
ATOM     33  H   UNL A   1      41.818  29.826  35.282  1.00  0.00     0.167 HD
ATOM     34  C   UNL A   1      40.888  32.444  34.080  1.00  0.00     0.074 A 
ATOM     35  C   UNL A   1      40.210  31.253  33.615  1.00  0.00     0.031 C 
ATOM     36  C   UNL A   1      42.108  32.577  34.682  1.00  0.00     0.037 A 
BRANCH  23  37
ATOM     37  C   UNL A   1      43.256  26.974  34.162  1.00  0.00     0.064 A 
ATOM     38  C   UNL A   1      44.289  26.088  33.824  1.00  0.00     0.173 A 
ATOM     39  C   UNL A   1      42.168  26.481  34.887  1.00  0.00     0.173 A 
ATOM     40  F   UNL A   1      45.348  26.533  33.126  1.00  0.00    -0.203 F 
ATOM     41  C   UNL A   1      44.216  24.742  34.151  1.00  0.00     0.198 A 
ATOM     42  C   UNL A   1      42.103  25.129  35.226  1.00  0.00     0.198 A 
ATOM     43  F   UNL A   1      41.154  27.292  35.225  1.00  0.00    -0.203 F 
ATOM     44  F   UNL A   1      45.194  23.910  33.767  1.00  0.00    -0.200 F 
ATOM     45  C   UNL A   1      43.117  24.259  34.842  1.00  0.00     0.200 A 
ATOM     46  F   UNL A   1      41.042  24.657  35.895  1.00  0.00    -0.200 F 
ATOM     47  F   UNL A   1      43.029  22.953  35.128  1.00  0.00    -0.200 F 
ENDBRANCH  23  37
BRANCH  24  48
ATOM     48  C   UNL A   1      37.456  33.381  30.803  1.00  0.00     0.064 A 
ATOM     49  C   UNL A   1      36.351  33.052  31.624  1.00  0.00     0.173 A 
ATOM     50  C   UNL A   1      37.194  33.470  29.431  1.00  0.00     0.173 A 
ATOM     51  F   UNL A   1      36.528  32.841  32.940  1.00  0.00    -0.203 F 
ATOM     52  C   UNL A   1      35.052  32.981  31.128  1.00  0.00     0.198 A 
ATOM     53  C   UNL A   1      35.887  33.419  28.935  1.00  0.00     0.198 A 
ATOM     54  F   UNL A   1      38.185  33.632  28.545  1.00  0.00    -0.203 F 
ATOM     55  F   UNL A   1      34.029  32.744  31.961  1.00  0.00    -0.200 F 
ATOM     56  C   UNL A   1      34.816  33.202  29.786  1.00  0.00     0.200 A 
ATOM     57  F   UNL A   1      35.667  33.623  27.628  1.00  0.00    -0.200 F 
ATOM     58  F   UNL A   1      33.562  33.213  29.313  1.00  0.00    -0.200 F 
ENDBRANCH  24  48
BRANCH  36  59
ATOM     59  C   UNL A   1      42.553  33.980  34.920  1.00  0.00     0.064 A 
ATOM     60  C   UNL A   1      42.127  34.670  36.060  1.00  0.00     0.173 A 
ATOM     61  C   UNL A   1      43.442  34.629  34.048  1.00  0.00     0.173 A 
ATOM     62  F   UNL A   1      41.288  34.087  36.931  1.00  0.00    -0.203 F 
ATOM     63  C   UNL A   1      42.586  35.955  36.328  1.00  0.00     0.198 A 
ATOM     64  C   UNL A   1      43.925  35.900  34.337  1.00  0.00     0.198 A 
ATOM     65  F   UNL A   1      43.868  34.027  32.925  1.00  0.00    -0.203 F 
ATOM     66  F   UNL A   1      42.167  36.599  37.427  1.00  0.00    -0.200 F 
ATOM     67  C   UNL A   1      43.497  36.563  35.476  1.00  0.00     0.200 A 
ATOM     68  F   UNL A   1      44.821  36.478  33.523  1.00  0.00    -0.200 F 
ATOM     69  F   UNL A   1      43.972  37.784  35.760  1.00  0.00    -0.200 F 
ENDBRANCH  36  59
ENDBRANCH  10  11
ENDBRANCH   3   5
ENDBRANCH   2   3
ENDBRANCH   1   2
BRANCH   1  70
ATOM     70  C   UNL A   1      47.676  28.441  26.075  1.00  0.00     0.275 C 
BRANCH  70  71
ATOM     71  O   UNL A   1      46.387  27.812  26.252  1.00  0.00    -0.457 OA
BRANCH  71  72
ATOM     72  C   UNL A   1      45.684  27.539  25.118  1.00  0.00     0.357 C 
ATOM     73  O   UNL A   1      46.028  27.814  23.991  1.00  0.00    -0.244 OA
BRANCH  72  74
ATOM     74  C   UNL A   1      44.514  26.685  25.422  1.00  0.00     0.154 A 
ATOM     75  C   UNL A   1      43.472  27.322  25.987  1.00  0.00     0.065 A 
ATOM     76  N   UNL A   1      44.460  25.309  25.194  1.00  0.00    -0.205 N 
ATOM     77  C   UNL A   1      42.296  26.470  26.306  1.00  0.00     0.075 A 
ATOM     78  C   UNL A   1      43.329  24.570  25.605  1.00  0.00     0.166 A 
ATOM     79  N   UNL A   1      45.406  24.508  24.636  1.00  0.00    -0.145 NA
ATOM     80  N   UNL A   1      42.227  25.183  26.137  1.00  0.00    -0.228 NA
ATOM     81  C   UNL A   1      43.649  23.246  25.397  1.00  0.00     0.069 A 
ATOM     82  C   UNL A   1      44.941  23.273  24.797  1.00  0.00     0.184 A 
ATOM     83  C   UNL A   1      42.888  22.110  25.722  1.00  0.00    -0.028 A 
ATOM     84  N   UNL A   1      45.598  22.141  24.448  1.00  0.00    -0.222 NA
ATOM     85  C   UNL A   1      43.622  20.955  25.376  1.00  0.00     0.038 A 
ATOM     86  C   UNL A   1      44.914  20.995  24.774  1.00  0.00     0.147 A 
BRANCH  77  87
ATOM     87  C   UNL A   1      41.141  27.183  26.878  1.00  0.00     0.000 A 
ATOM     88  C   UNL A   1      40.246  26.483  27.693  1.00  0.00     0.012 A 
ATOM     89  C   UNL A   1      40.941  28.534  26.584  1.00  0.00     0.012 A 
ATOM     90  C   UNL A   1      39.149  27.152  28.237  1.00  0.00     0.021 A 
ATOM     91  C   UNL A   1      39.838  29.197  27.127  1.00  0.00     0.021 A 
ATOM     92  C   UNL A   1      38.950  28.505  27.955  1.00  0.00     0.041 A 
ATOM     93  Cl  UNL A   1      37.597  29.325  28.629  1.00  0.00    -0.084 Cl
ENDBRANCH  77  87
BRANCH  83  94
ATOM     94  C   UNL A   1      41.534  22.164  26.367  1.00  0.00     0.020 C 
ATOM     95  C   UNL A   1      40.956  20.997  27.137  1.00  0.00     0.009 C 
ATOM     96  C   UNL A   1      41.436  22.212  27.874  1.00  0.00     0.009 C 
ENDBRANCH  83  94
BRANCH  86  97
ATOM     97  C   UNL A   1      45.595  19.666  24.451  1.00  0.00     0.433 C 
ATOM     98  F   UNL A   1      45.255  18.676  25.326  1.00  0.00    -0.165 F 
ATOM     99  F   UNL A   1      45.298  19.195  23.208  1.00  0.00    -0.165 F 
ATOM    100  F   UNL A   1      46.960  19.733  24.496  1.00  0.00    -0.165 F 
ENDBRANCH  86  97
ENDBRANCH  72  74
ENDBRANCH  71  72
ENDBRANCH  70  71
ENDBRANCH   1  70
TORSDOF 14
ENDMDL
MODEL 3
REMARK VINA RESULT:     -11.9      5.650     10.498
REMARK SMILES O=C(OCCOC(=O)c1cc(-c2ccc(Cl)cc2)nc2c3c(C4CC4)cc(C(F)(F)F)nc3nn12)c1ccc(-c2c3nc(c(-c4c(F)c(F)c(F)c(F)c4F)c4ccc([nH]4)c(-c4c(F)c(F)c(F)c(F)c4F)c4nc(c(-c5c(F)c(F)c(F)c(F)c5F)c5ccc2[nH]5)C=C4)C=C3)cc1
REMARK SMILES IDX 4 1 3 2 2 3 1 4 36 5 37 6 98 7 38 8 97 9 39 10 40 11 41 12
REMARK SMILES IDX 91 13 42 14 96 15 90 16 92 17 43 18 95 19 89 20 88 21 44 23
REMARK SMILES IDX 76 24 56 25 75 26 57 27 60 28 74 29 93 30 58 31 59 32 73 34
REMARK SMILES IDX 94 35 61 36 45 37 46 38 54 39 47 40 48 41 52 42 55 43 49 44
REMARK SMILES IDX 50 45 53 46 51 47 77 48 78 49 86 50 79 51 80 52 84 53 87 54
REMARK SMILES IDX 81 55 82 56 85 57 83 58 62 59 63 60 71 61 64 62 65 63 69 64
REMARK SMILES IDX 72 65 66 66 67 67 70 68 68 69 5 70 6 71 7 72 8 73 9 74 10 75
REMARK SMILES IDX 35 76 11 77 20 78 34 79 19 80 21 81 33 82 22 83 32 84 26 85
REMARK SMILES IDX 27 86 12 87 13 88 18 89 14 90 17 91 15 92 16 93 23 94 24 95
REMARK SMILES IDX 25 96 28 97 29 98 30 99 31 100
REMARK H PARENT 92 22 60 33
REMARK Flexibility Score: inf
ROOT
ATOM      1  C   UNL A   1      33.484  35.545  31.633  1.00  0.00     0.275 C 
ENDROOT
BRANCH   1   2
ATOM      2  O   UNL A   1      34.666  34.722  31.602  1.00  0.00    -0.458 OA
BRANCH   2   3
ATOM      3  C   UNL A   1      34.836  33.462  32.059  1.00  0.00     0.338 C 
ATOM      4  O   UNL A   1      33.862  32.852  32.501  1.00  0.00    -0.246 OA
BRANCH   3   5
ATOM      5  C   UNL A   1      36.146  32.747  32.080  1.00  0.00     0.060 A 
ATOM      6  C   UNL A   1      37.216  32.987  31.215  1.00  0.00     0.016 A 
ATOM      7  C   UNL A   1      36.335  31.824  33.125  1.00  0.00     0.016 A 
ATOM      8  C   UNL A   1      38.421  32.327  31.360  1.00  0.00     0.010 A 
ATOM      9  C   UNL A   1      37.549  31.163  33.289  1.00  0.00     0.010 A 
ATOM     10  C   UNL A   1      38.589  31.419  32.396  1.00  0.00    -0.014 A 
BRANCH  10  11
ATOM     11  C   UNL A   1      39.890  30.754  32.424  1.00  0.00     0.031 A 
ATOM     12  C   UNL A   1      40.886  31.280  31.445  1.00  0.00     0.074 A 
ATOM     13  C   UNL A   1      40.332  30.401  33.645  1.00  0.00     0.049 A 
ATOM     14  N   UNL A   1      41.578  32.363  31.632  1.00  0.00    -0.248 NA
ATOM     15  C   UNL A   1      40.963  30.755  30.080  1.00  0.00     0.031 C 
ATOM     16  C   UNL A   1      40.117  31.136  34.892  1.00  0.00     0.029 A 
ATOM     17  N   UNL A   1      41.019  29.273  34.019  1.00  0.00    -0.354 N 
ATOM     18  C   UNL A   1      42.156  32.690  30.420  1.00  0.00     0.074 A 
ATOM     19  C   UNL A   1      41.749  31.666  29.484  1.00  0.00     0.031 C 
ATOM     20  C   UNL A   1      40.804  30.530  35.876  1.00  0.00     0.029 A 
ATOM     21  C   UNL A   1      41.444  29.326  35.347  1.00  0.00     0.049 A 
ATOM     22  H   UNL A   1      41.192  28.513  33.418  1.00  0.00     0.167 HD
ATOM     23  C   UNL A   1      42.942  33.785  30.264  1.00  0.00     0.037 A 
ATOM     24  C   UNL A   1      42.691  28.905  35.707  1.00  0.00     0.037 A 
ATOM     25  C   UNL A   1      43.168  34.549  31.453  1.00  0.00     0.049 A 
ATOM     26  C   UNL A   1      43.545  30.042  35.168  1.00  0.00     0.074 A 
ATOM     27  C   UNL A   1      42.681  35.703  32.023  1.00  0.00     0.029 A 
ATOM     28  N   UNL A   1      44.053  34.035  32.372  1.00  0.00    -0.354 N 
ATOM     29  N   UNL A   1      43.681  31.222  35.721  1.00  0.00    -0.248 NA
ATOM     30  C   UNL A   1      43.951  29.991  33.761  1.00  0.00     0.031 C 
ATOM     31  C   UNL A   1      42.972  35.587  33.419  1.00  0.00     0.029 A 
ATOM     32  C   UNL A   1      43.579  34.347  33.620  1.00  0.00     0.049 A 
ATOM     33  H   UNL A   1      44.876  33.533  32.171  1.00  0.00     0.167 HD
ATOM     34  C   UNL A   1      43.909  32.109  34.661  1.00  0.00     0.074 A 
ATOM     35  C   UNL A   1      44.112  31.281  33.492  1.00  0.00     0.031 C 
ATOM     36  C   UNL A   1      43.720  33.460  34.755  1.00  0.00     0.037 A 
BRANCH  23  37
ATOM     37  C   UNL A   1      43.706  34.103  29.047  1.00  0.00     0.064 A 
ATOM     38  C   UNL A   1      43.060  34.854  28.054  1.00  0.00     0.173 A 
ATOM     39  C   UNL A   1      44.942  33.526  28.747  1.00  0.00     0.173 A 
ATOM     40  F   UNL A   1      41.869  35.420  28.314  1.00  0.00    -0.203 F 
ATOM     41  C   UNL A   1      43.604  34.981  26.784  1.00  0.00     0.198 A 
ATOM     42  C   UNL A   1      45.492  33.665  27.472  1.00  0.00     0.198 A 
ATOM     43  F   UNL A   1      45.590  32.794  29.665  1.00  0.00    -0.203 F 
ATOM     44  F   UNL A   1      42.936  35.659  25.840  1.00  0.00    -0.200 F 
ATOM     45  C   UNL A   1      44.815  34.376  26.489  1.00  0.00     0.200 A 
ATOM     46  F   UNL A   1      46.664  33.084  27.182  1.00  0.00    -0.200 F 
ATOM     47  F   UNL A   1      45.323  34.470  25.253  1.00  0.00    -0.200 F 
ENDBRANCH  23  37
BRANCH  24  48
ATOM     48  C   UNL A   1      42.898  27.444  35.449  1.00  0.00     0.064 A 
ATOM     49  C   UNL A   1      42.012  26.534  36.073  1.00  0.00     0.173 A 
ATOM     50  C   UNL A   1      43.843  26.884  34.583  1.00  0.00     0.173 A 
ATOM     51  F   UNL A   1      41.141  26.966  37.000  1.00  0.00    -0.203 F 
ATOM     52  C   UNL A   1      41.970  25.185  35.727  1.00  0.00     0.198 A 
ATOM     53  C   UNL A   1      43.788  25.535  34.220  1.00  0.00     0.198 A 
ATOM     54  F   UNL A   1      44.821  27.627  34.049  1.00  0.00    -0.203 F 
ATOM     55  F   UNL A   1      41.058  24.379  36.289  1.00  0.00    -0.200 F 
ATOM     56  C   UNL A   1      42.835  24.693  34.770  1.00  0.00     0.200 A 
ATOM     57  F   UNL A   1      44.639  25.062  33.299  1.00  0.00    -0.200 F 
ATOM     58  F   UNL A   1      42.750  23.416  34.375  1.00  0.00    -0.200 F 
ENDBRANCH  24  48
BRANCH  36  59
ATOM     59  C   UNL A   1      43.417  33.969  36.122  1.00  0.00     0.064 A 
ATOM     60  C   UNL A   1      44.457  34.254  37.014  1.00  0.00     0.173 A 
ATOM     61  C   UNL A   1      42.100  34.224  36.538  1.00  0.00     0.173 A 
ATOM     62  F   UNL A   1      45.733  34.040  36.658  1.00  0.00    -0.203 F 
ATOM     63  C   UNL A   1      44.192  34.792  38.269  1.00  0.00     0.198 A 
ATOM     64  C   UNL A   1      41.842  34.794  37.780  1.00  0.00     0.198 A 
ATOM     65  F   UNL A   1      41.059  33.949  35.736  1.00  0.00    -0.203 F 
ATOM     66  F   UNL A   1      45.202  35.060  39.108  1.00  0.00    -0.200 F 
ATOM     67  C   UNL A   1      42.886  35.076  38.645  1.00  0.00     0.200 A 
ATOM     68  F   UNL A   1      40.582  35.087  38.133  1.00  0.00    -0.200 F 
ATOM     69  F   UNL A   1      42.637  35.635  39.838  1.00  0.00    -0.200 F 
ENDBRANCH  36  59
ENDBRANCH  10  11
ENDBRANCH   3   5
ENDBRANCH   2   3
ENDBRANCH   1   2
BRANCH   1  70
ATOM     70  C   UNL A   1      32.907  35.743  30.220  1.00  0.00     0.275 C 
BRANCH  70  71
ATOM     71  O   UNL A   1      32.786  34.499  29.494  1.00  0.00    -0.457 OA
BRANCH  71  72
ATOM     72  C   UNL A   1      33.649  34.316  28.457  1.00  0.00     0.357 C 
ATOM     73  O   UNL A   1      34.393  35.153  28.000  1.00  0.00    -0.244 OA
BRANCH  72  74
ATOM     74  C   UNL A   1      33.700  32.888  28.067  1.00  0.00     0.154 A 
ATOM     75  C   UNL A   1      34.766  32.207  28.526  1.00  0.00     0.065 A 
ATOM     76  N   UNL A   1      32.757  32.259  27.253  1.00  0.00    -0.205 N 
ATOM     77  C   UNL A   1      34.831  30.775  28.129  1.00  0.00     0.075 A 
ATOM     78  C   UNL A   1      32.947  30.915  26.864  1.00  0.00     0.166 A 
ATOM     79  N   UNL A   1      31.629  32.783  26.706  1.00  0.00    -0.145 NA
ATOM     80  N   UNL A   1      33.989  30.169  27.347  1.00  0.00    -0.228 NA
ATOM     81  C   UNL A   1      31.955  30.644  25.946  1.00  0.00     0.069 A 
ATOM     82  C   UNL A   1      31.174  31.834  25.893  1.00  0.00     0.184 A 
ATOM     83  C   UNL A   1      31.761  29.467  25.203  1.00  0.00    -0.028 A 
ATOM     84  N   UNL A   1      30.096  31.953  25.083  1.00  0.00    -0.222 NA
ATOM     85  C   UNL A   1      30.652  29.646  24.349  1.00  0.00     0.038 A 
ATOM     86  C   UNL A   1      29.876  30.842  24.306  1.00  0.00     0.147 A 
BRANCH  77  87
ATOM     87  C   UNL A   1      35.974  30.024  28.676  1.00  0.00     0.000 A 
ATOM     88  C   UNL A   1      35.968  29.666  30.026  1.00  0.00     0.012 A 
ATOM     89  C   UNL A   1      37.055  29.701  27.850  1.00  0.00     0.012 A 
ATOM     90  C   UNL A   1      37.047  28.955  30.551  1.00  0.00     0.021 A 
ATOM     91  C   UNL A   1      38.135  28.994  28.382  1.00  0.00     0.021 A 
ATOM     92  C   UNL A   1      38.125  28.621  29.728  1.00  0.00     0.041 A 
ATOM     93  Cl  UNL A   1      39.453  27.743  30.380  1.00  0.00    -0.084 Cl
ENDBRANCH  77  87
BRANCH  83  94
ATOM     94  C   UNL A   1      32.638  28.255  25.307  1.00  0.00     0.020 C 
ATOM     95  C   UNL A   1      32.363  27.137  26.289  1.00  0.00     0.009 C 
ATOM     96  C   UNL A   1      32.115  26.921  24.826  1.00  0.00     0.009 C 
ENDBRANCH  83  94
BRANCH  86  97
ATOM     97  C   UNL A   1      28.700  30.898  23.331  1.00  0.00     0.433 C 
ATOM     98  F   UNL A   1      27.590  31.468  23.881  1.00  0.00    -0.165 F 
ATOM     99  F   UNL A   1      28.972  31.605  22.198  1.00  0.00    -0.165 F 
ATOM    100  F   UNL A   1      28.296  29.665  22.900  1.00  0.00    -0.165 F 
ENDBRANCH  86  97
ENDBRANCH  72  74
ENDBRANCH  71  72
ENDBRANCH  70  71
ENDBRANCH   1  70
TORSDOF 14
ENDMDL
