MODEL 1
REMARK VINA RESULT:     -12.6      0.000      0.000
REMARK SMILES O=C(OCCOC(=O)c1cccc2cccc([S@@](=O)c3ccccc3CO)c12)c1ccc(-c2c3nc(c(-c4c(F)c(F)c(F)c(F)c4F)c4ccc([nH]4)c(-c4c(F)c(F)c(F)c(F)c4F)c4nc(c(-c5c(F)c(F)c(F)c(F)c5F)c5ccc2[nH]5)C=C4)C=C3)cc1
REMARK SMILES IDX 5 1 4 2 3 3 2 4 1 5 29 6 30 7 91 8 31 9 90 10 32 11 33 12
REMARK SMILES IDX 34 13 84 14 35 15 89 16 83 17 85 18 36 19 88 20 82 21 81 22
REMARK SMILES IDX 37 24 69 25 49 26 68 27 50 28 53 29 67 30 86 31 51 32 52 33
REMARK SMILES IDX 66 35 87 36 54 37 38 38 39 39 47 40 40 41 41 42 45 43 48 44
REMARK SMILES IDX 42 45 43 46 46 47 44 48 70 49 71 50 79 51 72 52 73 53 77 54
REMARK SMILES IDX 80 55 74 56 75 57 78 58 76 59 55 60 56 61 64 62 57 63 58 64
REMARK SMILES IDX 62 65 65 66 59 67 60 68 63 69 61 70 6 71 7 72 8 73 9 74
REMARK SMILES IDX 10 75 28 76 11 77 13 78 17 79 12 80 14 81 16 82 15 83 18 84
REMARK SMILES IDX 19 85 20 86 21 87 25 88 22 89 24 90 23 91 26 92 27 93
REMARK H PARENT 85 23 53 34 27 94
REMARK Flexibility Score: inf
ROOT
ATOM      1  C   UNL A   1      32.068  28.941  27.236  1.00  0.00     0.275 C 
ENDROOT
BRANCH   1   2
ATOM      2  C   UNL A   1      32.305  30.321  26.585  1.00  0.00     0.275 C 
BRANCH   2   3
ATOM      3  O   UNL A   1      33.636  30.809  26.700  1.00  0.00    -0.458 OA
BRANCH   3   4
ATOM      4  C   UNL A   1      33.826  31.786  27.618  1.00  0.00     0.338 C 
ATOM      5  O   UNL A   1      33.247  32.853  27.667  1.00  0.00    -0.246 OA
BRANCH   4   6
ATOM      6  C   UNL A   1      35.087  31.438  28.323  1.00  0.00     0.060 A 
ATOM      7  C   UNL A   1      35.269  30.136  28.809  1.00  0.00     0.016 A 
ATOM      8  C   UNL A   1      36.158  32.340  28.308  1.00  0.00     0.016 A 
ATOM      9  C   UNL A   1      36.515  29.720  29.233  1.00  0.00     0.010 A 
ATOM     10  C   UNL A   1      37.425  31.910  28.699  1.00  0.00     0.010 A 
ATOM     11  C   UNL A   1      37.595  30.602  29.175  1.00  0.00    -0.014 A 
BRANCH  11  12
ATOM     12  C   UNL A   1      38.843  30.155  29.810  1.00  0.00     0.031 A 
ATOM     13  C   UNL A   1      39.136  30.667  31.181  1.00  0.00     0.074 A 
ATOM     14  C   UNL A   1      39.584  29.189  29.241  1.00  0.00     0.049 A 
ATOM     15  N   UNL A   1      39.997  30.222  32.054  1.00  0.00    -0.248 NA
ATOM     16  C   UNL A   1      38.314  31.794  31.653  1.00  0.00     0.031 C 
ATOM     17  C   UNL A   1      39.320  28.583  27.939  1.00  0.00     0.029 A 
ATOM     18  N   UNL A   1      40.699  28.539  29.692  1.00  0.00    -0.354 N 
ATOM     19  C   UNL A   1      39.764  30.962  33.201  1.00  0.00     0.074 A 
ATOM     20  C   UNL A   1      38.755  31.948  32.890  1.00  0.00     0.031 C 
ATOM     21  C   UNL A   1      40.289  27.696  27.661  1.00  0.00     0.029 A 
ATOM     22  C   UNL A   1      41.214  27.647  28.787  1.00  0.00     0.049 A 
ATOM     23  H   UNL A   1      41.094  28.695  30.581  1.00  0.00     0.167 HD
ATOM     24  C   UNL A   1      40.314  30.791  34.424  1.00  0.00     0.037 A 
ATOM     25  C   UNL A   1      42.313  26.875  28.874  1.00  0.00     0.037 A 
ATOM     26  C   UNL A   1      41.353  29.838  34.690  1.00  0.00     0.049 A 
ATOM     27  C   UNL A   1      43.029  26.818  30.193  1.00  0.00     0.074 A 
ATOM     28  C   UNL A   1      42.004  29.574  35.878  1.00  0.00     0.029 A 
ATOM     29  N   UNL A   1      41.914  29.010  33.725  1.00  0.00    -0.354 N 
ATOM     30  N   UNL A   1      42.746  27.451  31.308  1.00  0.00    -0.248 NA
ATOM     31  C   UNL A   1      44.176  25.909  30.292  1.00  0.00     0.031 C 
ATOM     32  C   UNL A   1      42.999  28.624  35.619  1.00  0.00     0.029 A 
ATOM     33  C   UNL A   1      42.936  28.263  34.279  1.00  0.00     0.049 A 
ATOM     34  H   UNL A   1      41.625  28.963  32.785  1.00  0.00     0.167 HD
ATOM     35  C   UNL A   1      43.648  26.989  32.253  1.00  0.00     0.074 A 
ATOM     36  C   UNL A   1      44.496  26.026  31.575  1.00  0.00     0.031 C 
ATOM     37  C   UNL A   1      43.754  27.312  33.565  1.00  0.00     0.037 A 
BRANCH  24  38
ATOM     38  C   UNL A   1      39.796  31.674  35.515  1.00  0.00     0.064 A 
ATOM     39  C   UNL A   1      38.711  31.282  36.317  1.00  0.00     0.173 A 
ATOM     40  C   UNL A   1      40.331  32.954  35.710  1.00  0.00     0.173 A 
ATOM     41  F   UNL A   1      38.144  30.078  36.146  1.00  0.00    -0.203 F 
ATOM     42  C   UNL A   1      38.158  32.156  37.250  1.00  0.00     0.198 A 
ATOM     43  C   UNL A   1      39.790  33.816  36.661  1.00  0.00     0.198 A 
ATOM     44  F   UNL A   1      41.358  33.378  34.960  1.00  0.00    -0.203 F 
ATOM     45  F   UNL A   1      37.080  31.786  37.955  1.00  0.00    -0.200 F 
ATOM     46  C   UNL A   1      38.697  33.422  37.419  1.00  0.00     0.200 A 
ATOM     47  F   UNL A   1      40.309  35.040  36.823  1.00  0.00    -0.200 F 
ATOM     48  F   UNL A   1      38.152  34.270  38.302  1.00  0.00    -0.200 F 
ENDBRANCH  24  38
BRANCH  25  49
ATOM     49  C   UNL A   1      42.765  26.108  27.686  1.00  0.00     0.064 A 
ATOM     50  C   UNL A   1      42.251  24.844  27.376  1.00  0.00     0.173 A 
ATOM     51  C   UNL A   1      43.714  26.659  26.808  1.00  0.00     0.173 A 
ATOM     52  F   UNL A   1      41.347  24.271  28.184  1.00  0.00    -0.203 F 
ATOM     53  C   UNL A   1      42.677  24.153  26.239  1.00  0.00     0.198 A 
ATOM     54  C   UNL A   1      44.125  25.978  25.665  1.00  0.00     0.198 A 
ATOM     55  F   UNL A   1      44.228  27.874  27.053  1.00  0.00    -0.203 F 
ATOM     56  F   UNL A   1      42.185  22.935  25.975  1.00  0.00    -0.200 F 
ATOM     57  C   UNL A   1      43.608  24.722  25.383  1.00  0.00     0.200 A 
ATOM     58  F   UNL A   1      45.013  26.540  24.834  1.00  0.00    -0.200 F 
ATOM     59  F   UNL A   1      44.007  24.063  24.287  1.00  0.00    -0.200 F 
ENDBRANCH  25  49
BRANCH  37  60
ATOM     60  C   UNL A   1      44.806  26.599  34.357  1.00  0.00     0.064 A 
ATOM     61  C   UNL A   1      44.554  25.362  34.961  1.00  0.00     0.173 A 
ATOM     62  C   UNL A   1      46.102  27.132  34.446  1.00  0.00     0.173 A 
ATOM     63  F   UNL A   1      43.325  24.825  34.915  1.00  0.00    -0.203 F 
ATOM     64  C   UNL A   1      45.561  24.683  35.639  1.00  0.00     0.198 A 
ATOM     65  C   UNL A   1      47.113  26.437  35.102  1.00  0.00     0.198 A 
ATOM     66  F   UNL A   1      46.389  28.312  33.878  1.00  0.00    -0.203 F 
ATOM     67  F   UNL A   1      45.293  23.515  36.239  1.00  0.00    -0.200 F 
ATOM     68  C   UNL A   1      46.842  25.216  35.700  1.00  0.00     0.200 A 
ATOM     69  F   UNL A   1      48.351  26.947  35.148  1.00  0.00    -0.200 F 
ATOM     70  F   UNL A   1      47.815  24.553  36.340  1.00  0.00    -0.200 F 
ENDBRANCH  37  60
ENDBRANCH  11  12
ENDBRANCH   4   6
ENDBRANCH   3   4
ENDBRANCH   2   3
ENDBRANCH   1   2
BRANCH   1  71
ATOM     71  O   UNL A   1      32.766  27.836  26.621  1.00  0.00    -0.458 OA
BRANCH  71  72
ATOM     72  C   UNL A   1      32.001  26.776  26.245  1.00  0.00     0.338 C 
ATOM     73  O   UNL A   1      30.875  26.525  26.630  1.00  0.00    -0.246 OA
BRANCH  72  74
ATOM     74  C   UNL A   1      32.776  25.842  25.391  1.00  0.00     0.069 A 
ATOM     75  C   UNL A   1      33.557  24.928  26.126  1.00  0.00     0.016 A 
ATOM     76  C   UNL A   1      32.623  25.733  23.959  1.00  0.00     0.013 A 
ATOM     77  C   UNL A   1      34.215  23.890  25.487  1.00  0.00     0.002 A 
ATOM     78  C   UNL A   1      33.330  24.646  23.353  1.00  0.00    -0.016 A 
ATOM     79  C   UNL A   1      31.893  26.583  23.048  1.00  0.00     0.052 A 
ATOM     80  C   UNL A   1      34.112  23.764  24.111  1.00  0.00     0.009 A 
ATOM     81  C   UNL A   1      33.284  24.414  21.972  1.00  0.00     0.009 A 
ATOM     82  C   UNL A   1      31.854  26.298  21.665  1.00  0.00     0.019 A 
ATOM     83  C   UNL A   1      32.538  25.221  21.130  1.00  0.00     0.002 A 
BRANCH  79  84
ATOM     84  S   UNL A   1      31.297  28.227  23.518  1.00  0.00     0.086 S 
ATOM     85  O   UNL A   1      31.598  29.124  22.350  1.00  0.00    -0.249 OA
BRANCH  84  86
ATOM     86  C   UNL A   1      29.494  28.049  23.505  1.00  0.00     0.049 A 
ATOM     87  C   UNL A   1      28.832  26.871  23.879  1.00  0.00     0.018 A 
ATOM     88  C   UNL A   1      28.727  29.169  23.085  1.00  0.00    -0.006 A 
ATOM     89  C   UNL A   1      27.436  26.805  23.876  1.00  0.00     0.001 A 
ATOM     90  C   UNL A   1      27.323  29.088  23.121  1.00  0.00     0.007 A 
ATOM     91  C   UNL A   1      26.683  27.915  23.508  1.00  0.00     0.000 A 
BRANCH  88  92
ATOM     92  C   UNL A   1      29.380  30.471  22.668  1.00  0.00     0.192 C 
BRANCH  92  93
ATOM     93  O   UNL A   1      29.529  30.556  21.251  1.00  0.00    -0.392 OA
ATOM     94  H   UNL A   1      30.468  30.656  21.029  1.00  0.00     0.211 HD
ENDBRANCH  92  93
ENDBRANCH  88  92
ENDBRANCH  84  86
ENDBRANCH  79  84
ENDBRANCH  72  74
ENDBRANCH  71  72
ENDBRANCH   1  71
TORSDOF 15
ENDMDL
MODEL 2
REMARK VINA RESULT:     -12.6      0.104      1.119
REMARK SMILES O=C(OCCOC(=O)c1cccc2cccc([S@@](=O)c3ccccc3CO)c12)c1ccc(-c2c3nc(c(-c4c(F)c(F)c(F)c(F)c4F)c4ccc([nH]4)c(-c4c(F)c(F)c(F)c(F)c4F)c4nc(c(-c5c(F)c(F)c(F)c(F)c5F)c5ccc2[nH]5)C=C4)C=C3)cc1
REMARK SMILES IDX 5 1 4 2 3 3 2 4 1 5 29 6 30 7 91 8 31 9 90 10 32 11 33 12
REMARK SMILES IDX 34 13 84 14 35 15 89 16 83 17 85 18 36 19 88 20 82 21 81 22
REMARK SMILES IDX 37 24 69 25 49 26 68 27 50 28 53 29 67 30 86 31 51 32 52 33
REMARK SMILES IDX 66 35 87 36 54 37 38 38 39 39 47 40 40 41 41 42 45 43 48 44
REMARK SMILES IDX 42 45 43 46 46 47 44 48 70 49 71 50 79 51 72 52 73 53 77 54
REMARK SMILES IDX 80 55 74 56 75 57 78 58 76 59 55 60 56 61 64 62 57 63 58 64
REMARK SMILES IDX 62 65 65 66 59 67 60 68 63 69 61 70 6 71 7 72 8 73 9 74
REMARK SMILES IDX 10 75 28 76 11 77 13 78 17 79 12 80 14 81 16 82 15 83 18 84
REMARK SMILES IDX 19 85 20 86 21 87 25 88 22 89 24 90 23 91 26 92 27 93
REMARK H PARENT 85 23 53 34 27 94
REMARK Flexibility Score: inf
ROOT
ATOM      1  C   UNL A   1      32.167  28.872  27.285  1.00  0.00     0.275 C 
ENDROOT
BRANCH   1   2
ATOM      2  C   UNL A   1      32.320  30.276  26.659  1.00  0.00     0.275 C 
BRANCH   2   3
ATOM      3  O   UNL A   1      33.637  30.808  26.711  1.00  0.00    -0.458 OA
BRANCH   3   4
ATOM      4  C   UNL A   1      33.836  31.793  27.619  1.00  0.00     0.338 C 
ATOM      5  O   UNL A   1      33.269  32.867  27.656  1.00  0.00    -0.246 OA
BRANCH   4   6
ATOM      6  C   UNL A   1      35.094  31.440  28.329  1.00  0.00     0.060 A 
ATOM      7  C   UNL A   1      35.284  30.128  28.783  1.00  0.00     0.016 A 
ATOM      8  C   UNL A   1      36.155  32.352  28.350  1.00  0.00     0.016 A 
ATOM      9  C   UNL A   1      36.529  29.713  29.210  1.00  0.00     0.010 A 
ATOM     10  C   UNL A   1      37.422  31.925  28.744  1.00  0.00     0.010 A 
ATOM     11  C   UNL A   1      37.601  30.608  29.188  1.00  0.00    -0.014 A 
BRANCH  11  12
ATOM     12  C   UNL A   1      38.846  30.157  29.824  1.00  0.00     0.031 A 
ATOM     13  C   UNL A   1      39.138  30.668  31.196  1.00  0.00     0.074 A 
ATOM     14  C   UNL A   1      39.585  29.188  29.257  1.00  0.00     0.049 A 
ATOM     15  N   UNL A   1      39.997  30.221  32.070  1.00  0.00    -0.248 NA
ATOM     16  C   UNL A   1      38.319  31.798  31.666  1.00  0.00     0.031 C 
ATOM     17  C   UNL A   1      39.321  28.584  27.954  1.00  0.00     0.029 A 
ATOM     18  N   UNL A   1      40.697  28.535  29.709  1.00  0.00    -0.354 N 
ATOM     19  C   UNL A   1      39.764  30.962  33.217  1.00  0.00     0.074 A 
ATOM     20  C   UNL A   1      38.758  31.950  32.904  1.00  0.00     0.031 C 
ATOM     21  C   UNL A   1      40.288  27.693  27.678  1.00  0.00     0.029 A 
ATOM     22  C   UNL A   1      41.212  27.642  28.806  1.00  0.00     0.049 A 
ATOM     23  H   UNL A   1      41.091  28.691  30.599  1.00  0.00     0.167 HD
ATOM     24  C   UNL A   1      40.311  30.789  34.440  1.00  0.00     0.037 A 
ATOM     25  C   UNL A   1      42.308  26.866  28.894  1.00  0.00     0.037 A 
ATOM     26  C   UNL A   1      41.347  29.833  34.709  1.00  0.00     0.049 A 
ATOM     27  C   UNL A   1      43.021  26.807  30.215  1.00  0.00     0.074 A 
ATOM     28  C   UNL A   1      41.995  29.568  35.898  1.00  0.00     0.029 A 
ATOM     29  N   UNL A   1      41.907  29.004  33.745  1.00  0.00    -0.354 N 
ATOM     30  N   UNL A   1      42.739  27.442  31.329  1.00  0.00    -0.248 NA
ATOM     31  C   UNL A   1      44.166  25.895  30.316  1.00  0.00     0.031 C 
ATOM     32  C   UNL A   1      42.988  28.615  35.640  1.00  0.00     0.029 A 
ATOM     33  C   UNL A   1      42.926  28.253  34.301  1.00  0.00     0.049 A 
ATOM     34  H   UNL A   1      41.619  28.957  32.804  1.00  0.00     0.167 HD
ATOM     35  C   UNL A   1      43.637  26.977  32.276  1.00  0.00     0.074 A 
ATOM     36  C   UNL A   1      44.484  26.011  31.599  1.00  0.00     0.031 C 
ATOM     37  C   UNL A   1      43.743  27.300  33.588  1.00  0.00     0.037 A 
BRANCH  24  38
ATOM     38  C   UNL A   1      39.794  31.674  35.531  1.00  0.00     0.064 A 
ATOM     39  C   UNL A   1      38.711  31.283  36.335  1.00  0.00     0.173 A 
ATOM     40  C   UNL A   1      40.328  32.955  35.723  1.00  0.00     0.173 A 
ATOM     41  F   UNL A   1      38.143  30.078  36.166  1.00  0.00    -0.203 F 
ATOM     42  C   UNL A   1      38.157  32.158  37.267  1.00  0.00     0.198 A 
ATOM     43  C   UNL A   1      39.788  33.818  36.673  1.00  0.00     0.198 A 
ATOM     44  F   UNL A   1      41.354  33.378  34.971  1.00  0.00    -0.203 F 
ATOM     45  F   UNL A   1      37.080  31.789  37.974  1.00  0.00    -0.200 F 
ATOM     46  C   UNL A   1      38.696  33.424  37.433  1.00  0.00     0.200 A 
ATOM     47  F   UNL A   1      40.306  35.043  36.832  1.00  0.00    -0.200 F 
ATOM     48  F   UNL A   1      38.152  34.273  38.315  1.00  0.00    -0.200 F 
ENDBRANCH  24  38
BRANCH  25  49
ATOM     49  C   UNL A   1      42.760  26.098  27.707  1.00  0.00     0.064 A 
ATOM     50  C   UNL A   1      42.242  24.836  27.396  1.00  0.00     0.173 A 
ATOM     51  C   UNL A   1      43.711  26.646  26.832  1.00  0.00     0.173 A 
ATOM     52  F   UNL A   1      41.336  24.265  28.203  1.00  0.00    -0.203 F 
ATOM     53  C   UNL A   1      42.668  24.143  26.261  1.00  0.00     0.198 A 
ATOM     54  C   UNL A   1      44.122  25.964  25.688  1.00  0.00     0.198 A 
ATOM     55  F   UNL A   1      44.230  27.859  27.077  1.00  0.00    -0.203 F 
ATOM     56  F   UNL A   1      42.173  22.927  25.996  1.00  0.00    -0.200 F 
ATOM     57  C   UNL A   1      43.602  24.710  25.406  1.00  0.00     0.200 A 
ATOM     58  F   UNL A   1      45.014  26.523  24.860  1.00  0.00    -0.200 F 
ATOM     59  F   UNL A   1      44.002  24.049  24.311  1.00  0.00    -0.200 F 
ENDBRANCH  25  49
BRANCH  37  60
ATOM     60  C   UNL A   1      44.791  26.584  34.382  1.00  0.00     0.064 A 
ATOM     61  C   UNL A   1      46.070  27.126  34.561  1.00  0.00     0.173 A 
ATOM     62  C   UNL A   1      44.484  25.377  35.029  1.00  0.00     0.173 A 
ATOM     63  F   UNL A   1      46.411  28.269  33.947  1.00  0.00    -0.203 F 
ATOM     64  C   UNL A   1      47.012  26.479  35.354  1.00  0.00     0.198 A 
ATOM     65  C   UNL A   1      45.420  24.747  35.842  1.00  0.00     0.198 A 
ATOM     66  F   UNL A   1      43.270  24.825  34.888  1.00  0.00    -0.203 F 
ATOM     67  F   UNL A   1      48.240  26.997  35.487  1.00  0.00    -0.200 F 
ATOM     68  C   UNL A   1      46.682  25.296  36.001  1.00  0.00     0.200 A 
ATOM     69  F   UNL A   1      45.095  23.613  36.477  1.00  0.00    -0.200 F 
ATOM     70  F   UNL A   1      47.586  24.683  36.778  1.00  0.00    -0.200 F 
ENDBRANCH  37  60
ENDBRANCH  11  12
ENDBRANCH   4   6
ENDBRANCH   3   4
ENDBRANCH   2   3
ENDBRANCH   1   2
BRANCH   1  71
ATOM     71  O   UNL A   1      32.830  27.801  26.577  1.00  0.00    -0.458 OA
BRANCH  71  72
ATOM     72  C   UNL A   1      32.057  26.733  26.242  1.00  0.00     0.338 C 
ATOM     73  O   UNL A   1      30.941  26.491  26.660  1.00  0.00    -0.246 OA
BRANCH  72  74
ATOM     74  C   UNL A   1      32.812  25.781  25.392  1.00  0.00     0.069 A 
ATOM     75  C   UNL A   1      33.584  24.862  26.129  1.00  0.00     0.016 A 
ATOM     76  C   UNL A   1      32.648  25.663  23.962  1.00  0.00     0.013 A 
ATOM     77  C   UNL A   1      34.223  23.809  25.495  1.00  0.00     0.002 A 
ATOM     78  C   UNL A   1      33.336  24.560  23.361  1.00  0.00    -0.016 A 
ATOM     79  C   UNL A   1      31.925  26.516  23.048  1.00  0.00     0.052 A 
ATOM     80  C   UNL A   1      34.109  23.673  24.121  1.00  0.00     0.009 A 
ATOM     81  C   UNL A   1      33.277  24.317  21.981  1.00  0.00     0.009 A 
ATOM     82  C   UNL A   1      31.873  26.220  21.668  1.00  0.00     0.019 A 
ATOM     83  C   UNL A   1      32.537  25.128  21.137  1.00  0.00     0.002 A 
BRANCH  79  84
ATOM     84  S   UNL A   1      31.356  28.172  23.508  1.00  0.00     0.086 S 
ATOM     85  O   UNL A   1      31.669  29.056  22.333  1.00  0.00    -0.249 OA
BRANCH  84  86
ATOM     86  C   UNL A   1      29.551  28.023  23.501  1.00  0.00     0.049 A 
ATOM     87  C   UNL A   1      28.871  26.854  23.875  1.00  0.00     0.018 A 
ATOM     88  C   UNL A   1      28.800  29.156  23.086  1.00  0.00    -0.006 A 
ATOM     89  C   UNL A   1      27.475  26.811  23.876  1.00  0.00     0.001 A 
ATOM     90  C   UNL A   1      27.395  29.097  23.126  1.00  0.00     0.007 A 
ATOM     91  C   UNL A   1      26.738  27.934  23.513  1.00  0.00     0.000 A 
BRANCH  88  92
ATOM     92  C   UNL A   1      29.473  30.448  22.670  1.00  0.00     0.192 C 
BRANCH  92  93
ATOM     93  O   UNL A   1      29.583  30.551  21.251  1.00  0.00    -0.392 OA
ATOM     94  H   UNL A   1      30.473  30.854  21.015  1.00  0.00     0.211 HD
ENDBRANCH  92  93
ENDBRANCH  88  92
ENDBRANCH  84  86
ENDBRANCH  79  84
ENDBRANCH  72  74
ENDBRANCH  71  72
ENDBRANCH   1  71
TORSDOF 15
ENDMDL
MODEL 3
REMARK VINA RESULT:     -12.4      1.205      2.007
REMARK SMILES O=C(OCCOC(=O)c1cccc2cccc([S@@](=O)c3ccccc3CO)c12)c1ccc(-c2c3nc(c(-c4c(F)c(F)c(F)c(F)c4F)c4ccc([nH]4)c(-c4c(F)c(F)c(F)c(F)c4F)c4nc(c(-c5c(F)c(F)c(F)c(F)c5F)c5ccc2[nH]5)C=C4)C=C3)cc1
REMARK SMILES IDX 5 1 4 2 3 3 2 4 1 5 29 6 30 7 91 8 31 9 90 10 32 11 33 12
REMARK SMILES IDX 34 13 84 14 35 15 89 16 83 17 85 18 36 19 88 20 82 21 81 22
REMARK SMILES IDX 37 24 69 25 49 26 68 27 50 28 53 29 67 30 86 31 51 32 52 33
REMARK SMILES IDX 66 35 87 36 54 37 38 38 39 39 47 40 40 41 41 42 45 43 48 44
REMARK SMILES IDX 42 45 43 46 46 47 44 48 70 49 71 50 79 51 72 52 73 53 77 54
REMARK SMILES IDX 80 55 74 56 75 57 78 58 76 59 55 60 56 61 64 62 57 63 58 64
REMARK SMILES IDX 62 65 65 66 59 67 60 68 63 69 61 70 6 71 7 72 8 73 9 74
REMARK SMILES IDX 10 75 28 76 11 77 13 78 17 79 12 80 14 81 16 82 15 83 18 84
REMARK SMILES IDX 19 85 20 86 21 87 25 88 22 89 24 90 23 91 26 92 27 93
REMARK H PARENT 85 23 53 34 27 94
REMARK Flexibility Score: inf
ROOT
ATOM      1  C   UNL A   1      32.117  27.788  27.121  1.00  0.00     0.275 C 
ENDROOT
BRANCH   1   2
ATOM      2  C   UNL A   1      31.998  29.202  26.512  1.00  0.00     0.275 C 
BRANCH   2   3
ATOM      3  O   UNL A   1      33.227  29.911  26.417  1.00  0.00    -0.458 OA
BRANCH   3   4
ATOM      4  C   UNL A   1      33.350  30.985  27.234  1.00  0.00     0.338 C 
ATOM      5  O   UNL A   1      32.703  32.012  27.178  1.00  0.00    -0.246 OA
BRANCH   4   6
ATOM      6  C   UNL A   1      34.628  30.792  27.966  1.00  0.00     0.060 A 
ATOM      7  C   UNL A   1      34.981  29.511  28.411  1.00  0.00     0.016 A 
ATOM      8  C   UNL A   1      35.560  31.835  28.017  1.00  0.00     0.016 A 
ATOM      9  C   UNL A   1      36.261  29.258  28.860  1.00  0.00     0.010 A 
ATOM     10  C   UNL A   1      36.864  31.574  28.433  1.00  0.00     0.010 A 
ATOM     11  C   UNL A   1      37.206  30.286  28.868  1.00  0.00    -0.014 A 
BRANCH  11  12
ATOM     12  C   UNL A   1      38.488  29.995  29.526  1.00  0.00     0.031 A 
ATOM     13  C   UNL A   1      38.724  30.608  30.865  1.00  0.00     0.074 A 
ATOM     14  C   UNL A   1      39.319  29.073  29.012  1.00  0.00     0.049 A 
ATOM     15  N   UNL A   1      39.620  30.297  31.762  1.00  0.00    -0.248 NA
ATOM     16  C   UNL A   1      37.798  31.678  31.274  1.00  0.00     0.031 C 
ATOM     17  C   UNL A   1      39.119  28.373  27.746  1.00  0.00     0.029 A 
ATOM     18  N   UNL A   1      40.488  28.557  29.498  1.00  0.00    -0.354 N 
ATOM     19  C   UNL A   1      39.313  31.075  32.865  1.00  0.00     0.074 A 
ATOM     20  C   UNL A   1      38.216  31.942  32.500  1.00  0.00     0.031 C 
ATOM     21  C   UNL A   1      40.169  27.566  27.518  1.00  0.00     0.029 A 
ATOM     22  C   UNL A   1      41.090  27.669  28.645  1.00  0.00     0.049 A 
ATOM     23  H   UNL A   1      40.863  28.800  30.376  1.00  0.00     0.167 HD
ATOM     24  C   UNL A   1      39.871  31.026  34.095  1.00  0.00     0.037 A 
ATOM     25  C   UNL A   1      42.256  27.010  28.774  1.00  0.00     0.037 A 
ATOM     26  C   UNL A   1      40.993  30.192  34.415  1.00  0.00     0.049 A 
ATOM     27  C   UNL A   1      42.968  27.095  30.094  1.00  0.00     0.074 A 
ATOM     28  C   UNL A   1      41.661  30.058  35.615  1.00  0.00     0.029 A 
ATOM     29  N   UNL A   1      41.634  29.368  33.498  1.00  0.00    -0.354 N 
ATOM     30  N   UNL A   1      42.622  27.761  31.172  1.00  0.00    -0.248 NA
ATOM     31  C   UNL A   1      44.195  26.306  30.243  1.00  0.00     0.031 C 
ATOM     32  C   UNL A   1      42.743  29.193  35.409  1.00  0.00     0.029 A 
ATOM     33  C   UNL A   1      42.720  28.753  34.092  1.00  0.00     0.049 A 
ATOM     34  H   UNL A   1      41.355  29.240  32.561  1.00  0.00     0.167 HD
ATOM     35  C   UNL A   1      43.559  27.439  32.141  1.00  0.00     0.074 A 
ATOM     36  C   UNL A   1      44.497  26.525  31.517  1.00  0.00     0.031 C 
ATOM     37  C   UNL A   1      43.628  27.845  33.432  1.00  0.00     0.037 A 
BRANCH  24  38
ATOM     38  C   UNL A   1      39.266  31.916  35.135  1.00  0.00     0.064 A 
ATOM     39  C   UNL A   1      39.568  33.287  35.186  1.00  0.00     0.173 A 
ATOM     40  C   UNL A   1      38.445  31.385  36.138  1.00  0.00     0.173 A 
ATOM     41  F   UNL A   1      40.377  33.836  34.266  1.00  0.00    -0.203 F 
ATOM     42  C   UNL A   1      39.099  34.086  36.225  1.00  0.00     0.198 A 
ATOM     43  C   UNL A   1      37.958  32.192  37.163  1.00  0.00     0.198 A 
ATOM     44  F   UNL A   1      38.140  30.080  36.141  1.00  0.00    -0.203 F 
ATOM     45  F   UNL A   1      39.456  35.377  36.291  1.00  0.00    -0.200 F 
ATOM     46  C   UNL A   1      38.295  33.537  37.213  1.00  0.00     0.200 A 
ATOM     47  F   UNL A   1      37.184  31.662  38.119  1.00  0.00    -0.200 F 
ATOM     48  F   UNL A   1      37.860  34.301  38.224  1.00  0.00    -0.200 F 
ENDBRANCH  24  38
BRANCH  25  49
ATOM     49  C   UNL A   1      42.784  26.224  27.631  1.00  0.00     0.064 A 
ATOM     50  C   UNL A   1      42.350  24.921  27.360  1.00  0.00     0.173 A 
ATOM     51  C   UNL A   1      43.725  26.793  26.757  1.00  0.00     0.173 A 
ATOM     52  F   UNL A   1      41.458  24.330  28.167  1.00  0.00    -0.203 F 
ATOM     53  C   UNL A   1      42.846  24.211  26.264  1.00  0.00     0.198 A 
ATOM     54  C   UNL A   1      44.206  26.091  25.653  1.00  0.00     0.198 A 
ATOM     55  F   UNL A   1      44.164  28.044  26.964  1.00  0.00    -0.203 F 
ATOM     56  F   UNL A   1      42.431  22.958  26.038  1.00  0.00    -0.200 F 
ATOM     57  C   UNL A   1      43.768  24.798  25.410  1.00  0.00     0.200 A 
ATOM     58  F   UNL A   1      45.084  26.670  24.824  1.00  0.00    -0.200 F 
ATOM     59  F   UNL A   1      44.235  24.120  24.353  1.00  0.00    -0.200 F 
ENDBRANCH  25  49
BRANCH  37  60
ATOM     60  C   UNL A   1      44.739  27.280  34.262  1.00  0.00     0.064 A 
ATOM     61  C   UNL A   1      44.603  26.059  34.932  1.00  0.00     0.173 A 
ATOM     62  C   UNL A   1      45.977  27.939  34.324  1.00  0.00     0.173 A 
ATOM     63  F   UNL A   1      43.432  25.404  34.913  1.00  0.00    -0.203 F 
ATOM     64  C   UNL A   1      45.667  25.518  35.647  1.00  0.00     0.198 A 
ATOM     65  C   UNL A   1      47.046  27.382  35.017  1.00  0.00     0.198 A 
ATOM     66  F   UNL A   1      46.152  29.110  33.693  1.00  0.00    -0.203 F 
ATOM     67  F   UNL A   1      45.508  24.363  36.308  1.00  0.00    -0.200 F 
ATOM     68  C   UNL A   1      46.889  26.174  35.680  1.00  0.00     0.200 A 
ATOM     69  F   UNL A   1      48.228  28.010  35.036  1.00  0.00    -0.200 F 
ATOM     70  F   UNL A   1      47.918  25.643  36.355  1.00  0.00    -0.200 F 
ENDBRANCH  37  60
ENDBRANCH  11  12
ENDBRANCH   4   6
ENDBRANCH   3   4
ENDBRANCH   2   3
ENDBRANCH   1   2
BRANCH   1  71
ATOM     71  O   UNL A   1      32.146  26.702  26.168  1.00  0.00    -0.458 OA
BRANCH  71  72
ATOM     72  C   UNL A   1      33.358  26.126  25.950  1.00  0.00     0.338 C 
ATOM     73  O   UNL A   1      34.396  26.704  25.688  1.00  0.00    -0.246 OA
BRANCH  72  74
ATOM     74  C   UNL A   1      33.243  24.648  25.921  1.00  0.00     0.069 A 
ATOM     75  C   UNL A   1      33.338  24.053  27.194  1.00  0.00     0.016 A 
ATOM     76  C   UNL A   1      32.882  23.884  24.749  1.00  0.00     0.013 A 
ATOM     77  C   UNL A   1      33.094  22.699  27.360  1.00  0.00     0.002 A 
ATOM     78  C   UNL A   1      32.648  22.490  24.980  1.00  0.00    -0.016 A 
ATOM     79  C   UNL A   1      32.763  24.313  23.375  1.00  0.00     0.052 A 
ATOM     80  C   UNL A   1      32.768  21.927  26.257  1.00  0.00     0.009 A 
ATOM     81  C   UNL A   1      32.296  21.618  23.941  1.00  0.00     0.009 A 
ATOM     82  C   UNL A   1      32.383  23.405  22.363  1.00  0.00     0.019 A 
ATOM     83  C   UNL A   1      32.145  22.070  22.641  1.00  0.00     0.002 A 
BRANCH  79  84
ATOM     84  S   UNL A   1      33.422  25.895  22.791  1.00  0.00     0.086 S 
ATOM     85  O   UNL A   1      33.654  25.724  21.316  1.00  0.00    -0.249 OA
BRANCH  84  86
ATOM     86  C   UNL A   1      32.006  27.018  22.905  1.00  0.00     0.049 A 
ATOM     87  C   UNL A   1      30.679  26.579  23.021  1.00  0.00     0.018 A 
ATOM     88  C   UNL A   1      32.270  28.414  22.867  1.00  0.00    -0.006 A 
ATOM     89  C   UNL A   1      29.631  27.496  23.135  1.00  0.00     0.001 A 
ATOM     90  C   UNL A   1      31.201  29.317  23.015  1.00  0.00     0.007 A 
ATOM     91  C   UNL A   1      29.892  28.862  23.143  1.00  0.00     0.000 A 
BRANCH  88  92
ATOM     92  C   UNL A   1      33.680  28.955  22.743  1.00  0.00     0.192 C 
BRANCH  92  93
ATOM     93  O   UNL A   1      34.352  28.969  24.002  1.00  0.00    -0.392 OA
ATOM     94  H   UNL A   1      35.252  28.625  23.894  1.00  0.00     0.211 HD
ENDBRANCH  92  93
ENDBRANCH  88  92
ENDBRANCH  84  86
ENDBRANCH  79  84
ENDBRANCH  72  74
ENDBRANCH  71  72
ENDBRANCH   1  71
TORSDOF 15
ENDMDL
