MODEL 1
REMARK VINA RESULT:     -10.0      0.000      0.000
REMARK SMILES CC(C)(Br)[C@H](Br)C(=O)OCCOC(=O)c1ccc(-c2c3nc(c(-c4c(F)c(F)c(F)c(F)c4F)c4ccc([nH]4)c(-c4c(F)c(F)c(F)c(F)c4F)c4nc(c(-c5c(F)c(F)c(F)c(F)c5F)c5ccc2[nH]5)C=C4)C=C3)cc1
REMARK SMILES IDX 11 1 10 2 9 3 7 4 8 5 5 6 6 7 2 8 1 9 3 10 4 11 12 12 13 13
REMARK SMILES IDX 14 14 15 15 16 16 77 17 17 18 76 19 18 20 19 21 20 22 70 23
REMARK SMILES IDX 21 24 75 25 69 26 71 27 22 28 74 29 68 30 67 31 23 33 55 34
REMARK SMILES IDX 35 35 54 36 36 37 39 38 53 39 72 40 37 41 38 42 52 44 73 45
REMARK SMILES IDX 40 46 24 47 25 48 33 49 26 50 27 51 31 52 34 53 28 54 29 55
REMARK SMILES IDX 32 56 30 57 56 58 57 59 65 60 58 61 59 62 63 63 66 64 60 65
REMARK SMILES IDX 61 66 64 67 62 68 41 69 42 70 50 71 43 72 44 73 48 74 51 75
REMARK SMILES IDX 45 76 46 77 49 78 47 79
REMARK H PARENT 71 32 39 43
REMARK Flexibility Score: inf
ROOT
ATOM      1  C   UNL A   1      32.897  35.301  28.378  1.00  0.00     0.275 C 
ENDROOT
BRANCH   1   2
ATOM      2  C   UNL A   1      33.204  36.222  29.567  1.00  0.00     0.274 C 
BRANCH   2   3
ATOM      3  O   UNL A   1      32.183  36.176  30.586  1.00  0.00    -0.461 OA
BRANCH   3   4
ATOM      4  C   UNL A   1      32.542  35.647  31.785  1.00  0.00     0.321 C 
ATOM      5  O   UNL A   1      31.778  34.991  32.488  1.00  0.00    -0.251 OA
BRANCH   4   6
ATOM      6  C   UNL A   1      33.976  35.944  32.208  1.00  0.00     0.183 C 
ATOM      7  Br  UNL A   1      33.974  37.039  33.847  1.00  0.00    -0.075 Br
BRANCH   6   8
ATOM      8  C   UNL A   1      34.891  34.716  32.338  1.00  0.00     0.043 C 
ATOM      9  C   UNL A   1      36.311  34.933  31.812  1.00  0.00     0.025 C 
ATOM     10  C   UNL A   1      34.271  33.449  31.721  1.00  0.00     0.025 C 
ATOM     11  Br  UNL A   1      35.074  34.267  34.284  1.00  0.00    -0.084 Br
ENDBRANCH   6   8
ENDBRANCH   4   6
ENDBRANCH   3   4
ENDBRANCH   2   3
ENDBRANCH   1   2
BRANCH   1  12
ATOM     12  O   UNL A   1      34.063  34.584  27.926  1.00  0.00    -0.458 OA
BRANCH  12  13
ATOM     13  C   UNL A   1      33.923  33.239  27.893  1.00  0.00     0.338 C 
ATOM     14  O   UNL A   1      32.949  32.612  27.510  1.00  0.00    -0.246 OA
BRANCH  13  15
ATOM     15  C   UNL A   1      35.182  32.567  28.258  1.00  0.00     0.060 A 
ATOM     16  C   UNL A   1      35.095  31.244  28.701  1.00  0.00     0.016 A 
ATOM     17  C   UNL A   1      36.401  33.246  28.289  1.00  0.00     0.016 A 
ATOM     18  C   UNL A   1      36.216  30.601  29.213  1.00  0.00     0.010 A 
ATOM     19  C   UNL A   1      37.530  32.600  28.810  1.00  0.00     0.010 A 
ATOM     20  C   UNL A   1      37.433  31.286  29.304  1.00  0.00    -0.014 A 
BRANCH  20  21
ATOM     21  C   UNL A   1      38.551  30.651  30.039  1.00  0.00     0.031 A 
ATOM     22  C   UNL A   1      38.736  30.955  31.500  1.00  0.00     0.074 A 
ATOM     23  C   UNL A   1      39.339  29.748  29.430  1.00  0.00     0.049 A 
ATOM     24  N   UNL A   1      39.633  30.498  32.336  1.00  0.00    -0.248 NA
ATOM     25  C   UNL A   1      37.778  31.898  32.098  1.00  0.00     0.031 C 
ATOM     26  C   UNL A   1      39.220  29.330  28.035  1.00  0.00     0.029 A 
ATOM     27  N   UNL A   1      40.387  29.008  29.917  1.00  0.00    -0.354 N 
ATOM     28  C   UNL A   1      39.360  31.112  33.552  1.00  0.00     0.074 A 
ATOM     29  C   UNL A   1      38.224  31.984  33.343  1.00  0.00     0.031 C 
ATOM     30  C   UNL A   1      40.153  28.398  27.779  1.00  0.00     0.029 A 
ATOM     31  C   UNL A   1      40.950  28.175  28.982  1.00  0.00     0.049 A 
ATOM     32  H   UNL A   1      40.705  29.069  30.847  1.00  0.00     0.167 HD
ATOM     33  C   UNL A   1      39.998  30.957  34.737  1.00  0.00     0.037 A 
ATOM     34  C   UNL A   1      41.996  27.334  29.090  1.00  0.00     0.037 A 
ATOM     35  C   UNL A   1      41.113  30.072  34.950  1.00  0.00     0.049 A 
ATOM     36  C   UNL A   1      42.705  27.202  30.411  1.00  0.00     0.074 A 
ATOM     37  C   UNL A   1      41.827  29.845  36.113  1.00  0.00     0.029 A 
ATOM     38  N   UNL A   1      41.672  29.262  33.973  1.00  0.00    -0.354 N 
ATOM     39  N   UNL A   1      42.444  27.789  31.553  1.00  0.00    -0.248 NA
ATOM     40  C   UNL A   1      43.853  26.286  30.457  1.00  0.00     0.031 C 
ATOM     41  C   UNL A   1      42.838  28.919  35.832  1.00  0.00     0.029 A 
ATOM     42  C   UNL A   1      42.729  28.541  34.504  1.00  0.00     0.049 A 
ATOM     43  H   UNL A   1      41.363  29.208  33.039  1.00  0.00     0.167 HD
ATOM     44  C   UNL A   1      43.372  27.294  32.458  1.00  0.00     0.074 A 
ATOM     45  C   UNL A   1      44.200  26.351  31.735  1.00  0.00     0.031 C 
ATOM     46  C   UNL A   1      43.527  27.593  33.771  1.00  0.00     0.037 A 
BRANCH  33  47
ATOM     47  C   UNL A   1      39.523  31.792  35.887  1.00  0.00     0.064 A 
ATOM     48  C   UNL A   1      38.473  31.375  36.718  1.00  0.00     0.173 A 
ATOM     49  C   UNL A   1      40.139  33.019  36.171  1.00  0.00     0.173 A 
ATOM     50  F   UNL A   1      37.840  30.216  36.476  1.00  0.00    -0.203 F 
ATOM     51  C   UNL A   1      38.043  32.169  37.779  1.00  0.00     0.198 A 
ATOM     52  C   UNL A   1      39.723  33.798  37.247  1.00  0.00     0.198 A 
ATOM     53  F   UNL A   1      41.150  33.461  35.407  1.00  0.00    -0.203 F 
ATOM     54  F   UNL A   1      37.010  31.771  38.535  1.00  0.00    -0.200 F 
ATOM     55  C   UNL A   1      38.671  33.376  38.046  1.00  0.00     0.200 A 
ATOM     56  F   UNL A   1      40.336  34.961  37.508  1.00  0.00    -0.200 F 
ATOM     57  F   UNL A   1      38.257  34.137  39.068  1.00  0.00    -0.200 F 
ENDBRANCH  33  47
BRANCH  34  58
ATOM     58  C   UNL A   1      42.432  26.542  27.912  1.00  0.00     0.064 A 
ATOM     59  C   UNL A   1      43.403  27.035  27.030  1.00  0.00     0.173 A 
ATOM     60  C   UNL A   1      41.881  25.282  27.642  1.00  0.00     0.173 A 
ATOM     61  F   UNL A   1      43.939  28.247  27.235  1.00  0.00    -0.203 F 
ATOM     62  C   UNL A   1      43.795  26.303  25.911  1.00  0.00     0.198 A 
ATOM     63  C   UNL A   1      42.292  24.540  26.536  1.00  0.00     0.198 A 
ATOM     64  F   UNL A   1      40.946  24.768  28.455  1.00  0.00    -0.203 F 
ATOM     65  F   UNL A   1      44.694  26.816  25.060  1.00  0.00    -0.200 F 
ATOM     66  C   UNL A   1      43.244  25.054  25.668  1.00  0.00     0.200 A 
ATOM     67  F   UNL A   1      41.761  23.330  26.309  1.00  0.00    -0.200 F 
ATOM     68  F   UNL A   1      43.622  24.350  24.593  1.00  0.00    -0.200 F 
ENDBRANCH  34  58
BRANCH  46  69
ATOM     69  C   UNL A   1      44.598  26.857  34.520  1.00  0.00     0.064 A 
ATOM     70  C   UNL A   1      45.896  27.373  34.645  1.00  0.00     0.173 A 
ATOM     71  C   UNL A   1      44.312  25.634  35.144  1.00  0.00     0.173 A 
ATOM     72  F   UNL A   1      46.221  28.532  34.053  1.00  0.00    -0.203 F 
ATOM     73  C   UNL A   1      46.876  26.678  35.348  1.00  0.00     0.198 A 
ATOM     74  C   UNL A   1      45.287  24.953  35.867  1.00  0.00     0.198 A 
ATOM     75  F   UNL A   1      43.083  25.102  35.058  1.00  0.00    -0.203 F 
ATOM     76  F   UNL A   1      48.122  27.167  35.418  1.00  0.00    -0.200 F 
ATOM     77  C   UNL A   1      46.570  25.472  35.962  1.00  0.00     0.200 A 
ATOM     78  F   UNL A   1      44.988  23.793  36.467  1.00  0.00    -0.200 F 
ATOM     79  F   UNL A   1      47.515  24.805  36.639  1.00  0.00    -0.200 F 
ENDBRANCH  46  69
ENDBRANCH  20  21
ENDBRANCH  13  15
ENDBRANCH  12  13
ENDBRANCH   1  12
TORSDOF 12
ENDMDL
MODEL 2
REMARK VINA RESULT:     -10.0      0.570      1.394
REMARK SMILES CC(C)(Br)[C@H](Br)C(=O)OCCOC(=O)c1ccc(-c2c3nc(c(-c4c(F)c(F)c(F)c(F)c4F)c4ccc([nH]4)c(-c4c(F)c(F)c(F)c(F)c4F)c4nc(c(-c5c(F)c(F)c(F)c(F)c5F)c5ccc2[nH]5)C=C4)C=C3)cc1
REMARK SMILES IDX 11 1 10 2 9 3 7 4 8 5 5 6 6 7 2 8 1 9 3 10 4 11 12 12 13 13
REMARK SMILES IDX 14 14 15 15 16 16 77 17 17 18 76 19 18 20 19 21 20 22 70 23
REMARK SMILES IDX 21 24 75 25 69 26 71 27 22 28 74 29 68 30 67 31 23 33 55 34
REMARK SMILES IDX 35 35 54 36 36 37 39 38 53 39 72 40 37 41 38 42 52 44 73 45
REMARK SMILES IDX 40 46 24 47 25 48 33 49 26 50 27 51 31 52 34 53 28 54 29 55
REMARK SMILES IDX 32 56 30 57 56 58 57 59 65 60 58 61 59 62 63 63 66 64 60 65
REMARK SMILES IDX 61 66 64 67 62 68 41 69 42 70 50 71 43 72 44 73 48 74 51 75
REMARK SMILES IDX 45 76 46 77 49 78 47 79
REMARK H PARENT 71 32 39 43
REMARK Flexibility Score: inf
ROOT
ATOM      1  C   UNL A   1      33.185  35.113  27.989  1.00  0.00     0.275 C 
ENDROOT
BRANCH   1   2
ATOM      2  C   UNL A   1      33.336  35.695  29.401  1.00  0.00     0.274 C 
BRANCH   2   3
ATOM      3  O   UNL A   1      32.529  35.004  30.377  1.00  0.00    -0.461 OA
BRANCH   3   4
ATOM      4  C   UNL A   1      32.710  35.357  31.677  1.00  0.00     0.321 C 
ATOM      5  O   UNL A   1      31.816  35.313  32.518  1.00  0.00    -0.251 OA
BRANCH   4   6
ATOM      6  C   UNL A   1      34.118  35.833  32.017  1.00  0.00     0.183 C 
ATOM      7  Br  UNL A   1      34.028  37.570  32.944  1.00  0.00    -0.075 Br
BRANCH   6   8
ATOM      8  C   UNL A   1      34.989  34.819  32.777  1.00  0.00     0.043 C 
ATOM      9  C   UNL A   1      34.778  34.823  34.293  1.00  0.00     0.025 C 
ATOM     10  C   UNL A   1      36.484  34.953  32.437  1.00  0.00     0.025 C 
ATOM     11  Br  UNL A   1      34.511  32.977  32.147  1.00  0.00    -0.084 Br
ENDBRANCH   6   8
ENDBRANCH   4   6
ENDBRANCH   3   4
ENDBRANCH   2   3
ENDBRANCH   1   2
BRANCH   1  12
ATOM     12  O   UNL A   1      34.313  34.300  27.609  1.00  0.00    -0.458 OA
BRANCH  12  13
ATOM     13  C   UNL A   1      34.152  32.974  27.818  1.00  0.00     0.338 C 
ATOM     14  O   UNL A   1      33.140  32.319  27.628  1.00  0.00    -0.246 OA
BRANCH  13  15
ATOM     15  C   UNL A   1      35.427  32.339  28.191  1.00  0.00     0.060 A 
ATOM     16  C   UNL A   1      35.405  30.964  28.450  1.00  0.00     0.016 A 
ATOM     17  C   UNL A   1      36.589  33.081  28.408  1.00  0.00     0.016 A 
ATOM     18  C   UNL A   1      36.531  30.329  28.961  1.00  0.00     0.010 A 
ATOM     19  C   UNL A   1      37.721  32.442  28.929  1.00  0.00     0.010 A 
ATOM     20  C   UNL A   1      37.685  31.070  29.237  1.00  0.00    -0.014 A 
BRANCH  20  21
ATOM     21  C   UNL A   1      38.792  30.411  29.970  1.00  0.00     0.031 A 
ATOM     22  C   UNL A   1      38.979  30.703  31.432  1.00  0.00     0.074 A 
ATOM     23  C   UNL A   1      39.566  29.500  29.356  1.00  0.00     0.049 A 
ATOM     24  N   UNL A   1      39.867  30.226  32.268  1.00  0.00    -0.248 NA
ATOM     25  C   UNL A   1      38.036  31.657  32.036  1.00  0.00     0.031 C 
ATOM     26  C   UNL A   1      39.441  29.093  27.958  1.00  0.00     0.029 A 
ATOM     27  N   UNL A   1      40.600  28.739  29.839  1.00  0.00    -0.354 N 
ATOM     28  C   UNL A   1      39.603  30.836  33.487  1.00  0.00     0.074 A 
ATOM     29  C   UNL A   1      38.482  31.728  33.282  1.00  0.00     0.031 C 
ATOM     30  C   UNL A   1      40.359  28.147  27.697  1.00  0.00     0.029 A 
ATOM     31  C   UNL A   1      41.151  27.903  28.900  1.00  0.00     0.049 A 
ATOM     32  H   UNL A   1      40.918  28.788  30.770  1.00  0.00     0.167 HD
ATOM     33  C   UNL A   1      40.237  30.663  34.672  1.00  0.00     0.037 A 
ATOM     34  C   UNL A   1      42.182  27.044  29.004  1.00  0.00     0.037 A 
ATOM     35  C   UNL A   1      41.336  29.758  34.880  1.00  0.00     0.049 A 
ATOM     36  C   UNL A   1      42.888  26.892  30.325  1.00  0.00     0.074 A 
ATOM     37  C   UNL A   1      42.045  29.512  36.043  1.00  0.00     0.029 A 
ATOM     38  N   UNL A   1      41.884  28.946  33.898  1.00  0.00    -0.354 N 
ATOM     39  N   UNL A   1      42.635  27.476  31.471  1.00  0.00    -0.248 NA
ATOM     40  C   UNL A   1      44.020  25.957  30.366  1.00  0.00     0.031 C 
ATOM     41  C   UNL A   1      43.040  28.571  35.758  1.00  0.00     0.029 A 
ATOM     42  C   UNL A   1      42.927  28.204  34.426  1.00  0.00     0.049 A 
ATOM     43  H   UNL A   1      41.575  28.903  32.965  1.00  0.00     0.167 HD
ATOM     44  C   UNL A   1      43.553  26.960  32.374  1.00  0.00     0.074 A 
ATOM     45  C   UNL A   1      44.366  26.007  31.645  1.00  0.00     0.031 C 
ATOM     46  C   UNL A   1      43.710  27.248  33.689  1.00  0.00     0.037 A 
BRANCH  33  47
ATOM     47  C   UNL A   1      39.773  31.498  35.827  1.00  0.00     0.064 A 
ATOM     48  C   UNL A   1      38.636  31.159  36.573  1.00  0.00     0.173 A 
ATOM     49  C   UNL A   1      40.489  32.645  36.201  1.00  0.00     0.173 A 
ATOM     50  F   UNL A   1      37.908  30.081  36.244  1.00  0.00    -0.203 F 
ATOM     51  C   UNL A   1      38.219  31.952  37.641  1.00  0.00     0.198 A 
ATOM     52  C   UNL A   1      40.084  33.421  37.283  1.00  0.00     0.198 A 
ATOM     53  F   UNL A   1      41.585  33.010  35.519  1.00  0.00    -0.203 F 
ATOM     54  F   UNL A   1      37.105  31.634  38.314  1.00  0.00    -0.200 F 
ATOM     55  C   UNL A   1      38.946  33.078  37.997  1.00  0.00     0.200 A 
ATOM     56  F   UNL A   1      40.791  34.505  37.631  1.00  0.00    -0.200 F 
ATOM     57  F   UNL A   1      38.544  33.839  39.025  1.00  0.00    -0.200 F 
ENDBRANCH  33  47
BRANCH  34  58
ATOM     58  C   UNL A   1      42.608  26.252  27.822  1.00  0.00     0.064 A 
ATOM     59  C   UNL A   1      42.046  24.997  27.555  1.00  0.00     0.173 A 
ATOM     60  C   UNL A   1      43.589  26.731  26.943  1.00  0.00     0.173 A 
ATOM     61  F   UNL A   1      41.122  24.487  28.383  1.00  0.00    -0.203 F 
ATOM     62  C   UNL A   1      42.462  24.241  26.460  1.00  0.00     0.198 A 
ATOM     63  C   UNL A   1      43.988  25.986  25.835  1.00  0.00     0.198 A 
ATOM     64  F   UNL A   1      44.159  27.925  27.159  1.00  0.00    -0.203 F 
ATOM     65  F   UNL A   1      41.940  23.025  26.251  1.00  0.00    -0.200 F 
ATOM     66  C   UNL A   1      43.428  24.739  25.598  1.00  0.00     0.200 A 
ATOM     67  F   UNL A   1      44.916  26.473  25.001  1.00  0.00    -0.200 F 
ATOM     68  F   UNL A   1      43.827  24.013  24.545  1.00  0.00    -0.200 F 
ENDBRANCH  34  58
BRANCH  46  69
ATOM     69  C   UNL A   1      44.769  26.489  34.435  1.00  0.00     0.064 A 
ATOM     70  C   UNL A   1      46.077  26.977  34.555  1.00  0.00     0.173 A 
ATOM     71  C   UNL A   1      44.458  25.273  35.060  1.00  0.00     0.173 A 
ATOM     72  F   UNL A   1      46.425  28.128  33.960  1.00  0.00    -0.203 F 
ATOM     73  C   UNL A   1      47.045  26.261  35.254  1.00  0.00     0.198 A 
ATOM     74  C   UNL A   1      45.421  24.572  35.780  1.00  0.00     0.198 A 
ATOM     75  F   UNL A   1      43.218  24.768  34.979  1.00  0.00    -0.203 F 
ATOM     76  F   UNL A   1      48.301  26.724  35.320  1.00  0.00    -0.200 F 
ATOM     77  C   UNL A   1      46.716  25.063  35.870  1.00  0.00     0.200 A 
ATOM     78  F   UNL A   1      45.100  23.419  36.382  1.00  0.00    -0.200 F 
ATOM     79  F   UNL A   1      47.648  24.375  36.544  1.00  0.00    -0.200 F 
ENDBRANCH  46  69
ENDBRANCH  20  21
ENDBRANCH  13  15
ENDBRANCH  12  13
ENDBRANCH   1  12
TORSDOF 12
ENDMDL
MODEL 3
REMARK VINA RESULT:      -9.6      6.131     11.696
REMARK SMILES CC(C)(Br)[C@H](Br)C(=O)OCCOC(=O)c1ccc(-c2c3nc(c(-c4c(F)c(F)c(F)c(F)c4F)c4ccc([nH]4)c(-c4c(F)c(F)c(F)c(F)c4F)c4nc(c(-c5c(F)c(F)c(F)c(F)c5F)c5ccc2[nH]5)C=C4)C=C3)cc1
REMARK SMILES IDX 11 1 10 2 9 3 7 4 8 5 5 6 6 7 2 8 1 9 3 10 4 11 12 12 13 13
REMARK SMILES IDX 14 14 15 15 16 16 77 17 17 18 76 19 18 20 19 21 20 22 70 23
REMARK SMILES IDX 21 24 75 25 69 26 71 27 22 28 74 29 68 30 67 31 23 33 55 34
REMARK SMILES IDX 35 35 54 36 36 37 39 38 53 39 72 40 37 41 38 42 52 44 73 45
REMARK SMILES IDX 40 46 24 47 25 48 33 49 26 50 27 51 31 52 34 53 28 54 29 55
REMARK SMILES IDX 32 56 30 57 56 58 57 59 65 60 58 61 59 62 63 63 66 64 60 65
REMARK SMILES IDX 61 66 64 67 62 68 41 69 42 70 50 71 43 72 44 73 48 74 51 75
REMARK SMILES IDX 45 76 46 77 49 78 47 79
REMARK H PARENT 71 32 39 43
REMARK Flexibility Score: inf
ROOT
ATOM      1  C   UNL A   1      37.834  19.937  25.001  1.00  0.00     0.275 C 
ENDROOT
BRANCH   1   2
ATOM      2  C   UNL A   1      36.307  20.092  25.000  1.00  0.00     0.274 C 
BRANCH   2   3
ATOM      3  O   UNL A   1      35.846  21.076  25.949  1.00  0.00    -0.461 OA
BRANCH   3   4
ATOM      4  C   UNL A   1      34.570  21.518  25.797  1.00  0.00     0.321 C 
ATOM      5  O   UNL A   1      33.733  21.481  26.695  1.00  0.00    -0.251 OA
BRANCH   4   6
ATOM      6  C   UNL A   1      34.243  22.054  24.408  1.00  0.00     0.183 C 
ATOM      7  Br  UNL A   1      32.291  22.046  24.133  1.00  0.00    -0.075 Br
BRANCH   6   8
ATOM      8  C   UNL A   1      34.866  23.417  24.066  1.00  0.00     0.043 C 
ATOM      9  C   UNL A   1      36.226  23.328  23.371  1.00  0.00     0.025 C 
ATOM     10  C   UNL A   1      34.939  24.356  25.283  1.00  0.00     0.025 C 
ATOM     11  Br  UNL A   1      33.645  24.369  22.792  1.00  0.00    -0.084 Br
ENDBRANCH   6   8
ENDBRANCH   4   6
ENDBRANCH   3   4
ENDBRANCH   2   3
ENDBRANCH   1   2
BRANCH   1  12
ATOM     12  O   UNL A   1      38.508  21.155  25.376  1.00  0.00    -0.458 OA
BRANCH  12  13
ATOM     13  C   UNL A   1      39.588  20.984  26.171  1.00  0.00     0.338 C 
ATOM     14  O   UNL A   1      40.254  19.968  26.296  1.00  0.00    -0.246 OA
BRANCH  13  15
ATOM     15  C   UNL A   1      39.985  22.253  26.805  1.00  0.00     0.060 A 
ATOM     16  C   UNL A   1      39.369  23.419  26.340  1.00  0.00     0.016 A 
ATOM     17  C   UNL A   1      41.020  22.323  27.738  1.00  0.00     0.016 A 
ATOM     18  C   UNL A   1      39.806  24.664  26.776  1.00  0.00     0.010 A 
ATOM     19  C   UNL A   1      41.465  23.578  28.173  1.00  0.00     0.010 A 
ATOM     20  C   UNL A   1      40.880  24.754  27.668  1.00  0.00    -0.014 A 
BRANCH  20  21
ATOM     21  C   UNL A   1      41.457  26.089  27.952  1.00  0.00     0.031 A 
ATOM     22  C   UNL A   1      42.823  26.426  27.425  1.00  0.00     0.074 A 
ATOM     23  C   UNL A   1      40.732  27.017  28.601  1.00  0.00     0.049 A 
ATOM     24  N   UNL A   1      43.507  27.536  27.540  1.00  0.00    -0.248 NA
ATOM     25  C   UNL A   1      43.509  25.372  26.662  1.00  0.00     0.031 C 
ATOM     26  C   UNL A   1      39.375  26.824  29.108  1.00  0.00     0.029 A 
ATOM     27  N   UNL A   1      41.035  28.315  28.927  1.00  0.00    -0.354 N 
ATOM     28  C   UNL A   1      44.709  27.307  26.882  1.00  0.00     0.074 A 
ATOM     29  C   UNL A   1      44.668  25.950  26.383  1.00  0.00     0.031 C 
ATOM     30  C   UNL A   1      38.956  27.968  29.675  1.00  0.00     0.029 A 
ATOM     31  C   UNL A   1      40.024  28.962  29.594  1.00  0.00     0.049 A 
ATOM     32  H   UNL A   1      41.894  28.741  28.706  1.00  0.00     0.167 HD
ATOM     33  C   UNL A   1      45.750  28.156  26.708  1.00  0.00     0.037 A 
ATOM     34  C   UNL A   1      39.974  30.214  30.086  1.00  0.00     0.037 A 
ATOM     35  C   UNL A   1      45.780  29.513  27.185  1.00  0.00     0.049 A 
ATOM     36  C   UNL A   1      41.156  31.128  29.903  1.00  0.00     0.074 A 
ATOM     37  C   UNL A   1      46.788  30.453  27.058  1.00  0.00     0.029 A 
ATOM     38  N   UNL A   1      44.747  30.127  27.878  1.00  0.00    -0.354 N 
ATOM     39  N   UNL A   1      42.290  30.902  29.285  1.00  0.00    -0.248 NA
ATOM     40  C   UNL A   1      41.049  32.473  30.484  1.00  0.00     0.031 C 
ATOM     41  C   UNL A   1      46.377  31.625  27.701  1.00  0.00     0.029 A 
ATOM     42  C   UNL A   1      45.098  31.429  28.194  1.00  0.00     0.049 A 
ATOM     43  H   UNL A   1      43.891  29.699  28.111  1.00  0.00     0.167 HD
ATOM     44  C   UNL A   1      43.016  32.081  29.376  1.00  0.00     0.074 A 
ATOM     45  C   UNL A   1      42.192  33.025  30.103  1.00  0.00     0.031 C 
ATOM     46  C   UNL A   1      44.255  32.358  28.901  1.00  0.00     0.037 A 
BRANCH  33  47
ATOM     47  C   UNL A   1      46.958  27.624  25.998  1.00  0.00     0.064 A 
ATOM     48  C   UNL A   1      47.080  27.687  24.602  1.00  0.00     0.173 A 
ATOM     49  C   UNL A   1      48.015  27.060  26.727  1.00  0.00     0.173 A 
ATOM     50  F   UNL A   1      46.089  28.203  23.859  1.00  0.00    -0.203 F 
ATOM     51  C   UNL A   1      48.210  27.183  23.961  1.00  0.00     0.198 A 
ATOM     52  C   UNL A   1      49.151  26.579  26.085  1.00  0.00     0.198 A 
ATOM     53  F   UNL A   1      47.945  26.979  28.065  1.00  0.00    -0.203 F 
ATOM     54  F   UNL A   1      48.288  27.214  22.623  1.00  0.00    -0.200 F 
ATOM     55  C   UNL A   1      49.246  26.634  24.702  1.00  0.00     0.200 A 
ATOM     56  F   UNL A   1      50.155  26.056  26.803  1.00  0.00    -0.200 F 
ATOM     57  F   UNL A   1      50.332  26.151  24.083  1.00  0.00    -0.200 F 
ENDBRANCH  33  47
BRANCH  34  58
ATOM     58  C   UNL A   1      38.756  30.683  30.794  1.00  0.00     0.064 A 
ATOM     59  C   UNL A   1      38.649  30.586  32.188  1.00  0.00     0.173 A 
ATOM     60  C   UNL A   1      37.672  31.227  30.091  1.00  0.00     0.173 A 
ATOM     61  F   UNL A   1      39.650  30.048  32.900  1.00  0.00    -0.203 F 
ATOM     62  C   UNL A   1      37.497  31.002  32.851  1.00  0.00     0.198 A 
ATOM     63  C   UNL A   1      36.530  31.665  30.757  1.00  0.00     0.198 A 
ATOM     64  F   UNL A   1      37.725  31.337  28.755  1.00  0.00    -0.203 F 
ATOM     65  F   UNL A   1      37.403  30.860  34.180  1.00  0.00    -0.200 F 
ATOM     66  C   UNL A   1      36.440  31.547  32.136  1.00  0.00     0.200 A 
ATOM     67  F   UNL A   1      35.515  32.197  30.063  1.00  0.00    -0.200 F 
ATOM     68  F   UNL A   1      35.333  31.948  32.774  1.00  0.00    -0.200 F 
ENDBRANCH  34  58
BRANCH  46  69
ATOM     69  C   UNL A   1      44.773  33.751  29.109  1.00  0.00     0.064 A 
ATOM     70  C   UNL A   1      45.539  34.090  30.233  1.00  0.00     0.173 A 
ATOM     71  C   UNL A   1      44.521  34.748  28.155  1.00  0.00     0.173 A 
ATOM     72  F   UNL A   1      45.792  33.174  31.179  1.00  0.00    -0.203 F 
ATOM     73  C   UNL A   1      46.014  35.387  30.407  1.00  0.00     0.198 A 
ATOM     74  C   UNL A   1      45.020  36.037  28.320  1.00  0.00     0.198 A 
ATOM     75  F   UNL A   1      43.798  34.470  27.060  1.00  0.00    -0.203 F 
ATOM     76  F   UNL A   1      46.708  35.702  31.510  1.00  0.00    -0.200 F 
ATOM     77  C   UNL A   1      45.759  36.357  29.449  1.00  0.00     0.200 A 
ATOM     78  F   UNL A   1      44.780  36.971  27.390  1.00  0.00    -0.200 F 
ATOM     79  F   UNL A   1      46.219  37.605  29.618  1.00  0.00    -0.200 F 
ENDBRANCH  46  69
ENDBRANCH  20  21
ENDBRANCH  13  15
ENDBRANCH  12  13
ENDBRANCH   1  12
TORSDOF 12
ENDMDL
