MODEL 1
REMARK VINA RESULT:     -11.7      0.000      0.000
REMARK SMILES C[C@H](c1ccc(C(=O)OCCOC(=O)c2ccc(-c3c4nc(c(-c5c(F)c(F)c(F)c(F)c5F)c5ccc([nH]5)c(-c5c(F)c(F)c(F)c(F)c5F)c5nc(c(-c6c(F)c(F)c(F)c(F)c6F)c6ccc3[nH]6)C=C5)C=C4)cc2)o1)[NH+]1Cc2ccccc2C1
REMARK SMILES IDX 10 1 9 2 7 3 8 4 6 5 3 6 4 7 78 8 5 9 2 10 1 11 79 12 80 13
REMARK SMILES IDX 87 14 81 16 86 17 82 18 85 19 83 20 84 21 11 22 12 23 13 24
REMARK SMILES IDX 14 25 15 26 16 27 77 28 17 29 76 30 18 31 19 32 20 33 70 34
REMARK SMILES IDX 21 35 75 36 69 37 71 38 22 39 74 40 68 41 67 42 23 44 55 45
REMARK SMILES IDX 35 46 54 47 36 48 39 49 53 50 72 51 37 52 38 53 52 55 73 56
REMARK SMILES IDX 40 57 24 58 25 59 33 60 26 61 27 62 31 63 34 64 28 65 29 66
REMARK SMILES IDX 32 67 30 68 56 69 57 70 65 71 58 72 59 73 63 74 66 75 60 76
REMARK SMILES IDX 61 77 64 78 62 79 41 80 42 81 50 82 43 83 44 84 48 85 51 86
REMARK SMILES IDX 45 87 46 88 49 89 47 90
REMARK H PARENT 79 15 71 43 39 54
REMARK Flexibility Score: inf
ROOT
ATOM      1  C   UNL A   1      33.371  35.114  28.769  1.00  0.00     0.275 C 
ENDROOT
BRANCH   1   2
ATOM      2  O   UNL A   1      33.643  33.840  29.371  1.00  0.00    -0.456 OA
BRANCH   2   3
ATOM      3  C   UNL A   1      34.859  33.275  29.129  1.00  0.00     0.374 C 
ATOM      4  O   UNL A   1      35.937  33.751  29.485  1.00  0.00    -0.242 OA
BRANCH   3   5
ATOM      5  C   UNL A   1      34.652  31.974  28.540  1.00  0.00     0.212 A 
ATOM      6  C   UNL A   1      33.593  30.457  27.335  1.00  0.00     0.162 A 
ATOM      7  C   UNL A   1      34.913  30.055  27.426  1.00  0.00     0.053 A 
ATOM      8  O   UNL A   1      33.432  31.645  27.995  1.00  0.00    -0.448 OA
ATOM      9  C   UNL A   1      35.558  30.962  28.282  1.00  0.00     0.059 A 
BRANCH   6  10
ATOM     10  C   UNL A   1      32.383  29.828  26.663  1.00  0.00     0.248 C 
ATOM     11  C   UNL A   1      31.488  30.956  26.107  1.00  0.00     0.084 C 
BRANCH  10  12
ATOM     12  N   UNL A   1      32.802  28.738  25.734  1.00  0.00    -0.319 N 
ATOM     13  C   UNL A   1      32.417  28.997  24.331  1.00  0.00     0.300 C 
ATOM     14  C   UNL A   1      32.187  27.396  26.019  1.00  0.00     0.300 C 
ATOM     15  H   UNL A   1      33.812  28.724  25.881  1.00  0.00     0.349 HD
ATOM     16  C   UNL A   1      31.095  28.342  24.168  1.00  0.00     0.015 A 
ATOM     17  C   UNL A   1      31.067  27.244  25.022  1.00  0.00     0.015 A 
ATOM     18  C   UNL A   1      30.026  28.671  23.361  1.00  0.00     0.010 A 
ATOM     19  C   UNL A   1      30.091  26.281  24.878  1.00  0.00     0.010 A 
ATOM     20  C   UNL A   1      28.969  27.769  23.299  1.00  0.00     0.001 A 
ATOM     21  C   UNL A   1      29.039  26.547  23.990  1.00  0.00     0.001 A 
ENDBRANCH  10  12
ENDBRANCH   6  10
ENDBRANCH   3   5
ENDBRANCH   2   3
ENDBRANCH   1   2
BRANCH   1  22
ATOM     22  C   UNL A   1      32.911  36.098  29.848  1.00  0.00     0.275 C 
BRANCH  22  23
ATOM     23  O   UNL A   1      32.377  35.396  30.990  1.00  0.00    -0.458 OA
BRANCH  23  24
ATOM     24  C   UNL A   1      32.771  35.860  32.204  1.00  0.00     0.338 C 
ATOM     25  O   UNL A   1      32.225  36.694  32.888  1.00  0.00    -0.246 OA
BRANCH  24  26
ATOM     26  C   UNL A   1      33.948  35.090  32.651  1.00  0.00     0.060 A 
ATOM     27  C   UNL A   1      35.211  35.663  32.494  1.00  0.00     0.016 A 
ATOM     28  C   UNL A   1      33.821  33.797  33.159  1.00  0.00     0.016 A 
ATOM     29  C   UNL A   1      36.356  34.956  32.846  1.00  0.00     0.010 A 
ATOM     30  C   UNL A   1      34.972  33.085  33.518  1.00  0.00     0.010 A 
ATOM     31  C   UNL A   1      36.246  33.659  33.359  1.00  0.00    -0.014 A 
BRANCH  31  32
ATOM     32  C   UNL A   1      37.474  32.899  33.694  1.00  0.00     0.031 A 
ATOM     33  C   UNL A   1      38.185  33.155  34.990  1.00  0.00     0.074 A 
ATOM     34  C   UNL A   1      37.930  31.959  32.846  1.00  0.00     0.049 A 
ATOM     35  N   UNL A   1      39.307  32.648  35.435  1.00  0.00    -0.248 NA
ATOM     36  C   UNL A   1      37.548  34.109  35.910  1.00  0.00     0.031 C 
ATOM     37  C   UNL A   1      37.296  31.586  31.582  1.00  0.00     0.029 A 
ATOM     38  N   UNL A   1      39.035  31.148  32.920  1.00  0.00    -0.354 N 
ATOM     39  C   UNL A   1      39.520  33.233  36.676  1.00  0.00     0.074 A 
ATOM     40  C   UNL A   1      38.421  34.147  36.906  1.00  0.00     0.031 C 
ATOM     41  C   UNL A   1      38.021  30.619  30.998  1.00  0.00     0.029 A 
ATOM     42  C   UNL A   1      39.195  30.340  31.821  1.00  0.00     0.049 A 
ATOM     43  H   UNL A   1      39.653  31.146  33.686  1.00  0.00     0.167 HD
ATOM     44  C   UNL A   1      40.539  33.021  37.543  1.00  0.00     0.037 A 
ATOM     45  C   UNL A   1      40.192  29.493  31.502  1.00  0.00     0.037 A 
ATOM     46  C   UNL A   1      41.622  32.099  37.313  1.00  0.00     0.049 A 
ATOM     47  C   UNL A   1      41.348  29.328  32.451  1.00  0.00     0.074 A 
ATOM     48  C   UNL A   1      42.692  31.800  38.138  1.00  0.00     0.029 A 
ATOM     49  N   UNL A   1      41.774  31.329  36.169  1.00  0.00    -0.354 N 
ATOM     50  N   UNL A   1      41.543  29.884  33.623  1.00  0.00    -0.248 NA
ATOM     51  C   UNL A   1      42.427  28.424  32.030  1.00  0.00     0.031 C 
ATOM     52  C   UNL A   1      43.516  30.886  37.473  1.00  0.00     0.029 A 
ATOM     53  C   UNL A   1      42.935  30.576  36.255  1.00  0.00     0.049 A 
ATOM     54  H   UNL A   1      41.150  31.318  35.407  1.00  0.00     0.167 HD
ATOM     55  C   UNL A   1      42.753  29.385  34.086  1.00  0.00     0.074 A 
ATOM     56  C   UNL A   1      43.238  28.465  33.078  1.00  0.00     0.031 C 
ATOM     57  C   UNL A   1      43.404  29.666  35.241  1.00  0.00     0.037 A 
BRANCH  44  58
ATOM     58  C   UNL A   1      40.550  33.824  38.810  1.00  0.00     0.064 A 
ATOM     59  C   UNL A   1      41.263  35.028  38.917  1.00  0.00     0.173 A 
ATOM     60  C   UNL A   1      39.806  33.401  39.922  1.00  0.00     0.173 A 
ATOM     61  F   UNL A   1      42.000  35.470  37.888  1.00  0.00    -0.203 F 
ATOM     62  C   UNL A   1      41.251  35.764  40.100  1.00  0.00     0.198 A 
ATOM     63  C   UNL A   1      39.773  34.152  41.092  1.00  0.00     0.198 A 
ATOM     64  F   UNL A   1      39.103  32.259  39.869  1.00  0.00    -0.203 F 
ATOM     65  F   UNL A   1      41.974  36.888  40.197  1.00  0.00    -0.200 F 
ATOM     66  C   UNL A   1      40.501  35.330  41.184  1.00  0.00     0.200 A 
ATOM     67  F   UNL A   1      39.040  33.737  42.134  1.00  0.00    -0.200 F 
ATOM     68  F   UNL A   1      40.485  36.042  42.319  1.00  0.00    -0.200 F 
ENDBRANCH  44  58
BRANCH  45  69
ATOM     69  C   UNL A   1      40.155  28.756  30.212  1.00  0.00     0.064 A 
ATOM     70  C   UNL A   1      39.520  27.512  30.105  1.00  0.00     0.173 A 
ATOM     71  C   UNL A   1      40.763  29.280  29.060  1.00  0.00     0.173 A 
ATOM     72  F   UNL A   1      38.950  26.956  31.185  1.00  0.00    -0.203 F 
ATOM     73  C   UNL A   1      39.507  26.811  28.900  1.00  0.00     0.198 A 
ATOM     74  C   UNL A   1      40.723  28.592  27.849  1.00  0.00     0.198 A 
ATOM     75  F   UNL A   1      41.387  30.465  29.110  1.00  0.00    -0.203 F 
ATOM     76  F   UNL A   1      38.934  25.602  28.838  1.00  0.00    -0.200 F 
ATOM     77  C   UNL A   1      40.102  27.356  27.772  1.00  0.00     0.200 A 
ATOM     78  F   UNL A   1      41.290  29.127  26.759  1.00  0.00    -0.200 F 
ATOM     79  F   UNL A   1      40.086  26.683  26.613  1.00  0.00    -0.200 F 
ENDBRANCH  45  69
BRANCH  57  80
ATOM     80  C   UNL A   1      44.701  28.952  35.488  1.00  0.00     0.064 A 
ATOM     81  C   UNL A   1      45.930  29.502  35.090  1.00  0.00     0.173 A 
ATOM     82  C   UNL A   1      44.719  27.719  36.157  1.00  0.00     0.173 A 
ATOM     83  F   UNL A   1      45.964  30.670  34.432  1.00  0.00    -0.203 F 
ATOM     84  C   UNL A   1      47.125  28.832  35.334  1.00  0.00     0.198 A 
ATOM     85  C   UNL A   1      45.920  27.066  36.425  1.00  0.00     0.198 A 
ATOM     86  F   UNL A   1      43.573  27.153  36.563  1.00  0.00    -0.203 F 
ATOM     87  F   UNL A   1      48.283  29.354  34.903  1.00  0.00    -0.200 F 
ATOM     88  C   UNL A   1      47.120  27.619  36.006  1.00  0.00     0.200 A 
ATOM     89  F   UNL A   1      45.913  25.900  37.086  1.00  0.00    -0.200 F 
ATOM     90  F   UNL A   1      48.273  26.979  36.244  1.00  0.00    -0.200 F 
ENDBRANCH  57  80
ENDBRANCH  31  32
ENDBRANCH  24  26
ENDBRANCH  23  24
ENDBRANCH  22  23
ENDBRANCH   1  22
TORSDOF 13
ENDMDL
MODEL 2
REMARK VINA RESULT:     -11.7      7.831     13.011
REMARK SMILES C[C@H](c1ccc(C(=O)OCCOC(=O)c2ccc(-c3c4nc(c(-c5c(F)c(F)c(F)c(F)c5F)c5ccc([nH]5)c(-c5c(F)c(F)c(F)c(F)c5F)c5nc(c(-c6c(F)c(F)c(F)c(F)c6F)c6ccc3[nH]6)C=C5)C=C4)cc2)o1)[NH+]1Cc2ccccc2C1
REMARK SMILES IDX 10 1 9 2 7 3 8 4 6 5 3 6 4 7 78 8 5 9 2 10 1 11 79 12 80 13
REMARK SMILES IDX 87 14 81 16 86 17 82 18 85 19 83 20 84 21 11 22 12 23 13 24
REMARK SMILES IDX 14 25 15 26 16 27 77 28 17 29 76 30 18 31 19 32 20 33 70 34
REMARK SMILES IDX 21 35 75 36 69 37 71 38 22 39 74 40 68 41 67 42 23 44 55 45
REMARK SMILES IDX 35 46 54 47 36 48 39 49 53 50 72 51 37 52 38 53 52 55 73 56
REMARK SMILES IDX 40 57 24 58 25 59 33 60 26 61 27 62 31 63 34 64 28 65 29 66
REMARK SMILES IDX 32 67 30 68 56 69 57 70 65 71 58 72 59 73 63 74 66 75 60 76
REMARK SMILES IDX 61 77 64 78 62 79 41 80 42 81 50 82 43 83 44 84 48 85 51 86
REMARK SMILES IDX 45 87 46 88 49 89 47 90
REMARK H PARENT 79 15 71 43 39 54
REMARK Flexibility Score: inf
ROOT
ATOM      1  C   UNL A   1      41.924  19.255  26.375  1.00  0.00     0.275 C 
ENDROOT
BRANCH   1   2
ATOM      2  O   UNL A   1      41.824  20.628  25.970  1.00  0.00    -0.456 OA
BRANCH   2   3
ATOM      3  C   UNL A   1      41.464  21.540  26.916  1.00  0.00     0.374 C 
ATOM      4  O   UNL A   1      42.157  21.859  27.882  1.00  0.00    -0.242 OA
BRANCH   3   5
ATOM      5  C   UNL A   1      40.231  22.166  26.505  1.00  0.00     0.212 A 
ATOM      6  C   UNL A   1      38.156  22.220  25.751  1.00  0.00     0.162 A 
ATOM      7  C   UNL A   1      38.375  23.408  26.425  1.00  0.00     0.053 A 
ATOM      8  O   UNL A   1      39.282  21.445  25.816  1.00  0.00    -0.448 OA
ATOM      9  C   UNL A   1      39.725  23.417  26.809  1.00  0.00     0.059 A 
BRANCH   6  10
ATOM     10  C   UNL A   1      36.947  21.685  25.002  1.00  0.00     0.248 C 
ATOM     11  C   UNL A   1      37.013  20.142  25.001  1.00  0.00     0.084 C 
BRANCH  10  12
ATOM     12  N   UNL A   1      35.694  22.336  25.487  1.00  0.00    -0.319 N 
ATOM     13  C   UNL A   1      34.659  21.363  25.893  1.00  0.00     0.300 C 
ATOM     14  C   UNL A   1      34.989  23.184  24.466  1.00  0.00     0.300 C 
ATOM     15  H   UNL A   1      36.047  22.899  26.261  1.00  0.00     0.349 HD
ATOM     16  C   UNL A   1      33.831  21.153  24.679  1.00  0.00     0.015 A 
ATOM     17  C   UNL A   1      33.853  22.339  23.951  1.00  0.00     0.015 A 
ATOM     18  C   UNL A   1      33.133  20.043  24.252  1.00  0.00     0.010 A 
ATOM     19  C   UNL A   1      32.945  22.541  22.934  1.00  0.00     0.010 A 
ATOM     20  C   UNL A   1      32.306  20.194  23.144  1.00  0.00     0.001 A 
ATOM     21  C   UNL A   1      32.152  21.455  22.541  1.00  0.00     0.001 A 
ENDBRANCH  10  12
ENDBRANCH   6  10
ENDBRANCH   3   5
ENDBRANCH   2   3
ENDBRANCH   1   2
BRANCH   1  22
ATOM     22  C   UNL A   1      43.176  18.632  25.751  1.00  0.00     0.275 C 
BRANCH  22  23
ATOM     23  O   UNL A   1      43.446  19.206  24.455  1.00  0.00    -0.458 OA
BRANCH  23  24
ATOM     24  C   UNL A   1      44.743  19.521  24.209  1.00  0.00     0.338 C 
ATOM     25  O   UNL A   1      45.586  18.827  23.691  1.00  0.00    -0.246 OA
BRANCH  24  26
ATOM     26  C   UNL A   1      44.969  20.934  24.572  1.00  0.00     0.060 A 
ATOM     27  C   UNL A   1      45.584  21.213  25.793  1.00  0.00     0.016 A 
ATOM     28  C   UNL A   1      44.528  21.974  23.753  1.00  0.00     0.016 A 
ATOM     29  C   UNL A   1      45.767  22.529  26.207  1.00  0.00     0.010 A 
ATOM     30  C   UNL A   1      44.715  23.299  24.165  1.00  0.00     0.010 A 
ATOM     31  C   UNL A   1      45.332  23.583  25.397  1.00  0.00    -0.014 A 
BRANCH  31  32
ATOM     32  C   UNL A   1      45.496  24.980  25.866  1.00  0.00     0.031 A 
ATOM     33  C   UNL A   1      46.830  25.657  25.752  1.00  0.00     0.074 A 
ATOM     34  C   UNL A   1      44.439  25.647  26.363  1.00  0.00     0.049 A 
ATOM     35  N   UNL A   1      47.196  26.845  26.165  1.00  0.00    -0.248 NA
ATOM     36  C   UNL A   1      47.896  24.898  25.082  1.00  0.00     0.031 C 
ATOM     37  C   UNL A   1      43.083  25.112  26.476  1.00  0.00     0.029 A 
ATOM     38  N   UNL A   1      44.341  26.919  26.870  1.00  0.00    -0.354 N 
ATOM     39  C   UNL A   1      48.535  26.967  25.823  1.00  0.00     0.074 A 
ATOM     40  C   UNL A   1      48.925  25.728  25.185  1.00  0.00     0.031 C 
ATOM     41  C   UNL A   1      42.286  26.048  27.017  1.00  0.00     0.029 A 
ATOM     42  C   UNL A   1      43.086  27.228  27.334  1.00  0.00     0.049 A 
ATOM     43  H   UNL A   1      45.097  27.549  26.897  1.00  0.00     0.167 HD
ATOM     44  C   UNL A   1      49.361  28.023  26.023  1.00  0.00     0.037 A 
ATOM     45  C   UNL A   1      42.639  28.328  27.969  1.00  0.00     0.037 A 
ATOM     46  C   UNL A   1      48.963  29.259  26.646  1.00  0.00     0.049 A 
ATOM     47  C   UNL A   1      43.596  29.459  28.240  1.00  0.00     0.074 A 
ATOM     48  C   UNL A   1      49.722  30.393  26.877  1.00  0.00     0.029 A 
ATOM     49  N   UNL A   1      47.694  29.520  27.142  1.00  0.00    -0.354 N 
ATOM     50  N   UNL A   1      44.862  29.568  27.914  1.00  0.00    -0.248 NA
ATOM     51  C   UNL A   1      43.064  30.615  28.975  1.00  0.00     0.031 C 
ATOM     52  C   UNL A   1      48.926  31.322  27.555  1.00  0.00     0.029 A 
ATOM     53  C   UNL A   1      47.657  30.787  27.704  1.00  0.00     0.049 A 
ATOM     54  H   UNL A   1      46.933  28.898  27.103  1.00  0.00     0.167 HD
ATOM     55  C   UNL A   1      45.272  30.808  28.385  1.00  0.00     0.074 A 
ATOM     56  C   UNL A   1      44.115  31.423  29.003  1.00  0.00     0.031 C 
ATOM     57  C   UNL A   1      46.497  31.384  28.316  1.00  0.00     0.037 A 
BRANCH  44  58
ATOM     58  C   UNL A   1      50.790  27.876  25.589  1.00  0.00     0.064 A 
ATOM     59  C   UNL A   1      51.183  28.066  24.256  1.00  0.00     0.173 A 
ATOM     60  C   UNL A   1      51.787  27.574  26.530  1.00  0.00     0.173 A 
ATOM     61  F   UNL A   1      50.268  28.343  23.315  1.00  0.00    -0.203 F 
ATOM     62  C   UNL A   1      52.517  27.934  23.877  1.00  0.00     0.198 A 
ATOM     63  C   UNL A   1      53.122  27.471  26.153  1.00  0.00     0.198 A 
ATOM     64  F   UNL A   1      51.464  27.387  27.819  1.00  0.00    -0.203 F 
ATOM     65  F   UNL A   1      52.865  28.077  22.590  1.00  0.00    -0.200 F 
ATOM     66  C   UNL A   1      53.486  27.644  24.826  1.00  0.00     0.200 A 
ATOM     67  F   UNL A   1      54.059  27.201  27.073  1.00  0.00    -0.200 F 
ATOM     68  F   UNL A   1      54.770  27.524  24.461  1.00  0.00    -0.200 F 
ENDBRANCH  44  58
BRANCH  45  69
ATOM     69  C   UNL A   1      41.225  28.403  28.418  1.00  0.00     0.064 A 
ATOM     70  C   UNL A   1      40.846  27.968  29.694  1.00  0.00     0.173 A 
ATOM     71  C   UNL A   1      40.222  28.904  27.574  1.00  0.00     0.173 A 
ATOM     72  F   UNL A   1      41.764  27.454  30.527  1.00  0.00    -0.203 F 
ATOM     73  C   UNL A   1      39.515  28.017  30.106  1.00  0.00     0.198 A 
ATOM     74  C   UNL A   1      38.896  28.980  27.997  1.00  0.00     0.198 A 
ATOM     75  F   UNL A   1      40.531  29.328  26.341  1.00  0.00    -0.203 F 
ATOM     76  F   UNL A   1      39.173  27.550  31.315  1.00  0.00    -0.200 F 
ATOM     77  C   UNL A   1      38.543  28.529  29.259  1.00  0.00     0.200 A 
ATOM     78  F   UNL A   1      37.962  29.484  27.180  1.00  0.00    -0.200 F 
ATOM     79  F   UNL A   1      37.264  28.578  29.657  1.00  0.00    -0.200 F 
ENDBRANCH  45  69
BRANCH  57  80
ATOM     80  C   UNL A   1      46.642  32.758  28.902  1.00  0.00     0.064 A 
ATOM     81  C   UNL A   1      47.042  32.950  30.233  1.00  0.00     0.173 A 
ATOM     82  C   UNL A   1      46.411  33.896  28.114  1.00  0.00     0.173 A 
ATOM     83  F   UNL A   1      47.259  31.895  31.031  1.00  0.00    -0.203 F 
ATOM     84  C   UNL A   1      47.181  34.232  30.760  1.00  0.00     0.198 A 
ATOM     85  C   UNL A   1      46.580  35.176  28.636  1.00  0.00     0.198 A 
ATOM     86  F   UNL A   1      46.033  33.767  26.834  1.00  0.00    -0.203 F 
ATOM     87  F   UNL A   1      47.518  34.391  32.048  1.00  0.00    -0.200 F 
ATOM     88  C   UNL A   1      46.957  35.342  29.960  1.00  0.00     0.200 A 
ATOM     89  F   UNL A   1      46.375  36.247  27.858  1.00  0.00    -0.200 F 
ATOM     90  F   UNL A   1      47.097  36.574  30.467  1.00  0.00    -0.200 F 
ENDBRANCH  57  80
ENDBRANCH  31  32
ENDBRANCH  24  26
ENDBRANCH  23  24
ENDBRANCH  22  23
ENDBRANCH   1  22
TORSDOF 13
ENDMDL
MODEL 3
REMARK VINA RESULT:     -11.7      4.031      7.557
REMARK SMILES C[C@H](c1ccc(C(=O)OCCOC(=O)c2ccc(-c3c4nc(c(-c5c(F)c(F)c(F)c(F)c5F)c5ccc([nH]5)c(-c5c(F)c(F)c(F)c(F)c5F)c5nc(c(-c6c(F)c(F)c(F)c(F)c6F)c6ccc3[nH]6)C=C5)C=C4)cc2)o1)[NH+]1Cc2ccccc2C1
REMARK SMILES IDX 10 1 9 2 7 3 8 4 6 5 3 6 4 7 78 8 5 9 2 10 1 11 79 12 80 13
REMARK SMILES IDX 87 14 81 16 86 17 82 18 85 19 83 20 84 21 11 22 12 23 13 24
REMARK SMILES IDX 14 25 15 26 16 27 77 28 17 29 76 30 18 31 19 32 20 33 70 34
REMARK SMILES IDX 21 35 75 36 69 37 71 38 22 39 74 40 68 41 67 42 23 44 55 45
REMARK SMILES IDX 35 46 54 47 36 48 39 49 53 50 72 51 37 52 38 53 52 55 73 56
REMARK SMILES IDX 40 57 24 58 25 59 33 60 26 61 27 62 31 63 34 64 28 65 29 66
REMARK SMILES IDX 32 67 30 68 56 69 57 70 65 71 58 72 59 73 63 74 66 75 60 76
REMARK SMILES IDX 61 77 64 78 62 79 41 80 42 81 50 82 43 83 44 84 48 85 51 86
REMARK SMILES IDX 45 87 46 88 49 89 47 90
REMARK H PARENT 79 15 71 43 39 54
REMARK Flexibility Score: inf
ROOT
ATOM      1  C   UNL A   1      33.881  33.656  28.061  1.00  0.00     0.275 C 
ENDROOT
BRANCH   1   2
ATOM      2  O   UNL A   1      34.479  34.500  29.056  1.00  0.00    -0.456 OA
BRANCH   2   3
ATOM      3  C   UNL A   1      33.725  34.823  30.144  1.00  0.00     0.374 C 
ATOM      4  O   UNL A   1      32.530  35.114  30.108  1.00  0.00    -0.242 OA
BRANCH   3   5
ATOM      5  C   UNL A   1      34.518  34.612  31.331  1.00  0.00     0.212 A 
ATOM      6  C   UNL A   1      36.264  33.908  32.485  1.00  0.00     0.162 A 
ATOM      7  C   UNL A   1      35.654  34.899  33.234  1.00  0.00     0.053 A 
ATOM      8  O   UNL A   1      35.586  33.744  31.308  1.00  0.00    -0.448 OA
ATOM      9  C   UNL A   1      34.486  35.268  32.548  1.00  0.00     0.059 A 
BRANCH   6  10
ATOM     10  C   UNL A   1      37.480  33.036  32.752  1.00  0.00     0.248 C 
ATOM     11  C   UNL A   1      38.648  33.944  33.194  1.00  0.00     0.084 C 
BRANCH  10  12
ATOM     12  N   UNL A   1      37.119  31.878  33.623  1.00  0.00    -0.319 N 
ATOM     13  C   UNL A   1      38.187  31.523  34.581  1.00  0.00     0.300 C 
ATOM     14  C   UNL A   1      36.873  30.591  32.888  1.00  0.00     0.300 C 
ATOM     15  H   UNL A   1      36.270  32.221  34.072  1.00  0.00     0.349 HD
ATOM     16  C   UNL A   1      38.993  30.485  33.891  1.00  0.00     0.015 A 
ATOM     17  C   UNL A   1      38.134  29.783  33.051  1.00  0.00     0.015 A 
ATOM     18  C   UNL A   1      40.336  30.185  33.984  1.00  0.00     0.010 A 
ATOM     19  C   UNL A   1      38.531  28.580  32.507  1.00  0.00     0.010 A 
ATOM     20  C   UNL A   1      40.782  29.040  33.333  1.00  0.00     0.001 A 
ATOM     21  C   UNL A   1      39.871  28.202  32.667  1.00  0.00     0.001 A 
ENDBRANCH  10  12
ENDBRANCH   6  10
ENDBRANCH   3   5
ENDBRANCH   2   3
ENDBRANCH   1   2
BRANCH   1  22
ATOM     22  C   UNL A   1      34.021  32.192  28.486  1.00  0.00     0.275 C 
BRANCH  22  23
ATOM     23  O   UNL A   1      34.073  31.324  27.334  1.00  0.00    -0.458 OA
BRANCH  23  24
ATOM     24  C   UNL A   1      34.279  30.008  27.597  1.00  0.00     0.338 C 
ATOM     25  O   UNL A   1      33.501  29.095  27.446  1.00  0.00    -0.246 OA
BRANCH  24  26
ATOM     26  C   UNL A   1      35.685  29.815  28.003  1.00  0.00     0.060 A 
ATOM     27  C   UNL A   1      36.685  30.074  27.064  1.00  0.00     0.016 A 
ATOM     28  C   UNL A   1      36.016  29.328  29.267  1.00  0.00     0.016 A 
ATOM     29  C   UNL A   1      38.022  29.854  27.378  1.00  0.00     0.010 A 
ATOM     30  C   UNL A   1      37.361  29.109  29.587  1.00  0.00     0.010 A 
ATOM     31  C   UNL A   1      38.371  29.367  28.642  1.00  0.00    -0.014 A 
BRANCH  31  32
ATOM     32  C   UNL A   1      39.796  29.097  28.953  1.00  0.00     0.031 A 
ATOM     33  C   UNL A   1      40.603  30.111  29.709  1.00  0.00     0.074 A 
ATOM     34  C   UNL A   1      40.352  27.929  28.582  1.00  0.00     0.049 A 
ATOM     35  N   UNL A   1      41.876  30.095  30.018  1.00  0.00    -0.248 NA
ATOM     36  C   UNL A   1      39.883  31.302  30.183  1.00  0.00     0.031 C 
ATOM     37  C   UNL A   1      39.654  26.847  27.889  1.00  0.00     0.029 A 
ATOM     38  N   UNL A   1      41.632  27.459  28.735  1.00  0.00    -0.354 N 
ATOM     39  C   UNL A   1      42.112  31.278  30.704  1.00  0.00     0.074 A 
ATOM     40  C   UNL A   1      40.857  31.998  30.752  1.00  0.00     0.031 C 
ATOM     41  C   UNL A   1      40.514  25.838  27.676  1.00  0.00     0.029 A 
ATOM     42  C   UNL A   1      41.832  26.222  28.173  1.00  0.00     0.049 A 
ATOM     43  H   UNL A   1      42.339  27.961  29.203  1.00  0.00     0.167 HD
ATOM     44  C   UNL A   1      43.273  31.718  31.248  1.00  0.00     0.037 A 
ATOM     45  C   UNL A   1      42.959  25.496  28.047  1.00  0.00     0.037 A 
ATOM     46  C   UNL A   1      44.515  30.990  31.209  1.00  0.00     0.049 A 
ATOM     47  C   UNL A   1      44.249  26.040  28.598  1.00  0.00     0.074 A 
ATOM     48  C   UNL A   1      45.740  31.343  31.746  1.00  0.00     0.029 A 
ATOM     49  N   UNL A   1      44.689  29.759  30.593  1.00  0.00    -0.354 N 
ATOM     50  N   UNL A   1      44.466  27.159  29.246  1.00  0.00    -0.248 NA
ATOM     51  C   UNL A   1      45.454  25.223  28.394  1.00  0.00     0.031 C 
ATOM     52  C   UNL A   1      46.667  30.350  31.414  1.00  0.00     0.029 A 
ATOM     53  C   UNL A   1      46.010  29.353  30.713  1.00  0.00     0.049 A 
ATOM     54  H   UNL A   1      43.981  29.249  30.137  1.00  0.00     0.167 HD
ATOM     55  C   UNL A   1      45.822  27.173  29.543  1.00  0.00     0.074 A 
ATOM     56  C   UNL A   1      46.375  25.940  29.021  1.00  0.00     0.031 C 
ATOM     57  C   UNL A   1      46.545  28.123  30.186  1.00  0.00     0.037 A 
BRANCH  44  58
ATOM     58  C   UNL A   1      43.262  33.067  31.906  1.00  0.00     0.064 A 
ATOM     59  C   UNL A   1      43.412  34.251  31.169  1.00  0.00     0.173 A 
ATOM     60  C   UNL A   1      43.064  33.176  33.290  1.00  0.00     0.173 A 
ATOM     61  F   UNL A   1      43.617  34.201  29.844  1.00  0.00    -0.203 F 
ATOM     62  C   UNL A   1      43.388  35.494  31.798  1.00  0.00     0.198 A 
ATOM     63  C   UNL A   1      43.013  34.420  33.912  1.00  0.00     0.198 A 
ATOM     64  F   UNL A   1      42.911  32.074  34.041  1.00  0.00    -0.203 F 
ATOM     65  F   UNL A   1      43.577  36.610  31.081  1.00  0.00    -0.200 F 
ATOM     66  C   UNL A   1      43.182  35.578  33.167  1.00  0.00     0.200 A 
ATOM     67  F   UNL A   1      42.803  34.500  35.234  1.00  0.00    -0.200 F 
ATOM     68  F   UNL A   1      43.154  36.774  33.770  1.00  0.00    -0.200 F 
ENDBRANCH  44  58
BRANCH  45  69
ATOM     69  C   UNL A   1      42.922  24.186  27.345  1.00  0.00     0.064 A 
ATOM     70  C   UNL A   1      43.222  24.087  25.981  1.00  0.00     0.173 A 
ATOM     71  C   UNL A   1      42.577  23.008  28.025  1.00  0.00     0.173 A 
ATOM     72  F   UNL A   1      43.528  25.190  25.280  1.00  0.00    -0.203 F 
ATOM     73  C   UNL A   1      43.164  22.862  25.318  1.00  0.00     0.198 A 
ATOM     74  C   UNL A   1      42.549  21.780  27.369  1.00  0.00     0.198 A 
ATOM     75  F   UNL A   1      42.277  23.050  29.331  1.00  0.00    -0.203 F 
ATOM     76  F   UNL A   1      43.409  22.803  24.002  1.00  0.00    -0.200 F 
ATOM     77  C   UNL A   1      42.835  21.709  26.015  1.00  0.00     0.200 A 
ATOM     78  F   UNL A   1      42.240  20.666  28.048  1.00  0.00    -0.200 F 
ATOM     79  F   UNL A   1      42.783  20.531  25.377  1.00  0.00    -0.200 F 
ENDBRANCH  45  69
BRANCH  57  80
ATOM     80  C   UNL A   1      48.008  27.855  30.382  1.00  0.00     0.064 A 
ATOM     81  C   UNL A   1      48.968  28.309  29.465  1.00  0.00     0.173 A 
ATOM     82  C   UNL A   1      48.459  27.163  31.517  1.00  0.00     0.173 A 
ATOM     83  F   UNL A   1      48.586  28.959  28.356  1.00  0.00    -0.203 F 
ATOM     84  C   UNL A   1      50.323  28.060  29.666  1.00  0.00     0.198 A 
ATOM     85  C   UNL A   1      49.818  26.942  31.729  1.00  0.00     0.198 A 
ATOM     86  F   UNL A   1      47.583  26.713  32.428  1.00  0.00    -0.203 F 
ATOM     87  F   UNL A   1      51.218  28.462  28.752  1.00  0.00    -0.200 F 
ATOM     88  C   UNL A   1      50.747  27.384  30.799  1.00  0.00     0.200 A 
ATOM     89  F   UNL A   1      50.226  26.299  32.832  1.00  0.00    -0.200 F 
ATOM     90  F   UNL A   1      52.052  27.150  30.993  1.00  0.00    -0.200 F 
ENDBRANCH  57  80
ENDBRANCH  31  32
ENDBRANCH  24  26
ENDBRANCH  23  24
ENDBRANCH  22  23
ENDBRANCH   1  22
TORSDOF 13
ENDMDL
