MODEL 1
REMARK VINA RESULT:     -10.8      0.000      0.000
REMARK SMILES C[NH2+][C@@]1(C(=O)OCCOC(=O)c2ccc(-c3c4nc(c(-c5c(F)c(F)c(F)c(F)c5F)c5ccc([nH]5)c(-c5c(F)c(F)c(F)c(F)c5F)c5nc(c(-c6c(F)c(F)c(F)c(F)c6F)c6ccc3[nH]6)C=C5)C=C4)cc2)CC[C@H]([NH+]2CC[NH+](C)CC2)C1
REMARK SMILES IDX 8 1 7 2 6 3 4 4 5 5 3 6 75 7 85 8 76 9 77 10 2 11 1 12 78 15
REMARK SMILES IDX 79 16 84 17 80 19 83 20 81 21 82 22 9 24 10 25 11 26 12 27
REMARK SMILES IDX 13 28 74 29 14 30 73 31 15 32 16 33 17 34 67 35 18 36 72 37
REMARK SMILES IDX 66 38 68 39 19 40 71 41 65 42 64 43 20 45 52 46 32 47 51 48
REMARK SMILES IDX 33 49 36 50 50 51 69 52 34 53 35 54 49 56 70 57 37 58 21 59
REMARK SMILES IDX 22 60 30 61 23 62 24 63 28 64 31 65 25 66 26 67 29 68 27 69
REMARK SMILES IDX 53 70 54 71 62 72 55 73 56 74 60 75 63 76 57 77 58 78 61 79
REMARK SMILES IDX 59 80 38 81 39 82 47 83 40 84 41 85 45 86 48 87 42 88 43 89
REMARK SMILES IDX 46 90 44 91
REMARK H PARENT 2 13 2 14 78 18 81 23 68 44 36 55
REMARK Flexibility Score: inf
ROOT
ATOM      1  C   UNL A   1      33.769  33.109  28.196  1.00  0.00     0.275 C 
ENDROOT
BRANCH   1   2
ATOM      2  C   UNL A   1      33.992  34.379  29.023  1.00  0.00     0.274 C 
BRANCH   2   3
ATOM      3  O   UNL A   1      32.854  34.575  29.884  1.00  0.00    -0.457 OA
BRANCH   3   4
ATOM      4  C   UNL A   1      32.797  35.737  30.585  1.00  0.00     0.368 C 
ATOM      5  O   UNL A   1      32.761  36.844  30.058  1.00  0.00    -0.245 OA
BRANCH   4   6
ATOM      6  C   UNL A   1      32.718  35.486  32.125  1.00  0.00     0.200 C 
ATOM      7  C   UNL A   1      33.309  36.657  32.925  1.00  0.00     0.087 C 
ATOM      8  C   UNL A   1      33.611  34.307  32.579  1.00  0.00     0.146 C 
ATOM      9  C   UNL A   1      34.811  36.419  32.918  1.00  0.00     0.072 C 
ATOM     10  C   UNL A   1      35.010  34.896  32.887  1.00  0.00     0.191 C 
BRANCH   6  11
ATOM     11  N   UNL A   1      31.308  35.234  32.535  1.00  0.00    -0.334 N 
ATOM     12  C   UNL A   1      30.681  36.341  33.248  1.00  0.00     0.331 C 
ATOM     13  H   UNL A   1      30.760  35.044  31.697  1.00  0.00     0.347 HD
ATOM     14  H   UNL A   1      31.330  34.445  33.182  1.00  0.00     0.347 HD
ENDBRANCH   6  11
BRANCH  10  15
ATOM     15  N   UNL A   1      36.157  34.333  32.157  1.00  0.00    -0.323 N 
ATOM     16  C   UNL A   1      36.071  32.887  31.884  1.00  0.00     0.324 C 
ATOM     17  C   UNL A   1      37.509  34.611  32.656  1.00  0.00     0.324 C 
ATOM     18  H   UNL A   1      36.047  34.874  31.300  1.00  0.00     0.348 HD
ATOM     19  C   UNL A   1      36.534  31.948  33.030  1.00  0.00     0.324 C 
ATOM     20  C   UNL A   1      37.900  33.806  33.907  1.00  0.00     0.324 C 
ATOM     21  N   UNL A   1      37.756  32.349  33.757  1.00  0.00    -0.328 N 
ATOM     22  C   UNL A   1      37.803  31.706  35.073  1.00  0.00     0.333 C 
ATOM     23  H   UNL A   1      38.540  32.035  33.185  1.00  0.00     0.348 HD
ENDBRANCH  10  15
ENDBRANCH   4   6
ENDBRANCH   3   4
ENDBRANCH   2   3
ENDBRANCH   1   2
BRANCH   1  24
ATOM     24  O   UNL A   1      34.398  32.009  28.874  1.00  0.00    -0.458 OA
BRANCH  24  25
ATOM     25  C   UNL A   1      34.597  30.912  28.097  1.00  0.00     0.338 C 
ATOM     26  O   UNL A   1      33.920  30.532  27.167  1.00  0.00    -0.246 OA
BRANCH  25  27
ATOM     27  C   UNL A   1      35.939  30.389  28.419  1.00  0.00     0.060 A 
ATOM     28  C   UNL A   1      36.125  29.815  29.680  1.00  0.00     0.016 A 
ATOM     29  C   UNL A   1      36.978  30.406  27.487  1.00  0.00     0.016 A 
ATOM     30  C   UNL A   1      37.344  29.231  30.011  1.00  0.00     0.010 A 
ATOM     31  C   UNL A   1      38.211  29.850  27.828  1.00  0.00     0.010 A 
ATOM     32  C   UNL A   1      38.398  29.267  29.092  1.00  0.00    -0.014 A 
BRANCH  32  33
ATOM     33  C   UNL A   1      39.751  28.839  29.502  1.00  0.00     0.031 A 
ATOM     34  C   UNL A   1      40.552  29.763  30.369  1.00  0.00     0.074 A 
ATOM     35  C   UNL A   1      40.259  27.666  29.088  1.00  0.00     0.049 A 
ATOM     36  N   UNL A   1      41.792  29.663  30.766  1.00  0.00    -0.248 NA
ATOM     37  C   UNL A   1      39.853  30.965  30.853  1.00  0.00     0.031 C 
ATOM     38  C   UNL A   1      39.546  26.672  28.288  1.00  0.00     0.029 A 
ATOM     39  N   UNL A   1      41.506  27.125  29.269  1.00  0.00    -0.354 N 
ATOM     40  C   UNL A   1      42.025  30.787  31.546  1.00  0.00     0.074 A 
ATOM     41  C   UNL A   1      40.805  31.566  31.550  1.00  0.00     0.031 C 
ATOM     42  C   UNL A   1      40.379  25.650  28.022  1.00  0.00     0.029 A 
ATOM     43  C   UNL A   1      41.690  25.939  28.601  1.00  0.00     0.049 A 
ATOM     44  H   UNL A   1      42.202  27.547  29.823  1.00  0.00     0.167 HD
ATOM     45  C   UNL A   1      43.158  31.138  32.197  1.00  0.00     0.037 A 
ATOM     46  C   UNL A   1      42.804  25.197  28.453  1.00  0.00     0.037 A 
ATOM     47  C   UNL A   1      44.374  30.371  32.158  1.00  0.00     0.049 A 
ATOM     48  C   UNL A   1      44.083  25.660  29.107  1.00  0.00     0.074 A 
ATOM     49  C   UNL A   1      45.585  30.641  32.769  1.00  0.00     0.029 A 
ATOM     50  N   UNL A   1      44.533  29.188  31.452  1.00  0.00    -0.354 N 
ATOM     51  N   UNL A   1      44.298  26.716  29.856  1.00  0.00    -0.248 NA
ATOM     52  C   UNL A   1      45.276  24.829  28.892  1.00  0.00     0.031 C 
ATOM     53  C   UNL A   1      46.493  29.647  32.389  1.00  0.00     0.029 A 
ATOM     54  C   UNL A   1      45.832  28.728  31.590  1.00  0.00     0.049 A 
ATOM     55  H   UNL A   1      43.828  28.742  30.929  1.00  0.00     0.167 HD
ATOM     56  C   UNL A   1      45.636  26.660  30.227  1.00  0.00     0.074 A 
ATOM     57  C   UNL A   1      46.182  25.460  29.627  1.00  0.00     0.031 C 
ATOM     58  C   UNL A   1      46.349  27.522  30.992  1.00  0.00     0.037 A 
BRANCH  45  59
ATOM     59  C   UNL A   1      43.137  32.425  32.965  1.00  0.00     0.064 A 
ATOM     60  C   UNL A   1      42.752  32.473  34.313  1.00  0.00     0.173 A 
ATOM     61  C   UNL A   1      43.511  33.626  32.344  1.00  0.00     0.173 A 
ATOM     62  F   UNL A   1      42.365  31.354  34.944  1.00  0.00    -0.203 F 
ATOM     63  C   UNL A   1      42.717  33.681  35.005  1.00  0.00     0.198 A 
ATOM     64  C   UNL A   1      43.502  34.827  33.047  1.00  0.00     0.198 A 
ATOM     65  F   UNL A   1      43.884  33.636  31.057  1.00  0.00    -0.203 F 
ATOM     66  F   UNL A   1      42.299  33.710  36.278  1.00  0.00    -0.200 F 
ATOM     67  C   UNL A   1      43.098  34.856  34.373  1.00  0.00     0.200 A 
ATOM     68  F   UNL A   1      43.878  35.960  32.438  1.00  0.00    -0.200 F 
ATOM     69  F   UNL A   1      43.067  36.017  35.041  1.00  0.00    -0.200 F 
ENDBRANCH  45  59
BRANCH  46  70
ATOM     70  C   UNL A   1      42.775  23.956  27.636  1.00  0.00     0.064 A 
ATOM     71  C   UNL A   1      43.068  23.985  26.266  1.00  0.00     0.173 A 
ATOM     72  C   UNL A   1      42.423  22.720  28.200  1.00  0.00     0.173 A 
ATOM     73  F   UNL A   1      43.382  25.146  25.674  1.00  0.00    -0.203 F 
ATOM     74  C   UNL A   1      42.992  22.831  25.488  1.00  0.00     0.198 A 
ATOM     75  C   UNL A   1      42.376  21.562  27.427  1.00  0.00     0.198 A 
ATOM     76  F   UNL A   1      42.128  22.637  29.506  1.00  0.00    -0.203 F 
ATOM     77  F   UNL A   1      43.229  22.897  24.170  1.00  0.00    -0.200 F 
ATOM     78  C   UNL A   1      42.652  21.619  26.071  1.00  0.00     0.200 A 
ATOM     79  F   UNL A   1      42.056  20.391  27.996  1.00  0.00    -0.200 F 
ATOM     80  F   UNL A   1      42.580  20.511  25.322  1.00  0.00    -0.200 F 
ENDBRANCH  46  70
BRANCH  58  81
ATOM     81  C   UNL A   1      47.784  27.177  31.265  1.00  0.00     0.064 A 
ATOM     82  C   UNL A   1      48.152  26.322  32.315  1.00  0.00     0.173 A 
ATOM     83  C   UNL A   1      48.800  27.668  30.431  1.00  0.00     0.173 A 
ATOM     84  F   UNL A   1      47.219  25.838  33.150  1.00  0.00    -0.203 F 
ATOM     85  C   UNL A   1      49.486  25.991  32.534  1.00  0.00     0.198 A 
ATOM     86  C   UNL A   1      50.130  27.309  30.633  1.00  0.00     0.198 A 
ATOM     87  F   UNL A   1      48.500  28.481  29.408  1.00  0.00    -0.203 F 
ATOM     88  F   UNL A   1      49.819  25.210  33.571  1.00  0.00    -0.200 F 
ATOM     89  C   UNL A   1      50.472  26.478  31.688  1.00  0.00     0.200 A 
ATOM     90  F   UNL A   1      51.079  27.767  29.806  1.00  0.00    -0.200 F 
ATOM     91  F   UNL A   1      51.756  26.148  31.894  1.00  0.00    -0.200 F 
ENDBRANCH  58  81
ENDBRANCH  32  33
ENDBRANCH  25  27
ENDBRANCH  24  25
ENDBRANCH   1  24
TORSDOF 13
ENDMDL
MODEL 2
REMARK VINA RESULT:     -10.7      4.104      9.763
REMARK SMILES C[NH2+][C@@]1(C(=O)OCCOC(=O)c2ccc(-c3c4nc(c(-c5c(F)c(F)c(F)c(F)c5F)c5ccc([nH]5)c(-c5c(F)c(F)c(F)c(F)c5F)c5nc(c(-c6c(F)c(F)c(F)c(F)c6F)c6ccc3[nH]6)C=C5)C=C4)cc2)CC[C@H]([NH+]2CC[NH+](C)CC2)C1
REMARK SMILES IDX 8 1 7 2 6 3 4 4 5 5 3 6 75 7 85 8 76 9 77 10 2 11 1 12 78 15
REMARK SMILES IDX 79 16 84 17 80 19 83 20 81 21 82 22 9 24 10 25 11 26 12 27
REMARK SMILES IDX 13 28 74 29 14 30 73 31 15 32 16 33 17 34 67 35 18 36 72 37
REMARK SMILES IDX 66 38 68 39 19 40 71 41 65 42 64 43 20 45 52 46 32 47 51 48
REMARK SMILES IDX 33 49 36 50 50 51 69 52 34 53 35 54 49 56 70 57 37 58 21 59
REMARK SMILES IDX 22 60 30 61 23 62 24 63 28 64 31 65 25 66 26 67 29 68 27 69
REMARK SMILES IDX 53 70 54 71 62 72 55 73 56 74 60 75 63 76 57 77 58 78 61 79
REMARK SMILES IDX 59 80 38 81 39 82 47 83 40 84 41 85 45 86 48 87 42 88 43 89
REMARK SMILES IDX 46 90 44 91
REMARK H PARENT 2 13 2 14 78 18 81 23 68 44 36 55
REMARK Flexibility Score: inf
ROOT
ATOM      1  C   UNL A   1      31.920  29.916  25.676  1.00  0.00     0.275 C 
ENDROOT
BRANCH   1   2
ATOM      2  C   UNL A   1      31.511  28.556  26.253  1.00  0.00     0.274 C 
BRANCH   2   3
ATOM      3  O   UNL A   1      31.990  27.520  25.375  1.00  0.00    -0.457 OA
BRANCH   3   4
ATOM      4  C   UNL A   1      31.318  27.335  24.208  1.00  0.00     0.368 C 
ATOM      5  O   UNL A   1      30.110  27.507  24.088  1.00  0.00    -0.245 OA
BRANCH   4   6
ATOM      6  C   UNL A   1      32.277  26.944  23.038  1.00  0.00     0.200 C 
ATOM      7  C   UNL A   1      31.665  25.863  22.136  1.00  0.00     0.087 C 
ATOM      8  C   UNL A   1      33.567  26.250  23.538  1.00  0.00     0.146 C 
ATOM      9  C   UNL A   1      31.934  24.550  22.855  1.00  0.00     0.072 C 
ATOM     10  C   UNL A   1      33.261  24.733  23.609  1.00  0.00     0.191 C 
BRANCH   6  11
ATOM     11  N   UNL A   1      32.635  28.150  22.239  1.00  0.00    -0.334 N 
ATOM     12  C   UNL A   1      33.877  28.797  22.648  1.00  0.00     0.331 C 
ATOM     13  H   UNL A   1      32.728  27.870  21.263  1.00  0.00     0.347 HD
ATOM     14  H   UNL A   1      31.889  28.829  22.388  1.00  0.00     0.347 HD
ENDBRANCH   6  11
BRANCH  10  15
ATOM     15  N   UNL A   1      33.451  24.065  24.906  1.00  0.00    -0.323 N 
ATOM     16  C   UNL A   1      34.631  24.512  25.669  1.00  0.00     0.324 C 
ATOM     17  C   UNL A   1      33.424  22.598  24.949  1.00  0.00     0.324 C 
ATOM     18  H   UNL A   1      32.589  24.383  25.348  1.00  0.00     0.348 HD
ATOM     19  C   UNL A   1      35.978  23.838  25.296  1.00  0.00     0.324 C 
ATOM     20  C   UNL A   1      34.697  21.925  24.407  1.00  0.00     0.324 C 
ATOM     21  N   UNL A   1      35.940  22.382  25.049  1.00  0.00    -0.328 N 
ATOM     22  C   UNL A   1      37.095  21.968  24.247  1.00  0.00     0.333 C 
ATOM     23  H   UNL A   1      35.975  21.940  25.967  1.00  0.00     0.348 HD
ENDBRANCH  10  15
ENDBRANCH   4   6
ENDBRANCH   3   4
ENDBRANCH   2   3
ENDBRANCH   1   2
BRANCH   1  24
ATOM     24  O   UNL A   1      33.282  30.177  26.052  1.00  0.00    -0.458 OA
BRANCH  24  25
ATOM     25  C   UNL A   1      33.432  31.202  26.933  1.00  0.00     0.338 C 
ATOM     26  O   UNL A   1      32.613  32.038  27.242  1.00  0.00    -0.246 OA
BRANCH  25  27
ATOM     27  C   UNL A   1      34.702  30.973  27.652  1.00  0.00     0.060 A 
ATOM     28  C   UNL A   1      35.009  29.661  28.020  1.00  0.00     0.016 A 
ATOM     29  C   UNL A   1      35.600  32.010  27.906  1.00  0.00     0.016 A 
ATOM     30  C   UNL A   1      36.228  29.370  28.626  1.00  0.00     0.010 A 
ATOM     31  C   UNL A   1      36.808  31.727  28.541  1.00  0.00     0.010 A 
ATOM     32  C   UNL A   1      37.123  30.408  28.908  1.00  0.00    -0.014 A 
BRANCH  32  33
ATOM     33  C   UNL A   1      38.322  30.148  29.730  1.00  0.00     0.031 A 
ATOM     34  C   UNL A   1      39.355  29.205  29.194  1.00  0.00     0.074 A 
ATOM     35  C   UNL A   1      38.469  30.722  30.936  1.00  0.00     0.049 A 
ATOM     36  N   UNL A   1      40.430  28.735  29.768  1.00  0.00    -0.248 NA
ATOM     37  C   UNL A   1      39.144  28.727  27.817  1.00  0.00     0.031 C 
ATOM     38  C   UNL A   1      37.551  31.694  31.527  1.00  0.00     0.029 A 
ATOM     39  N   UNL A   1      39.440  30.550  31.889  1.00  0.00    -0.354 N 
ATOM     40  C   UNL A   1      41.024  27.907  28.827  1.00  0.00     0.074 A 
ATOM     41  C   UNL A   1      40.180  27.920  27.651  1.00  0.00     0.031 C 
ATOM     42  C   UNL A   1      37.990  32.012  32.759  1.00  0.00     0.029 A 
ATOM     43  C   UNL A   1      39.195  31.238  33.051  1.00  0.00     0.049 A 
ATOM     44  H   UNL A   1      40.236  29.986  31.752  1.00  0.00     0.167 HD
ATOM     45  C   UNL A   1      42.169  27.196  28.938  1.00  0.00     0.037 A 
ATOM     46  C   UNL A   1      39.857  31.213  34.224  1.00  0.00     0.037 A 
ATOM     47  C   UNL A   1      42.982  27.165  30.125  1.00  0.00     0.049 A 
ATOM     48  C   UNL A   1      41.077  30.335  34.357  1.00  0.00     0.074 A 
ATOM     49  C   UNL A   1      44.154  26.467  30.351  1.00  0.00     0.029 A 
ATOM     50  N   UNL A   1      42.691  27.854  31.292  1.00  0.00    -0.354 N 
ATOM     51  N   UNL A   1      41.645  29.563  33.461  1.00  0.00    -0.248 NA
ATOM     52  C   UNL A   1      41.746  30.323  35.665  1.00  0.00     0.031 C 
ATOM     53  C   UNL A   1      44.545  26.694  31.674  1.00  0.00     0.029 A 
ATOM     54  C   UNL A   1      43.649  27.578  32.254  1.00  0.00     0.049 A 
ATOM     55  H   UNL A   1      41.917  28.450  31.420  1.00  0.00     0.167 HD
ATOM     56  C   UNL A   1      42.752  28.999  34.084  1.00  0.00     0.074 A 
ATOM     57  C   UNL A   1      42.781  29.527  35.433  1.00  0.00     0.031 C 
ATOM     58  C   UNL A   1      43.662  28.126  33.588  1.00  0.00     0.037 A 
BRANCH  45  59
ATOM     59  C   UNL A   1      42.578  26.365  27.759  1.00  0.00     0.064 A 
ATOM     60  C   UNL A   1      42.070  25.073  27.556  1.00  0.00     0.173 A 
ATOM     61  C   UNL A   1      43.488  26.870  26.819  1.00  0.00     0.173 A 
ATOM     62  F   UNL A   1      41.214  24.538  28.439  1.00  0.00    -0.203 F 
ATOM     63  C   UNL A   1      42.479  24.307  26.467  1.00  0.00     0.198 A 
ATOM     64  C   UNL A   1      43.872  26.112  25.716  1.00  0.00     0.198 A 
ATOM     65  F   UNL A   1      44.006  28.098  26.968  1.00  0.00    -0.203 F 
ATOM     66  F   UNL A   1      42.018  23.057  26.319  1.00  0.00    -0.200 F 
ATOM     67  C   UNL A   1      43.374  24.829  25.545  1.00  0.00     0.200 A 
ATOM     68  F   UNL A   1      44.731  26.620  24.822  1.00  0.00    -0.200 F 
ATOM     69  F   UNL A   1      43.763  24.091  24.496  1.00  0.00    -0.200 F 
ENDBRANCH  45  59
BRANCH  46  70
ATOM     70  C   UNL A   1      39.373  32.020  35.375  1.00  0.00     0.064 A 
ATOM     71  C   UNL A   1      38.523  31.464  36.341  1.00  0.00     0.173 A 
ATOM     72  C   UNL A   1      39.724  33.371  35.517  1.00  0.00     0.173 A 
ATOM     73  F   UNL A   1      38.135  30.185  36.235  1.00  0.00    -0.203 F 
ATOM     74  C   UNL A   1      38.028  32.233  37.393  1.00  0.00     0.198 A 
ATOM     75  C   UNL A   1      39.252  34.130  36.586  1.00  0.00     0.198 A 
ATOM     76  F   UNL A   1      40.531  33.954  34.618  1.00  0.00    -0.203 F 
ATOM     77  F   UNL A   1      37.177  31.690  38.275  1.00  0.00    -0.200 F 
ATOM     78  C   UNL A   1      38.398  33.564  37.518  1.00  0.00     0.200 A 
ATOM     79  F   UNL A   1      39.620  35.413  36.707  1.00  0.00    -0.200 F 
ATOM     80  F   UNL A   1      37.922  34.301  38.530  1.00  0.00    -0.200 F 
ENDBRANCH  46  70
BRANCH  58  81
ATOM     81  C   UNL A   1      44.792  27.720  34.489  1.00  0.00     0.064 A 
ATOM     82  C   UNL A   1      44.718  26.575  35.296  1.00  0.00     0.173 A 
ATOM     83  C   UNL A   1      45.984  28.459  34.505  1.00  0.00     0.173 A 
ATOM     84  F   UNL A   1      43.594  25.843  35.328  1.00  0.00    -0.203 F 
ATOM     85  C   UNL A   1      45.788  26.199  36.103  1.00  0.00     0.198 A 
ATOM     86  C   UNL A   1      47.064  28.062  35.288  1.00  0.00     0.198 A 
ATOM     87  F   UNL A   1      46.109  29.557  33.744  1.00  0.00    -0.203 F 
ATOM     88  F   UNL A   1      45.679  25.128  36.901  1.00  0.00    -0.200 F 
ATOM     89  C   UNL A   1      46.962  26.938  36.092  1.00  0.00     0.200 A 
ATOM     90  F   UNL A   1      48.202  28.768  35.264  1.00  0.00    -0.200 F 
ATOM     91  F   UNL A   1      47.996  26.567  36.862  1.00  0.00    -0.200 F 
ENDBRANCH  58  81
ENDBRANCH  32  33
ENDBRANCH  25  27
ENDBRANCH  24  25
ENDBRANCH   1  24
TORSDOF 13
ENDMDL
MODEL 3
REMARK VINA RESULT:     -10.7      4.092      9.779
REMARK SMILES C[NH2+][C@@]1(C(=O)OCCOC(=O)c2ccc(-c3c4nc(c(-c5c(F)c(F)c(F)c(F)c5F)c5ccc([nH]5)c(-c5c(F)c(F)c(F)c(F)c5F)c5nc(c(-c6c(F)c(F)c(F)c(F)c6F)c6ccc3[nH]6)C=C5)C=C4)cc2)CC[C@H]([NH+]2CC[NH+](C)CC2)C1
REMARK SMILES IDX 8 1 7 2 6 3 4 4 5 5 3 6 75 7 85 8 76 9 77 10 2 11 1 12 78 15
REMARK SMILES IDX 79 16 84 17 80 19 83 20 81 21 82 22 9 24 10 25 11 26 12 27
REMARK SMILES IDX 13 28 74 29 14 30 73 31 15 32 16 33 17 34 67 35 18 36 72 37
REMARK SMILES IDX 66 38 68 39 19 40 71 41 65 42 64 43 20 45 52 46 32 47 51 48
REMARK SMILES IDX 33 49 36 50 50 51 69 52 34 53 35 54 49 56 70 57 37 58 21 59
REMARK SMILES IDX 22 60 30 61 23 62 24 63 28 64 31 65 25 66 26 67 29 68 27 69
REMARK SMILES IDX 53 70 54 71 62 72 55 73 56 74 60 75 63 76 57 77 58 78 61 79
REMARK SMILES IDX 59 80 38 81 39 82 47 83 40 84 41 85 45 86 48 87 42 88 43 89
REMARK SMILES IDX 46 90 44 91
REMARK H PARENT 2 13 2 14 78 18 81 23 68 44 36 55
REMARK Flexibility Score: inf
ROOT
ATOM      1  C   UNL A   1      31.797  29.820  26.453  1.00  0.00     0.275 C 
ENDROOT
BRANCH   1   2
ATOM      2  C   UNL A   1      31.619  28.521  27.248  1.00  0.00     0.274 C 
BRANCH   2   3
ATOM      3  O   UNL A   1      32.432  27.497  26.645  1.00  0.00    -0.457 OA
BRANCH   3   4
ATOM      4  C   UNL A   1      32.011  26.985  25.460  1.00  0.00     0.368 C 
ATOM      5  O   UNL A   1      30.829  26.841  25.166  1.00  0.00    -0.245 OA
BRANCH   4   6
ATOM      6  C   UNL A   1      33.205  26.669  24.503  1.00  0.00     0.200 C 
ATOM      7  C   UNL A   1      32.726  26.073  23.171  1.00  0.00     0.087 C 
ATOM      8  C   UNL A   1      34.116  25.543  25.047  1.00  0.00     0.146 C 
ATOM      9  C   UNL A   1      32.506  24.596  23.457  1.00  0.00     0.072 C 
ATOM     10  C   UNL A   1      33.531  24.204  24.533  1.00  0.00     0.191 C 
BRANCH   6  11
ATOM     11  N   UNL A   1      34.014  27.897  24.264  1.00  0.00    -0.334 N 
ATOM     12  C   UNL A   1      33.521  28.742  23.181  1.00  0.00     0.331 C 
ATOM     13  H   UNL A   1      34.019  28.449  25.121  1.00  0.00     0.347 HD
ATOM     14  H   UNL A   1      34.945  27.583  23.988  1.00  0.00     0.347 HD
ENDBRANCH   6  11
BRANCH  10  15
ATOM     15  N   UNL A   1      33.170  23.193  25.539  1.00  0.00    -0.323 N 
ATOM     16  C   UNL A   1      34.139  23.037  26.639  1.00  0.00     0.324 C 
ATOM     17  C   UNL A   1      32.800  21.849  25.079  1.00  0.00     0.324 C 
ATOM     18  H   UNL A   1      32.312  23.634  25.868  1.00  0.00     0.348 HD
ATOM     19  C   UNL A   1      35.347  22.103  26.356  1.00  0.00     0.324 C 
ATOM     20  C   UNL A   1      33.989  20.985  24.626  1.00  0.00     0.324 C 
ATOM     21  N   UNL A   1      35.054  20.850  25.631  1.00  0.00    -0.328 N 
ATOM     22  C   UNL A   1      36.270  20.327  25.001  1.00  0.00     0.333 C 
ATOM     23  H   UNL A   1      34.713  20.193  26.333  1.00  0.00     0.348 HD
ENDBRANCH  10  15
ENDBRANCH   4   6
ENDBRANCH   3   4
ENDBRANCH   2   3
ENDBRANCH   1   2
BRANCH   1  24
ATOM     24  O   UNL A   1      33.197  30.143  26.421  1.00  0.00    -0.458 OA
BRANCH  24  25
ATOM     25  C   UNL A   1      33.523  31.281  27.088  1.00  0.00     0.338 C 
ATOM     26  O   UNL A   1      32.837  32.266  27.251  1.00  0.00    -0.246 OA
BRANCH  25  27
ATOM     27  C   UNL A   1      34.783  31.013  27.811  1.00  0.00     0.060 A 
ATOM     28  C   UNL A   1      35.011  29.707  28.251  1.00  0.00     0.016 A 
ATOM     29  C   UNL A   1      35.747  32.005  28.000  1.00  0.00     0.016 A 
ATOM     30  C   UNL A   1      36.216  29.375  28.864  1.00  0.00     0.010 A 
ATOM     31  C   UNL A   1      36.941  31.682  28.642  1.00  0.00     0.010 A 
ATOM     32  C   UNL A   1      37.176  30.369  29.081  1.00  0.00    -0.014 A 
BRANCH  32  33
ATOM     33  C   UNL A   1      38.365  30.081  29.909  1.00  0.00     0.031 A 
ATOM     34  C   UNL A   1      39.390  29.131  29.367  1.00  0.00     0.074 A 
ATOM     35  C   UNL A   1      38.510  30.634  31.124  1.00  0.00     0.049 A 
ATOM     36  N   UNL A   1      40.454  28.638  29.943  1.00  0.00    -0.248 NA
ATOM     37  C   UNL A   1      39.183  28.675  27.982  1.00  0.00     0.031 C 
ATOM     38  C   UNL A   1      37.601  31.610  31.722  1.00  0.00     0.029 A 
ATOM     39  N   UNL A   1      39.471  30.435  32.082  1.00  0.00    -0.354 N 
ATOM     40  C   UNL A   1      41.043  27.815  28.995  1.00  0.00     0.074 A 
ATOM     41  C   UNL A   1      40.210  27.858  27.813  1.00  0.00     0.031 C 
ATOM     42  C   UNL A   1      38.034  31.904  32.962  1.00  0.00     0.029 A 
ATOM     43  C   UNL A   1      39.226  31.110  33.253  1.00  0.00     0.049 A 
ATOM     44  H   UNL A   1      40.260  29.863  31.943  1.00  0.00     0.167 HD
ATOM     45  C   UNL A   1      42.178  27.087  29.104  1.00  0.00     0.037 A 
ATOM     46  C   UNL A   1      39.878  31.059  34.430  1.00  0.00     0.037 A 
ATOM     47  C   UNL A   1      42.980  27.028  30.297  1.00  0.00     0.049 A 
ATOM     48  C   UNL A   1      41.085  30.162  34.560  1.00  0.00     0.074 A 
ATOM     49  C   UNL A   1      44.142  26.311  30.522  1.00  0.00     0.029 A 
ATOM     50  N   UNL A   1      42.689  27.704  31.472  1.00  0.00    -0.354 N 
ATOM     51  N   UNL A   1      41.650  29.395  33.657  1.00  0.00    -0.248 NA
ATOM     52  C   UNL A   1      41.743  30.122  35.873  1.00  0.00     0.031 C 
ATOM     53  C   UNL A   1      44.525  26.513  31.852  1.00  0.00     0.029 A 
ATOM     54  C   UNL A   1      43.636  27.401  32.437  1.00  0.00     0.049 A 
ATOM     55  H   UNL A   1      41.923  28.308  31.602  1.00  0.00     0.167 HD
ATOM     56  C   UNL A   1      42.743  28.808  34.280  1.00  0.00     0.074 A 
ATOM     57  C   UNL A   1      42.769  29.315  35.637  1.00  0.00     0.031 C 
ATOM     58  C   UNL A   1      43.645  27.929  33.779  1.00  0.00     0.037 A 
BRANCH  45  59
ATOM     59  C   UNL A   1      42.585  26.268  27.916  1.00  0.00     0.064 A 
ATOM     60  C   UNL A   1      42.059  24.988  27.689  1.00  0.00     0.173 A 
ATOM     61  C   UNL A   1      43.513  26.772  26.993  1.00  0.00     0.173 A 
ATOM     62  F   UNL A   1      41.185  24.454  28.555  1.00  0.00    -0.203 F 
ATOM     63  C   UNL A   1      42.465  24.232  26.592  1.00  0.00     0.198 A 
ATOM     64  C   UNL A   1      43.896  26.025  25.883  1.00  0.00     0.198 A 
ATOM     65  F   UNL A   1      44.049  27.989  27.166  1.00  0.00    -0.203 F 
ATOM     66  F   UNL A   1      41.986  22.992  26.420  1.00  0.00    -0.200 F 
ATOM     67  C   UNL A   1      43.378  24.753  25.687  1.00  0.00     0.200 A 
ATOM     68  F   UNL A   1      44.771  26.533  25.005  1.00  0.00    -0.200 F 
ATOM     69  F   UNL A   1      43.766  24.026  24.631  1.00  0.00    -0.200 F 
ENDBRANCH  45  59
BRANCH  46  70
ATOM     70  C   UNL A   1      39.395  31.855  35.588  1.00  0.00     0.064 A 
ATOM     71  C   UNL A   1      39.884  33.146  35.831  1.00  0.00     0.173 A 
ATOM     72  C   UNL A   1      38.459  31.333  36.494  1.00  0.00     0.173 A 
ATOM     73  F   UNL A   1      40.802  33.680  35.012  1.00  0.00    -0.203 F 
ATOM     74  C   UNL A   1      39.471  33.876  36.945  1.00  0.00     0.198 A 
ATOM     75  C   UNL A   1      38.025  32.075  37.590  1.00  0.00     0.198 A 
ATOM     76  F   UNL A   1      37.962  30.101  36.311  1.00  0.00    -0.203 F 
ATOM     77  F   UNL A   1      39.993  35.088  37.182  1.00  0.00    -0.200 F 
ATOM     78  C   UNL A   1      38.537  33.342  37.820  1.00  0.00     0.200 A 
ATOM     79  F   UNL A   1      37.114  31.559  38.428  1.00  0.00    -0.200 F 
ATOM     80  F   UNL A   1      38.140  34.044  38.890  1.00  0.00    -0.200 F 
ENDBRANCH  46  70
BRANCH  58  81
ATOM     81  C   UNL A   1      44.762  27.495  34.683  1.00  0.00     0.064 A 
ATOM     82  C   UNL A   1      45.954  28.226  34.788  1.00  0.00     0.173 A 
ATOM     83  C   UNL A   1      44.614  26.358  35.493  1.00  0.00     0.173 A 
ATOM     84  F   UNL A   1      46.150  29.311  34.024  1.00  0.00    -0.203 F 
ATOM     85  C   UNL A   1      46.967  27.823  35.654  1.00  0.00     0.198 A 
ATOM     86  C   UNL A   1      45.615  25.976  36.382  1.00  0.00     0.198 A 
ATOM     87  F   UNL A   1      43.490  25.630  35.436  1.00  0.00    -0.203 F 
ATOM     88  F   UNL A   1      48.116  28.510  35.706  1.00  0.00    -0.200 F 
ATOM     89  C   UNL A   1      46.793  26.704  36.456  1.00  0.00     0.200 A 
ATOM     90  F   UNL A   1      45.439  24.904  37.166  1.00  0.00    -0.200 F 
ATOM     91  F   UNL A   1      47.764  26.323  37.298  1.00  0.00    -0.200 F 
ENDBRANCH  58  81
ENDBRANCH  32  33
ENDBRANCH  25  27
ENDBRANCH  24  25
ENDBRANCH   1  24
TORSDOF 13
ENDMDL
