MODEL 1
REMARK VINA RESULT:     -12.7      0.000      0.000
REMARK SMILES CS(=O)(=O)N1C[C@@H]2CN(C(=O)C3CCOCC3)C[C@]2(C(=O)OCCOC(=O)c2ccc(-c3c4nc(c(-c5c(F)c(F)c(F)c(F)c5F)c5ccc([nH]5)c(-c5c(F)c(F)c(F)c(F)c5F)c5nc(c(-c6c(F)c(F)c(F)c(F)c6F)c6ccc3[nH]6)C=C5)C=C4)cc2)C1
REMARK SMILES IDX 23 1 22 2 20 3 21 4 19 5 5 6 6 7 91 8 7 9 8 10 18 11 9 12
REMARK SMILES IDX 2 13 1 14 3 15 4 16 10 17 11 18 12 19 13 20 17 21 14 22
REMARK SMILES IDX 16 23 15 24 24 25 25 26 26 27 27 28 28 29 29 30 90 31 30 32
REMARK SMILES IDX 89 33 31 34 32 35 33 36 83 37 34 38 88 39 82 40 84 41 35 42
REMARK SMILES IDX 87 43 81 44 80 45 36 47 68 48 48 49 67 50 49 51 52 52 66 53
REMARK SMILES IDX 85 54 50 55 51 56 65 58 86 59 53 60 37 61 38 62 46 63 39 64
REMARK SMILES IDX 40 65 44 66 47 67 41 68 42 69 45 70 43 71 69 72 70 73 78 74
REMARK SMILES IDX 71 75 72 76 76 77 79 78 73 79 74 80 77 81 75 82 54 83 55 84
REMARK SMILES IDX 63 85 56 86 57 87 61 88 64 89 58 90 59 91 62 92 60 93
REMARK H PARENT 84 46 52 57
REMARK Flexibility Score: inf
ROOT
ATOM      1  C   UNL A   1      32.032  28.165  27.320  1.00  0.00     0.274 C 
ENDROOT
BRANCH   1   2
ATOM      2  O   UNL A   1      32.428  27.165  26.340  1.00  0.00    -0.462 OA
BRANCH   2   3
ATOM      3  C   UNL A   1      31.416  26.367  25.879  1.00  0.00     0.315 C 
ATOM      4  O   UNL A   1      30.569  25.925  26.644  1.00  0.00    -0.251 OA
BRANCH   3   5
ATOM      5  C   UNL A   1      31.485  26.125  24.299  1.00  0.00     0.105 C 
ATOM      6  N   UNL A   1      29.958  27.623  22.851  1.00  0.00    -0.201 NA
ATOM      7  C   UNL A   1      31.028  27.145  21.993  1.00  0.00     0.109 C 
ATOM      8  C   UNL A   1      30.387  27.294  24.252  1.00  0.00     0.123 C 
ATOM      9  C   UNL A   1      32.125  26.789  22.974  1.00  0.00     0.044 C 
ATOM     10  C   UNL A   1      33.053  25.778  22.317  1.00  0.00     0.125 C 
ATOM     11  C   UNL A   1      32.995  25.667  24.634  1.00  0.00     0.140 C 
ATOM     12  N   UNL A   1      33.540  25.052  23.439  1.00  0.00    -0.341 N 
BRANCH   6  13
ATOM     13  S   UNL A   1      29.520  29.277  22.704  1.00  0.00     0.211 S 
ATOM     14  C   UNL A   1      27.746  29.231  22.810  1.00  0.00     0.176 C 
ATOM     15  O   UNL A   1      29.899  29.699  21.367  1.00  0.00    -0.213 OA
ATOM     16  O   UNL A   1      30.027  29.958  23.870  1.00  0.00    -0.213 OA
ENDBRANCH   6  13
BRANCH  12  17
ATOM     17  C   UNL A   1      34.360  23.959  23.269  1.00  0.00     0.225 C 
ATOM     18  O   UNL A   1      34.396  23.371  22.182  1.00  0.00    -0.275 OA
BRANCH  17  19
ATOM     19  C   UNL A   1      35.194  23.411  24.432  1.00  0.00     0.083 C 
ATOM     20  C   UNL A   1      36.621  23.065  23.984  1.00  0.00     0.042 C 
ATOM     21  C   UNL A   1      34.469  22.315  25.217  1.00  0.00     0.042 C 
ATOM     22  C   UNL A   1      37.359  22.202  24.994  1.00  0.00     0.161 C 
ATOM     23  C   UNL A   1      35.407  21.534  26.122  1.00  0.00     0.161 C 
ATOM     24  O   UNL A   1      36.554  21.098  25.395  1.00  0.00    -0.381 OA
ENDBRANCH  17  19
ENDBRANCH  12  17
ENDBRANCH   3   5
ENDBRANCH   2   3
ENDBRANCH   1   2
BRANCH   1  25
ATOM     25  C   UNL A   1      31.810  29.592  26.753  1.00  0.00     0.275 C 
BRANCH  25  26
ATOM     26  O   UNL A   1      33.048  30.217  26.324  1.00  0.00    -0.458 OA
BRANCH  26  27
ATOM     27  C   UNL A   1      33.470  31.289  27.043  1.00  0.00     0.338 C 
ATOM     28  O   UNL A   1      32.836  32.307  27.273  1.00  0.00    -0.246 OA
BRANCH  27  29
ATOM     29  C   UNL A   1      34.762  31.011  27.712  1.00  0.00     0.060 A 
ATOM     30  C   UNL A   1      35.019  29.697  28.130  1.00  0.00     0.016 A 
ATOM     31  C   UNL A   1      35.677  32.020  28.003  1.00  0.00     0.016 A 
ATOM     32  C   UNL A   1      36.193  29.375  28.807  1.00  0.00     0.010 A 
ATOM     33  C   UNL A   1      36.847  31.703  28.711  1.00  0.00     0.010 A 
ATOM     34  C   UNL A   1      37.111  30.381  29.119  1.00  0.00    -0.014 A 
BRANCH  34  35
ATOM     35  C   UNL A   1      38.300  30.057  29.945  1.00  0.00     0.031 A 
ATOM     36  C   UNL A   1      39.352  29.133  29.401  1.00  0.00     0.074 A 
ATOM     37  C   UNL A   1      38.462  30.613  31.160  1.00  0.00     0.049 A 
ATOM     38  N   UNL A   1      40.414  28.642  29.988  1.00  0.00    -0.248 NA
ATOM     39  C   UNL A   1      39.185  28.710  28.003  1.00  0.00     0.031 C 
ATOM     40  C   UNL A   1      37.560  31.591  31.766  1.00  0.00     0.029 A 
ATOM     41  N   UNL A   1      39.444  30.430  32.104  1.00  0.00    -0.354 N 
ATOM     42  C   UNL A   1      41.032  27.839  29.039  1.00  0.00     0.074 A 
ATOM     43  C   UNL A   1      40.221  27.900  27.841  1.00  0.00     0.031 C 
ATOM     44  C   UNL A   1      38.021  31.911  32.987  1.00  0.00     0.029 A 
ATOM     45  C   UNL A   1      39.225  31.130  33.265  1.00  0.00     0.049 A 
ATOM     46  H   UNL A   1      40.227  29.852  31.961  1.00  0.00     0.167 HD
ATOM     47  C   UNL A   1      42.173  27.117  29.159  1.00  0.00     0.037 A 
ATOM     48  C   UNL A   1      39.902  31.116  34.429  1.00  0.00     0.037 A 
ATOM     49  C   UNL A   1      42.981  27.066  30.348  1.00  0.00     0.049 A 
ATOM     50  C   UNL A   1      41.119  30.239  34.567  1.00  0.00     0.074 A 
ATOM     51  C   UNL A   1      44.148  26.355  30.571  1.00  0.00     0.029 A 
ATOM     52  N   UNL A   1      42.704  27.753  31.521  1.00  0.00    -0.354 N 
ATOM     53  N   UNL A   1      41.686  29.462  33.675  1.00  0.00    -0.248 NA
ATOM     54  C   UNL A   1      41.789  30.231  35.876  1.00  0.00     0.031 C 
ATOM     55  C   UNL A   1      44.553  26.579  31.892  1.00  0.00     0.029 A 
ATOM     56  C   UNL A   1      43.665  27.466  32.477  1.00  0.00     0.049 A 
ATOM     57  H   UNL A   1      41.937  28.357  31.655  1.00  0.00     0.167 HD
ATOM     58  C   UNL A   1      42.785  28.895  34.305  1.00  0.00     0.074 A 
ATOM     59  C   UNL A   1      42.817  29.427  35.651  1.00  0.00     0.031 C 
ATOM     60  C   UNL A   1      43.688  28.012  33.811  1.00  0.00     0.037 A 
BRANCH  47  61
ATOM     61  C   UNL A   1      42.590  26.288  27.980  1.00  0.00     0.064 A 
ATOM     62  C   UNL A   1      43.481  26.773  27.012  1.00  0.00     0.173 A 
ATOM     63  C   UNL A   1      42.109  24.978  27.833  1.00  0.00     0.173 A 
ATOM     64  F   UNL A   1      43.958  28.024  27.099  1.00  0.00    -0.203 F 
ATOM     65  C   UNL A   1      43.855  25.986  25.925  1.00  0.00     0.198 A 
ATOM     66  C   UNL A   1      42.505  24.184  26.760  1.00  0.00     0.198 A 
ATOM     67  F   UNL A   1      41.259  24.464  28.735  1.00  0.00    -0.203 F 
ATOM     68  F   UNL A   1      44.671  26.485  24.987  1.00  0.00    -0.200 F 
ATOM     69  C   UNL A   1      43.371  24.691  25.803  1.00  0.00     0.200 A 
ATOM     70  F   UNL A   1      42.046  22.931  26.650  1.00  0.00    -0.200 F 
ATOM     71  F   UNL A   1      43.734  23.933  24.758  1.00  0.00    -0.200 F 
ENDBRANCH  47  61
BRANCH  48  72
ATOM     72  C   UNL A   1      39.426  31.935  35.574  1.00  0.00     0.064 A 
ATOM     73  C   UNL A   1      39.894  33.240  35.777  1.00  0.00     0.173 A 
ATOM     74  C   UNL A   1      38.505  31.421  36.500  1.00  0.00     0.173 A 
ATOM     75  F   UNL A   1      40.801  33.765  34.939  1.00  0.00    -0.203 F 
ATOM     76  C   UNL A   1      39.471  33.995  36.871  1.00  0.00     0.198 A 
ATOM     77  C   UNL A   1      38.061  32.186  37.577  1.00  0.00     0.198 A 
ATOM     78  F   UNL A   1      38.034  30.173  36.359  1.00  0.00    -0.203 F 
ATOM     79  F   UNL A   1      39.973  35.221  37.070  1.00  0.00    -0.200 F 
ATOM     80  C   UNL A   1      38.550  33.470  37.765  1.00  0.00     0.200 A 
ATOM     81  F   UNL A   1      37.168  31.677  38.435  1.00  0.00    -0.200 F 
ATOM     82  F   UNL A   1      38.144  34.196  38.816  1.00  0.00    -0.200 F 
ENDBRANCH  48  72
BRANCH  60  83
ATOM     83  C   UNL A   1      44.807  27.590  34.718  1.00  0.00     0.064 A 
ATOM     84  C   UNL A   1      44.711  26.446  35.523  1.00  0.00     0.173 A 
ATOM     85  C   UNL A   1      46.007  28.317  34.751  1.00  0.00     0.173 A 
ATOM     86  F   UNL A   1      43.580  25.725  35.540  1.00  0.00    -0.203 F 
ATOM     87  C   UNL A   1      45.767  26.058  36.345  1.00  0.00     0.198 A 
ATOM     88  C   UNL A   1      47.070  27.911  35.552  1.00  0.00     0.198 A 
ATOM     89  F   UNL A   1      46.152  29.416  33.994  1.00  0.00    -0.203 F 
ATOM     90  F   UNL A   1      45.637  24.985  37.138  1.00  0.00    -0.200 F 
ATOM     91  C   UNL A   1      46.947  26.786  36.353  1.00  0.00     0.200 A 
ATOM     92  F   UNL A   1      48.215  28.609  35.550  1.00  0.00    -0.200 F 
ATOM     93  F   UNL A   1      47.965  26.407  37.138  1.00  0.00    -0.200 F 
ENDBRANCH  60  83
ENDBRANCH  34  35
ENDBRANCH  27  29
ENDBRANCH  26  27
ENDBRANCH  25  26
ENDBRANCH   1  25
TORSDOF 14
ENDMDL
MODEL 2
REMARK VINA RESULT:     -12.5      1.840      4.551
REMARK SMILES CS(=O)(=O)N1C[C@@H]2CN(C(=O)C3CCOCC3)C[C@]2(C(=O)OCCOC(=O)c2ccc(-c3c4nc(c(-c5c(F)c(F)c(F)c(F)c5F)c5ccc([nH]5)c(-c5c(F)c(F)c(F)c(F)c5F)c5nc(c(-c6c(F)c(F)c(F)c(F)c6F)c6ccc3[nH]6)C=C5)C=C4)cc2)C1
REMARK SMILES IDX 23 1 22 2 20 3 21 4 19 5 5 6 6 7 91 8 7 9 8 10 18 11 9 12
REMARK SMILES IDX 2 13 1 14 3 15 4 16 10 17 11 18 12 19 13 20 17 21 14 22
REMARK SMILES IDX 16 23 15 24 24 25 25 26 26 27 27 28 28 29 29 30 90 31 30 32
REMARK SMILES IDX 89 33 31 34 32 35 33 36 83 37 34 38 88 39 82 40 84 41 35 42
REMARK SMILES IDX 87 43 81 44 80 45 36 47 68 48 48 49 67 50 49 51 52 52 66 53
REMARK SMILES IDX 85 54 50 55 51 56 65 58 86 59 53 60 37 61 38 62 46 63 39 64
REMARK SMILES IDX 40 65 44 66 47 67 41 68 42 69 45 70 43 71 69 72 70 73 78 74
REMARK SMILES IDX 71 75 72 76 76 77 79 78 73 79 74 80 77 81 75 82 54 83 55 84
REMARK SMILES IDX 63 85 56 86 57 87 61 88 64 89 58 90 59 91 62 92 60 93
REMARK H PARENT 84 46 52 57
REMARK Flexibility Score: inf
ROOT
ATOM      1  C   UNL A   1      32.379  30.678  26.706  1.00  0.00     0.274 C 
ENDROOT
BRANCH   1   2
ATOM      2  O   UNL A   1      32.019  30.054  25.441  1.00  0.00    -0.462 OA
BRANCH   2   3
ATOM      3  C   UNL A   1      32.747  28.944  25.110  1.00  0.00     0.315 C 
ATOM      4  O   UNL A   1      33.742  28.633  25.750  1.00  0.00    -0.251 OA
BRANCH   3   5
ATOM      5  C   UNL A   1      32.139  28.153  23.858  1.00  0.00     0.105 C 
ATOM      6  N   UNL A   1      33.419  26.033  23.122  1.00  0.00    -0.201 NA
ATOM      7  C   UNL A   1      32.059  25.907  22.627  1.00  0.00     0.109 C 
ATOM      8  C   UNL A   1      33.388  27.175  24.097  1.00  0.00     0.123 C 
ATOM      9  C   UNL A   1      31.273  26.829  23.535  1.00  0.00     0.044 C 
ATOM     10  C   UNL A   1      29.995  27.240  22.819  1.00  0.00     0.125 C 
ATOM     11  C   UNL A   1      30.748  28.767  24.397  1.00  0.00     0.140 C 
ATOM     12  N   UNL A   1      29.740  28.521  23.383  1.00  0.00    -0.341 N 
BRANCH   6  13
ATOM     13  S   UNL A   1      34.127  24.633  23.820  1.00  0.00     0.211 S 
ATOM     14  C   UNL A   1      32.713  23.673  24.309  1.00  0.00     0.176 C 
ATOM     15  O   UNL A   1      34.835  25.066  25.012  1.00  0.00    -0.213 OA
ATOM     16  O   UNL A   1      34.811  23.928  22.763  1.00  0.00    -0.213 OA
ENDBRANCH   6  13
BRANCH  12  17
ATOM     17  C   UNL A   1      28.697  29.297  22.929  1.00  0.00     0.225 C 
ATOM     18  O   UNL A   1      27.538  28.868  22.975  1.00  0.00    -0.275 OA
BRANCH  17  19
ATOM     19  C   UNL A   1      28.950  30.672  22.304  1.00  0.00     0.083 C 
ATOM     20  C   UNL A   1      28.862  31.789  23.353  1.00  0.00     0.042 C 
ATOM     21  C   UNL A   1      28.135  30.903  21.029  1.00  0.00     0.042 C 
ATOM     22  C   UNL A   1      28.752  33.171  22.729  1.00  0.00     0.161 C 
ATOM     23  C   UNL A   1      28.108  32.365  20.616  1.00  0.00     0.161 C 
ATOM     24  O   UNL A   1      27.745  33.190  21.722  1.00  0.00    -0.381 OA
ENDBRANCH  17  19
ENDBRANCH  12  17
ENDBRANCH   3   5
ENDBRANCH   2   3
ENDBRANCH   1   2
BRANCH   1  25
ATOM     25  C   UNL A   1      31.823  32.110  26.916  1.00  0.00     0.275 C 
BRANCH  25  26
ATOM     26  O   UNL A   1      32.848  33.129  26.780  1.00  0.00    -0.458 OA
BRANCH  26  27
ATOM     27  C   UNL A   1      33.204  33.789  27.912  1.00  0.00     0.338 C 
ATOM     28  O   UNL A   1      32.543  34.628  28.505  1.00  0.00    -0.246 OA
BRANCH  27  29
ATOM     29  C   UNL A   1      34.447  33.229  28.491  1.00  0.00     0.060 A 
ATOM     30  C   UNL A   1      34.334  32.137  29.365  1.00  0.00     0.016 A 
ATOM     31  C   UNL A   1      35.696  33.799  28.257  1.00  0.00     0.016 A 
ATOM     32  C   UNL A   1      35.457  31.590  29.981  1.00  0.00     0.010 A 
ATOM     33  C   UNL A   1      36.825  33.268  28.900  1.00  0.00     0.010 A 
ATOM     34  C   UNL A   1      36.713  32.164  29.768  1.00  0.00    -0.014 A 
BRANCH  34  35
ATOM     35  C   UNL A   1      37.887  31.657  30.519  1.00  0.00     0.031 A 
ATOM     36  C   UNL A   1      38.782  30.627  29.891  1.00  0.00     0.074 A 
ATOM     37  C   UNL A   1      38.179  32.140  31.741  1.00  0.00     0.049 A 
ATOM     38  N   UNL A   1      39.797  29.980  30.405  1.00  0.00    -0.248 NA
ATOM     39  C   UNL A   1      38.494  30.284  28.490  1.00  0.00     0.031 C 
ATOM     40  C   UNL A   1      37.443  33.203  32.425  1.00  0.00     0.029 A 
ATOM     41  N   UNL A   1      39.172  31.795  32.626  1.00  0.00    -0.354 N 
ATOM     42  C   UNL A   1      40.258  29.142  29.399  1.00  0.00     0.074 A 
ATOM     43  C   UNL A   1      39.406  29.354  28.248  1.00  0.00     0.031 C 
ATOM     44  C   UNL A   1      38.001  33.413  33.629  1.00  0.00     0.029 A 
ATOM     45  C   UNL A   1      39.103  32.472  33.818  1.00  0.00     0.049 A 
ATOM     46  H   UNL A   1      39.866  31.127  32.423  1.00  0.00     0.167 HD
ATOM     47  C   UNL A   1      41.299  28.274  29.435  1.00  0.00     0.037 A 
ATOM     48  C   UNL A   1      39.828  32.326  34.944  1.00  0.00     0.037 A 
ATOM     49  C   UNL A   1      42.150  28.073  30.578  1.00  0.00     0.049 A 
ATOM     50  C   UNL A   1      40.925  31.294  34.989  1.00  0.00     0.074 A 
ATOM     51  C   UNL A   1      43.223  27.209  30.716  1.00  0.00     0.029 A 
ATOM     52  N   UNL A   1      42.021  28.744  31.786  1.00  0.00    -0.354 N 
ATOM     53  N   UNL A   1      41.341  30.486  34.044  1.00  0.00    -0.248 NA
ATOM     54  C   UNL A   1      41.650  31.149  36.260  1.00  0.00     0.031 C 
ATOM     55  C   UNL A   1      43.717  27.327  32.021  1.00  0.00     0.029 A 
ATOM     56  C   UNL A   1      42.982  28.299  32.680  1.00  0.00     0.049 A 
ATOM     57  H   UNL A   1      41.348  29.436  31.979  1.00  0.00     0.167 HD
ATOM     58  C   UNL A   1      42.386  29.757  34.596  1.00  0.00     0.074 A 
ATOM     59  C   UNL A   1      42.552  30.228  35.956  1.00  0.00     0.031 C 
ATOM     60  C   UNL A   1      43.140  28.784  34.028  1.00  0.00     0.037 A 
BRANCH  47  61
ATOM     61  C   UNL A   1      41.547  27.444  28.210  1.00  0.00     0.064 A 
ATOM     62  C   UNL A   1      40.902  26.215  28.007  1.00  0.00     0.173 A 
ATOM     63  C   UNL A   1      42.425  27.899  27.215  1.00  0.00     0.173 A 
ATOM     64  F   UNL A   1      40.064  25.730  28.935  1.00  0.00    -0.203 F 
ATOM     65  C   UNL A   1      41.147  25.460  26.862  1.00  0.00     0.198 A 
ATOM     66  C   UNL A   1      42.647  27.155  26.060  1.00  0.00     0.198 A 
ATOM     67  F   UNL A   1      43.063  29.070  27.360  1.00  0.00    -0.203 F 
ATOM     68  F   UNL A   1      40.556  24.268  26.708  1.00  0.00    -0.200 F 
ATOM     69  C   UNL A   1      42.015  25.932  25.887  1.00  0.00     0.200 A 
ATOM     70  F   UNL A   1      43.477  27.617  25.116  1.00  0.00    -0.200 F 
ATOM     71  F   UNL A   1      42.248  25.206  24.785  1.00  0.00    -0.200 F 
ENDBRANCH  47  61
BRANCH  48  72
ATOM     72  C   UNL A   1      39.518  33.155  36.138  1.00  0.00     0.064 A 
ATOM     73  C   UNL A   1      40.184  34.365  36.373  1.00  0.00     0.173 A 
ATOM     74  C   UNL A   1      38.563  32.742  37.080  1.00  0.00     0.173 A 
ATOM     75  F   UNL A   1      41.130  34.787  35.521  1.00  0.00    -0.203 F 
ATOM     76  C   UNL A   1      39.916  35.125  37.512  1.00  0.00     0.198 A 
ATOM     77  C   UNL A   1      38.275  33.516  38.202  1.00  0.00     0.198 A 
ATOM     78  F   UNL A   1      37.906  31.586  36.908  1.00  0.00    -0.203 F 
ATOM     79  F   UNL A   1      40.602  36.253  37.738  1.00  0.00    -0.200 F 
ATOM     80  C   UNL A   1      38.957  34.703  38.421  1.00  0.00     0.200 A 
ATOM     81  F   UNL A   1      37.345  33.107  39.075  1.00  0.00    -0.200 F 
ATOM     82  F   UNL A   1      38.700  35.433  39.515  1.00  0.00    -0.200 F 
ENDBRANCH  48  72
BRANCH  60  83
ATOM     83  C   UNL A   1      44.236  28.186  34.861  1.00  0.00     0.064 A 
ATOM     84  C   UNL A   1      45.518  28.750  34.905  1.00  0.00     0.173 A 
ATOM     85  C   UNL A   1      43.986  27.058  35.658  1.00  0.00     0.173 A 
ATOM     86  F   UNL A   1      45.813  29.819  34.151  1.00  0.00    -0.203 F 
ATOM     87  C   UNL A   1      46.519  28.193  35.700  1.00  0.00     0.198 A 
ATOM     88  C   UNL A   1      44.979  26.521  36.472  1.00  0.00     0.198 A 
ATOM     89  F   UNL A   1      42.773  26.484  35.656  1.00  0.00    -0.203 F 
ATOM     90  F   UNL A   1      47.749  28.724  35.695  1.00  0.00    -0.200 F 
ATOM     91  C   UNL A   1      46.246  27.085  36.488  1.00  0.00     0.200 A 
ATOM     92  F   UNL A   1      44.711  25.456  37.241  1.00  0.00    -0.200 F 
ATOM     93  F   UNL A   1      47.207  26.555  37.257  1.00  0.00    -0.200 F 
ENDBRANCH  60  83
ENDBRANCH  34  35
ENDBRANCH  27  29
ENDBRANCH  26  27
ENDBRANCH  25  26
ENDBRANCH   1  25
TORSDOF 14
ENDMDL
MODEL 3
REMARK VINA RESULT:     -12.4      4.356      9.885
REMARK SMILES CS(=O)(=O)N1C[C@@H]2CN(C(=O)C3CCOCC3)C[C@]2(C(=O)OCCOC(=O)c2ccc(-c3c4nc(c(-c5c(F)c(F)c(F)c(F)c5F)c5ccc([nH]5)c(-c5c(F)c(F)c(F)c(F)c5F)c5nc(c(-c6c(F)c(F)c(F)c(F)c6F)c6ccc3[nH]6)C=C5)C=C4)cc2)C1
REMARK SMILES IDX 23 1 22 2 20 3 21 4 19 5 5 6 6 7 91 8 7 9 8 10 18 11 9 12
REMARK SMILES IDX 2 13 1 14 3 15 4 16 10 17 11 18 12 19 13 20 17 21 14 22
REMARK SMILES IDX 16 23 15 24 24 25 25 26 26 27 27 28 28 29 29 30 90 31 30 32
REMARK SMILES IDX 89 33 31 34 32 35 33 36 83 37 34 38 88 39 82 40 84 41 35 42
REMARK SMILES IDX 87 43 81 44 80 45 36 47 68 48 48 49 67 50 49 51 52 52 66 53
REMARK SMILES IDX 85 54 50 55 51 56 65 58 86 59 53 60 37 61 38 62 46 63 39 64
REMARK SMILES IDX 40 65 44 66 47 67 41 68 42 69 45 70 43 71 69 72 70 73 78 74
REMARK SMILES IDX 71 75 72 76 76 77 79 78 73 79 74 80 77 81 75 82 54 83 55 84
REMARK SMILES IDX 63 85 56 86 57 87 61 88 64 89 58 90 59 91 62 92 60 93
REMARK H PARENT 84 46 52 57
REMARK Flexibility Score: inf
ROOT
ATOM      1  C   UNL A   1      36.947  22.514  23.699  1.00  0.00     0.274 C 
ENDROOT
BRANCH   1   2
ATOM      2  O   UNL A   1      35.518  22.747  23.544  1.00  0.00    -0.462 OA
BRANCH   2   3
ATOM      3  C   UNL A   1      34.941  23.506  24.526  1.00  0.00     0.315 C 
ATOM      4  O   UNL A   1      35.604  24.309  25.168  1.00  0.00    -0.251 OA
BRANCH   3   5
ATOM      5  C   UNL A   1      33.375  23.221  24.692  1.00  0.00     0.105 C 
ATOM      6  N   UNL A   1      32.597  20.810  24.185  1.00  0.00    -0.201 NA
ATOM      7  C   UNL A   1      31.591  21.415  25.041  1.00  0.00     0.109 C 
ATOM      8  C   UNL A   1      33.777  21.737  24.235  1.00  0.00     0.123 C 
ATOM      9  C   UNL A   1      32.347  22.532  25.728  1.00  0.00     0.044 C 
ATOM     10  C   UNL A   1      31.347  23.577  26.198  1.00  0.00     0.125 C 
ATOM     11  C   UNL A   1      33.478  24.400  25.788  1.00  0.00     0.140 C 
ATOM     12  N   UNL A   1      32.125  24.767  26.163  1.00  0.00    -0.341 N 
BRANCH   6  13
ATOM     13  S   UNL A   1      33.054  19.194  24.541  1.00  0.00     0.211 S 
ATOM     14  C   UNL A   1      32.477  18.295  23.120  1.00  0.00     0.176 C 
ATOM     15  O   UNL A   1      32.285  18.782  25.701  1.00  0.00    -0.213 OA
ATOM     16  O   UNL A   1      34.496  19.151  24.550  1.00  0.00    -0.213 OA
ENDBRANCH   6  13
BRANCH  12  17
ATOM     17  C   UNL A   1      31.556  25.991  26.435  1.00  0.00     0.225 C 
ATOM     18  O   UNL A   1      30.349  26.072  26.691  1.00  0.00    -0.275 OA
BRANCH  17  19
ATOM     19  C   UNL A   1      32.383  27.278  26.367  1.00  0.00     0.083 C 
ATOM     20  C   UNL A   1      31.924  28.296  27.422  1.00  0.00     0.042 C 
ATOM     21  C   UNL A   1      32.515  27.824  24.943  1.00  0.00     0.042 C 
ATOM     22  C   UNL A   1      32.464  29.692  27.162  1.00  0.00     0.161 C 
ATOM     23  C   UNL A   1      33.014  29.259  24.917  1.00  0.00     0.161 C 
ATOM     24  O   UNL A   1      32.248  30.071  25.805  1.00  0.00    -0.381 OA
ENDBRANCH  17  19
ENDBRANCH  12  17
ENDBRANCH   3   5
ENDBRANCH   2   3
ENDBRANCH   1   2
BRANCH   1  25
ATOM     25  C   UNL A   1      37.324  21.285  24.566  1.00  0.00     0.275 C 
BRANCH  25  26
ATOM     26  O   UNL A   1      37.748  21.659  25.903  1.00  0.00    -0.458 OA
BRANCH  26  27
ATOM     27  C   UNL A   1      39.049  21.427  26.215  1.00  0.00     0.338 C 
ATOM     28  O   UNL A   1      39.681  20.406  25.992  1.00  0.00    -0.246 OA
BRANCH  27  29
ATOM     29  C   UNL A   1      39.711  22.658  26.705  1.00  0.00     0.060 A 
ATOM     30  C   UNL A   1      39.329  23.883  26.137  1.00  0.00     0.016 A 
ATOM     31  C   UNL A   1      40.743  22.623  27.641  1.00  0.00     0.016 A 
ATOM     32  C   UNL A   1      39.943  25.074  26.517  1.00  0.00     0.010 A 
ATOM     33  C   UNL A   1      41.383  23.818  28.003  1.00  0.00     0.010 A 
ATOM     34  C   UNL A   1      40.990  25.050  27.442  1.00  0.00    -0.014 A 
BRANCH  34  35
ATOM     35  C   UNL A   1      41.722  26.302  27.753  1.00  0.00     0.031 A 
ATOM     36  C   UNL A   1      41.047  27.377  28.554  1.00  0.00     0.074 A 
ATOM     37  C   UNL A   1      42.998  26.465  27.356  1.00  0.00     0.049 A 
ATOM     38  N   UNL A   1      41.465  28.581  28.853  1.00  0.00    -0.248 NA
ATOM     39  C   UNL A   1      39.720  27.047  29.097  1.00  0.00     0.031 C 
ATOM     40  C   UNL A   1      43.796  25.465  26.649  1.00  0.00     0.029 A 
ATOM     41  N   UNL A   1      43.846  27.539  27.490  1.00  0.00    -0.354 N 
ATOM     42  C   UNL A   1      40.448  29.158  29.602  1.00  0.00     0.074 A 
ATOM     43  C   UNL A   1      39.388  28.177  29.703  1.00  0.00     0.031 C 
ATOM     44  C   UNL A   1      45.012  25.976  26.397  1.00  0.00     0.029 A 
ATOM     45  C   UNL A   1      45.064  27.352  26.885  1.00  0.00     0.049 A 
ATOM     46  H   UNL A   1      43.602  28.361  27.972  1.00  0.00     0.167 HD
ATOM     47  C   UNL A   1      40.405  30.396  30.154  1.00  0.00     0.037 A 
ATOM     48  C   UNL A   1      46.091  28.208  26.718  1.00  0.00     0.037 A 
ATOM     49  C   UNL A   1      41.464  31.365  30.058  1.00  0.00     0.049 A 
ATOM     50  C   UNL A   1      45.986  29.607  27.266  1.00  0.00     0.074 A 
ATOM     51  C   UNL A   1      41.511  32.649  30.574  1.00  0.00     0.029 A 
ATOM     52  N   UNL A   1      42.667  31.158  29.399  1.00  0.00    -0.354 N 
ATOM     53  N   UNL A   1      45.013  30.157  27.951  1.00  0.00    -0.248 NA
ATOM     54  C   UNL A   1      47.120  30.508  27.013  1.00  0.00     0.031 C 
ATOM     55  C   UNL A   1      42.723  33.233  30.190  1.00  0.00     0.029 A 
ATOM     56  C   UNL A   1      43.453  32.297  29.476  1.00  0.00     0.049 A 
ATOM     57  H   UNL A   1      42.925  30.324  28.943  1.00  0.00     0.167 HD
ATOM     58  C   UNL A   1      45.425  31.453  28.230  1.00  0.00     0.074 A 
ATOM     59  C   UNL A   1      46.743  31.606  27.651  1.00  0.00     0.031 C 
ATOM     60  C   UNL A   1      44.768  32.431  28.903  1.00  0.00     0.037 A 
BRANCH  47  61
ATOM     61  C   UNL A   1      39.149  30.785  30.875  1.00  0.00     0.064 A 
ATOM     62  C   UNL A   1      38.996  30.587  32.255  1.00  0.00     0.173 A 
ATOM     63  C   UNL A   1      38.092  31.389  30.177  1.00  0.00     0.173 A 
ATOM     64  F   UNL A   1      39.971  30.002  32.966  1.00  0.00    -0.203 F 
ATOM     65  C   UNL A   1      37.820  30.956  32.905  1.00  0.00     0.198 A 
ATOM     66  C   UNL A   1      36.929  31.780  30.833  1.00  0.00     0.198 A 
ATOM     67  F   UNL A   1      38.190  31.605  28.856  1.00  0.00    -0.203 F 
ATOM     68  F   UNL A   1      37.677  30.716  34.215  1.00  0.00    -0.200 F 
ATOM     69  C   UNL A   1      36.790  31.557  32.195  1.00  0.00     0.200 A 
ATOM     70  F   UNL A   1      35.940  32.370  30.149  1.00  0.00    -0.200 F 
ATOM     71  F   UNL A   1      35.661  31.914  32.822  1.00  0.00    -0.200 F 
ENDBRANCH  47  61
BRANCH  48  72
ATOM     72  C   UNL A   1      47.301  27.778  25.969  1.00  0.00     0.064 A 
ATOM     73  C   UNL A   1      48.467  27.383  26.637  1.00  0.00     0.173 A 
ATOM     74  C   UNL A   1      47.320  27.771  24.565  1.00  0.00     0.173 A 
ATOM     75  F   UNL A   1      48.510  27.404  27.978  1.00  0.00    -0.203 F 
ATOM     76  C   UNL A   1      49.611  27.012  25.932  1.00  0.00     0.198 A 
ATOM     77  C   UNL A   1      48.454  27.372  23.861  1.00  0.00     0.198 A 
ATOM     78  F   UNL A   1      46.234  28.151  23.876  1.00  0.00    -0.203 F 
ATOM     79  F   UNL A   1      50.729  26.687  26.595  1.00  0.00    -0.200 F 
ATOM     80  C   UNL A   1      49.601  27.000  24.545  1.00  0.00     0.200 A 
ATOM     81  F   UNL A   1      48.438  27.358  22.522  1.00  0.00    -0.200 F 
ATOM     82  F   UNL A   1      50.701  26.643  23.868  1.00  0.00    -0.200 F 
ENDBRANCH  48  72
BRANCH  60  83
ATOM     83  C   UNL A   1      45.478  33.740  29.082  1.00  0.00     0.064 A 
ATOM     84  C   UNL A   1      45.320  34.794  28.172  1.00  0.00     0.173 A 
ATOM     85  C   UNL A   1      46.295  33.958  30.204  1.00  0.00     0.173 A 
ATOM     86  F   UNL A   1      44.562  34.633  27.077  1.00  0.00    -0.203 F 
ATOM     87  C   UNL A   1      45.971  36.011  28.365  1.00  0.00     0.198 A 
ATOM     88  C   UNL A   1      46.922  35.183  30.407  1.00  0.00     0.198 A 
ATOM     89  F   UNL A   1      46.474  32.983  31.108  1.00  0.00    -0.203 F 
ATOM     90  F   UNL A   1      45.839  36.990  27.459  1.00  0.00    -0.200 F 
ATOM     91  C   UNL A   1      46.765  36.207  29.485  1.00  0.00     0.200 A 
ATOM     92  F   UNL A   1      47.680  35.375  31.497  1.00  0.00    -0.200 F 
ATOM     93  F   UNL A   1      47.385  37.380  29.673  1.00  0.00    -0.200 F 
ENDBRANCH  60  83
ENDBRANCH  34  35
ENDBRANCH  27  29
ENDBRANCH  26  27
ENDBRANCH  25  26
ENDBRANCH   1  25
TORSDOF 14
ENDMDL
