MODEL 1
REMARK VINA RESULT:     -11.9      0.000      0.000
REMARK SMILES CC[C@H]1CCC/C(=C(\C)C(=O)OCCOC(=O)c2ccc(-c3c4nc(c(-c5c(F)c(F)c(F)c(F)c5F)c5ccc([nH]5)c(-c5c(F)c(F)c(F)c(F)c5F)c5nc(c(-c6c(F)c(F)c(F)c(F)c6F)c6ccc3[nH]6)C=C5)C=C4)cc2)C1
REMARK SMILES IDX 14 1 13 2 12 3 10 4 11 5 8 6 3 7 4 8 81 9 5 10 7 11 6 12
REMARK SMILES IDX 9 13 2 14 1 15 15 16 16 17 17 18 18 19 19 20 80 21 20 22
REMARK SMILES IDX 79 23 21 24 22 25 23 26 73 27 24 28 78 29 72 30 74 31 25 32
REMARK SMILES IDX 77 33 71 34 70 35 26 37 58 38 38 39 57 40 39 41 42 42 56 43
REMARK SMILES IDX 75 44 40 45 41 46 55 48 76 49 43 50 27 51 28 52 36 53 29 54
REMARK SMILES IDX 30 55 34 56 37 57 31 58 32 59 35 60 33 61 59 62 60 63 68 64
REMARK SMILES IDX 61 65 62 66 66 67 69 68 63 69 64 70 67 71 65 72 44 73 45 74
REMARK SMILES IDX 53 75 46 76 47 77 51 78 54 79 48 80 49 81 52 82 50 83
REMARK H PARENT 74 36 42 47
REMARK Flexibility Score: inf
ROOT
ATOM      1  C   UNL A   1      31.724  30.432  25.777  1.00  0.00     0.275 C 
ENDROOT
BRANCH   1   2
ATOM      2  C   UNL A   1      32.347  29.283  24.986  1.00  0.00     0.275 C 
BRANCH   2   3
ATOM      3  O   UNL A   1      31.957  28.021  25.566  1.00  0.00    -0.459 OA
BRANCH   3   4
ATOM      4  C   UNL A   1      31.806  26.986  24.699  1.00  0.00     0.333 C 
ATOM      5  O   UNL A   1      32.670  26.504  23.992  1.00  0.00    -0.247 OA
BRANCH   4   6
ATOM      6  C   UNL A   1      30.378  26.525  24.713  1.00  0.00     0.033 C 
ATOM      7  C   UNL A   1      29.058  29.329  22.839  1.00  0.00    -0.007 C 
ATOM      8  C   UNL A   1      27.560  29.011  22.742  1.00  0.00     0.004 C 
ATOM      9  C   UNL A   1      29.845  28.017  22.736  1.00  0.00     0.035 C 
ATOM     10  C   UNL A   1      27.144  27.996  23.812  1.00  0.00     0.005 C 
ATOM     11  C   UNL A   1      29.480  27.044  23.836  1.00  0.00    -0.060 C 
ATOM     12  C   UNL A   1      27.998  26.721  23.795  1.00  0.00     0.031 C 
ATOM     13  C   UNL A   1      30.090  25.537  25.807  1.00  0.00     0.052 C 
BRANCH   7  14
ATOM     14  C   UNL A   1      29.518  30.309  21.744  1.00  0.00     0.000 C 
ATOM     15  C   UNL A   1      28.393  31.182  21.213  1.00  0.00     0.004 C 
ENDBRANCH   7  14
ENDBRANCH   4   6
ENDBRANCH   3   4
ENDBRANCH   2   3
ENDBRANCH   1   2
BRANCH   1  16
ATOM     16  O   UNL A   1      32.341  30.498  27.076  1.00  0.00    -0.458 OA
BRANCH  16  17
ATOM     17  C   UNL A   1      33.085  31.601  27.327  1.00  0.00     0.338 C 
ATOM     18  O   UNL A   1      32.693  32.758  27.367  1.00  0.00    -0.246 OA
BRANCH  17  19
ATOM     19  C   UNL A   1      34.488  31.229  27.626  1.00  0.00     0.060 A 
ATOM     20  C   UNL A   1      34.826  29.897  27.821  1.00  0.00     0.016 A 
ATOM     21  C   UNL A   1      35.436  32.215  27.901  1.00  0.00     0.016 A 
ATOM     22  C   UNL A   1      36.018  29.572  28.475  1.00  0.00     0.010 A 
ATOM     23  C   UNL A   1      36.692  31.863  28.427  1.00  0.00     0.010 A 
ATOM     24  C   UNL A   1      36.972  30.541  28.817  1.00  0.00    -0.014 A 
BRANCH  24  25
ATOM     25  C   UNL A   1      38.147  30.200  29.699  1.00  0.00     0.031 A 
ATOM     26  C   UNL A   1      39.313  29.413  29.129  1.00  0.00     0.074 A 
ATOM     27  C   UNL A   1      38.272  30.644  30.971  1.00  0.00     0.049 A 
ATOM     28  N   UNL A   1      40.284  28.790  29.752  1.00  0.00    -0.248 NA
ATOM     29  C   UNL A   1      39.380  29.291  27.665  1.00  0.00     0.031 C 
ATOM     30  C   UNL A   1      37.312  31.484  31.685  1.00  0.00     0.029 A 
ATOM     31  N   UNL A   1      39.295  30.483  31.882  1.00  0.00    -0.354 N 
ATOM     32  C   UNL A   1      40.986  28.098  28.771  1.00  0.00     0.074 A 
ATOM     33  C   UNL A   1      40.355  28.407  27.507  1.00  0.00     0.031 C 
ATOM     34  C   UNL A   1      37.840  31.864  32.858  1.00  0.00     0.029 A 
ATOM     35  C   UNL A   1      39.111  31.176  33.057  1.00  0.00     0.049 A 
ATOM     36  H   UNL A   1      40.086  29.923  31.708  1.00  0.00     0.167 HD
ATOM     37  C   UNL A   1      42.048  27.266  28.913  1.00  0.00     0.037 A 
ATOM     38  C   UNL A   1      39.846  31.219  34.187  1.00  0.00     0.037 A 
ATOM     39  C   UNL A   1      42.768  27.068  30.145  1.00  0.00     0.049 A 
ATOM     40  C   UNL A   1      41.055  30.329  34.319  1.00  0.00     0.074 A 
ATOM     41  C   UNL A   1      43.839  26.228  30.399  1.00  0.00     0.029 A 
ATOM     42  N   UNL A   1      42.527  27.769  31.316  1.00  0.00    -0.354 N 
ATOM     43  N   UNL A   1      41.596  29.528  33.435  1.00  0.00    -0.248 NA
ATOM     44  C   UNL A   1      41.725  30.311  35.629  1.00  0.00     0.031 C 
ATOM     45  C   UNL A   1      44.235  26.407  31.730  1.00  0.00     0.029 A 
ATOM     46  C   UNL A   1      43.437  27.391  32.290  1.00  0.00     0.049 A 
ATOM     47  H   UNL A   1      41.814  28.437  31.438  1.00  0.00     0.167 HD
ATOM     48  C   UNL A   1      42.661  28.911  34.080  1.00  0.00     0.074 A 
ATOM     49  C   UNL A   1      42.717  29.460  35.417  1.00  0.00     0.031 C 
ATOM     50  C   UNL A   1      43.499  27.955  33.613  1.00  0.00     0.037 A 
BRANCH  37  51
ATOM     51  C   UNL A   1      42.458  26.450  27.720  1.00  0.00     0.064 A 
ATOM     52  C   UNL A   1      41.886  25.208  27.417  1.00  0.00     0.173 A 
ATOM     53  C   UNL A   1      43.439  26.949  26.845  1.00  0.00     0.173 A 
ATOM     54  F   UNL A   1      40.955  24.678  28.225  1.00  0.00    -0.203 F 
ATOM     55  C   UNL A   1      42.305  24.480  26.304  1.00  0.00     0.198 A 
ATOM     56  C   UNL A   1      43.831  26.235  25.716  1.00  0.00     0.198 A 
ATOM     57  F   UNL A   1      44.013  28.139  27.083  1.00  0.00    -0.203 F 
ATOM     58  F   UNL A   1      41.785  23.268  26.064  1.00  0.00    -0.200 F 
ATOM     59  C   UNL A   1      43.270  24.996  25.453  1.00  0.00     0.200 A 
ATOM     60  F   UNL A   1      44.751  26.747  24.888  1.00  0.00    -0.200 F 
ATOM     61  F   UNL A   1      43.667  24.296  24.380  1.00  0.00    -0.200 F 
ENDBRANCH  37  51
BRANCH  38  62
ATOM     62  C   UNL A   1      39.435  32.090  35.326  1.00  0.00     0.064 A 
ATOM     63  C   UNL A   1      38.594  31.602  36.339  1.00  0.00     0.173 A 
ATOM     64  C   UNL A   1      39.842  33.430  35.412  1.00  0.00     0.173 A 
ATOM     65  F   UNL A   1      38.142  30.341  36.284  1.00  0.00    -0.203 F 
ATOM     66  C   UNL A   1      38.171  32.424  37.384  1.00  0.00     0.198 A 
ATOM     67  C   UNL A   1      39.451  34.237  36.480  1.00  0.00     0.198 A 
ATOM     68  F   UNL A   1      40.631  33.955  34.465  1.00  0.00    -0.203 F 
ATOM     69  F   UNL A   1      37.320  31.948  38.304  1.00  0.00    -0.200 F 
ATOM     70  C   UNL A   1      38.608  33.736  37.459  1.00  0.00     0.200 A 
ATOM     71  F   UNL A   1      39.891  35.501  36.555  1.00  0.00    -0.200 F 
ATOM     72  F   UNL A   1      38.209  34.523  38.467  1.00  0.00    -0.200 F 
ENDBRANCH  38  62
BRANCH  50  73
ATOM     73  C   UNL A   1      44.574  27.467  34.539  1.00  0.00     0.064 A 
ATOM     74  C   UNL A   1      44.373  26.366  35.384  1.00  0.00     0.173 A 
ATOM     75  C   UNL A   1      45.829  28.095  34.566  1.00  0.00     0.173 A 
ATOM     76  F   UNL A   1      43.187  25.739  35.407  1.00  0.00    -0.203 F 
ATOM     77  C   UNL A   1      45.379  25.929  36.244  1.00  0.00     0.198 A 
ATOM     78  C   UNL A   1      46.840  27.640  35.407  1.00  0.00     0.198 A 
ATOM     79  F   UNL A   1      46.073  29.150  33.774  1.00  0.00    -0.203 F 
ATOM     80  F   UNL A   1      45.149  24.905  37.077  1.00  0.00    -0.200 F 
ATOM     81  C   UNL A   1      46.613  26.563  36.251  1.00  0.00     0.200 A 
ATOM     82  F   UNL A   1      48.035  28.248  35.405  1.00  0.00    -0.200 F 
ATOM     83  F   UNL A   1      47.580  26.142  37.077  1.00  0.00    -0.200 F 
ENDBRANCH  50  73
ENDBRANCH  24  25
ENDBRANCH  17  19
ENDBRANCH  16  17
ENDBRANCH   1  16
TORSDOF 12
ENDMDL
MODEL 2
REMARK VINA RESULT:     -11.5      1.054      2.615
REMARK SMILES CC[C@H]1CCC/C(=C(\C)C(=O)OCCOC(=O)c2ccc(-c3c4nc(c(-c5c(F)c(F)c(F)c(F)c5F)c5ccc([nH]5)c(-c5c(F)c(F)c(F)c(F)c5F)c5nc(c(-c6c(F)c(F)c(F)c(F)c6F)c6ccc3[nH]6)C=C5)C=C4)cc2)C1
REMARK SMILES IDX 14 1 13 2 12 3 10 4 11 5 8 6 3 7 4 8 81 9 5 10 7 11 6 12
REMARK SMILES IDX 9 13 2 14 1 15 15 16 16 17 17 18 18 19 19 20 80 21 20 22
REMARK SMILES IDX 79 23 21 24 22 25 23 26 73 27 24 28 78 29 72 30 74 31 25 32
REMARK SMILES IDX 77 33 71 34 70 35 26 37 58 38 38 39 57 40 39 41 42 42 56 43
REMARK SMILES IDX 75 44 40 45 41 46 55 48 76 49 43 50 27 51 28 52 36 53 29 54
REMARK SMILES IDX 30 55 34 56 37 57 31 58 32 59 35 60 33 61 59 62 60 63 68 64
REMARK SMILES IDX 61 65 62 66 66 67 69 68 63 69 64 70 67 71 65 72 44 73 45 74
REMARK SMILES IDX 53 75 46 76 47 77 51 78 54 79 48 80 49 81 52 82 50 83
REMARK H PARENT 74 36 42 47
REMARK Flexibility Score: inf
ROOT
ATOM      1  C   UNL A   1      31.512  30.349  25.909  1.00  0.00     0.275 C 
ENDROOT
BRANCH   1   2
ATOM      2  C   UNL A   1      32.068  29.358  24.887  1.00  0.00     0.275 C 
BRANCH   2   3
ATOM      3  O   UNL A   1      30.983  28.682  24.219  1.00  0.00    -0.459 OA
BRANCH   3   4
ATOM      4  C   UNL A   1      31.254  27.438  23.745  1.00  0.00     0.333 C 
ATOM      5  O   UNL A   1      31.963  27.167  22.794  1.00  0.00    -0.247 OA
BRANCH   4   6
ATOM      6  C   UNL A   1      30.512  26.418  24.558  1.00  0.00     0.033 C 
ATOM      7  C   UNL A   1      33.426  24.471  25.470  1.00  0.00    -0.007 C 
ATOM      8  C   UNL A   1      32.840  23.353  26.343  1.00  0.00     0.004 C 
ATOM      9  C   UNL A   1      32.652  25.765  25.747  1.00  0.00     0.035 C 
ATOM     10  C   UNL A   1      31.336  23.197  26.098  1.00  0.00     0.005 C 
ATOM     11  C   UNL A   1      31.177  25.626  25.438  1.00  0.00    -0.060 C 
ATOM     12  C   UNL A   1      30.560  24.511  26.261  1.00  0.00     0.031 C 
ATOM     13  C   UNL A   1      29.049  26.354  24.225  1.00  0.00     0.052 C 
BRANCH   7  14
ATOM     14  C   UNL A   1      34.928  24.686  25.730  1.00  0.00     0.000 C 
ATOM     15  C   UNL A   1      35.668  23.400  26.058  1.00  0.00     0.004 C 
ENDBRANCH   7  14
ENDBRANCH   4   6
ENDBRANCH   3   4
ENDBRANCH   2   3
ENDBRANCH   1   2
BRANCH   1  16
ATOM     16  O   UNL A   1      32.351  30.338  27.080  1.00  0.00    -0.458 OA
BRANCH  16  17
ATOM     17  C   UNL A   1      33.062  31.465  27.313  1.00  0.00     0.338 C 
ATOM     18  O   UNL A   1      32.638  32.611  27.331  1.00  0.00    -0.246 OA
BRANCH  17  19
ATOM     19  C   UNL A   1      34.473  31.138  27.626  1.00  0.00     0.060 A 
ATOM     20  C   UNL A   1      34.865  29.814  27.760  1.00  0.00     0.016 A 
ATOM     21  C   UNL A   1      35.372  32.148  27.972  1.00  0.00     0.016 A 
ATOM     22  C   UNL A   1      36.056  29.506  28.424  1.00  0.00     0.010 A 
ATOM     23  C   UNL A   1      36.630  31.824  28.507  1.00  0.00     0.010 A 
ATOM     24  C   UNL A   1      36.960  30.496  28.836  1.00  0.00    -0.014 A 
BRANCH  24  25
ATOM     25  C   UNL A   1      38.130  30.160  29.726  1.00  0.00     0.031 A 
ATOM     26  C   UNL A   1      39.306  29.384  29.163  1.00  0.00     0.074 A 
ATOM     27  C   UNL A   1      38.241  30.600  31.001  1.00  0.00     0.049 A 
ATOM     28  N   UNL A   1      40.278  28.765  29.791  1.00  0.00    -0.248 NA
ATOM     29  C   UNL A   1      39.386  29.268  27.699  1.00  0.00     0.031 C 
ATOM     30  C   UNL A   1      37.270  31.431  31.710  1.00  0.00     0.029 A 
ATOM     31  N   UNL A   1      39.258  30.443  31.920  1.00  0.00    -0.354 N 
ATOM     32  C   UNL A   1      40.992  28.082  28.813  1.00  0.00     0.074 A 
ATOM     33  C   UNL A   1      40.369  28.392  27.545  1.00  0.00     0.031 C 
ATOM     34  C   UNL A   1      37.786  31.810  32.889  1.00  0.00     0.029 A 
ATOM     35  C   UNL A   1      39.060  31.130  33.095  1.00  0.00     0.049 A 
ATOM     36  H   UNL A   1      40.055  29.889  31.749  1.00  0.00     0.167 HD
ATOM     37  C   UNL A   1      42.059  27.258  28.960  1.00  0.00     0.037 A 
ATOM     38  C   UNL A   1      39.786  31.174  34.232  1.00  0.00     0.037 A 
ATOM     39  C   UNL A   1      42.771  27.061  30.197  1.00  0.00     0.049 A 
ATOM     40  C   UNL A   1      41.000  30.292  34.369  1.00  0.00     0.074 A 
ATOM     41  C   UNL A   1      43.846  26.227  30.457  1.00  0.00     0.029 A 
ATOM     42  N   UNL A   1      42.515  27.755  31.369  1.00  0.00    -0.354 N 
ATOM     43  N   UNL A   1      41.554  29.499  33.487  1.00  0.00    -0.248 NA
ATOM     44  C   UNL A   1      41.660  30.274  35.685  1.00  0.00     0.031 C 
ATOM     45  C   UNL A   1      44.229  26.404  31.791  1.00  0.00     0.029 A 
ATOM     46  C   UNL A   1      43.420  27.379  32.349  1.00  0.00     0.049 A 
ATOM     47  H   UNL A   1      41.796  28.417  31.488  1.00  0.00     0.167 HD
ATOM     48  C   UNL A   1      42.618  28.888  34.138  1.00  0.00     0.074 A 
ATOM     49  C   UNL A   1      42.660  29.432  35.478  1.00  0.00     0.031 C 
ATOM     50  C   UNL A   1      43.467  27.939  33.674  1.00  0.00     0.037 A 
BRANCH  37  51
ATOM     51  C   UNL A   1      42.485  26.449  27.767  1.00  0.00     0.064 A 
ATOM     52  C   UNL A   1      43.530  26.838  26.920  1.00  0.00     0.173 A 
ATOM     53  C   UNL A   1      41.832  25.235  27.488  1.00  0.00     0.173 A 
ATOM     54  F   UNL A   1      44.177  27.994  27.133  1.00  0.00    -0.203 F 
ATOM     55  C   UNL A   1      43.884  26.061  25.818  1.00  0.00     0.198 A 
ATOM     56  C   UNL A   1      42.211  24.445  26.406  1.00  0.00     0.198 A 
ATOM     57  F   UNL A   1      40.830  24.810  28.273  1.00  0.00    -0.203 F 
ATOM     58  F   UNL A   1      44.849  26.480  24.988  1.00  0.00    -0.200 F 
ATOM     59  C   UNL A   1      43.230  24.864  25.566  1.00  0.00     0.200 A 
ATOM     60  F   UNL A   1      41.587  23.282  26.178  1.00  0.00    -0.200 F 
ATOM     61  F   UNL A   1      43.577  24.117  24.509  1.00  0.00    -0.200 F 
ENDBRANCH  37  51
BRANCH  38  62
ATOM     62  C   UNL A   1      39.359  32.037  35.370  1.00  0.00     0.064 A 
ATOM     63  C   UNL A   1      38.534  31.533  36.387  1.00  0.00     0.173 A 
ATOM     64  C   UNL A   1      39.735  33.387  35.453  1.00  0.00     0.173 A 
ATOM     65  F   UNL A   1      38.110  30.261  36.337  1.00  0.00    -0.203 F 
ATOM     66  C   UNL A   1      38.095  32.346  37.432  1.00  0.00     0.198 A 
ATOM     67  C   UNL A   1      39.331  34.187  36.520  1.00  0.00     0.198 A 
ATOM     68  F   UNL A   1      40.508  33.928  34.501  1.00  0.00    -0.203 F 
ATOM     69  F   UNL A   1      37.260  31.853  38.357  1.00  0.00    -0.200 F 
ATOM     70  C   UNL A   1      38.503  33.669  37.504  1.00  0.00     0.200 A 
ATOM     71  F   UNL A   1      39.741  35.460  36.591  1.00  0.00    -0.200 F 
ATOM     72  F   UNL A   1      38.089  34.448  38.512  1.00  0.00    -0.200 F 
ENDBRANCH  38  62
BRANCH  50  73
ATOM     73  C   UNL A   1      44.538  27.455  34.607  1.00  0.00     0.064 A 
ATOM     74  C   UNL A   1      44.343  26.342  35.439  1.00  0.00     0.173 A 
ATOM     75  C   UNL A   1      45.784  28.100  34.655  1.00  0.00     0.173 A 
ATOM     76  F   UNL A   1      43.164  25.700  35.441  1.00  0.00    -0.203 F 
ATOM     77  C   UNL A   1      45.345  25.910  36.304  1.00  0.00     0.198 A 
ATOM     78  C   UNL A   1      46.792  27.649  35.503  1.00  0.00     0.198 A 
ATOM     79  F   UNL A   1      46.023  29.166  33.877  1.00  0.00    -0.203 F 
ATOM     80  F   UNL A   1      45.119  24.874  37.124  1.00  0.00    -0.200 F 
ATOM     81  C   UNL A   1      46.570  26.560  36.332  1.00  0.00     0.200 A 
ATOM     82  F   UNL A   1      47.978  28.272  35.521  1.00  0.00    -0.200 F 
ATOM     83  F   UNL A   1      47.533  26.143  37.165  1.00  0.00    -0.200 F 
ENDBRANCH  50  73
ENDBRANCH  24  25
ENDBRANCH  17  19
ENDBRANCH  16  17
ENDBRANCH   1  16
TORSDOF 12
ENDMDL
MODEL 3
REMARK VINA RESULT:     -11.5      1.394      3.277
REMARK SMILES CC[C@H]1CCC/C(=C(\C)C(=O)OCCOC(=O)c2ccc(-c3c4nc(c(-c5c(F)c(F)c(F)c(F)c5F)c5ccc([nH]5)c(-c5c(F)c(F)c(F)c(F)c5F)c5nc(c(-c6c(F)c(F)c(F)c(F)c6F)c6ccc3[nH]6)C=C5)C=C4)cc2)C1
REMARK SMILES IDX 14 1 13 2 12 3 10 4 11 5 8 6 3 7 4 8 81 9 5 10 7 11 6 12
REMARK SMILES IDX 9 13 2 14 1 15 15 16 16 17 17 18 18 19 19 20 80 21 20 22
REMARK SMILES IDX 79 23 21 24 22 25 23 26 73 27 24 28 78 29 72 30 74 31 25 32
REMARK SMILES IDX 77 33 71 34 70 35 26 37 58 38 38 39 57 40 39 41 42 42 56 43
REMARK SMILES IDX 75 44 40 45 41 46 55 48 76 49 43 50 27 51 28 52 36 53 29 54
REMARK SMILES IDX 30 55 34 56 37 57 31 58 32 59 35 60 33 61 59 62 60 63 68 64
REMARK SMILES IDX 61 65 62 66 66 67 69 68 63 69 64 70 67 71 65 72 44 73 45 74
REMARK SMILES IDX 53 75 46 76 47 77 51 78 54 79 48 80 49 81 52 82 50 83
REMARK H PARENT 74 36 42 47
REMARK Flexibility Score: inf
ROOT
ATOM      1  C   UNL A   1      32.108  30.016  25.277  1.00  0.00     0.275 C 
ENDROOT
BRANCH   1   2
ATOM      2  C   UNL A   1      31.274  28.775  24.962  1.00  0.00     0.275 C 
BRANCH   2   3
ATOM      3  O   UNL A   1      32.030  27.585  25.270  1.00  0.00    -0.459 OA
BRANCH   3   4
ATOM      4  C   UNL A   1      31.320  26.534  25.756  1.00  0.00     0.333 C 
ATOM      5  O   UNL A   1      30.929  26.394  26.899  1.00  0.00    -0.247 OA
BRANCH   4   6
ATOM      6  C   UNL A   1      31.106  25.526  24.665  1.00  0.00     0.033 C 
ATOM      7  C   UNL A   1      34.513  24.301  24.609  1.00  0.00    -0.007 C 
ATOM      8  C   UNL A   1      34.478  23.218  23.522  1.00  0.00     0.004 C 
ATOM      9  C   UNL A   1      33.187  24.267  25.376  1.00  0.00     0.035 C 
ATOM     10  C   UNL A   1      33.267  23.403  22.602  1.00  0.00     0.005 C 
ATOM     11  C   UNL A   1      31.998  24.520  24.474  1.00  0.00    -0.060 C 
ATOM     12  C   UNL A   1      31.938  23.486  23.366  1.00  0.00     0.031 C 
ATOM     13  C   UNL A   1      29.893  25.816  23.828  1.00  0.00     0.052 C 
BRANCH   7  14
ATOM     14  C   UNL A   1      35.692  24.112  25.581  1.00  0.00     0.000 C 
ATOM     15  C   UNL A   1      36.950  23.595  24.902  1.00  0.00     0.004 C 
ENDBRANCH   7  14
ENDBRANCH   4   6
ENDBRANCH   3   4
ENDBRANCH   2   3
ENDBRANCH   1   2
BRANCH   1  16
ATOM     16  O   UNL A   1      32.369  30.061  26.693  1.00  0.00    -0.458 OA
BRANCH  16  17
ATOM     17  C   UNL A   1      32.969  31.184  27.152  1.00  0.00     0.338 C 
ATOM     18  O   UNL A   1      32.444  32.271  27.343  1.00  0.00    -0.246 OA
BRANCH  17  19
ATOM     19  C   UNL A   1      34.391  30.922  27.475  1.00  0.00     0.060 A 
ATOM     20  C   UNL A   1      34.848  29.617  27.587  1.00  0.00     0.016 A 
ATOM     21  C   UNL A   1      35.233  31.969  27.852  1.00  0.00     0.016 A 
ATOM     22  C   UNL A   1      36.046  29.356  28.259  1.00  0.00     0.010 A 
ATOM     23  C   UNL A   1      36.500  31.698  28.397  1.00  0.00     0.010 A 
ATOM     24  C   UNL A   1      36.893  30.382  28.703  1.00  0.00    -0.014 A 
BRANCH  24  25
ATOM     25  C   UNL A   1      38.069  30.087  29.601  1.00  0.00     0.031 A 
ATOM     26  C   UNL A   1      39.274  29.350  29.045  1.00  0.00     0.074 A 
ATOM     27  C   UNL A   1      38.158  30.533  30.875  1.00  0.00     0.049 A 
ATOM     28  N   UNL A   1      40.262  28.765  29.681  1.00  0.00    -0.248 NA
ATOM     29  C   UNL A   1      39.366  29.234  27.582  1.00  0.00     0.031 C 
ATOM     30  C   UNL A   1      37.155  31.332  31.576  1.00  0.00     0.029 A 
ATOM     31  N   UNL A   1      39.174  30.412  31.800  1.00  0.00    -0.354 N 
ATOM     32  C   UNL A   1      41.004  28.105  28.708  1.00  0.00     0.074 A 
ATOM     33  C   UNL A   1      40.379  28.392  27.436  1.00  0.00     0.031 C 
ATOM     34  C   UNL A   1      37.651  31.730  32.758  1.00  0.00     0.029 A 
ATOM     35  C   UNL A   1      38.946  31.094  32.973  1.00  0.00     0.049 A 
ATOM     36  H   UNL A   1      39.990  29.885  31.635  1.00  0.00     0.167 HD
ATOM     37  C   UNL A   1      42.098  27.317  28.863  1.00  0.00     0.037 A 
ATOM     38  C   UNL A   1      39.663  31.165  34.113  1.00  0.00     0.037 A 
ATOM     39  C   UNL A   1      42.808  27.146  30.105  1.00  0.00     0.049 A 
ATOM     40  C   UNL A   1      40.905  30.324  34.260  1.00  0.00     0.074 A 
ATOM     41  C   UNL A   1      43.909  26.350  30.372  1.00  0.00     0.029 A 
ATOM     42  N   UNL A   1      42.523  27.834  31.274  1.00  0.00    -0.354 N 
ATOM     43  N   UNL A   1      41.491  29.548  33.383  1.00  0.00    -0.248 NA
ATOM     44  C   UNL A   1      41.558  30.331  35.579  1.00  0.00     0.031 C 
ATOM     45  C   UNL A   1      44.279  26.542  31.708  1.00  0.00     0.029 A 
ATOM     46  C   UNL A   1      43.434  27.491  32.259  1.00  0.00     0.049 A 
ATOM     47  H   UNL A   1      41.781  28.472  31.387  1.00  0.00     0.167 HD
ATOM     48  C   UNL A   1      42.571  28.974  34.041  1.00  0.00     0.074 A 
ATOM     49  C   UNL A   1      42.587  29.522  35.380  1.00  0.00     0.031 C 
ATOM     50  C   UNL A   1      43.454  28.054  33.584  1.00  0.00     0.037 A 
BRANCH  37  51
ATOM     51  C   UNL A   1      42.557  26.521  27.674  1.00  0.00     0.064 A 
ATOM     52  C   UNL A   1      43.543  26.978  26.790  1.00  0.00     0.173 A 
ATOM     53  C   UNL A   1      42.002  25.252  27.437  1.00  0.00     0.173 A 
ATOM     54  F   UNL A   1      44.096  28.188  26.962  1.00  0.00    -0.203 F 
ATOM     55  C   UNL A   1      43.931  26.209  25.693  1.00  0.00     0.198 A 
ATOM     56  C   UNL A   1      42.416  24.472  26.361  1.00  0.00     0.198 A 
ATOM     57  F   UNL A   1      41.061  24.761  28.259  1.00  0.00    -0.203 F 
ATOM     58  F   UNL A   1      44.835  26.689  24.828  1.00  0.00    -0.200 F 
ATOM     59  C   UNL A   1      43.374  24.957  25.484  1.00  0.00     0.200 A 
ATOM     60  F   UNL A   1      41.887  23.256  26.173  1.00  0.00    -0.200 F 
ATOM     61  F   UNL A   1      43.753  24.218  24.432  1.00  0.00    -0.200 F 
ENDBRANCH  37  51
BRANCH  38  62
ATOM     62  C   UNL A   1      39.201  32.015  35.248  1.00  0.00     0.064 A 
ATOM     63  C   UNL A   1      39.550  33.372  35.320  1.00  0.00     0.173 A 
ATOM     64  C   UNL A   1      38.433  31.488  36.298  1.00  0.00     0.173 A 
ATOM     65  F   UNL A   1      40.317  33.919  34.365  1.00  0.00    -0.203 F 
ATOM     66  C   UNL A   1      39.157  34.163  36.401  1.00  0.00     0.198 A 
ATOM     67  C   UNL A   1      38.006  32.289  37.355  1.00  0.00     0.198 A 
ATOM     68  F   UNL A   1      38.084  30.194  36.291  1.00  0.00    -0.203 F 
ATOM     69  F   UNL A   1      39.555  35.440  36.473  1.00  0.00    -0.200 F 
ATOM     70  C   UNL A   1      38.377  33.624  37.411  1.00  0.00     0.200 A 
ATOM     71  F   UNL A   1      37.239  31.765  38.321  1.00  0.00    -0.200 F 
ATOM     72  F   UNL A   1      37.992  34.384  38.445  1.00  0.00    -0.200 F 
ENDBRANCH  38  62
BRANCH  50  73
ATOM     73  C   UNL A   1      44.536  27.609  34.524  1.00  0.00     0.064 A 
ATOM     74  C   UNL A   1      45.752  28.300  34.628  1.00  0.00     0.173 A 
ATOM     75  C   UNL A   1      44.345  26.489  35.348  1.00  0.00     0.173 A 
ATOM     76  F   UNL A   1      45.989  29.370  33.852  1.00  0.00    -0.203 F 
ATOM     77  C   UNL A   1      46.749  27.870  35.501  1.00  0.00     0.198 A 
ATOM     78  C   UNL A   1      45.333  26.077  36.237  1.00  0.00     0.198 A 
ATOM     79  F   UNL A   1      43.198  25.795  35.290  1.00  0.00    -0.203 F 
ATOM     80  F   UNL A   1      47.921  28.518  35.548  1.00  0.00    -0.200 F 
ATOM     81  C   UNL A   1      46.537  26.762  36.308  1.00  0.00     0.200 A 
ATOM     82  F   UNL A   1      45.123  25.012  37.024  1.00  0.00    -0.200 F 
ATOM     83  F   UNL A   1      47.496  26.350  37.148  1.00  0.00    -0.200 F 
ENDBRANCH  50  73
ENDBRANCH  24  25
ENDBRANCH  17  19
ENDBRANCH  16  17
ENDBRANCH   1  16
TORSDOF 12
ENDMDL
