MODEL 1
REMARK VINA RESULT:     -12.5      0.000      0.000
REMARK SMILES CSCC[C@H](C(=O)OCCOC(=O)c1ccc(-c2c3nc(c(-c4c(F)c(F)c(F)c(F)c4F)c4ccc([nH]4)c(-c4c(F)c(F)c(F)c(F)c4F)c4nc(c(-c5c(F)c(F)c(F)c(F)c5F)c5ccc2[nH]5)C=C4)C=C3)cc1)N1C(=O)/C(=C/c2ccc3ncccc3c2)SC1=S
REMARK SMILES IDX 9 1 8 2 6 3 7 4 5 5 4 6 3 7 2 8 1 9 77 10 78 11 93 12 79 13
REMARK SMILES IDX 80 14 92 15 94 16 81 17 82 18 83 19 91 20 84 21 90 22 85 23
REMARK SMILES IDX 89 24 86 25 88 26 87 27 10 28 11 29 12 30 13 31 14 32 15 33
REMARK SMILES IDX 76 34 16 35 75 36 17 37 18 38 19 39 69 40 20 41 74 42 68 43
REMARK SMILES IDX 70 44 21 45 73 46 67 47 66 48 22 50 54 51 34 52 53 53 35 54
REMARK SMILES IDX 38 55 52 56 71 57 36 58 37 59 51 61 72 62 39 63 23 64 24 65
REMARK SMILES IDX 32 66 25 67 26 68 30 69 33 70 27 71 28 72 31 73 29 74 55 75
REMARK SMILES IDX 56 76 64 77 57 78 58 79 62 80 65 81 59 82 60 83 63 84 61 85
REMARK SMILES IDX 40 86 41 87 49 88 42 89 43 90 47 91 50 92 44 93 45 94 48 95
REMARK SMILES IDX 46 96
REMARK H PARENT 70 49 38 60
REMARK Flexibility Score: inf
ROOT
ATOM      1  C   UNL A   1      36.396  22.452  23.875  1.00  0.00     0.274 C 
ENDROOT
BRANCH   1   2
ATOM      2  O   UNL A   1      35.755  23.245  24.889  1.00  0.00    -0.461 OA
BRANCH   2   3
ATOM      3  C   UNL A   1      34.608  22.757  25.430  1.00  0.00     0.329 C 
ATOM      4  O   UNL A   1      34.403  22.644  26.633  1.00  0.00    -0.250 OA
BRANCH   3   5
ATOM      5  C   UNL A   1      33.640  22.233  24.362  1.00  0.00     0.202 C 
BRANCH   5   6
ATOM      6  C   UNL A   1      33.136  20.804  24.662  1.00  0.00     0.048 C 
BRANCH   6   7
ATOM      7  C   UNL A   1      34.151  19.662  24.713  1.00  0.00     0.072 C 
BRANCH   7   8
ATOM      8  S   UNL A   1      33.527  18.052  24.137  1.00  0.00    -0.165 SA
ATOM      9  C   UNL A   1      32.579  17.523  25.580  1.00  0.00     0.085 C 
ENDBRANCH   7   8
ENDBRANCH   6   7
ENDBRANCH   5   6
BRANCH   5  10
ATOM     10  N   UNL A   1      32.631  23.285  24.175  1.00  0.00    -0.278 N 
ATOM     11  C   UNL A   1      32.776  24.199  23.145  1.00  0.00     0.266 C 
ATOM     12  C   UNL A   1      31.459  23.376  24.906  1.00  0.00     0.149 C 
ATOM     13  O   UNL A   1      33.614  24.186  22.258  1.00  0.00    -0.268 OA
ATOM     14  C   UNL A   1      31.801  25.293  23.322  1.00  0.00     0.081 C 
ATOM     15  S   UNL A   1      30.588  24.829  24.441  1.00  0.00    -0.054 SA
ATOM     16  S   UNL A   1      30.878  22.362  26.097  1.00  0.00    -0.052 S 
ATOM     17  C   UNL A   1      32.032  26.501  22.793  1.00  0.00     0.029 C 
BRANCH  17  18
ATOM     18  C   UNL A   1      31.286  27.686  23.202  1.00  0.00    -0.024 A 
ATOM     19  C   UNL A   1      31.726  28.493  24.245  1.00  0.00     0.010 A 
ATOM     20  C   UNL A   1      30.151  28.054  22.471  1.00  0.00     0.018 A 
ATOM     21  C   UNL A   1      31.046  29.681  24.529  1.00  0.00     0.029 A 
ATOM     22  C   UNL A   1      29.490  29.256  22.746  1.00  0.00     0.001 A 
ATOM     23  C   UNL A   1      29.942  30.091  23.789  1.00  0.00     0.070 A 
ATOM     24  C   UNL A   1      28.391  29.671  21.985  1.00  0.00     0.012 A 
ATOM     25  N   UNL A   1      29.347  31.262  24.070  1.00  0.00    -0.256 NA
ATOM     26  C   UNL A   1      27.784  30.886  22.266  1.00  0.00     0.021 A 
ATOM     27  C   UNL A   1      28.295  31.637  23.309  1.00  0.00     0.112 A 
ENDBRANCH  17  18
ENDBRANCH   5  10
ENDBRANCH   3   5
ENDBRANCH   2   3
ENDBRANCH   1   2
BRANCH   1  28
ATOM     28  C   UNL A   1      37.334  21.420  24.501  1.00  0.00     0.275 C 
BRANCH  28  29
ATOM     29  O   UNL A   1      37.725  21.812  25.831  1.00  0.00    -0.458 OA
BRANCH  29  30
ATOM     30  C   UNL A   1      39.015  21.557  26.146  1.00  0.00     0.338 C 
ATOM     31  O   UNL A   1      39.652  20.545  25.917  1.00  0.00    -0.246 OA
BRANCH  30  32
ATOM     32  C   UNL A   1      39.625  22.764  26.714  1.00  0.00     0.060 A 
ATOM     33  C   UNL A   1      39.209  24.012  26.238  1.00  0.00     0.016 A 
ATOM     34  C   UNL A   1      40.660  22.658  27.640  1.00  0.00     0.016 A 
ATOM     35  C   UNL A   1      39.842  25.171  26.674  1.00  0.00     0.010 A 
ATOM     36  C   UNL A   1      41.295  23.819  28.078  1.00  0.00     0.010 A 
ATOM     37  C   UNL A   1      40.900  25.075  27.582  1.00  0.00    -0.014 A 
BRANCH  37  38
ATOM     38  C   UNL A   1      41.668  26.277  27.967  1.00  0.00     0.031 A 
ATOM     39  C   UNL A   1      40.984  27.354  28.751  1.00  0.00     0.074 A 
ATOM     40  C   UNL A   1      42.945  26.411  27.576  1.00  0.00     0.049 A 
ATOM     41  N   UNL A   1      41.384  28.570  29.014  1.00  0.00    -0.248 NA
ATOM     42  C   UNL A   1      39.663  27.015  29.305  1.00  0.00     0.031 C 
ATOM     43  C   UNL A   1      43.720  25.399  26.861  1.00  0.00     0.029 A 
ATOM     44  N   UNL A   1      43.804  27.473  27.703  1.00  0.00    -0.354 N 
ATOM     45  C   UNL A   1      40.352  29.154  29.733  1.00  0.00     0.074 A 
ATOM     46  C   UNL A   1      39.305  28.163  29.863  1.00  0.00     0.031 C 
ATOM     47  C   UNL A   1      44.937  25.899  26.586  1.00  0.00     0.029 A 
ATOM     48  C   UNL A   1      45.000  27.279  27.059  1.00  0.00     0.049 A 
ATOM     49  H   UNL A   1      43.585  28.289  28.204  1.00  0.00     0.167 HD
ATOM     50  C   UNL A   1      40.288  30.411  30.232  1.00  0.00     0.037 A 
ATOM     51  C   UNL A   1      46.010  28.141  26.836  1.00  0.00     0.037 A 
ATOM     52  C   UNL A   1      41.344  31.380  30.104  1.00  0.00     0.049 A 
ATOM     53  C   UNL A   1      45.894  29.549  27.352  1.00  0.00     0.074 A 
ATOM     54  C   UNL A   1      41.390  32.678  30.578  1.00  0.00     0.029 A 
ATOM     55  N   UNL A   1      42.546  31.148  29.448  1.00  0.00    -0.354 N 
ATOM     56  N   UNL A   1      44.912  30.110  28.014  1.00  0.00    -0.248 NA
ATOM     57  C   UNL A   1      47.026  30.447  27.084  1.00  0.00     0.031 C 
ATOM     58  C   UNL A   1      42.605  33.246  30.175  1.00  0.00     0.029 A 
ATOM     59  C   UNL A   1      43.334  32.286  29.492  1.00  0.00     0.049 A 
ATOM     60  H   UNL A   1      42.800  30.301  29.016  1.00  0.00     0.167 HD
ATOM     61  C   UNL A   1      45.314  31.414  28.266  1.00  0.00     0.074 A 
ATOM     62  C   UNL A   1      46.634  31.561  27.687  1.00  0.00     0.031 C 
ATOM     63  C   UNL A   1      44.653  32.400  28.919  1.00  0.00     0.037 A 
BRANCH  50  64
ATOM     64  C   UNL A   1      39.019  30.815  30.921  1.00  0.00     0.064 A 
ATOM     65  C   UNL A   1      38.867  30.715  32.313  1.00  0.00     0.173 A 
ATOM     66  C   UNL A   1      37.942  31.321  30.177  1.00  0.00     0.173 A 
ATOM     67  F   UNL A   1      39.860  30.222  33.066  1.00  0.00    -0.203 F 
ATOM     68  C   UNL A   1      37.672  31.078  32.929  1.00  0.00     0.198 A 
ATOM     69  C   UNL A   1      36.759  31.709  30.800  1.00  0.00     0.198 A 
ATOM     70  F   UNL A   1      38.037  31.438  28.844  1.00  0.00    -0.203 F 
ATOM     71  F   UNL A   1      37.530  30.927  34.252  1.00  0.00    -0.200 F 
ATOM     72  C   UNL A   1      36.622  31.580  32.174  1.00  0.00     0.200 A 
ATOM     73  F   UNL A   1      35.748  32.201  30.069  1.00  0.00    -0.200 F 
ATOM     74  F   UNL A   1      35.474  31.930  32.769  1.00  0.00    -0.200 F 
ENDBRANCH  50  64
BRANCH  51  75
ATOM     75  C   UNL A   1      47.199  27.695  26.069  1.00  0.00     0.064 A 
ATOM     76  C   UNL A   1      48.342  27.219  26.724  1.00  0.00     0.173 A 
ATOM     77  C   UNL A   1      47.209  27.715  24.666  1.00  0.00     0.173 A 
ATOM     78  F   UNL A   1      48.386  27.204  28.064  1.00  0.00    -0.203 F 
ATOM     79  C   UNL A   1      49.455  26.788  26.005  1.00  0.00     0.198 A 
ATOM     80  C   UNL A   1      48.313  27.259  23.948  1.00  0.00     0.198 A 
ATOM     81  F   UNL A   1      46.138  28.162  23.992  1.00  0.00    -0.203 F 
ATOM     82  F   UNL A   1      50.547  26.368  26.657  1.00  0.00    -0.200 F 
ATOM     83  C   UNL A   1      49.436  26.800  24.618  1.00  0.00     0.200 A 
ATOM     84  F   UNL A   1      48.286  27.264  22.608  1.00  0.00    -0.200 F 
ATOM     85  F   UNL A   1      50.503  26.376  23.929  1.00  0.00    -0.200 F 
ENDBRANCH  51  75
BRANCH  63  86
ATOM     86  C   UNL A   1      45.365  33.709  29.086  1.00  0.00     0.064 A 
ATOM     87  C   UNL A   1      46.217  33.949  30.173  1.00  0.00     0.173 A 
ATOM     88  C   UNL A   1      45.230  34.714  28.116  1.00  0.00     0.173 A 
ATOM     89  F   UNL A   1      46.364  33.024  31.133  1.00  0.00    -0.203 F 
ATOM     90  C   UNL A   1      46.898  35.158  30.291  1.00  0.00     0.198 A 
ATOM     91  C   UNL A   1      45.932  35.911  28.225  1.00  0.00     0.198 A 
ATOM     92  F   UNL A   1      44.430  34.528  27.056  1.00  0.00    -0.203 F 
ATOM     93  F   UNL A   1      47.680  35.383  31.356  1.00  0.00    -0.200 F 
ATOM     94  C   UNL A   1      46.761  36.133  29.314  1.00  0.00     0.200 A 
ATOM     95  F   UNL A   1      45.807  36.848  27.275  1.00  0.00    -0.200 F 
ATOM     96  F   UNL A   1      47.425  37.293  29.425  1.00  0.00    -0.200 F 
ENDBRANCH  63  86
ENDBRANCH  37  38
ENDBRANCH  30  32
ENDBRANCH  29  30
ENDBRANCH  28  29
ENDBRANCH   1  28
TORSDOF 16
ENDMDL
MODEL 2
REMARK VINA RESULT:     -12.4      0.274      1.919
REMARK SMILES CSCC[C@H](C(=O)OCCOC(=O)c1ccc(-c2c3nc(c(-c4c(F)c(F)c(F)c(F)c4F)c4ccc([nH]4)c(-c4c(F)c(F)c(F)c(F)c4F)c4nc(c(-c5c(F)c(F)c(F)c(F)c5F)c5ccc2[nH]5)C=C4)C=C3)cc1)N1C(=O)/C(=C/c2ccc3ncccc3c2)SC1=S
REMARK SMILES IDX 9 1 8 2 6 3 7 4 5 5 4 6 3 7 2 8 1 9 77 10 78 11 93 12 79 13
REMARK SMILES IDX 80 14 92 15 94 16 81 17 82 18 83 19 91 20 84 21 90 22 85 23
REMARK SMILES IDX 89 24 86 25 88 26 87 27 10 28 11 29 12 30 13 31 14 32 15 33
REMARK SMILES IDX 76 34 16 35 75 36 17 37 18 38 19 39 69 40 20 41 74 42 68 43
REMARK SMILES IDX 70 44 21 45 73 46 67 47 66 48 22 50 54 51 34 52 53 53 35 54
REMARK SMILES IDX 38 55 52 56 71 57 36 58 37 59 51 61 72 62 39 63 23 64 24 65
REMARK SMILES IDX 32 66 25 67 26 68 30 69 33 70 27 71 28 72 31 73 29 74 55 75
REMARK SMILES IDX 56 76 64 77 57 78 58 79 62 80 65 81 59 82 60 83 63 84 61 85
REMARK SMILES IDX 40 86 41 87 49 88 42 89 43 90 47 91 50 92 44 93 45 94 48 95
REMARK SMILES IDX 46 96
REMARK H PARENT 70 49 38 60
REMARK Flexibility Score: inf
ROOT
ATOM      1  C   UNL A   1      36.356  22.498  23.886  1.00  0.00     0.274 C 
ENDROOT
BRANCH   1   2
ATOM      2  O   UNL A   1      35.735  23.393  24.823  1.00  0.00    -0.461 OA
BRANCH   2   3
ATOM      3  C   UNL A   1      34.593  22.973  25.425  1.00  0.00     0.329 C 
ATOM      4  O   UNL A   1      34.420  22.938  26.637  1.00  0.00    -0.250 OA
BRANCH   3   5
ATOM      5  C   UNL A   1      33.579  22.414  24.418  1.00  0.00     0.202 C 
BRANCH   5   6
ATOM      6  C   UNL A   1      33.066  21.009  24.804  1.00  0.00     0.048 C 
BRANCH   6   7
ATOM      7  C   UNL A   1      32.528  20.094  23.704  1.00  0.00     0.072 C 
BRANCH   7   8
ATOM      8  S   UNL A   1      33.076  18.361  23.808  1.00  0.00    -0.165 SA
ATOM      9  C   UNL A   1      32.528  17.933  25.474  1.00  0.00     0.085 C 
ENDBRANCH   7   8
ENDBRANCH   6   7
ENDBRANCH   5   6
BRANCH   5  10
ATOM     10  N   UNL A   1      32.580  23.471  24.216  1.00  0.00    -0.278 N 
ATOM     11  C   UNL A   1      32.739  24.378  23.183  1.00  0.00     0.266 C 
ATOM     12  C   UNL A   1      31.401  23.574  24.935  1.00  0.00     0.149 C 
ATOM     13  O   UNL A   1      33.586  24.355  22.304  1.00  0.00    -0.268 OA
ATOM     14  C   UNL A   1      31.770  25.479  23.344  1.00  0.00     0.081 C 
ATOM     15  S   UNL A   1      30.544  25.031  24.454  1.00  0.00    -0.054 SA
ATOM     16  S   UNL A   1      30.802  22.571  26.126  1.00  0.00    -0.052 S 
ATOM     17  C   UNL A   1      32.015  26.683  22.811  1.00  0.00     0.029 C 
BRANCH  17  18
ATOM     18  C   UNL A   1      31.273  27.876  23.206  1.00  0.00    -0.024 A 
ATOM     19  C   UNL A   1      31.621  28.600  24.340  1.00  0.00     0.010 A 
ATOM     20  C   UNL A   1      30.244  28.336  22.376  1.00  0.00     0.018 A 
ATOM     21  C   UNL A   1      30.958  29.800  24.620  1.00  0.00     0.029 A 
ATOM     22  C   UNL A   1      29.603  29.549  22.650  1.00  0.00     0.001 A 
ATOM     23  C   UNL A   1      29.964  30.301  23.788  1.00  0.00     0.070 A 
ATOM     24  C   UNL A   1      28.615  30.057  21.798  1.00  0.00     0.012 A 
ATOM     25  N   UNL A   1      29.386  31.480  24.071  1.00  0.00    -0.256 NA
ATOM     26  C   UNL A   1      28.028  31.280  22.084  1.00  0.00     0.021 A 
ATOM     27  C   UNL A   1      28.443  31.946  23.222  1.00  0.00     0.112 A 
ENDBRANCH  17  18
ENDBRANCH   5  10
ENDBRANCH   3   5
ENDBRANCH   2   3
ENDBRANCH   1   2
BRANCH   1  28
ATOM     28  C   UNL A   1      37.083  21.365  24.612  1.00  0.00     0.275 C 
BRANCH  28  29
ATOM     29  O   UNL A   1      37.567  21.798  25.897  1.00  0.00    -0.458 OA
BRANCH  29  30
ATOM     30  C   UNL A   1      38.877  21.557  26.126  1.00  0.00     0.338 C 
ATOM     31  O   UNL A   1      39.513  20.559  25.837  1.00  0.00    -0.246 OA
BRANCH  30  32
ATOM     32  C   UNL A   1      39.505  22.762  26.678  1.00  0.00     0.060 A 
ATOM     33  C   UNL A   1      39.074  24.012  26.221  1.00  0.00     0.016 A 
ATOM     34  C   UNL A   1      40.570  22.653  27.570  1.00  0.00     0.016 A 
ATOM     35  C   UNL A   1      39.721  25.169  26.640  1.00  0.00     0.010 A 
ATOM     36  C   UNL A   1      41.218  23.812  27.991  1.00  0.00     0.010 A 
ATOM     37  C   UNL A   1      40.808  25.071  27.514  1.00  0.00    -0.014 A 
BRANCH  37  38
ATOM     38  C   UNL A   1      41.587  26.271  27.877  1.00  0.00     0.031 A 
ATOM     39  C   UNL A   1      40.916  27.365  28.649  1.00  0.00     0.074 A 
ATOM     40  C   UNL A   1      42.864  26.389  27.479  1.00  0.00     0.049 A 
ATOM     41  N   UNL A   1      41.327  28.581  28.893  1.00  0.00    -0.248 NA
ATOM     42  C   UNL A   1      39.595  27.045  29.213  1.00  0.00     0.031 C 
ATOM     43  C   UNL A   1      43.628  25.360  26.776  1.00  0.00     0.029 A 
ATOM     44  N   UNL A   1      43.732  27.444  27.587  1.00  0.00    -0.354 N 
ATOM     45  C   UNL A   1      40.303  29.184  29.608  1.00  0.00     0.074 A 
ATOM     46  C   UNL A   1      39.248  28.204  29.756  1.00  0.00     0.031 C 
ATOM     47  C   UNL A   1      44.847  25.845  26.489  1.00  0.00     0.029 A 
ATOM     48  C   UNL A   1      44.924  27.232  26.941  1.00  0.00     0.049 A 
ATOM     49  H   UNL A   1      43.522  28.270  28.078  1.00  0.00     0.167 HD
ATOM     50  C   UNL A   1      40.252  30.449  30.088  1.00  0.00     0.037 A 
ATOM     51  C   UNL A   1      45.940  28.081  26.702  1.00  0.00     0.037 A 
ATOM     52  C   UNL A   1      41.316  31.406  29.942  1.00  0.00     0.049 A 
ATOM     53  C   UNL A   1      45.839  29.498  27.198  1.00  0.00     0.074 A 
ATOM     54  C   UNL A   1      41.375  32.711  30.397  1.00  0.00     0.029 A 
ATOM     55  N   UNL A   1      42.513  31.155  29.285  1.00  0.00    -0.354 N 
ATOM     56  N   UNL A   1      44.863  30.077  27.857  1.00  0.00    -0.248 NA
ATOM     57  C   UNL A   1      46.977  30.382  26.912  1.00  0.00     0.031 C 
ATOM     58  C   UNL A   1      42.592  33.263  29.982  1.00  0.00     0.029 A 
ATOM     59  C   UNL A   1      43.311  32.287  29.309  1.00  0.00     0.049 A 
ATOM     60  H   UNL A   1      42.758  30.300  28.864  1.00  0.00     0.167 HD
ATOM     61  C   UNL A   1      45.277  31.380  28.088  1.00  0.00     0.074 A 
ATOM     62  C   UNL A   1      46.596  31.508  27.501  1.00  0.00     0.031 C 
ATOM     63  C   UNL A   1      44.628  32.382  28.729  1.00  0.00     0.037 A 
BRANCH  50  64
ATOM     64  C   UNL A   1      38.989  30.874  30.777  1.00  0.00     0.064 A 
ATOM     65  C   UNL A   1      37.915  31.439  30.074  1.00  0.00     0.173 A 
ATOM     66  C   UNL A   1      38.850  30.702  32.163  1.00  0.00     0.173 A 
ATOM     67  F   UNL A   1      38.006  31.640  28.751  1.00  0.00    -0.203 F 
ATOM     68  C   UNL A   1      36.759  31.844  30.738  1.00  0.00     0.198 A 
ATOM     69  C   UNL A   1      37.682  31.082  32.819  1.00  0.00     0.198 A 
ATOM     70  F   UNL A   1      39.847  30.164  32.882  1.00  0.00    -0.203 F 
ATOM     71  F   UNL A   1      35.766  32.428  30.054  1.00  0.00    -0.200 F 
ATOM     72  C   UNL A   1      36.641  31.660  32.108  1.00  0.00     0.200 A 
ATOM     73  F   UNL A   1      37.567  30.896  34.142  1.00  0.00    -0.200 F 
ATOM     74  F   UNL A   1      35.528  32.049  32.744  1.00  0.00    -0.200 F 
ENDBRANCH  50  64
BRANCH  51  75
ATOM     75  C   UNL A   1      47.122  27.615  25.936  1.00  0.00     0.064 A 
ATOM     76  C   UNL A   1      47.159  27.717  24.540  1.00  0.00     0.173 A 
ATOM     77  C   UNL A   1      48.244  27.077  26.584  1.00  0.00     0.173 A 
ATOM     78  F   UNL A   1      46.100  28.203  23.876  1.00  0.00    -0.203 F 
ATOM     79  C   UNL A   1      48.273  27.292  23.818  1.00  0.00     0.198 A 
ATOM     80  C   UNL A   1      49.367  26.676  25.863  1.00  0.00     0.198 A 
ATOM     81  F   UNL A   1      48.256  26.958  27.920  1.00  0.00    -0.203 F 
ATOM     82  F   UNL A   1      48.271  27.371  22.480  1.00  0.00    -0.200 F 
ATOM     83  C   UNL A   1      49.379  26.780  24.481  1.00  0.00     0.200 A 
ATOM     84  F   UNL A   1      50.436  26.191  26.509  1.00  0.00    -0.200 F 
ATOM     85  F   UNL A   1      50.452  26.380  23.786  1.00  0.00    -0.200 F 
ENDBRANCH  51  75
BRANCH  63  86
ATOM     86  C   UNL A   1      45.351  33.687  28.875  1.00  0.00     0.064 A 
ATOM     87  C   UNL A   1      45.190  34.725  27.947  1.00  0.00     0.173 A 
ATOM     88  C   UNL A   1      46.174  33.917  29.988  1.00  0.00     0.173 A 
ATOM     89  F   UNL A   1      44.425  34.546  26.859  1.00  0.00    -0.203 F 
ATOM     90  C   UNL A   1      45.842  35.943  28.119  1.00  0.00     0.198 A 
ATOM     91  C   UNL A   1      46.804  35.144  30.170  1.00  0.00     0.198 A 
ATOM     92  F   UNL A   1      46.354  32.955  30.905  1.00  0.00    -0.203 F 
ATOM     93  F   UNL A   1      45.704  36.910  27.202  1.00  0.00    -0.200 F 
ATOM     94  C   UNL A   1      46.641  36.154  29.234  1.00  0.00     0.200 A 
ATOM     95  F   UNL A   1      47.567  35.350  31.252  1.00  0.00    -0.200 F 
ATOM     96  F   UNL A   1      47.260  37.330  29.403  1.00  0.00    -0.200 F 
ENDBRANCH  63  86
ENDBRANCH  37  38
ENDBRANCH  30  32
ENDBRANCH  29  30
ENDBRANCH  28  29
ENDBRANCH   1  28
TORSDOF 16
ENDMDL
MODEL 3
REMARK VINA RESULT:     -12.3      1.459      7.425
REMARK SMILES CSCC[C@H](C(=O)OCCOC(=O)c1ccc(-c2c3nc(c(-c4c(F)c(F)c(F)c(F)c4F)c4ccc([nH]4)c(-c4c(F)c(F)c(F)c(F)c4F)c4nc(c(-c5c(F)c(F)c(F)c(F)c5F)c5ccc2[nH]5)C=C4)C=C3)cc1)N1C(=O)/C(=C/c2ccc3ncccc3c2)SC1=S
REMARK SMILES IDX 9 1 8 2 6 3 7 4 5 5 4 6 3 7 2 8 1 9 77 10 78 11 93 12 79 13
REMARK SMILES IDX 80 14 92 15 94 16 81 17 82 18 83 19 91 20 84 21 90 22 85 23
REMARK SMILES IDX 89 24 86 25 88 26 87 27 10 28 11 29 12 30 13 31 14 32 15 33
REMARK SMILES IDX 76 34 16 35 75 36 17 37 18 38 19 39 69 40 20 41 74 42 68 43
REMARK SMILES IDX 70 44 21 45 73 46 67 47 66 48 22 50 54 51 34 52 53 53 35 54
REMARK SMILES IDX 38 55 52 56 71 57 36 58 37 59 51 61 72 62 39 63 23 64 24 65
REMARK SMILES IDX 32 66 25 67 26 68 30 69 33 70 27 71 28 72 31 73 29 74 55 75
REMARK SMILES IDX 56 76 64 77 57 78 58 79 62 80 65 81 59 82 60 83 63 84 61 85
REMARK SMILES IDX 40 86 41 87 49 88 42 89 43 90 47 91 50 92 44 93 45 94 48 95
REMARK SMILES IDX 46 96
REMARK H PARENT 70 49 38 60
REMARK Flexibility Score: inf
ROOT
ATOM      1  C   UNL A   1      38.167  20.319  24.784  1.00  0.00     0.274 C 
ENDROOT
BRANCH   1   2
ATOM      2  O   UNL A   1      36.880  20.601  25.360  1.00  0.00    -0.461 OA
BRANCH   2   3
ATOM      3  C   UNL A   1      36.269  21.755  24.988  1.00  0.00     0.329 C 
ATOM      4  O   UNL A   1      36.758  22.871  25.117  1.00  0.00    -0.250 OA
BRANCH   3   5
ATOM      5  C   UNL A   1      34.831  21.521  24.507  1.00  0.00     0.202 C 
BRANCH   5   6
ATOM      6  C   UNL A   1      34.269  20.152  24.950  1.00  0.00     0.048 C 
BRANCH   6   7
ATOM      7  C   UNL A   1      32.913  19.703  24.407  1.00  0.00     0.072 C 
BRANCH   7   8
ATOM      8  S   UNL A   1      32.561  17.926  24.590  1.00  0.00    -0.165 SA
ATOM      9  C   UNL A   1      33.616  17.238  23.297  1.00  0.00     0.085 C 
ENDBRANCH   7   8
ENDBRANCH   6   7
ENDBRANCH   5   6
BRANCH   5  10
ATOM     10  N   UNL A   1      34.074  22.721  24.884  1.00  0.00    -0.278 N 
ATOM     11  C   UNL A   1      33.671  23.614  23.906  1.00  0.00     0.266 C 
ATOM     12  C   UNL A   1      33.628  22.987  26.168  1.00  0.00     0.149 C 
ATOM     13  O   UNL A   1      33.772  23.480  22.697  1.00  0.00    -0.268 OA
ATOM     14  C   UNL A   1      33.170  24.847  24.545  1.00  0.00     0.081 C 
ATOM     15  S   UNL A   1      32.859  24.567  26.207  1.00  0.00    -0.054 SA
ATOM     16  S   UNL A   1      33.778  22.063  27.548  1.00  0.00    -0.052 S 
ATOM     17  C   UNL A   1      33.184  26.010  23.882  1.00  0.00     0.029 C 
BRANCH  17  18
ATOM     18  C   UNL A   1      33.015  27.293  24.555  1.00  0.00    -0.024 A 
ATOM     19  C   UNL A   1      31.815  27.991  24.488  1.00  0.00     0.010 A 
ATOM     20  C   UNL A   1      34.060  27.782  25.347  1.00  0.00     0.018 A 
ATOM     21  C   UNL A   1      31.655  29.159  25.242  1.00  0.00     0.029 A 
ATOM     22  C   UNL A   1      33.884  28.938  26.116  1.00  0.00     0.001 A 
ATOM     23  C   UNL A   1      32.663  29.641  26.070  1.00  0.00     0.070 A 
ATOM     24  C   UNL A   1      34.896  29.408  26.962  1.00  0.00     0.012 A 
ATOM     25  N   UNL A   1      32.449  30.742  26.810  1.00  0.00    -0.256 NA
ATOM     26  C   UNL A   1      34.671  30.536  27.735  1.00  0.00     0.021 A 
ATOM     27  C   UNL A   1      33.443  31.162  27.624  1.00  0.00     0.112 A 
ENDBRANCH  17  18
ENDBRANCH   5  10
ENDBRANCH   3   5
ENDBRANCH   2   3
ENDBRANCH   1   2
BRANCH   1  28
ATOM     28  C   UNL A   1      39.050  19.554  25.770  1.00  0.00     0.275 C 
BRANCH  28  29
ATOM     29  O   UNL A   1      40.330  20.196  25.927  1.00  0.00    -0.458 OA
BRANCH  29  30
ATOM     30  C   UNL A   1      40.712  20.404  27.207  1.00  0.00     0.338 C 
ATOM     31  O   UNL A   1      40.954  19.567  28.058  1.00  0.00    -0.246 OA
BRANCH  30  32
ATOM     32  C   UNL A   1      40.939  21.837  27.421  1.00  0.00     0.060 A 
ATOM     33  C   UNL A   1      40.336  22.749  26.547  1.00  0.00     0.016 A 
ATOM     34  C   UNL A   1      41.812  22.268  28.417  1.00  0.00     0.016 A 
ATOM     35  C   UNL A   1      40.618  24.106  26.653  1.00  0.00     0.010 A 
ATOM     36  C   UNL A   1      42.094  23.629  28.524  1.00  0.00     0.010 A 
ATOM     37  C   UNL A   1      41.513  24.548  27.632  1.00  0.00    -0.014 A 
BRANCH  37  38
ATOM     38  C   UNL A   1      41.922  25.965  27.686  1.00  0.00     0.031 A 
ATOM     39  C   UNL A   1      43.244  26.362  27.105  1.00  0.00     0.074 A 
ATOM     40  C   UNL A   1      41.133  26.870  28.289  1.00  0.00     0.049 A 
ATOM     41  N   UNL A   1      43.899  27.486  27.224  1.00  0.00    -0.248 NA
ATOM     42  C   UNL A   1      43.926  25.344  26.289  1.00  0.00     0.031 C 
ATOM     43  C   UNL A   1      39.804  26.601  28.833  1.00  0.00     0.029 A 
ATOM     44  N   UNL A   1      41.355  28.194  28.568  1.00  0.00    -0.354 N 
ATOM     45  C   UNL A   1      45.085  27.302  26.527  1.00  0.00     0.074 A 
ATOM     46  C   UNL A   1      45.063  25.957  25.992  1.00  0.00     0.031 C 
ATOM     47  C   UNL A   1      39.336  27.721  29.408  1.00  0.00     0.029 A 
ATOM     48  C   UNL A   1      40.356  28.763  29.316  1.00  0.00     0.049 A 
ATOM     49  H   UNL A   1      42.150  28.686  28.262  1.00  0.00     0.167 HD
ATOM     50  C   UNL A   1      46.101  28.182  26.360  1.00  0.00     0.037 A 
ATOM     51  C   UNL A   1      40.298  29.974  29.901  1.00  0.00     0.037 A 
ATOM     52  C   UNL A   1      46.099  29.519  26.889  1.00  0.00     0.049 A 
ATOM     53  C   UNL A   1      41.462  30.914  29.748  1.00  0.00     0.074 A 
ATOM     54  C   UNL A   1      47.070  30.498  26.772  1.00  0.00     0.029 A 
ATOM     55  N   UNL A   1      45.067  30.065  27.640  1.00  0.00    -0.354 N 
ATOM     56  N   UNL A   1      42.592  30.735  29.108  1.00  0.00    -0.248 NA
ATOM     57  C   UNL A   1      41.345  32.223  30.405  1.00  0.00     0.031 C 
ATOM     58  C   UNL A   1      46.643  31.623  27.486  1.00  0.00     0.029 A 
ATOM     59  C   UNL A   1      45.385  31.362  28.007  1.00  0.00     0.049 A 
ATOM     60  H   UNL A   1      44.233  29.599  27.876  1.00  0.00     0.167 HD
ATOM     61  C   UNL A   1      43.309  31.913  29.259  1.00  0.00     0.074 A 
ATOM     62  C   UNL A   1      42.484  32.803  30.051  1.00  0.00     0.031 C 
ATOM     63  C   UNL A   1      44.537  32.232  28.785  1.00  0.00     0.037 A 
BRANCH  50  64
ATOM     64  C   UNL A   1      47.308  27.704  25.610  1.00  0.00     0.064 A 
ATOM     65  C   UNL A   1      47.375  27.743  24.209  1.00  0.00     0.173 A 
ATOM     66  C   UNL A   1      48.421  27.208  26.307  1.00  0.00     0.173 A 
ATOM     67  F   UNL A   1      46.331  28.192  23.497  1.00  0.00    -0.203 F 
ATOM     68  C   UNL A   1      48.500  27.277  23.533  1.00  0.00     0.198 A 
ATOM     69  C   UNL A   1      49.555  26.768  25.629  1.00  0.00     0.198 A 
ATOM     70  F   UNL A   1      48.409  27.151  27.647  1.00  0.00    -0.203 F 
ATOM     71  F   UNL A   1      48.522  27.277  22.193  1.00  0.00    -0.200 F 
ATOM     72  C   UNL A   1      49.590  26.796  24.243  1.00  0.00     0.200 A 
ATOM     73  F   UNL A   1      50.610  26.311  26.317  1.00  0.00    -0.200 F 
ATOM     74  F   UNL A   1      50.671  26.348  23.590  1.00  0.00    -0.200 F 
ENDBRANCH  50  64
BRANCH  51  75
ATOM     75  C   UNL A   1      39.106  30.344  30.703  1.00  0.00     0.064 A 
ATOM     76  C   UNL A   1      39.034  30.037  32.068  1.00  0.00     0.173 A 
ATOM     77  C   UNL A   1      38.026  31.031  30.129  1.00  0.00     0.173 A 
ATOM     78  F   UNL A   1      40.032  29.361  32.656  1.00  0.00    -0.203 F 
ATOM     79  C   UNL A   1      37.922  30.396  32.828  1.00  0.00     0.198 A 
ATOM     80  C   UNL A   1      36.926  31.411  30.894  1.00  0.00     0.198 A 
ATOM     81  F   UNL A   1      38.048  31.347  28.825  1.00  0.00    -0.203 F 
ATOM     82  F   UNL A   1      37.864  30.062  34.124  1.00  0.00    -0.200 F 
ATOM     83  C   UNL A   1      36.873  31.090  32.242  1.00  0.00     0.200 A 
ATOM     84  F   UNL A   1      35.920  32.090  30.326  1.00  0.00    -0.200 F 
ATOM     85  F   UNL A   1      35.809  31.442  32.975  1.00  0.00    -0.200 F 
ENDBRANCH  51  75
BRANCH  63  86
ATOM     86  C   UNL A   1      45.044  33.615  29.065  1.00  0.00     0.064 A 
ATOM     87  C   UNL A   1      45.852  33.891  30.177  1.00  0.00     0.173 A 
ATOM     88  C   UNL A   1      44.759  34.664  28.178  1.00  0.00     0.173 A 
ATOM     89  F   UNL A   1      46.138  32.924  31.061  1.00  0.00    -0.203 F 
ATOM     90  C   UNL A   1      46.342  35.175  30.400  1.00  0.00     0.198 A 
ATOM     91  C   UNL A   1      45.272  35.940  28.390  1.00  0.00     0.198 A 
ATOM     92  F   UNL A   1      43.995  34.447  27.097  1.00  0.00    -0.203 F 
ATOM     93  F   UNL A   1      47.083  35.428  31.488  1.00  0.00    -0.200 F 
ATOM     94  C   UNL A   1      46.059  36.195  29.503  1.00  0.00     0.200 A 
ATOM     95  F   UNL A   1      45.007  36.922  27.518  1.00  0.00    -0.200 F 
ATOM     96  F   UNL A   1      46.541  37.428  29.715  1.00  0.00    -0.200 F 
ENDBRANCH  63  86
ENDBRANCH  37  38
ENDBRANCH  30  32
ENDBRANCH  29  30
ENDBRANCH  28  29
ENDBRANCH   1  28
TORSDOF 16
ENDMDL
