MODEL 1
REMARK VINA RESULT:     -12.7      0.000      0.000
REMARK SMILES C[C@@H]1CN(S(=O)(=O)c2ccc(Cl)c(C(=O)OCCOC(=O)c3ccc(-c4c5nc(c(-c6c(F)c(F)c(F)c(F)c6F)c6ccc([nH]6)c(-c6c(F)c(F)c(F)c(F)c6F)c6nc(c(-c7c(F)c(F)c(F)c(F)c7F)c7ccc4[nH]7)C=C6)C=C5)cc3)c2Cl)C[C@H]1C
REMARK SMILES IDX 17 1 16 2 14 3 15 4 13 5 8 6 9 7 85 8 10 9 86 10 11 11 12 12
REMARK SMILES IDX 5 13 6 14 7 15 4 16 1 17 2 18 3 19 88 20 87 21 89 22 18 23
REMARK SMILES IDX 19 24 20 25 21 26 22 27 23 28 84 29 24 30 83 31 25 32 26 33
REMARK SMILES IDX 27 34 77 35 28 36 82 37 76 38 78 39 29 40 81 41 75 42 74 43
REMARK SMILES IDX 30 45 62 46 42 47 61 48 43 49 46 50 60 51 79 52 44 53 45 54
REMARK SMILES IDX 59 56 80 57 47 58 31 59 32 60 40 61 33 62 34 63 38 64 41 65
REMARK SMILES IDX 35 66 36 67 39 68 37 69 63 70 64 71 72 72 65 73 66 74 70 75
REMARK SMILES IDX 73 76 67 77 68 78 71 79 69 80 48 81 49 82 57 83 50 84 51 85
REMARK SMILES IDX 55 86 58 87 52 88 53 89 56 90 54 91
REMARK H PARENT 78 44 46 55
REMARK Flexibility Score: inf
ROOT
ATOM      1  C   UNL A   1      31.681  28.931  27.257  1.00  0.00     0.275 C 
ENDROOT
BRANCH   1   2
ATOM      2  O   UNL A   1      32.280  27.928  26.408  1.00  0.00    -0.458 OA
BRANCH   2   3
ATOM      3  C   UNL A   1      31.511  26.886  25.989  1.00  0.00     0.341 C 
ATOM      4  O   UNL A   1      30.643  26.338  26.633  1.00  0.00    -0.246 OA
BRANCH   3   5
ATOM      5  C   UNL A   1      31.847  26.607  24.561  1.00  0.00     0.098 A 
ATOM      6  C   UNL A   1      32.781  25.111  22.882  1.00  0.00     0.102 A 
ATOM      7  C   UNL A   1      32.037  25.773  21.894  1.00  0.00     0.025 A 
ATOM      8  C   UNL A   1      32.755  25.576  24.208  1.00  0.00     0.077 A 
ATOM      9  C   UNL A   1      31.294  26.904  22.214  1.00  0.00     0.023 A 
ATOM     10  Cl  UNL A   1      33.937  25.019  25.351  1.00  0.00    -0.082 Cl
ATOM     11  C   UNL A   1      31.178  27.310  23.543  1.00  0.00     0.057 A 
ATOM     12  Cl  UNL A   1      30.259  28.751  23.828  1.00  0.00    -0.083 Cl
BRANCH   6  13
ATOM     13  S   UNL A   1      33.510  23.546  22.415  1.00  0.00     0.244 S 
ATOM     14  O   UNL A   1      34.861  23.531  22.947  1.00  0.00    -0.207 OA
ATOM     15  O   UNL A   1      33.300  23.330  21.003  1.00  0.00    -0.207 OA
BRANCH  13  16
ATOM     16  N   UNL A   1      32.630  22.379  23.282  1.00  0.00    -0.197 NA
ATOM     17  C   UNL A   1      33.349  19.537  25.590  1.00  0.00     0.009 C 
ATOM     18  C   UNL A   1      33.358  20.307  24.277  1.00  0.00     0.005 C 
ATOM     19  C   UNL A   1      33.271  21.815  24.501  1.00  0.00     0.106 C 
ATOM     20  C   UNL A   1      32.154  20.025  23.381  1.00  0.00     0.005 C 
ATOM     21  C   UNL A   1      32.170  21.230  22.437  1.00  0.00     0.106 C 
ATOM     22  C   UNL A   1      32.256  18.698  22.641  1.00  0.00     0.009 C 
ENDBRANCH  13  16
ENDBRANCH   6  13
ENDBRANCH   3   5
ENDBRANCH   2   3
ENDBRANCH   1   2
BRANCH   1  23
ATOM     23  C   UNL A   1      31.791  30.309  26.596  1.00  0.00     0.275 C 
BRANCH  23  24
ATOM     24  O   UNL A   1      33.174  30.673  26.435  1.00  0.00    -0.458 OA
BRANCH  24  25
ATOM     25  C   UNL A   1      33.584  31.689  27.227  1.00  0.00     0.338 C 
ATOM     26  O   UNL A   1      32.944  32.657  27.602  1.00  0.00    -0.246 OA
BRANCH  25  27
ATOM     27  C   UNL A   1      34.911  31.370  27.761  1.00  0.00     0.060 A 
ATOM     28  C   UNL A   1      35.125  30.055  28.157  1.00  0.00     0.016 A 
ATOM     29  C   UNL A   1      35.873  32.346  27.995  1.00  0.00     0.016 A 
ATOM     30  C   UNL A   1      36.274  29.706  28.855  1.00  0.00     0.010 A 
ATOM     31  C   UNL A   1      37.057  31.983  28.652  1.00  0.00     0.010 A 
ATOM     32  C   UNL A   1      37.255  30.667  29.118  1.00  0.00    -0.014 A 
BRANCH  32  33
ATOM     33  C   UNL A   1      38.441  30.317  29.946  1.00  0.00     0.031 A 
ATOM     34  C   UNL A   1      39.504  29.419  29.375  1.00  0.00     0.074 A 
ATOM     35  C   UNL A   1      38.589  30.811  31.191  1.00  0.00     0.049 A 
ATOM     36  N   UNL A   1      40.500  28.817  29.975  1.00  0.00    -0.248 NA
ATOM     37  C   UNL A   1      39.424  29.150  27.932  1.00  0.00     0.031 C 
ATOM     38  C   UNL A   1      37.689  31.767  31.837  1.00  0.00     0.029 A 
ATOM     39  N   UNL A   1      39.555  30.574  32.138  1.00  0.00    -0.354 N 
ATOM     40  C   UNL A   1      41.131  28.061  28.996  1.00  0.00     0.074 A 
ATOM     41  C   UNL A   1      40.397  28.266  27.765  1.00  0.00     0.031 C 
ATOM     42  C   UNL A   1      38.150  32.041  33.067  1.00  0.00     0.029 A 
ATOM     43  C   UNL A   1      39.325  31.217  33.329  1.00  0.00     0.049 A 
ATOM     44  H   UNL A   1      40.337  29.997  31.979  1.00  0.00     0.167 HD
ATOM     45  C   UNL A   1      42.222  27.266  29.117  1.00  0.00     0.037 A 
ATOM     46  C   UNL A   1      39.955  31.116  34.515  1.00  0.00     0.037 A 
ATOM     47  C   UNL A   1      42.973  27.108  30.337  1.00  0.00     0.049 A 
ATOM     48  C   UNL A   1      41.119  30.170  34.647  1.00  0.00     0.074 A 
ATOM     49  C   UNL A   1      44.096  26.331  30.566  1.00  0.00     0.029 A 
ATOM     50  N   UNL A   1      42.681  27.749  31.533  1.00  0.00    -0.354 N 
ATOM     51  N   UNL A   1      41.676  29.408  33.737  1.00  0.00    -0.248 NA
ATOM     52  C   UNL A   1      41.733  30.059  35.978  1.00  0.00     0.031 C 
ATOM     53  C   UNL A   1      44.450  26.460  31.912  1.00  0.00     0.029 A 
ATOM     54  C   UNL A   1      43.591  27.370  32.508  1.00  0.00     0.049 A 
ATOM     55  H   UNL A   1      41.938  28.381  31.669  1.00  0.00     0.167 HD
ATOM     56  C   UNL A   1      42.723  28.755  34.373  1.00  0.00     0.074 A 
ATOM     57  C   UNL A   1      42.731  29.217  35.746  1.00  0.00     0.031 C 
ATOM     58  C   UNL A   1      43.599  27.854  33.865  1.00  0.00     0.037 A 
BRANCH  45  59
ATOM     59  C   UNL A   1      42.644  26.470  27.915  1.00  0.00     0.064 A 
ATOM     60  C   UNL A   1      43.591  26.944  26.996  1.00  0.00     0.173 A 
ATOM     61  C   UNL A   1      42.103  25.192  27.694  1.00  0.00     0.173 A 
ATOM     62  F   UNL A   1      44.134  28.161  27.153  1.00  0.00    -0.203 F 
ATOM     63  C   UNL A   1      43.955  26.186  25.885  1.00  0.00     0.198 A 
ATOM     64  C   UNL A   1      42.496  24.423  26.603  1.00  0.00     0.198 A 
ATOM     65  F   UNL A   1      41.199  24.684  28.545  1.00  0.00    -0.203 F 
ATOM     66  F   UNL A   1      44.821  26.683  24.991  1.00  0.00    -0.200 F 
ATOM     67  C   UNL A   1      43.413  24.924  25.693  1.00  0.00     0.200 A 
ATOM     68  F   UNL A   1      41.984  23.195  26.431  1.00  0.00    -0.200 F 
ATOM     69  F   UNL A   1      43.771  24.193  24.628  1.00  0.00    -0.200 F 
ENDBRANCH  45  59
BRANCH  46  70
ATOM     70  C   UNL A   1      39.472  31.898  35.685  1.00  0.00     0.064 A 
ATOM     71  C   UNL A   1      39.995  33.165  35.975  1.00  0.00     0.173 A 
ATOM     72  C   UNL A   1      38.486  31.388  36.546  1.00  0.00     0.173 A 
ATOM     73  F   UNL A   1      40.960  33.685  35.200  1.00  0.00    -0.203 F 
ATOM     74  C   UNL A   1      39.567  33.884  37.089  1.00  0.00     0.198 A 
ATOM     75  C   UNL A   1      38.033  32.124  37.639  1.00  0.00     0.198 A 
ATOM     76  F   UNL A   1      37.955  30.179  36.319  1.00  0.00    -0.203 F 
ATOM     77  F   UNL A   1      40.123  35.069  37.374  1.00  0.00    -0.200 F 
ATOM     78  C   UNL A   1      38.580  33.367  37.915  1.00  0.00     0.200 A 
ATOM     79  F   UNL A   1      37.070  31.625  38.425  1.00  0.00    -0.200 F 
ATOM     80  F   UNL A   1      38.165  34.060  38.984  1.00  0.00    -0.200 F 
ENDBRANCH  46  70
BRANCH  58  81
ATOM     81  C   UNL A   1      44.684  27.354  34.777  1.00  0.00     0.064 A 
ATOM     82  C   UNL A   1      45.904  28.030  34.921  1.00  0.00     0.173 A 
ATOM     83  C   UNL A   1      44.475  26.201  35.551  1.00  0.00     0.173 A 
ATOM     84  F   UNL A   1      46.160  29.127  34.192  1.00  0.00    -0.203 F 
ATOM     85  C   UNL A   1      46.885  27.556  35.788  1.00  0.00     0.198 A 
ATOM     86  C   UNL A   1      45.444  25.751  36.442  1.00  0.00     0.198 A 
ATOM     87  F   UNL A   1      43.323  25.522  35.456  1.00  0.00    -0.203 F 
ATOM     88  F   UNL A   1      48.064  28.188  35.873  1.00  0.00    -0.200 F 
ATOM     89  C   UNL A   1      46.651  26.423  36.555  1.00  0.00     0.200 A 
ATOM     90  F   UNL A   1      45.209  24.666  37.193  1.00  0.00    -0.200 F 
ATOM     91  F   UNL A   1      47.593  25.975  37.397  1.00  0.00    -0.200 F 
ENDBRANCH  58  81
ENDBRANCH  32  33
ENDBRANCH  25  27
ENDBRANCH  24  25
ENDBRANCH  23  24
ENDBRANCH   1  23
TORSDOF 13
ENDMDL
MODEL 2
REMARK VINA RESULT:     -12.7      4.321      9.919
REMARK SMILES C[C@@H]1CN(S(=O)(=O)c2ccc(Cl)c(C(=O)OCCOC(=O)c3ccc(-c4c5nc(c(-c6c(F)c(F)c(F)c(F)c6F)c6ccc([nH]6)c(-c6c(F)c(F)c(F)c(F)c6F)c6nc(c(-c7c(F)c(F)c(F)c(F)c7F)c7ccc4[nH]7)C=C6)C=C5)cc3)c2Cl)C[C@H]1C
REMARK SMILES IDX 17 1 16 2 14 3 15 4 13 5 8 6 9 7 85 8 10 9 86 10 11 11 12 12
REMARK SMILES IDX 5 13 6 14 7 15 4 16 1 17 2 18 3 19 88 20 87 21 89 22 18 23
REMARK SMILES IDX 19 24 20 25 21 26 22 27 23 28 84 29 24 30 83 31 25 32 26 33
REMARK SMILES IDX 27 34 77 35 28 36 82 37 76 38 78 39 29 40 81 41 75 42 74 43
REMARK SMILES IDX 30 45 62 46 42 47 61 48 43 49 46 50 60 51 79 52 44 53 45 54
REMARK SMILES IDX 59 56 80 57 47 58 31 59 32 60 40 61 33 62 34 63 38 64 41 65
REMARK SMILES IDX 35 66 36 67 39 68 37 69 63 70 64 71 72 72 65 73 66 74 70 75
REMARK SMILES IDX 73 76 67 77 68 78 71 79 69 80 48 81 49 82 57 83 50 84 51 85
REMARK SMILES IDX 55 86 58 87 52 88 53 89 56 90 54 91
REMARK H PARENT 78 44 46 55
REMARK Flexibility Score: inf
ROOT
ATOM      1  C   UNL A   1      35.992  20.340  25.042  1.00  0.00     0.275 C 
ENDROOT
BRANCH   1   2
ATOM      2  O   UNL A   1      35.443  21.431  25.811  1.00  0.00    -0.458 OA
BRANCH   2   3
ATOM      3  C   UNL A   1      34.122  21.398  26.138  1.00  0.00     0.341 C 
ATOM      4  O   UNL A   1      33.660  21.032  27.197  1.00  0.00    -0.246 OA
BRANCH   3   5
ATOM      5  C   UNL A   1      33.349  21.991  25.006  1.00  0.00     0.098 A 
ATOM      6  C   UNL A   1      32.863  23.898  23.574  1.00  0.00     0.102 A 
ATOM      7  C   UNL A   1      32.352  23.025  22.602  1.00  0.00     0.025 A 
ATOM      8  C   UNL A   1      33.288  23.395  24.815  1.00  0.00     0.077 A 
ATOM      9  C   UNL A   1      32.238  21.665  22.870  1.00  0.00     0.023 A 
ATOM     10  Cl  UNL A   1      33.565  24.475  26.145  1.00  0.00    -0.082 Cl
ATOM     11  C   UNL A   1      32.754  21.142  24.056  1.00  0.00     0.057 A 
ATOM     12  Cl  UNL A   1      32.529  19.443  24.306  1.00  0.00    -0.083 Cl
BRANCH   6  13
ATOM     13  S   UNL A   1      33.178  25.578  23.047  1.00  0.00     0.244 S 
ATOM     14  O   UNL A   1      33.261  25.561  21.597  1.00  0.00    -0.207 OA
ATOM     15  O   UNL A   1      34.278  26.114  23.814  1.00  0.00    -0.207 OA
BRANCH  13  16
ATOM     16  N   UNL A   1      31.766  26.434  23.447  1.00  0.00    -0.197 NA
ATOM     17  C   UNL A   1      29.925  29.440  22.227  1.00  0.00     0.009 C 
ATOM     18  C   UNL A   1      31.079  28.665  22.847  1.00  0.00     0.005 C 
ATOM     19  C   UNL A   1      31.119  27.218  22.361  1.00  0.00     0.106 C 
ATOM     20  C   UNL A   1      30.983  28.512  24.364  1.00  0.00     0.005 C 
ATOM     21  C   UNL A   1      31.933  27.341  24.627  1.00  0.00     0.106 C 
ATOM     22  C   UNL A   1      31.381  29.773  25.120  1.00  0.00     0.009 C 
ENDBRANCH  13  16
ENDBRANCH   6  13
ENDBRANCH   3   5
ENDBRANCH   2   3
ENDBRANCH   1   2
BRANCH   1  23
ATOM     23  C   UNL A   1      37.458  20.625  24.702  1.00  0.00     0.275 C 
BRANCH  23  24
ATOM     24  O   UNL A   1      37.987  21.625  25.591  1.00  0.00    -0.458 OA
BRANCH  24  25
ATOM     25  C   UNL A   1      39.164  21.297  26.170  1.00  0.00     0.338 C 
ATOM     26  O   UNL A   1      39.765  20.238  26.107  1.00  0.00    -0.246 OA
BRANCH  25  27
ATOM     27  C   UNL A   1      39.753  22.499  26.766  1.00  0.00     0.060 A 
ATOM     28  C   UNL A   1      39.302  23.721  26.281  1.00  0.00     0.016 A 
ATOM     29  C   UNL A   1      40.806  22.442  27.673  1.00  0.00     0.016 A 
ATOM     30  C   UNL A   1      39.941  24.902  26.639  1.00  0.00     0.010 A 
ATOM     31  C   UNL A   1      41.416  23.637  28.076  1.00  0.00     0.010 A 
ATOM     32  C   UNL A   1      41.011  24.876  27.539  1.00  0.00    -0.014 A 
BRANCH  32  33
ATOM     33  C   UNL A   1      41.755  26.127  27.850  1.00  0.00     0.031 A 
ATOM     34  C   UNL A   1      41.096  27.193  28.683  1.00  0.00     0.074 A 
ATOM     35  C   UNL A   1      43.018  26.310  27.417  1.00  0.00     0.049 A 
ATOM     36  N   UNL A   1      41.464  28.431  28.898  1.00  0.00    -0.248 NA
ATOM     37  C   UNL A   1      39.844  26.815  29.354  1.00  0.00     0.031 C 
ATOM     38  C   UNL A   1      43.815  25.326  26.683  1.00  0.00     0.029 A 
ATOM     39  N   UNL A   1      43.854  27.394  27.532  1.00  0.00    -0.354 N 
ATOM     40  C   UNL A   1      40.464  28.992  29.682  1.00  0.00     0.074 A 
ATOM     41  C   UNL A   1      39.466  27.965  29.893  1.00  0.00     0.031 C 
ATOM     42  C   UNL A   1      45.024  25.846  26.424  1.00  0.00     0.029 A 
ATOM     43  C   UNL A   1      45.058  27.227  26.893  1.00  0.00     0.049 A 
ATOM     44  H   UNL A   1      43.613  28.212  28.024  1.00  0.00     0.167 HD
ATOM     45  C   UNL A   1      40.388  30.251  30.178  1.00  0.00     0.037 A 
ATOM     46  C   UNL A   1      46.056  28.102  26.663  1.00  0.00     0.037 A 
ATOM     47  C   UNL A   1      41.411  31.251  30.000  1.00  0.00     0.049 A 
ATOM     48  C   UNL A   1      45.917  29.517  27.157  1.00  0.00     0.074 A 
ATOM     49  C   UNL A   1      41.435  32.554  30.464  1.00  0.00     0.029 A 
ATOM     50  N   UNL A   1      42.600  31.051  29.312  1.00  0.00    -0.354 N 
ATOM     51  N   UNL A   1      44.944  30.064  27.845  1.00  0.00    -0.248 NA
ATOM     52  C   UNL A   1      47.011  30.442  26.829  1.00  0.00     0.031 C 
ATOM     53  C   UNL A   1      42.611  33.159  30.011  1.00  0.00     0.029 A 
ATOM     54  C   UNL A   1      43.354  32.214  29.322  1.00  0.00     0.049 A 
ATOM     55  H   UNL A   1      42.868  30.207  28.880  1.00  0.00     0.167 HD
ATOM     56  C   UNL A   1      45.321  31.382  28.062  1.00  0.00     0.074 A 
ATOM     57  C   UNL A   1      46.618  31.552  27.440  1.00  0.00     0.031 C 
ATOM     58  C   UNL A   1      44.653  32.362  28.717  1.00  0.00     0.037 A 
BRANCH  45  59
ATOM     59  C   UNL A   1      39.138  30.637  30.917  1.00  0.00     0.064 A 
ATOM     60  C   UNL A   1      39.031  30.532  32.312  1.00  0.00     0.173 A 
ATOM     61  C   UNL A   1      38.034  31.145  30.214  1.00  0.00     0.173 A 
ATOM     62  F   UNL A   1      40.051  30.044  33.034  1.00  0.00    -0.203 F 
ATOM     63  C   UNL A   1      37.854  30.889  32.969  1.00  0.00     0.198 A 
ATOM     64  C   UNL A   1      36.874  31.535  30.877  1.00  0.00     0.198 A 
ATOM     65  F   UNL A   1      38.084  31.276  28.879  1.00  0.00    -0.203 F 
ATOM     66  F   UNL A   1      37.755  30.728  34.296  1.00  0.00    -0.200 F 
ATOM     67  C   UNL A   1      36.781  31.397  32.253  1.00  0.00     0.200 A 
ATOM     68  F   UNL A   1      35.845  32.043  30.183  1.00  0.00    -0.200 F 
ATOM     69  F   UNL A   1      35.654  31.747  32.887  1.00  0.00    -0.200 F 
ENDBRANCH  45  59
BRANCH  46  70
ATOM     70  C   UNL A   1      47.255  27.678  25.890  1.00  0.00     0.064 A 
ATOM     71  C   UNL A   1      48.423  27.257  26.539  1.00  0.00     0.173 A 
ATOM     72  C   UNL A   1      47.262  27.700  24.486  1.00  0.00     0.173 A 
ATOM     73  F   UNL A   1      48.478  27.246  27.880  1.00  0.00    -0.203 F 
ATOM     74  C   UNL A   1      49.558  26.892  25.817  1.00  0.00     0.198 A 
ATOM     75  C   UNL A   1      48.385  27.300  23.765  1.00  0.00     0.198 A 
ATOM     76  F   UNL A   1      46.173  28.099  23.814  1.00  0.00    -0.203 F 
ATOM     77  F   UNL A   1      50.679  26.546  26.463  1.00  0.00    -0.200 F 
ATOM     78  C   UNL A   1      49.535  26.906  24.430  1.00  0.00     0.200 A 
ATOM     79  F   UNL A   1      48.353  27.301  22.425  1.00  0.00    -0.200 F 
ATOM     80  F   UNL A   1      50.624  26.550  23.736  1.00  0.00    -0.200 F 
ENDBRANCH  46  70
BRANCH  58  81
ATOM     81  C   UNL A   1      45.338  33.693  28.855  1.00  0.00     0.064 A 
ATOM     82  C   UNL A   1      46.221  33.968  29.908  1.00  0.00     0.173 A 
ATOM     83  C   UNL A   1      45.137  34.691  27.887  1.00  0.00     0.173 A 
ATOM     84  F   UNL A   1      46.435  33.055  30.868  1.00  0.00    -0.203 F 
ATOM     85  C   UNL A   1      46.858  35.203  30.003  1.00  0.00     0.198 A 
ATOM     86  C   UNL A   1      45.803  35.910  27.966  1.00  0.00     0.198 A 
ATOM     87  F   UNL A   1      44.308  34.476  26.855  1.00  0.00    -0.203 F 
ATOM     88  F   UNL A   1      47.659  35.464  31.045  1.00  0.00    -0.200 F 
ATOM     89  C   UNL A   1      46.657  36.168  29.027  1.00  0.00     0.200 A 
ATOM     90  F   UNL A   1      45.619  36.835  27.013  1.00  0.00    -0.200 F 
ATOM     91  F   UNL A   1      47.280  37.352  29.113  1.00  0.00    -0.200 F 
ENDBRANCH  58  81
ENDBRANCH  32  33
ENDBRANCH  25  27
ENDBRANCH  24  25
ENDBRANCH  23  24
ENDBRANCH   1  23
TORSDOF 13
ENDMDL
MODEL 3
REMARK VINA RESULT:     -12.6      0.943      1.559
REMARK SMILES C[C@@H]1CN(S(=O)(=O)c2ccc(Cl)c(C(=O)OCCOC(=O)c3ccc(-c4c5nc(c(-c6c(F)c(F)c(F)c(F)c6F)c6ccc([nH]6)c(-c6c(F)c(F)c(F)c(F)c6F)c6nc(c(-c7c(F)c(F)c(F)c(F)c7F)c7ccc4[nH]7)C=C6)C=C5)cc3)c2Cl)C[C@H]1C
REMARK SMILES IDX 17 1 16 2 14 3 15 4 13 5 8 6 9 7 85 8 10 9 86 10 11 11 12 12
REMARK SMILES IDX 5 13 6 14 7 15 4 16 1 17 2 18 3 19 88 20 87 21 89 22 18 23
REMARK SMILES IDX 19 24 20 25 21 26 22 27 23 28 84 29 24 30 83 31 25 32 26 33
REMARK SMILES IDX 27 34 77 35 28 36 82 37 76 38 78 39 29 40 81 41 75 42 74 43
REMARK SMILES IDX 30 45 62 46 42 47 61 48 43 49 46 50 60 51 79 52 44 53 45 54
REMARK SMILES IDX 59 56 80 57 47 58 31 59 32 60 40 61 33 62 34 63 38 64 41 65
REMARK SMILES IDX 35 66 36 67 39 68 37 69 63 70 64 71 72 72 65 73 66 74 70 75
REMARK SMILES IDX 73 76 67 77 68 78 71 79 69 80 48 81 49 82 57 83 50 84 51 85
REMARK SMILES IDX 55 86 58 87 52 88 53 89 56 90 54 91
REMARK H PARENT 78 44 46 55
REMARK Flexibility Score: inf
ROOT
ATOM      1  C   UNL A   1      32.647  29.073  25.259  1.00  0.00     0.275 C 
ENDROOT
BRANCH   1   2
ATOM      2  O   UNL A   1      31.567  28.158  24.972  1.00  0.00    -0.458 OA
BRANCH   2   3
ATOM      3  C   UNL A   1      31.412  27.065  25.768  1.00  0.00     0.341 C 
ATOM      4  O   UNL A   1      31.197  27.077  26.961  1.00  0.00    -0.246 OA
BRANCH   3   5
ATOM      5  C   UNL A   1      31.445  25.850  24.900  1.00  0.00     0.098 A 
ATOM      6  C   UNL A   1      32.390  23.666  24.387  1.00  0.00     0.102 A 
ATOM      7  C   UNL A   1      31.228  23.343  23.671  1.00  0.00     0.025 A 
ATOM      8  C   UNL A   1      32.541  24.951  24.935  1.00  0.00     0.077 A 
ATOM      9  C   UNL A   1      30.234  24.296  23.478  1.00  0.00     0.023 A 
ATOM     10  Cl  UNL A   1      34.097  25.486  25.489  1.00  0.00    -0.082 Cl
ATOM     11  C   UNL A   1      30.326  25.538  24.106  1.00  0.00     0.057 A 
ATOM     12  Cl  UNL A   1      29.054  26.664  23.770  1.00  0.00    -0.083 Cl
BRANCH   6  13
ATOM     13  S   UNL A   1      33.491  22.310  24.772  1.00  0.00     0.244 S 
ATOM     14  O   UNL A   1      33.906  22.479  26.153  1.00  0.00    -0.207 OA
ATOM     15  O   UNL A   1      34.493  22.208  23.737  1.00  0.00    -0.207 OA
BRANCH  13  16
ATOM     16  N   UNL A   1      32.511  20.923  24.721  1.00  0.00    -0.197 NA
ATOM     17  C   UNL A   1      32.781  17.320  25.647  1.00  0.00     0.009 C 
ATOM     18  C   UNL A   1      33.106  18.593  24.879  1.00  0.00     0.005 C 
ATOM     19  C   UNL A   1      32.811  19.845  25.701  1.00  0.00     0.106 C 
ATOM     20  C   UNL A   1      32.256  18.799  23.627  1.00  0.00     0.005 C 
ATOM     21  C   UNL A   1      32.436  20.296  23.363  1.00  0.00     0.106 C 
ATOM     22  C   UNL A   1      32.700  17.938  22.452  1.00  0.00     0.009 C 
ENDBRANCH  13  16
ENDBRANCH   6  13
ENDBRANCH   3   5
ENDBRANCH   2   3
ENDBRANCH   1   2
BRANCH   1  23
ATOM     23  C   UNL A   1      32.088  30.375  25.844  1.00  0.00     0.275 C 
BRANCH  23  24
ATOM     24  O   UNL A   1      32.598  30.578  27.174  1.00  0.00    -0.458 OA
BRANCH  24  25
ATOM     25  C   UNL A   1      33.285  31.730  27.343  1.00  0.00     0.338 C 
ATOM     26  O   UNL A   1      32.868  32.874  27.270  1.00  0.00    -0.246 OA
BRANCH  25  27
ATOM     27  C   UNL A   1      34.629  31.415  27.833  1.00  0.00     0.060 A 
ATOM     28  C   UNL A   1      34.854  30.104  28.241  1.00  0.00     0.016 A 
ATOM     29  C   UNL A   1      35.603  32.390  28.017  1.00  0.00     0.016 A 
ATOM     30  C   UNL A   1      36.026  29.762  28.901  1.00  0.00     0.010 A 
ATOM     31  C   UNL A   1      36.809  32.033  28.636  1.00  0.00     0.010 A 
ATOM     32  C   UNL A   1      37.019  30.723  29.114  1.00  0.00    -0.014 A 
BRANCH  32  33
ATOM     33  C   UNL A   1      38.233  30.381  29.904  1.00  0.00     0.031 A 
ATOM     34  C   UNL A   1      39.269  29.465  29.310  1.00  0.00     0.074 A 
ATOM     35  C   UNL A   1      38.431  30.898  31.132  1.00  0.00     0.049 A 
ATOM     36  N   UNL A   1      40.284  28.869  29.884  1.00  0.00    -0.248 NA
ATOM     37  C   UNL A   1      39.134  29.169  27.876  1.00  0.00     0.031 C 
ATOM     38  C   UNL A   1      37.562  31.871  31.794  1.00  0.00     0.029 A 
ATOM     39  N   UNL A   1      39.431  30.672  32.047  1.00  0.00    -0.354 N 
ATOM     40  C   UNL A   1      40.873  28.090  28.897  1.00  0.00     0.074 A 
ATOM     41  C   UNL A   1      40.094  28.276  27.691  1.00  0.00     0.031 C 
ATOM     42  C   UNL A   1      38.070  32.166  33.000  1.00  0.00     0.029 A 
ATOM     43  C   UNL A   1      39.249  31.339  33.233  1.00  0.00     0.049 A 
ATOM     44  H   UNL A   1      40.203  30.087  31.869  1.00  0.00     0.167 HD
ATOM     45  C   UNL A   1      41.963  27.291  28.992  1.00  0.00     0.037 A 
ATOM     46  C   UNL A   1      39.923  31.256  34.397  1.00  0.00     0.037 A 
ATOM     47  C   UNL A   1      42.758  27.150  30.186  1.00  0.00     0.049 A 
ATOM     48  C   UNL A   1      41.085  30.305  34.502  1.00  0.00     0.074 A 
ATOM     49  C   UNL A   1      43.884  26.371  30.387  1.00  0.00     0.029 A 
ATOM     50  N   UNL A   1      42.516  27.816  31.379  1.00  0.00    -0.354 N 
ATOM     51  N   UNL A   1      41.604  29.523  33.587  1.00  0.00    -0.248 NA
ATOM     52  C   UNL A   1      41.748  30.215  35.811  1.00  0.00     0.031 C 
ATOM     53  C   UNL A   1      44.290  26.523  31.716  1.00  0.00     0.029 A 
ATOM     54  C   UNL A   1      43.459  27.449  32.326  1.00  0.00     0.049 A 
ATOM     55  H   UNL A   1      41.782  28.455  31.530  1.00  0.00     0.167 HD
ATOM     56  C   UNL A   1      42.670  28.875  34.196  1.00  0.00     0.074 A 
ATOM     57  C   UNL A   1      42.732  29.363  35.558  1.00  0.00     0.031 C 
ATOM     58  C   UNL A   1      43.521  27.959  33.672  1.00  0.00     0.037 A 
BRANCH  45  59
ATOM     59  C   UNL A   1      42.335  26.469  27.790  1.00  0.00     0.064 A 
ATOM     60  C   UNL A   1      43.313  26.881  26.874  1.00  0.00     0.173 A 
ATOM     61  C   UNL A   1      41.713  25.229  27.567  1.00  0.00     0.173 A 
ATOM     62  F   UNL A   1      43.933  28.060  27.032  1.00  0.00    -0.203 F 
ATOM     63  C   UNL A   1      43.629  26.101  25.763  1.00  0.00     0.198 A 
ATOM     64  C   UNL A   1      42.057  24.436  26.476  1.00  0.00     0.198 A 
ATOM     65  F   UNL A   1      40.775  24.780  28.416  1.00  0.00    -0.203 F 
ATOM     66  F   UNL A   1      44.528  26.541  24.870  1.00  0.00    -0.200 F 
ATOM     67  C   UNL A   1      43.007  24.877  25.569  1.00  0.00     0.200 A 
ATOM     68  F   UNL A   1      41.466  23.245  26.303  1.00  0.00    -0.200 F 
ATOM     69  F   UNL A   1      43.318  24.125  24.505  1.00  0.00    -0.200 F 
ENDBRANCH  45  59
BRANCH  46  70
ATOM     70  C   UNL A   1      39.489  32.063  35.568  1.00  0.00     0.064 A 
ATOM     71  C   UNL A   1      38.557  31.562  36.487  1.00  0.00     0.173 A 
ATOM     72  C   UNL A   1      39.984  33.359  35.785  1.00  0.00     0.173 A 
ATOM     73  F   UNL A   1      38.029  30.341  36.309  1.00  0.00    -0.203 F 
ATOM     74  C   UNL A   1      38.124  32.331  37.566  1.00  0.00     0.198 A 
ATOM     75  C   UNL A   1      39.579  34.112  36.885  1.00  0.00     0.198 A 
ATOM     76  F   UNL A   1      40.874  33.890  34.934  1.00  0.00    -0.203 F 
ATOM     77  F   UNL A   1      37.191  31.849  38.398  1.00  0.00    -0.200 F 
ATOM     78  C   UNL A   1      38.641  33.601  37.769  1.00  0.00     0.200 A 
ATOM     79  F   UNL A   1      40.092  35.333  37.084  1.00  0.00    -0.200 F 
ATOM     80  F   UNL A   1      38.228  34.338  38.809  1.00  0.00    -0.200 F 
ENDBRANCH  46  70
BRANCH  58  81
ATOM     81  C   UNL A   1      44.637  27.470  34.552  1.00  0.00     0.064 A 
ATOM     82  C   UNL A   1      45.861  28.145  34.645  1.00  0.00     0.173 A 
ATOM     83  C   UNL A   1      44.454  26.327  35.348  1.00  0.00     0.173 A 
ATOM     84  F   UNL A   1      46.093  29.232  33.894  1.00  0.00    -0.203 F 
ATOM     85  C   UNL A   1      46.872  27.681  35.483  1.00  0.00     0.198 A 
ATOM     86  C   UNL A   1      45.453  25.887  36.211  1.00  0.00     0.198 A 
ATOM     87  F   UNL A   1      43.298  25.648  35.302  1.00  0.00    -0.203 F 
ATOM     88  F   UNL A   1      48.054  28.313  35.519  1.00  0.00    -0.200 F 
ATOM     89  C   UNL A   1      46.664  26.559  36.272  1.00  0.00     0.200 A 
ATOM     90  F   UNL A   1      45.243  24.812  36.984  1.00  0.00    -0.200 F 
ATOM     91  F   UNL A   1      47.634  26.121  37.087  1.00  0.00    -0.200 F 
ENDBRANCH  58  81
ENDBRANCH  32  33
ENDBRANCH  25  27
ENDBRANCH  24  25
ENDBRANCH  23  24
ENDBRANCH   1  23
TORSDOF 13
ENDMDL
