MODEL 1
REMARK VINA RESULT:     -12.9      0.000      0.000
REMARK SMILES Cc1ccc(F)cc1S(=O)(=O)Nc1cc(C(=O)OCCOC(=O)c2ccc(-c3c4nc(c(-c5c(F)c(F)c(F)c(F)c5F)c5ccc([nH]5)c(-c5c(F)c(F)c(F)c(F)c5F)c5nc(c(-c6c(F)c(F)c(F)c(F)c6F)c6ccc3[nH]6)C=C5)C=C4)cc2)ccc1N(C)Cc1ccccc1
REMARK SMILES IDX 19 1 18 2 16 3 17 4 15 5 13 6 14 7 89 8 88 9 87 10 12 11
REMARK SMILES IDX 9 13 10 14 11 15 8 16 1 17 2 18 3 19 4 20 7 21 5 22 6 23
REMARK SMILES IDX 90 24 91 25 92 26 93 27 94 28 98 29 95 30 97 31 96 32 20 33
REMARK SMILES IDX 21 34 22 35 23 36 24 37 25 38 86 39 26 40 85 41 27 42 28 43
REMARK SMILES IDX 29 44 79 45 30 46 84 47 78 48 80 49 31 50 83 51 77 52 76 53
REMARK SMILES IDX 32 55 64 56 44 57 63 58 45 59 48 60 62 61 81 62 46 63 47 64
REMARK SMILES IDX 61 66 82 67 49 68 33 69 34 70 42 71 35 72 36 73 40 74 43 75
REMARK SMILES IDX 37 76 38 77 41 78 39 79 65 80 66 81 74 82 67 83 68 84 72 85
REMARK SMILES IDX 75 86 69 87 70 88 73 89 71 90 50 91 51 92 59 93 52 94 53 95
REMARK SMILES IDX 57 96 60 97 54 98 55 99 58 100 56 101
REMARK H PARENT 12 12 80 54 48 65
REMARK Flexibility Score: inf
ROOT
ATOM      1  C   UNL A   1      33.498  29.490  27.565  1.00  0.00     0.275 C 
ENDROOT
BRANCH   1   2
ATOM      2  O   UNL A   1      32.212  29.236  26.899  1.00  0.00    -0.458 OA
BRANCH   2   3
ATOM      3  C   UNL A   1      31.833  27.928  26.855  1.00  0.00     0.338 C 
ATOM      4  O   UNL A   1      30.968  27.463  27.594  1.00  0.00    -0.246 OA
BRANCH   3   5
ATOM      5  C   UNL A   1      32.466  27.024  25.816  1.00  0.00     0.062 A 
ATOM      6  C   UNL A   1      32.831  24.624  25.244  1.00  0.00     0.073 A 
ATOM      7  C   UNL A   1      32.181  25.665  25.965  1.00  0.00     0.044 A 
ATOM      8  C   UNL A   1      33.779  24.844  24.246  1.00  0.00     0.061 A 
ATOM      9  C   UNL A   1      34.000  26.253  24.041  1.00  0.00     0.029 A 
ATOM     10  C   UNL A   1      33.375  27.323  24.811  1.00  0.00     0.018 A 
BRANCH   6  11
ATOM     11  N   UNL A   1      32.773  23.334  25.838  1.00  0.00    -0.277 N 
ATOM     12  H   UNL A   1      33.356  23.022  26.568  1.00  0.00     0.180 HD
BRANCH  11  13
ATOM     13  S   UNL A   1      31.538  22.398  25.092  1.00  0.00     0.262 S 
ATOM     14  O   UNL A   1      31.062  23.114  23.946  1.00  0.00    -0.201 OA
ATOM     15  O   UNL A   1      30.556  22.166  26.143  1.00  0.00    -0.201 OA
BRANCH  13  16
ATOM     16  C   UNL A   1      32.274  20.800  24.573  1.00  0.00     0.093 A 
ATOM     17  C   UNL A   1      33.584  20.359  26.716  1.00  0.00     0.046 C 
ATOM     18  C   UNL A   1      32.998  19.956  25.406  1.00  0.00    -0.030 A 
ATOM     19  C   UNL A   1      33.305  18.635  24.970  1.00  0.00     0.008 A 
ATOM     20  C   UNL A   1      32.989  18.167  23.697  1.00  0.00     0.039 A 
ATOM     21  C   UNL A   1      32.127  20.337  23.265  1.00  0.00     0.061 A 
ATOM     22  C   UNL A   1      32.441  19.059  22.822  1.00  0.00     0.124 A 
ATOM     23  F   UNL A   1      32.240  18.725  21.538  1.00  0.00    -0.207 F 
ENDBRANCH  13  16
ENDBRANCH  11  13
ENDBRANCH   6  11
BRANCH   8  24
ATOM     24  N   UNL A   1      34.532  23.783  23.651  1.00  0.00    -0.369 N 
ATOM     25  C   UNL A   1      34.030  23.347  22.338  1.00  0.00     0.144 C 
BRANCH  24  26
ATOM     26  C   UNL A   1      35.499  22.724  24.322  1.00  0.00     0.151 C 
BRANCH  26  27
ATOM     27  C   UNL A   1      36.872  22.931  25.117  1.00  0.00    -0.029 A 
ATOM     28  C   UNL A   1      37.454  24.075  25.724  1.00  0.00     0.005 A 
ATOM     29  C   UNL A   1      37.761  21.833  25.113  1.00  0.00     0.005 A 
ATOM     30  C   UNL A   1      38.559  24.002  26.613  1.00  0.00     0.000 A 
ATOM     31  C   UNL A   1      38.939  21.781  25.896  1.00  0.00     0.000 A 
ATOM     32  C   UNL A   1      39.277  22.830  26.737  1.00  0.00     0.000 A 
ENDBRANCH  26  27
ENDBRANCH  24  26
ENDBRANCH   8  24
ENDBRANCH   3   5
ENDBRANCH   2   3
ENDBRANCH   1   2
BRANCH   1  33
ATOM     33  C   UNL A   1      34.215  30.790  27.160  1.00  0.00     0.275 C 
BRANCH  33  34
ATOM     34  O   UNL A   1      34.945  31.354  28.255  1.00  0.00    -0.458 OA
BRANCH  34  35
ATOM     35  C   UNL A   1      34.390  32.513  28.643  1.00  0.00     0.338 C 
ATOM     36  O   UNL A   1      33.413  33.062  28.154  1.00  0.00    -0.246 OA
BRANCH  35  37
ATOM     37  C   UNL A   1      35.222  33.203  29.632  1.00  0.00     0.060 A 
ATOM     38  C   UNL A   1      36.398  33.735  29.081  1.00  0.00     0.016 A 
ATOM     39  C   UNL A   1      35.247  32.446  30.801  1.00  0.00     0.016 A 
ATOM     40  C   UNL A   1      37.615  33.186  29.440  1.00  0.00     0.010 A 
ATOM     41  C   UNL A   1      36.450  31.887  31.151  1.00  0.00     0.010 A 
ATOM     42  C   UNL A   1      37.601  32.181  30.397  1.00  0.00    -0.014 A 
BRANCH  42  43
ATOM     43  C   UNL A   1      38.782  31.465  30.823  1.00  0.00     0.031 A 
ATOM     44  C   UNL A   1      39.047  30.193  30.134  1.00  0.00     0.074 A 
ATOM     45  C   UNL A   1      39.710  32.173  31.506  1.00  0.00     0.049 A 
ATOM     46  N   UNL A   1      40.026  29.410  30.406  1.00  0.00    -0.248 NA
ATOM     47  C   UNL A   1      38.168  29.670  29.085  1.00  0.00     0.031 C 
ATOM     48  C   UNL A   1      41.158  32.054  31.418  1.00  0.00     0.029 A 
ATOM     49  N   UNL A   1      39.508  33.151  32.492  1.00  0.00    -0.354 N 
ATOM     50  C   UNL A   1      40.110  28.503  29.371  1.00  0.00     0.074 A 
ATOM     51  C   UNL A   1      38.863  28.613  28.658  1.00  0.00     0.031 C 
ATOM     52  C   UNL A   1      41.720  32.736  32.432  1.00  0.00     0.029 A 
ATOM     53  C   UNL A   1      40.651  33.121  33.337  1.00  0.00     0.049 A 
ATOM     54  H   UNL A   1      38.726  33.743  32.582  1.00  0.00     0.167 HD
ATOM     55  C   UNL A   1      41.310  27.900  29.144  1.00  0.00     0.037 A 
ATOM     56  C   UNL A   1      40.557  32.684  34.638  1.00  0.00     0.037 A 
ATOM     57  C   UNL A   1      42.282  28.327  30.148  1.00  0.00     0.049 A 
ATOM     58  C   UNL A   1      41.245  31.358  34.891  1.00  0.00     0.074 A 
ATOM     59  C   UNL A   1      43.237  29.329  30.188  1.00  0.00     0.029 A 
ATOM     60  N   UNL A   1      42.068  27.956  31.458  1.00  0.00    -0.354 N 
ATOM     61  N   UNL A   1      41.801  30.626  33.969  1.00  0.00    -0.248 NA
ATOM     62  C   UNL A   1      41.195  30.691  36.190  1.00  0.00     0.031 C 
ATOM     63  C   UNL A   1      43.588  29.548  31.552  1.00  0.00     0.029 A 
ATOM     64  C   UNL A   1      42.863  28.666  32.333  1.00  0.00     0.049 A 
ATOM     65  H   UNL A   1      41.424  27.265  31.736  1.00  0.00     0.167 HD
ATOM     66  C   UNL A   1      42.128  29.410  34.496  1.00  0.00     0.074 A 
ATOM     67  C   UNL A   1      41.688  29.483  35.879  1.00  0.00     0.031 C 
ATOM     68  C   UNL A   1      42.704  28.418  33.755  1.00  0.00     0.037 A 
BRANCH  55  69
ATOM     69  C   UNL A   1      41.687  27.141  27.897  1.00  0.00     0.064 A 
ATOM     70  C   UNL A   1      41.842  25.738  27.951  1.00  0.00     0.173 A 
ATOM     71  C   UNL A   1      41.919  27.711  26.631  1.00  0.00     0.173 A 
ATOM     72  F   UNL A   1      41.591  25.047  29.071  1.00  0.00    -0.203 F 
ATOM     73  C   UNL A   1      42.265  24.982  26.856  1.00  0.00     0.198 A 
ATOM     74  C   UNL A   1      42.382  26.959  25.544  1.00  0.00     0.198 A 
ATOM     75  F   UNL A   1      41.658  29.000  26.384  1.00  0.00    -0.203 F 
ATOM     76  F   UNL A   1      42.392  23.653  26.979  1.00  0.00    -0.200 F 
ATOM     77  C   UNL A   1      42.558  25.594  25.658  1.00  0.00     0.200 A 
ATOM     78  F   UNL A   1      42.648  27.567  24.378  1.00  0.00    -0.200 F 
ATOM     79  F   UNL A   1      42.985  24.872  24.614  1.00  0.00    -0.200 F 
ENDBRANCH  55  69
BRANCH  56  80
ATOM     80  C   UNL A   1      39.233  32.997  35.272  1.00  0.00     0.064 A 
ATOM     81  C   UNL A   1      38.412  31.889  35.549  1.00  0.00     0.173 A 
ATOM     82  C   UNL A   1      39.225  34.082  36.162  1.00  0.00     0.173 A 
ATOM     83  F   UNL A   1      38.310  30.882  34.669  1.00  0.00    -0.203 F 
ATOM     84  C   UNL A   1      37.962  31.698  36.841  1.00  0.00     0.198 A 
ATOM     85  C   UNL A   1      38.801  33.877  37.454  1.00  0.00     0.198 A 
ATOM     86  F   UNL A   1      39.850  35.230  35.867  1.00  0.00    -0.203 F 
ATOM     87  F   UNL A   1      37.397  30.536  37.199  1.00  0.00    -0.200 F 
ATOM     88  C   UNL A   1      38.281  32.642  37.798  1.00  0.00     0.200 A 
ATOM     89  F   UNL A   1      39.054  34.802  38.391  1.00  0.00    -0.200 F 
ATOM     90  F   UNL A   1      38.235  32.297  39.079  1.00  0.00    -0.200 F 
ENDBRANCH  56  80
BRANCH  68  91
ATOM     91  C   UNL A   1      43.133  27.105  34.349  1.00  0.00     0.064 A 
ATOM     92  C   UNL A   1      44.485  26.732  34.421  1.00  0.00     0.173 A 
ATOM     93  C   UNL A   1      42.209  26.131  34.786  1.00  0.00     0.173 A 
ATOM     94  F   UNL A   1      45.445  27.504  33.889  1.00  0.00    -0.203 F 
ATOM     95  C   UNL A   1      44.888  25.542  35.020  1.00  0.00     0.198 A 
ATOM     96  C   UNL A   1      42.611  24.911  35.319  1.00  0.00     0.198 A 
ATOM     97  F   UNL A   1      40.884  26.325  34.738  1.00  0.00    -0.203 F 
ATOM     98  F   UNL A   1      46.195  25.281  35.157  1.00  0.00    -0.200 F 
ATOM     99  C   UNL A   1      43.951  24.632  35.470  1.00  0.00     0.200 A 
ATOM    100  F   UNL A   1      41.686  24.017  35.695  1.00  0.00    -0.200 F 
ATOM    101  F   UNL A   1      44.338  23.484  36.040  1.00  0.00    -0.200 F 
ENDBRANCH  68  91
ENDBRANCH  42  43
ENDBRANCH  35  37
ENDBRANCH  34  35
ENDBRANCH  33  34
ENDBRANCH   1  33
TORSDOF 17
ENDMDL
MODEL 2
REMARK VINA RESULT:     -12.9      1.629      3.098
REMARK SMILES Cc1ccc(F)cc1S(=O)(=O)Nc1cc(C(=O)OCCOC(=O)c2ccc(-c3c4nc(c(-c5c(F)c(F)c(F)c(F)c5F)c5ccc([nH]5)c(-c5c(F)c(F)c(F)c(F)c5F)c5nc(c(-c6c(F)c(F)c(F)c(F)c6F)c6ccc3[nH]6)C=C5)C=C4)cc2)ccc1N(C)Cc1ccccc1
REMARK SMILES IDX 19 1 18 2 16 3 17 4 15 5 13 6 14 7 89 8 88 9 87 10 12 11
REMARK SMILES IDX 9 13 10 14 11 15 8 16 1 17 2 18 3 19 4 20 7 21 5 22 6 23
REMARK SMILES IDX 90 24 91 25 92 26 93 27 94 28 98 29 95 30 97 31 96 32 20 33
REMARK SMILES IDX 21 34 22 35 23 36 24 37 25 38 86 39 26 40 85 41 27 42 28 43
REMARK SMILES IDX 29 44 79 45 30 46 84 47 78 48 80 49 31 50 83 51 77 52 76 53
REMARK SMILES IDX 32 55 64 56 44 57 63 58 45 59 48 60 62 61 81 62 46 63 47 64
REMARK SMILES IDX 61 66 82 67 49 68 33 69 34 70 42 71 35 72 36 73 40 74 43 75
REMARK SMILES IDX 37 76 38 77 41 78 39 79 65 80 66 81 74 82 67 83 68 84 72 85
REMARK SMILES IDX 75 86 69 87 70 88 73 89 71 90 50 91 51 92 59 93 52 94 53 95
REMARK SMILES IDX 57 96 60 97 54 98 55 99 58 100 56 101
REMARK H PARENT 12 12 80 54 48 65
REMARK Flexibility Score: inf
ROOT
ATOM      1  C   UNL A   1      34.652  28.626  26.948  1.00  0.00     0.275 C 
ENDROOT
BRANCH   1   2
ATOM      2  O   UNL A   1      33.949  27.825  25.934  1.00  0.00    -0.458 OA
BRANCH   2   3
ATOM      3  C   UNL A   1      32.798  27.235  26.362  1.00  0.00     0.338 C 
ATOM      4  O   UNL A   1      32.048  27.764  27.179  1.00  0.00    -0.246 OA
BRANCH   3   5
ATOM      5  C   UNL A   1      32.401  25.901  25.764  1.00  0.00     0.062 A 
ATOM      6  C   UNL A   1      33.135  23.525  25.572  1.00  0.00     0.073 A 
ATOM      7  C   UNL A   1      33.189  24.818  26.164  1.00  0.00     0.044 A 
ATOM      8  C   UNL A   1      32.235  23.164  24.570  1.00  0.00     0.061 A 
ATOM      9  C   UNL A   1      31.370  24.264  24.229  1.00  0.00     0.029 A 
ATOM     10  C   UNL A   1      31.452  25.605  24.795  1.00  0.00     0.018 A 
BRANCH   6  11
ATOM     11  N   UNL A   1      34.289  22.716  25.756  1.00  0.00    -0.277 N 
ATOM     12  H   UNL A   1      34.355  21.960  26.384  1.00  0.00     0.180 HD
BRANCH  11  13
ATOM     13  S   UNL A   1      35.555  23.252  24.721  1.00  0.00     0.262 S 
ATOM     14  O   UNL A   1      35.350  24.643  24.445  1.00  0.00    -0.201 OA
ATOM     15  O   UNL A   1      35.498  22.364  23.568  1.00  0.00    -0.201 OA
BRANCH  13  16
ATOM     16  C   UNL A   1      37.146  23.013  25.603  1.00  0.00     0.093 A 
ATOM     17  C   UNL A   1      37.482  20.567  24.970  1.00  0.00     0.046 C 
ATOM     18  C   UNL A   1      37.942  21.879  25.505  1.00  0.00    -0.030 A 
ATOM     19  C   UNL A   1      39.267  21.905  26.029  1.00  0.00     0.008 A 
ATOM     20  C   UNL A   1      39.783  22.995  26.725  1.00  0.00     0.039 A 
ATOM     21  C   UNL A   1      37.653  24.007  26.441  1.00  0.00     0.061 A 
ATOM     22  C   UNL A   1      38.935  24.034  26.976  1.00  0.00     0.124 A 
ATOM     23  F   UNL A   1      39.314  25.055  27.760  1.00  0.00    -0.207 F 
ENDBRANCH  13  16
ENDBRANCH  11  13
ENDBRANCH   6  11
BRANCH   8  24
ATOM     24  N   UNL A   1      32.309  21.912  23.883  1.00  0.00    -0.369 N 
ATOM     25  C   UNL A   1      32.123  22.009  22.426  1.00  0.00     0.144 C 
BRANCH  24  26
ATOM     26  C   UNL A   1      32.113  20.439  24.431  1.00  0.00     0.151 C 
BRANCH  26  27
ATOM     27  C   UNL A   1      32.840  19.074  24.022  1.00  0.00    -0.029 A 
ATOM     28  C   UNL A   1      32.489  18.050  23.104  1.00  0.00     0.005 A 
ATOM     29  C   UNL A   1      33.966  18.717  24.797  1.00  0.00     0.005 A 
ATOM     30  C   UNL A   1      33.395  17.040  22.687  1.00  0.00     0.000 A 
ATOM     31  C   UNL A   1      34.822  17.636  24.476  1.00  0.00     0.000 A 
ATOM     32  C   UNL A   1      34.595  16.864  23.347  1.00  0.00     0.000 A 
ENDBRANCH  26  27
ENDBRANCH  24  26
ENDBRANCH   8  24
ENDBRANCH   3   5
ENDBRANCH   2   3
ENDBRANCH   1   2
BRANCH   1  33
ATOM     33  C   UNL A   1      34.233  30.104  27.038  1.00  0.00     0.275 C 
BRANCH  33  34
ATOM     34  O   UNL A   1      34.948  30.793  28.070  1.00  0.00    -0.458 OA
BRANCH  34  35
ATOM     35  C   UNL A   1      34.387  31.987  28.315  1.00  0.00     0.338 C 
ATOM     36  O   UNL A   1      33.453  32.500  27.714  1.00  0.00    -0.246 OA
BRANCH  35  37
ATOM     37  C   UNL A   1      35.162  32.757  29.291  1.00  0.00     0.060 A 
ATOM     38  C   UNL A   1      36.314  33.338  28.738  1.00  0.00     0.016 A 
ATOM     39  C   UNL A   1      35.213  32.042  30.485  1.00  0.00     0.016 A 
ATOM     40  C   UNL A   1      37.555  32.872  29.133  1.00  0.00     0.010 A 
ATOM     41  C   UNL A   1      36.440  31.565  30.870  1.00  0.00     0.010 A 
ATOM     42  C   UNL A   1      37.583  31.899  30.123  1.00  0.00    -0.014 A 
BRANCH  42  43
ATOM     43  C   UNL A   1      38.796  31.267  30.590  1.00  0.00     0.031 A 
ATOM     44  C   UNL A   1      39.148  29.993  29.943  1.00  0.00     0.074 A 
ATOM     45  C   UNL A   1      39.669  32.047  31.266  1.00  0.00     0.049 A 
ATOM     46  N   UNL A   1      40.166  29.278  30.254  1.00  0.00    -0.248 NA
ATOM     47  C   UNL A   1      38.320  29.390  28.896  1.00  0.00     0.031 C 
ATOM     48  C   UNL A   1      41.123  32.012  31.205  1.00  0.00     0.029 A 
ATOM     49  N   UNL A   1      39.392  33.040  32.219  1.00  0.00    -0.354 N 
ATOM     50  C   UNL A   1      40.322  28.348  29.248  1.00  0.00     0.074 A 
ATOM     51  C   UNL A   1      39.084  28.363  28.512  1.00  0.00     0.031 C 
ATOM     52  C   UNL A   1      41.625  32.755  32.208  1.00  0.00     0.029 A 
ATOM     53  C   UNL A   1      40.520  33.102  33.083  1.00  0.00     0.049 A 
ATOM     54  H   UNL A   1      38.576  33.587  32.278  1.00  0.00     0.167 HD
ATOM     55  C   UNL A   1      41.559  27.810  29.059  1.00  0.00     0.037 A 
ATOM     56  C   UNL A   1      40.428  32.698  34.394  1.00  0.00     0.037 A 
ATOM     57  C   UNL A   1      42.486  28.323  30.065  1.00  0.00     0.049 A 
ATOM     58  C   UNL A   1      41.188  31.423  34.698  1.00  0.00     0.074 A 
ATOM     59  C   UNL A   1      43.380  29.380  30.091  1.00  0.00     0.029 A 
ATOM     60  N   UNL A   1      42.270  27.978  31.382  1.00  0.00    -0.354 N 
ATOM     61  N   UNL A   1      41.802  30.698  33.808  1.00  0.00    -0.248 NA
ATOM     62  C   UNL A   1      41.153  30.791  36.016  1.00  0.00     0.031 C 
ATOM     63  C   UNL A   1      43.693  29.659  31.454  1.00  0.00     0.029 A 
ATOM     64  C   UNL A   1      43.006  28.758  32.249  1.00  0.00     0.049 A 
ATOM     65  H   UNL A   1      41.663  27.258  31.670  1.00  0.00     0.167 HD
ATOM     66  C   UNL A   1      42.190  29.520  34.376  1.00  0.00     0.074 A 
ATOM     67  C   UNL A   1      41.722  29.607  35.749  1.00  0.00     0.031 C 
ATOM     68  C   UNL A   1      42.837  28.543  33.675  1.00  0.00     0.037 A 
BRANCH  55  69
ATOM     69  C   UNL A   1      42.002  27.039  27.841  1.00  0.00     0.064 A 
ATOM     70  C   UNL A   1      42.372  25.682  27.968  1.00  0.00     0.173 A 
ATOM     71  C   UNL A   1      42.098  27.557  26.536  1.00  0.00     0.173 A 
ATOM     72  F   UNL A   1      42.270  25.033  29.135  1.00  0.00    -0.203 F 
ATOM     73  C   UNL A   1      42.865  24.930  26.900  1.00  0.00     0.198 A 
ATOM     74  C   UNL A   1      42.631  26.816  25.473  1.00  0.00     0.198 A 
ATOM     75  F   UNL A   1      41.635  28.774  26.227  1.00  0.00    -0.203 F 
ATOM     76  F   UNL A   1      43.199  23.647  27.093  1.00  0.00    -0.200 F 
ATOM     77  C   UNL A   1      43.018  25.503  25.657  1.00  0.00     0.200 A 
ATOM     78  F   UNL A   1      42.759  27.382  24.264  1.00  0.00    -0.200 F 
ATOM     79  F   UNL A   1      43.513  24.789  24.638  1.00  0.00    -0.200 F 
ENDBRANCH  55  69
BRANCH  56  80
ATOM     80  C   UNL A   1      39.077  32.950  34.998  1.00  0.00     0.064 A 
ATOM     81  C   UNL A   1      38.340  31.804  35.345  1.00  0.00     0.173 A 
ATOM     82  C   UNL A   1      38.976  34.089  35.811  1.00  0.00     0.173 A 
ATOM     83  F   UNL A   1      38.324  30.735  34.535  1.00  0.00    -0.203 F 
ATOM     84  C   UNL A   1      37.890  31.666  36.644  1.00  0.00     0.198 A 
ATOM     85  C   UNL A   1      38.553  33.940  37.112  1.00  0.00     0.198 A 
ATOM     86  F   UNL A   1      39.515  35.259  35.442  1.00  0.00    -0.203 F 
ATOM     87  F   UNL A   1      37.412  30.491  37.076  1.00  0.00    -0.200 F 
ATOM     88  C   UNL A   1      38.125  32.695  37.536  1.00  0.00     0.200 A 
ATOM     89  F   UNL A   1      38.724  34.943  37.985  1.00  0.00    -0.200 F 
ATOM     90  F   UNL A   1      38.091  32.434  38.837  1.00  0.00    -0.200 F 
ENDBRANCH  56  80
BRANCH  68  91
ATOM     91  C   UNL A   1      43.331  27.275  34.314  1.00  0.00     0.064 A 
ATOM     92  C   UNL A   1      44.701  26.985  34.420  1.00  0.00     0.173 A 
ATOM     93  C   UNL A   1      42.458  26.260  34.764  1.00  0.00     0.173 A 
ATOM     94  F   UNL A   1      45.623  27.797  33.882  1.00  0.00    -0.203 F 
ATOM     95  C   UNL A   1      45.162  25.839  35.062  1.00  0.00     0.198 A 
ATOM     96  C   UNL A   1      42.921  25.082  35.339  1.00  0.00     0.198 A 
ATOM     97  F   UNL A   1      41.125  26.374  34.687  1.00  0.00    -0.203 F 
ATOM     98  F   UNL A   1      46.479  25.660  35.229  1.00  0.00    -0.200 F 
ATOM     99  C   UNL A   1      44.272  24.888  35.521  1.00  0.00     0.200 A 
ATOM    100  F   UNL A   1      42.043  24.146  35.726  1.00  0.00    -0.200 F 
ATOM    101  F   UNL A   1      44.716  23.781  36.132  1.00  0.00    -0.200 F 
ENDBRANCH  68  91
ENDBRANCH  42  43
ENDBRANCH  35  37
ENDBRANCH  34  35
ENDBRANCH  33  34
ENDBRANCH   1  33
TORSDOF 17
ENDMDL
MODEL 3
REMARK VINA RESULT:     -12.9      2.275      3.584
REMARK SMILES Cc1ccc(F)cc1S(=O)(=O)Nc1cc(C(=O)OCCOC(=O)c2ccc(-c3c4nc(c(-c5c(F)c(F)c(F)c(F)c5F)c5ccc([nH]5)c(-c5c(F)c(F)c(F)c(F)c5F)c5nc(c(-c6c(F)c(F)c(F)c(F)c6F)c6ccc3[nH]6)C=C5)C=C4)cc2)ccc1N(C)Cc1ccccc1
REMARK SMILES IDX 19 1 18 2 16 3 17 4 15 5 13 6 14 7 89 8 88 9 87 10 12 11
REMARK SMILES IDX 9 13 10 14 11 15 8 16 1 17 2 18 3 19 4 20 7 21 5 22 6 23
REMARK SMILES IDX 90 24 91 25 92 26 93 27 94 28 98 29 95 30 97 31 96 32 20 33
REMARK SMILES IDX 21 34 22 35 23 36 24 37 25 38 86 39 26 40 85 41 27 42 28 43
REMARK SMILES IDX 29 44 79 45 30 46 84 47 78 48 80 49 31 50 83 51 77 52 76 53
REMARK SMILES IDX 32 55 64 56 44 57 63 58 45 59 48 60 62 61 81 62 46 63 47 64
REMARK SMILES IDX 61 66 82 67 49 68 33 69 34 70 42 71 35 72 36 73 40 74 43 75
REMARK SMILES IDX 37 76 38 77 41 78 39 79 65 80 66 81 74 82 67 83 68 84 72 85
REMARK SMILES IDX 75 86 69 87 70 88 73 89 71 90 50 91 51 92 59 93 52 94 53 95
REMARK SMILES IDX 57 96 60 97 54 98 55 99 58 100 56 101
REMARK H PARENT 12 12 80 54 48 65
REMARK Flexibility Score: inf
ROOT
ATOM      1  C   UNL A   1      33.662  31.215  27.532  1.00  0.00     0.275 C 
ENDROOT
BRANCH   1   2
ATOM      2  O   UNL A   1      34.071  29.894  27.031  1.00  0.00    -0.458 OA
BRANCH   2   3
ATOM      3  C   UNL A   1      33.058  28.993  26.888  1.00  0.00     0.338 C 
ATOM      4  O   UNL A   1      32.075  28.979  27.625  1.00  0.00    -0.246 OA
BRANCH   3   5
ATOM      5  C   UNL A   1      33.122  28.007  25.739  1.00  0.00     0.062 A 
ATOM      6  C   UNL A   1      33.162  25.565  25.231  1.00  0.00     0.073 A 
ATOM      7  C   UNL A   1      32.934  26.670  26.099  1.00  0.00     0.044 A 
ATOM      8  C   UNL A   1      33.530  25.691  23.892  1.00  0.00     0.061 A 
ATOM      9  C   UNL A   1      33.635  27.075  23.510  1.00  0.00     0.029 A 
ATOM     10  C   UNL A   1      33.452  28.211  24.406  1.00  0.00     0.018 A 
BRANCH   6  11
ATOM     11  N   UNL A   1      33.385  24.316  25.871  1.00  0.00    -0.277 N 
ATOM     12  H   UNL A   1      34.227  24.045  26.305  1.00  0.00     0.180 HD
BRANCH  11  13
ATOM     13  S   UNL A   1      31.968  23.345  25.775  1.00  0.00     0.262 S 
ATOM     14  O   UNL A   1      31.073  23.949  24.833  1.00  0.00    -0.201 OA
ATOM     15  O   UNL A   1      31.479  23.257  27.144  1.00  0.00    -0.201 OA
BRANCH  13  16
ATOM     16  C   UNL A   1      32.464  21.678  25.190  1.00  0.00     0.093 A 
ATOM     17  C   UNL A   1      34.025  21.127  27.128  1.00  0.00     0.046 C 
ATOM     18  C   UNL A   1      33.217  20.774  25.926  1.00  0.00    -0.030 A 
ATOM     19  C   UNL A   1      33.328  19.425  25.479  1.00  0.00     0.008 A 
ATOM     20  C   UNL A   1      32.786  18.981  24.276  1.00  0.00     0.039 A 
ATOM     21  C   UNL A   1      32.082  21.222  23.927  1.00  0.00     0.061 A 
ATOM     22  C   UNL A   1      32.204  19.916  23.471  1.00  0.00     0.124 A 
ATOM     23  F   UNL A   1      31.785  19.594  22.237  1.00  0.00    -0.207 F 
ENDBRANCH  13  16
ENDBRANCH  11  13
ENDBRANCH   6  11
BRANCH   8  24
ATOM     24  N   UNL A   1      33.908  24.569  23.089  1.00  0.00    -0.369 N 
ATOM     25  C   UNL A   1      33.060  24.359  21.904  1.00  0.00     0.144 C 
BRANCH  24  26
ATOM     26  C   UNL A   1      34.761  23.290  23.468  1.00  0.00     0.151 C 
BRANCH  26  27
ATOM     27  C   UNL A   1      36.069  23.148  24.378  1.00  0.00    -0.029 A 
ATOM     28  C   UNL A   1      36.759  24.078  25.200  1.00  0.00     0.005 A 
ATOM     29  C   UNL A   1      36.779  21.932  24.257  1.00  0.00     0.005 A 
ATOM     30  C   UNL A   1      37.753  23.694  26.138  1.00  0.00     0.000 A 
ATOM     31  C   UNL A   1      37.857  21.573  25.100  1.00  0.00     0.000 A 
ATOM     32  C   UNL A   1      38.271  22.415  26.120  1.00  0.00     0.000 A 
ENDBRANCH  26  27
ENDBRANCH  24  26
ENDBRANCH   8  24
ENDBRANCH   3   5
ENDBRANCH   2   3
ENDBRANCH   1   2
BRANCH   1  33
ATOM     33  C   UNL A   1      34.725  31.982  28.338  1.00  0.00     0.275 C 
BRANCH  33  34
ATOM     34  O   UNL A   1      35.989  31.995  27.666  1.00  0.00    -0.458 OA
BRANCH  34  35
ATOM     35  C   UNL A   1      36.943  31.464  28.447  1.00  0.00     0.338 C 
ATOM     36  O   UNL A   1      37.736  32.068  29.155  1.00  0.00    -0.246 OA
BRANCH  35  37
ATOM     37  C   UNL A   1      37.094  30.026  28.211  1.00  0.00     0.060 A 
ATOM     38  C   UNL A   1      36.971  29.264  29.384  1.00  0.00     0.016 A 
ATOM     39  C   UNL A   1      38.150  29.827  27.325  1.00  0.00     0.016 A 
ATOM     40  C   UNL A   1      38.085  28.612  29.879  1.00  0.00     0.010 A 
ATOM     41  C   UNL A   1      39.262  29.195  27.819  1.00  0.00     0.010 A 
ATOM     42  C   UNL A   1      39.252  28.690  29.132  1.00  0.00    -0.014 A 
BRANCH  42  43
ATOM     43  C   UNL A   1      40.512  28.121  29.553  1.00  0.00     0.031 A 
ATOM     44  C   UNL A   1      40.816  26.778  29.033  1.00  0.00     0.074 A 
ATOM     45  C   UNL A   1      41.435  28.978  30.042  1.00  0.00     0.049 A 
ATOM     46  N   UNL A   1      41.868  26.107  29.328  1.00  0.00    -0.248 NA
ATOM     47  C   UNL A   1      39.900  26.051  28.151  1.00  0.00     0.031 C 
ATOM     48  C   UNL A   1      42.877  28.938  29.846  1.00  0.00     0.029 A 
ATOM     49  N   UNL A   1      41.238  30.079  30.891  1.00  0.00    -0.354 N 
ATOM     50  C   UNL A   1      41.940  25.063  28.431  1.00  0.00     0.074 A 
ATOM     51  C   UNL A   1      40.637  24.987  27.821  1.00  0.00     0.031 C 
ATOM     52  C   UNL A   1      43.463  29.797  30.699  1.00  0.00     0.029 A 
ATOM     53  C   UNL A   1      42.442  30.246  31.628  1.00  0.00     0.049 A 
ATOM     54  H   UNL A   1      40.424  30.628  30.963  1.00  0.00     0.167 HD
ATOM     55  C   UNL A   1      43.160  24.507  28.189  1.00  0.00     0.037 A 
ATOM     56  C   UNL A   1      42.482  30.004  32.982  1.00  0.00     0.037 A 
ATOM     57  C   UNL A   1      44.172  25.139  29.032  1.00  0.00     0.049 A 
ATOM     58  C   UNL A   1      43.283  28.776  33.362  1.00  0.00     0.074 A 
ATOM     59  C   UNL A   1      45.051  26.193  28.844  1.00  0.00     0.029 A 
ATOM     60  N   UNL A   1      44.088  24.956  30.396  1.00  0.00    -0.354 N 
ATOM     61  N   UNL A   1      43.819  27.949  32.511  1.00  0.00    -0.248 NA
ATOM     62  C   UNL A   1      43.383  28.308  34.744  1.00  0.00     0.031 C 
ATOM     63  C   UNL A   1      45.489  26.635  30.127  1.00  0.00     0.029 A 
ATOM     64  C   UNL A   1      44.893  25.836  31.088  1.00  0.00     0.049 A 
ATOM     65  H   UNL A   1      43.520  24.276  30.826  1.00  0.00     0.167 HD
ATOM     66  C   UNL A   1      44.274  26.849  33.176  1.00  0.00     0.074 A 
ATOM     67  C   UNL A   1      43.939  27.100  34.567  1.00  0.00     0.031 C 
ATOM     68  C   UNL A   1      44.864  25.795  32.539  1.00  0.00     0.037 A 
BRANCH  55  69
ATOM     69  C   UNL A   1      43.494  23.595  27.036  1.00  0.00     0.064 A 
ATOM     70  C   UNL A   1      43.039  22.258  27.046  1.00  0.00     0.173 A 
ATOM     71  C   UNL A   1      44.254  23.951  25.906  1.00  0.00     0.173 A 
ATOM     72  F   UNL A   1      42.251  21.792  28.024  1.00  0.00    -0.203 F 
ATOM     73  C   UNL A   1      43.376  21.338  26.053  1.00  0.00     0.198 A 
ATOM     74  C   UNL A   1      44.626  23.018  24.929  1.00  0.00     0.198 A 
ATOM     75  F   UNL A   1      44.618  25.218  25.676  1.00  0.00    -0.203 F 
ATOM     76  F   UNL A   1      42.910  20.083  26.127  1.00  0.00    -0.200 F 
ATOM     77  C   UNL A   1      44.190  21.710  25.005  1.00  0.00     0.200 A 
ATOM     78  F   UNL A   1      45.405  23.399  23.906  1.00  0.00    -0.200 F 
ATOM     79  F   UNL A   1      44.532  20.822  24.063  1.00  0.00    -0.200 F 
ENDBRANCH  55  69
BRANCH  56  80
ATOM     80  C   UNL A   1      41.191  30.326  33.678  1.00  0.00     0.064 A 
ATOM     81  C   UNL A   1      40.801  31.677  33.647  1.00  0.00     0.173 A 
ATOM     82  C   UNL A   1      40.199  29.335  33.611  1.00  0.00     0.173 A 
ATOM     83  F   UNL A   1      41.708  32.650  33.818  1.00  0.00    -0.203 F 
ATOM     84  C   UNL A   1      39.558  32.002  33.139  1.00  0.00     0.198 A 
ATOM     85  C   UNL A   1      38.973  29.661  33.079  1.00  0.00     0.198 A 
ATOM     86  F   UNL A   1      40.491  28.043  33.807  1.00  0.00    -0.203 F 
ATOM     87  F   UNL A   1      39.251  33.276  32.858  1.00  0.00    -0.200 F 
ATOM     88  C   UNL A   1      38.718  30.978  32.745  1.00  0.00     0.200 A 
ATOM     89  F   UNL A   1      38.119  28.686  32.735  1.00  0.00    -0.200 F 
ATOM     90  F   UNL A   1      37.734  31.249  31.895  1.00  0.00    -0.200 F 
ENDBRANCH  56  80
BRANCH  68  91
ATOM     91  C   UNL A   1      45.433  24.614  33.275  1.00  0.00     0.064 A 
ATOM     92  C   UNL A   1      46.786  24.556  33.646  1.00  0.00     0.173 A 
ATOM     93  C   UNL A   1      44.673  23.458  33.560  1.00  0.00     0.173 A 
ATOM     94  F   UNL A   1      47.644  25.522  33.285  1.00  0.00    -0.203 F 
ATOM     95  C   UNL A   1      47.303  23.489  34.376  1.00  0.00     0.198 A 
ATOM     96  C   UNL A   1      45.210  22.362  34.227  1.00  0.00     0.198 A 
ATOM     97  F   UNL A   1      43.380  23.348  33.228  1.00  0.00    -0.203 F 
ATOM     98  F   UNL A   1      48.575  23.529  34.795  1.00  0.00    -0.200 F 
ATOM     99  C   UNL A   1      46.514  22.392  34.667  1.00  0.00     0.200 A 
ATOM    100  F   UNL A   1      44.445  21.284  34.448  1.00  0.00    -0.200 F 
ATOM    101  F   UNL A   1      47.013  21.363  35.364  1.00  0.00    -0.200 F 
ENDBRANCH  68  91
ENDBRANCH  42  43
ENDBRANCH  35  37
ENDBRANCH  34  35
ENDBRANCH  33  34
ENDBRANCH   1  33
TORSDOF 17
ENDMDL
