MODEL 1
REMARK VINA RESULT:     -11.5      0.000      0.000
REMARK SMILES O=C(OCCOC(=O)[C@@H]1CS[C@H](c2cc(Br)ccc2O)[NH2+]1)c1ccc(-c2c3nc(c(-c4c(F)c(F)c(F)c(F)c4F)c4ccc([nH]4)c(-c4c(F)c(F)c(F)c(F)c4F)c4nc(c(-c5c(F)c(F)c(F)c(F)c5F)c5ccc2[nH]5)C=C4)C=C3)cc1
REMARK SMILES IDX 4 1 3 2 2 3 1 4 22 5 23 6 84 7 24 8 83 9 25 10 26 11 27 12
REMARK SMILES IDX 77 13 28 14 82 15 76 16 78 17 29 18 81 19 75 20 74 21 30 23
REMARK SMILES IDX 62 24 42 25 61 26 43 27 46 28 60 29 79 30 44 31 45 32 59 34
REMARK SMILES IDX 80 35 47 36 31 37 32 38 40 39 33 40 34 41 38 42 41 43 35 44
REMARK SMILES IDX 36 45 39 46 37 47 63 48 64 49 72 50 65 51 66 52 70 53 73 54
REMARK SMILES IDX 67 55 68 56 71 57 69 58 48 59 49 60 57 61 50 62 51 63 55 64
REMARK SMILES IDX 58 65 52 66 53 67 56 68 54 69 5 70 6 71 7 72 8 73 9 74 10 75
REMARK SMILES IDX 21 76 11 77 12 78 13 81 14 82 19 83 15 84 18 85 16 86 17 87
REMARK SMILES IDX 20 88
REMARK H PARENT 78 22 46 33 21 79 21 80 20 89
REMARK Flexibility Score: inf
ROOT
ATOM      1  C   UNL A   1      34.435  33.244  27.996  1.00  0.00     0.275 C 
ENDROOT
BRANCH   1   2
ATOM      2  O   UNL A   1      34.063  31.943  28.550  1.00  0.00    -0.458 OA
BRANCH   2   3
ATOM      3  C   UNL A   1      34.422  30.782  27.907  1.00  0.00     0.338 C 
ATOM      4  O   UNL A   1      33.673  30.171  27.162  1.00  0.00    -0.246 OA
BRANCH   3   5
ATOM      5  C   UNL A   1      35.732  30.196  28.393  1.00  0.00     0.060 A 
ATOM      6  C   UNL A   1      36.785  30.163  27.514  1.00  0.00     0.016 A 
ATOM      7  C   UNL A   1      35.999  29.643  29.648  1.00  0.00     0.016 A 
ATOM      8  C   UNL A   1      38.073  29.715  27.831  1.00  0.00     0.010 A 
ATOM      9  C   UNL A   1      37.339  29.240  30.013  1.00  0.00     0.010 A 
ATOM     10  C   UNL A   1      38.422  29.341  29.115  1.00  0.00    -0.014 A 
BRANCH  10  11
ATOM     11  C   UNL A   1      39.877  28.947  29.293  1.00  0.00     0.031 A 
ATOM     12  C   UNL A   1      40.647  29.609  30.405  1.00  0.00     0.074 A 
ATOM     13  C   UNL A   1      40.431  27.785  28.843  1.00  0.00     0.049 A 
ATOM     14  N   UNL A   1      41.863  29.375  30.830  1.00  0.00    -0.248 NA
ATOM     15  C   UNL A   1      39.905  30.597  31.202  1.00  0.00     0.031 C 
ATOM     16  C   UNL A   1      39.710  26.749  28.117  1.00  0.00     0.029 A 
ATOM     17  N   UNL A   1      41.688  27.210  29.022  1.00  0.00    -0.354 N 
ATOM     18  C   UNL A   1      42.048  30.209  31.918  1.00  0.00     0.074 A 
ATOM     19  C   UNL A   1      40.798  30.913  32.126  1.00  0.00     0.031 C 
ATOM     20  C   UNL A   1      40.480  25.655  27.991  1.00  0.00     0.029 A 
ATOM     21  C   UNL A   1      41.821  25.941  28.481  1.00  0.00     0.049 A 
ATOM     22  H   UNL A   1      42.421  27.668  29.494  1.00  0.00     0.167 HD
ATOM     23  C   UNL A   1      43.169  30.408  32.648  1.00  0.00     0.037 A 
ATOM     24  C   UNL A   1      42.868  25.087  28.353  1.00  0.00     0.037 A 
ATOM     25  C   UNL A   1      44.415  29.705  32.478  1.00  0.00     0.049 A 
ATOM     26  C   UNL A   1      44.183  25.437  28.995  1.00  0.00     0.074 A 
ATOM     27  C   UNL A   1      45.640  29.985  33.060  1.00  0.00     0.029 A 
ATOM     28  N   UNL A   1      44.601  28.579  31.689  1.00  0.00    -0.354 N 
ATOM     29  N   UNL A   1      44.426  26.393  29.853  1.00  0.00    -0.248 NA
ATOM     30  C   UNL A   1      45.356  24.597  28.687  1.00  0.00     0.031 C 
ATOM     31  C   UNL A   1      46.584  29.080  32.566  1.00  0.00     0.029 A 
ATOM     32  C   UNL A   1      45.935  28.188  31.731  1.00  0.00     0.049 A 
ATOM     33  H   UNL A   1      43.894  28.124  31.178  1.00  0.00     0.167 HD
ATOM     34  C   UNL A   1      45.759  26.262  30.203  1.00  0.00     0.074 A 
ATOM     35  C   UNL A   1      46.271  25.104  29.503  1.00  0.00     0.031 C 
ATOM     36  C   UNL A   1      46.481  27.054  31.030  1.00  0.00     0.037 A 
BRANCH  23  37
ATOM     37  C   UNL A   1      43.143  31.593  33.562  1.00  0.00     0.064 A 
ATOM     38  C   UNL A   1      42.780  31.518  34.913  1.00  0.00     0.173 A 
ATOM     39  C   UNL A   1      43.450  32.855  33.028  1.00  0.00     0.173 A 
ATOM     40  F   UNL A   1      42.431  30.342  35.456  1.00  0.00    -0.203 F 
ATOM     41  C   UNL A   1      42.701  32.672  35.689  1.00  0.00     0.198 A 
ATOM     42  C   UNL A   1      43.403  33.998  33.813  1.00  0.00     0.198 A 
ATOM     43  F   UNL A   1      43.786  32.975  31.734  1.00  0.00    -0.203 F 
ATOM     44  F   UNL A   1      42.286  32.594  36.961  1.00  0.00    -0.200 F 
ATOM     45  C   UNL A   1      43.019  33.907  35.140  1.00  0.00     0.200 A 
ATOM     46  F   UNL A   1      43.713  35.187  33.279  1.00  0.00    -0.200 F 
ATOM     47  F   UNL A   1      42.936  35.016  35.889  1.00  0.00    -0.200 F 
ENDBRANCH  23  37
BRANCH  24  48
ATOM     48  C   UNL A   1      42.744  23.814  27.561  1.00  0.00     0.064 A 
ATOM     49  C   UNL A   1      42.301  22.613  28.143  1.00  0.00     0.173 A 
ATOM     50  C   UNL A   1      43.115  23.760  26.206  1.00  0.00     0.173 A 
ATOM     51  F   UNL A   1      41.975  22.578  29.442  1.00  0.00    -0.203 F 
ATOM     52  C   UNL A   1      42.237  21.425  27.408  1.00  0.00     0.198 A 
ATOM     53  C   UNL A   1      43.008  22.583  25.462  1.00  0.00     0.198 A 
ATOM     54  F   UNL A   1      43.579  24.859  25.591  1.00  0.00    -0.203 F 
ATOM     55  F   UNL A   1      41.862  20.287  28.008  1.00  0.00    -0.200 F 
ATOM     56  C   UNL A   1      42.578  21.414  26.064  1.00  0.00     0.200 A 
ATOM     57  F   UNL A   1      43.327  22.586  24.159  1.00  0.00    -0.200 F 
ATOM     58  F   UNL A   1      42.501  20.278  25.357  1.00  0.00    -0.200 F 
ENDBRANCH  24  48
BRANCH  36  59
ATOM     59  C   UNL A   1      47.934  26.719  31.208  1.00  0.00     0.064 A 
ATOM     60  C   UNL A   1      48.358  25.799  32.180  1.00  0.00     0.173 A 
ATOM     61  C   UNL A   1      48.913  27.306  30.393  1.00  0.00     0.173 A 
ATOM     62  F   UNL A   1      47.464  25.218  32.994  1.00  0.00    -0.203 F 
ATOM     63  C   UNL A   1      49.708  25.507  32.353  1.00  0.00     0.198 A 
ATOM     64  C   UNL A   1      50.260  26.986  30.546  1.00  0.00     0.198 A 
ATOM     65  F   UNL A   1      48.565  28.189  29.445  1.00  0.00    -0.203 F 
ATOM     66  F   UNL A   1      50.091  24.672  33.329  1.00  0.00    -0.200 F 
ATOM     67  C   UNL A   1      50.657  26.096  31.533  1.00  0.00     0.200 A 
ATOM     68  F   UNL A   1      51.175  27.547  29.744  1.00  0.00    -0.200 F 
ATOM     69  F   UNL A   1      51.956  25.813  31.699  1.00  0.00    -0.200 F 
ENDBRANCH  36  59
ENDBRANCH  10  11
ENDBRANCH   3   5
ENDBRANCH   2   3
ENDBRANCH   1   2
BRANCH   1  70
ATOM     70  C   UNL A   1      34.552  34.334  29.097  1.00  0.00     0.274 C 
BRANCH  70  71
ATOM     71  O   UNL A   1      33.312  34.545  29.766  1.00  0.00    -0.458 OA
BRANCH  71  72
ATOM     72  C   UNL A   1      32.897  35.840  29.862  1.00  0.00     0.365 C 
ATOM     73  O   UNL A   1      32.869  36.647  28.958  1.00  0.00    -0.245 OA
BRANCH  72  74
ATOM     74  C   UNL A   1      32.385  36.113  31.274  1.00  0.00     0.304 C 
ATOM     75  C   UNL A   1      32.999  37.340  31.908  1.00  0.00     0.153 C 
ATOM     76  N   UNL A   1      32.584  34.926  32.131  1.00  0.00    -0.319 N 
ATOM     77  S   UNL A   1      34.402  36.719  32.877  1.00  0.00    -0.087 SA
ATOM     78  C   UNL A   1      33.775  35.026  32.972  1.00  0.00     0.278 C 
ATOM     79  H   UNL A   1      32.676  34.105  31.534  1.00  0.00     0.348 HD
ATOM     80  H   UNL A   1      31.777  34.857  32.751  1.00  0.00     0.348 HD
BRANCH  78  81
ATOM     81  C   UNL A   1      34.860  33.927  33.103  1.00  0.00     0.063 A 
ATOM     82  C   UNL A   1      35.613  33.999  34.300  1.00  0.00     0.030 A 
ATOM     83  C   UNL A   1      35.238  32.836  32.296  1.00  0.00     0.125 A 
ATOM     84  C   UNL A   1      36.671  33.124  34.587  1.00  0.00     0.018 A 
ATOM     85  C   UNL A   1      36.428  32.109  32.466  1.00  0.00     0.048 A 
ATOM     86  Br  UNL A   1      37.412  33.093  36.322  1.00  0.00    -0.051 Br
ATOM     87  C   UNL A   1      37.136  32.230  33.638  1.00  0.00     0.019 A 
BRANCH  83  88
ATOM     88  O   UNL A   1      34.384  32.114  31.516  1.00  0.00    -0.507 OA
ATOM     89  H   UNL A   1      34.685  31.742  30.711  1.00  0.00     0.293 HD
ENDBRANCH  83  88
ENDBRANCH  78  81
ENDBRANCH  72  74
ENDBRANCH  71  72
ENDBRANCH  70  71
ENDBRANCH   1  70
TORSDOF 13
ENDMDL
MODEL 2
REMARK VINA RESULT:     -11.4      0.372      1.679
REMARK SMILES O=C(OCCOC(=O)[C@@H]1CS[C@H](c2cc(Br)ccc2O)[NH2+]1)c1ccc(-c2c3nc(c(-c4c(F)c(F)c(F)c(F)c4F)c4ccc([nH]4)c(-c4c(F)c(F)c(F)c(F)c4F)c4nc(c(-c5c(F)c(F)c(F)c(F)c5F)c5ccc2[nH]5)C=C4)C=C3)cc1
REMARK SMILES IDX 4 1 3 2 2 3 1 4 22 5 23 6 84 7 24 8 83 9 25 10 26 11 27 12
REMARK SMILES IDX 77 13 28 14 82 15 76 16 78 17 29 18 81 19 75 20 74 21 30 23
REMARK SMILES IDX 62 24 42 25 61 26 43 27 46 28 60 29 79 30 44 31 45 32 59 34
REMARK SMILES IDX 80 35 47 36 31 37 32 38 40 39 33 40 34 41 38 42 41 43 35 44
REMARK SMILES IDX 36 45 39 46 37 47 63 48 64 49 72 50 65 51 66 52 70 53 73 54
REMARK SMILES IDX 67 55 68 56 71 57 69 58 48 59 49 60 57 61 50 62 51 63 55 64
REMARK SMILES IDX 58 65 52 66 53 67 56 68 54 69 5 70 6 71 7 72 8 73 9 74 10 75
REMARK SMILES IDX 21 76 11 77 12 78 13 81 14 82 19 83 15 84 18 85 16 86 17 87
REMARK SMILES IDX 20 88
REMARK H PARENT 78 22 46 33 21 79 21 80 20 89
REMARK Flexibility Score: inf
ROOT
ATOM      1  C   UNL A   1      34.033  33.272  27.995  1.00  0.00     0.275 C 
ENDROOT
BRANCH   1   2
ATOM      2  O   UNL A   1      34.042  31.936  28.588  1.00  0.00    -0.458 OA
BRANCH   2   3
ATOM      3  C   UNL A   1      34.489  30.854  27.867  1.00  0.00     0.338 C 
ATOM      4  O   UNL A   1      33.816  30.295  27.016  1.00  0.00    -0.246 OA
BRANCH   3   5
ATOM      5  C   UNL A   1      35.783  30.266  28.388  1.00  0.00     0.060 A 
ATOM      6  C   UNL A   1      36.882  30.304  27.567  1.00  0.00     0.016 A 
ATOM      7  C   UNL A   1      35.996  29.645  29.622  1.00  0.00     0.016 A 
ATOM      8  C   UNL A   1      38.162  29.863  27.926  1.00  0.00     0.010 A 
ATOM      9  C   UNL A   1      37.323  29.247  30.035  1.00  0.00     0.010 A 
ATOM     10  C   UNL A   1      38.450  29.421  29.203  1.00  0.00    -0.014 A 
BRANCH  10  11
ATOM     11  C   UNL A   1      39.902  29.045  29.437  1.00  0.00     0.031 A 
ATOM     12  C   UNL A   1      40.606  29.677  30.608  1.00  0.00     0.074 A 
ATOM     13  C   UNL A   1      40.498  27.910  28.972  1.00  0.00     0.049 A 
ATOM     14  N   UNL A   1      41.804  29.447  31.083  1.00  0.00    -0.248 NA
ATOM     15  C   UNL A   1      39.809  30.622  31.405  1.00  0.00     0.031 C 
ATOM     16  C   UNL A   1      39.832  26.891  28.173  1.00  0.00     0.029 A 
ATOM     17  N   UNL A   1      41.756  27.350  29.189  1.00  0.00    -0.354 N 
ATOM     18  C   UNL A   1      41.922  30.243  32.208  1.00  0.00     0.074 A 
ATOM     19  C   UNL A   1      40.651  30.917  32.382  1.00  0.00     0.031 C 
ATOM     20  C   UNL A   1      40.627  25.815  28.044  1.00  0.00     0.029 A 
ATOM     21  C   UNL A   1      41.938  26.105  28.608  1.00  0.00     0.049 A 
ATOM     22  H   UNL A   1      42.457  27.802  29.713  1.00  0.00     0.167 HD
ATOM     23  C   UNL A   1      43.003  30.432  32.999  1.00  0.00     0.037 A 
ATOM     24  C   UNL A   1      43.005  25.274  28.499  1.00  0.00     0.037 A 
ATOM     25  C   UNL A   1      44.268  29.757  32.863  1.00  0.00     0.049 A 
ATOM     26  C   UNL A   1      44.282  25.622  29.217  1.00  0.00     0.074 A 
ATOM     27  C   UNL A   1      45.459  30.035  33.513  1.00  0.00     0.029 A 
ATOM     28  N   UNL A   1      44.513  28.665  32.043  1.00  0.00    -0.354 N 
ATOM     29  N   UNL A   1      44.465  26.548  30.120  1.00  0.00    -0.248 NA
ATOM     30  C   UNL A   1      45.483  24.814  28.934  1.00  0.00     0.031 C 
ATOM     31  C   UNL A   1      46.442  29.165  33.033  1.00  0.00     0.029 A 
ATOM     32  C   UNL A   1      45.850  28.296  32.135  1.00  0.00     0.049 A 
ATOM     33  H   UNL A   1      43.840  28.218  31.481  1.00  0.00     0.167 HD
ATOM     34  C   UNL A   1      45.783  26.426  30.529  1.00  0.00     0.074 A 
ATOM     35  C   UNL A   1      46.349  25.305  29.812  1.00  0.00     0.031 C 
ATOM     36  C   UNL A   1      46.450  27.198  31.419  1.00  0.00     0.037 A 
BRANCH  23  37
ATOM     37  C   UNL A   1      42.911  31.581  33.954  1.00  0.00     0.064 A 
ATOM     38  C   UNL A   1      42.481  31.450  35.280  1.00  0.00     0.173 A 
ATOM     39  C   UNL A   1      43.226  32.867  33.484  1.00  0.00     0.173 A 
ATOM     40  F   UNL A   1      42.124  30.249  35.760  1.00  0.00    -0.203 F 
ATOM     41  C   UNL A   1      42.345  32.572  36.094  1.00  0.00     0.198 A 
ATOM     42  C   UNL A   1      43.120  33.978  34.307  1.00  0.00     0.198 A 
ATOM     43  F   UNL A   1      43.625  33.041  32.214  1.00  0.00    -0.203 F 
ATOM     44  F   UNL A   1      41.867  32.440  37.339  1.00  0.00    -0.200 F 
ATOM     45  C   UNL A   1      42.670  33.832  35.609  1.00  0.00     0.200 A 
ATOM     46  F   UNL A   1      43.438  35.191  33.835  1.00  0.00    -0.200 F 
ATOM     47  F   UNL A   1      42.532  34.910  36.394  1.00  0.00    -0.200 F 
ENDBRANCH  23  37
BRANCH  24  48
ATOM     48  C   UNL A   1      42.943  24.031  27.656  1.00  0.00     0.064 A 
ATOM     49  C   UNL A   1      43.218  24.049  26.277  1.00  0.00     0.173 A 
ATOM     50  C   UNL A   1      42.554  22.796  28.205  1.00  0.00     0.173 A 
ATOM     51  F   UNL A   1      43.550  25.200  25.675  1.00  0.00    -0.203 F 
ATOM     52  C   UNL A   1      43.109  22.896  25.494  1.00  0.00     0.198 A 
ATOM     53  C   UNL A   1      42.488  21.636  27.431  1.00  0.00     0.198 A 
ATOM     54  F   UNL A   1      42.242  22.708  29.507  1.00  0.00    -0.203 F 
ATOM     55  F   UNL A   1      43.327  22.961  24.173  1.00  0.00    -0.200 F 
ATOM     56  C   UNL A   1      42.756  21.687  26.074  1.00  0.00     0.200 A 
ATOM     57  F   UNL A   1      42.160  20.469  28.004  1.00  0.00    -0.200 F 
ATOM     58  F   UNL A   1      42.667  20.579  25.326  1.00  0.00    -0.200 F 
ENDBRANCH  24  48
BRANCH  36  59
ATOM     59  C   UNL A   1      47.898  26.881  31.654  1.00  0.00     0.064 A 
ATOM     60  C   UNL A   1      48.914  27.515  30.921  1.00  0.00     0.173 A 
ATOM     61  C   UNL A   1      48.282  25.949  32.630  1.00  0.00     0.173 A 
ATOM     62  F   UNL A   1      48.603  28.405  29.967  1.00  0.00    -0.203 F 
ATOM     63  C   UNL A   1      50.254  27.201  31.130  1.00  0.00     0.198 A 
ATOM     64  C   UNL A   1      49.625  25.662  32.860  1.00  0.00     0.198 A 
ATOM     65  F   UNL A   1      47.354  25.315  33.363  1.00  0.00    -0.203 F 
ATOM     66  F   UNL A   1      51.201  27.776  30.374  1.00  0.00    -0.200 F 
ATOM     67  C   UNL A   1      50.609  26.280  32.103  1.00  0.00     0.200 A 
ATOM     68  F   UNL A   1      49.968  24.781  33.809  1.00  0.00    -0.200 F 
ATOM     69  F   UNL A   1      51.899  25.981  32.304  1.00  0.00    -0.200 F 
ENDBRANCH  36  59
ENDBRANCH  10  11
ENDBRANCH   3   5
ENDBRANCH   2   3
ENDBRANCH   1   2
BRANCH   1  70
ATOM     70  C   UNL A   1      34.376  34.375  29.034  1.00  0.00     0.274 C 
BRANCH  70  71
ATOM     71  O   UNL A   1      33.358  34.506  30.022  1.00  0.00    -0.458 OA
BRANCH  71  72
ATOM     72  C   UNL A   1      32.739  35.719  30.083  1.00  0.00     0.365 C 
ATOM     73  O   UNL A   1      32.486  36.438  29.141  1.00  0.00    -0.245 OA
BRANCH  72  74
ATOM     74  C   UNL A   1      32.324  36.012  31.523  1.00  0.00     0.304 C 
ATOM     75  C   UNL A   1      32.981  37.247  32.097  1.00  0.00     0.153 C 
ATOM     76  N   UNL A   1      32.582  34.837  32.381  1.00  0.00    -0.319 N 
ATOM     77  S   UNL A   1      34.447  36.639  32.975  1.00  0.00    -0.087 SA
ATOM     78  C   UNL A   1      33.829  34.947  33.137  1.00  0.00     0.278 C 
ATOM     79  H   UNL A   1      32.633  34.007  31.791  1.00  0.00     0.348 HD
ATOM     80  H   UNL A   1      31.820  34.777  33.056  1.00  0.00     0.348 HD
BRANCH  78  81
ATOM     81  C   UNL A   1      34.920  33.850  33.208  1.00  0.00     0.063 A 
ATOM     82  C   UNL A   1      35.719  33.904  34.376  1.00  0.00     0.030 A 
ATOM     83  C   UNL A   1      35.269  32.773  32.370  1.00  0.00     0.125 A 
ATOM     84  C   UNL A   1      36.789  33.028  34.608  1.00  0.00     0.018 A 
ATOM     85  C   UNL A   1      36.467  32.046  32.482  1.00  0.00     0.048 A 
ATOM     86  Br  UNL A   1      37.596  32.972  36.312  1.00  0.00    -0.051 Br
ATOM     87  C   UNL A   1      37.219  32.150  33.628  1.00  0.00     0.019 A 
BRANCH  83  88
ATOM     88  O   UNL A   1      34.387  32.061  31.612  1.00  0.00    -0.507 OA
ATOM     89  H   UNL A   1      34.702  31.484  30.944  1.00  0.00     0.293 HD
ENDBRANCH  83  88
ENDBRANCH  78  81
ENDBRANCH  72  74
ENDBRANCH  71  72
ENDBRANCH  70  71
ENDBRANCH   1  70
TORSDOF 13
ENDMDL
MODEL 3
REMARK VINA RESULT:     -11.0      5.381     12.004
REMARK SMILES O=C(OCCOC(=O)[C@@H]1CS[C@H](c2cc(Br)ccc2O)[NH2+]1)c1ccc(-c2c3nc(c(-c4c(F)c(F)c(F)c(F)c4F)c4ccc([nH]4)c(-c4c(F)c(F)c(F)c(F)c4F)c4nc(c(-c5c(F)c(F)c(F)c(F)c5F)c5ccc2[nH]5)C=C4)C=C3)cc1
REMARK SMILES IDX 4 1 3 2 2 3 1 4 22 5 23 6 84 7 24 8 83 9 25 10 26 11 27 12
REMARK SMILES IDX 77 13 28 14 82 15 76 16 78 17 29 18 81 19 75 20 74 21 30 23
REMARK SMILES IDX 62 24 42 25 61 26 43 27 46 28 60 29 79 30 44 31 45 32 59 34
REMARK SMILES IDX 80 35 47 36 31 37 32 38 40 39 33 40 34 41 38 42 41 43 35 44
REMARK SMILES IDX 36 45 39 46 37 47 63 48 64 49 72 50 65 51 66 52 70 53 73 54
REMARK SMILES IDX 67 55 68 56 71 57 69 58 48 59 49 60 57 61 50 62 51 63 55 64
REMARK SMILES IDX 58 65 52 66 53 67 56 68 54 69 5 70 6 71 7 72 8 73 9 74 10 75
REMARK SMILES IDX 21 76 11 77 12 78 13 81 14 82 19 83 15 84 18 85 16 86 17 87
REMARK SMILES IDX 20 88
REMARK H PARENT 78 22 46 33 21 79 21 80 20 89
REMARK Flexibility Score: inf
ROOT
ATOM      1  C   UNL A   1      41.065  21.472  26.665  1.00  0.00     0.275 C 
ENDROOT
BRANCH   1   2
ATOM      2  O   UNL A   1      39.645  21.664  26.953  1.00  0.00    -0.458 OA
BRANCH   2   3
ATOM      3  C   UNL A   1      38.941  22.679  26.350  1.00  0.00     0.338 C 
ATOM      4  O   UNL A   1      38.179  22.499  25.414  1.00  0.00    -0.246 OA
BRANCH   3   5
ATOM      5  C   UNL A   1      39.377  24.064  26.782  1.00  0.00     0.060 A 
ATOM      6  C   UNL A   1      39.080  24.460  28.062  1.00  0.00     0.016 A 
ATOM      7  C   UNL A   1      40.032  25.025  26.008  1.00  0.00     0.016 A 
ATOM      8  C   UNL A   1      39.471  25.679  28.629  1.00  0.00     0.010 A 
ATOM      9  C   UNL A   1      40.502  26.259  26.597  1.00  0.00     0.010 A 
ATOM     10  C   UNL A   1      40.284  26.571  27.956  1.00  0.00    -0.014 A 
BRANCH  10  11
ATOM     11  C   UNL A   1      40.664  27.811  28.746  1.00  0.00     0.031 A 
ATOM     12  C   UNL A   1      42.123  28.181  28.800  1.00  0.00     0.074 A 
ATOM     13  C   UNL A   1      39.815  28.833  29.048  1.00  0.00     0.049 A 
ATOM     14  N   UNL A   1      42.694  29.241  29.316  1.00  0.00    -0.248 NA
ATOM     15  C   UNL A   1      43.043  27.281  28.090  1.00  0.00     0.031 C 
ATOM     16  C   UNL A   1      38.411  28.886  28.665  1.00  0.00     0.029 A 
ATOM     17  N   UNL A   1      40.014  30.079  29.639  1.00  0.00    -0.354 N 
ATOM     18  C   UNL A   1      44.041  29.119  29.029  1.00  0.00     0.074 A 
ATOM     19  C   UNL A   1      44.196  27.913  28.240  1.00  0.00     0.031 C 
ATOM     20  C   UNL A   1      37.905  30.101  28.937  1.00  0.00     0.029 A 
ATOM     21  C   UNL A   1      38.889  30.888  29.668  1.00  0.00     0.049 A 
ATOM     22  H   UNL A   1      40.884  30.361  30.006  1.00  0.00     0.167 HD
ATOM     23  C   UNL A   1      45.064  29.911  29.424  1.00  0.00     0.037 A 
ATOM     24  C   UNL A   1      38.627  32.102  30.215  1.00  0.00     0.037 A 
ATOM     25  C   UNL A   1      44.934  31.127  30.186  1.00  0.00     0.049 A 
ATOM     26  C   UNL A   1      39.749  32.878  30.851  1.00  0.00     0.074 A 
ATOM     27  C   UNL A   1      45.939  31.877  30.774  1.00  0.00     0.029 A 
ATOM     28  N   UNL A   1      43.743  31.785  30.454  1.00  0.00    -0.354 N 
ATOM     29  N   UNL A   1      41.031  32.629  30.788  1.00  0.00    -0.248 NA
ATOM     30  C   UNL A   1      39.412  34.100  31.605  1.00  0.00     0.031 C 
ATOM     31  C   UNL A   1      45.353  32.943  31.463  1.00  0.00     0.029 A 
ATOM     32  C   UNL A   1      43.988  32.902  31.245  1.00  0.00     0.049 A 
ATOM     33  H   UNL A   1      42.857  31.503  30.132  1.00  0.00     0.167 HD
ATOM     34  C   UNL A   1      41.654  33.663  31.467  1.00  0.00     0.074 A 
ATOM     35  C   UNL A   1      40.616  34.573  31.899  1.00  0.00     0.031 C 
ATOM     36  C   UNL A   1      42.977  33.817  31.710  1.00  0.00     0.037 A 
BRANCH  23  37
ATOM     37  C   UNL A   1      46.435  29.352  29.208  1.00  0.00     0.064 A 
ATOM     38  C   UNL A   1      47.197  29.596  28.059  1.00  0.00     0.173 A 
ATOM     39  C   UNL A   1      46.968  28.497  30.187  1.00  0.00     0.173 A 
ATOM     40  F   UNL A   1      46.709  30.367  27.075  1.00  0.00    -0.203 F 
ATOM     41  C   UNL A   1      48.435  28.982  27.887  1.00  0.00     0.198 A 
ATOM     42  C   UNL A   1      48.217  27.913  30.027  1.00  0.00     0.198 A 
ATOM     43  F   UNL A   1      46.265  28.221  31.297  1.00  0.00    -0.203 F 
ATOM     44  F   UNL A   1      49.122  29.170  26.752  1.00  0.00    -0.200 F 
ATOM     45  C   UNL A   1      48.945  28.147  28.873  1.00  0.00     0.200 A 
ATOM     46  F   UNL A   1      48.705  27.111  30.982  1.00  0.00    -0.200 F 
ATOM     47  F   UNL A   1      50.134  27.553  28.700  1.00  0.00    -0.200 F 
ENDBRANCH  23  37
BRANCH  24  48
ATOM     48  C   UNL A   1      37.235  32.672  30.218  1.00  0.00     0.064 A 
ATOM     49  C   UNL A   1      36.788  33.556  29.222  1.00  0.00     0.173 A 
ATOM     50  C   UNL A   1      36.331  32.379  31.255  1.00  0.00     0.173 A 
ATOM     51  F   UNL A   1      37.611  33.917  28.227  1.00  0.00    -0.203 F 
ATOM     52  C   UNL A   1      35.508  34.118  29.263  1.00  0.00     0.198 A 
ATOM     53  C   UNL A   1      35.037  32.906  31.271  1.00  0.00     0.198 A 
ATOM     54  F   UNL A   1      36.699  31.570  32.259  1.00  0.00    -0.203 F 
ATOM     55  F   UNL A   1      35.133  34.999  28.325  1.00  0.00    -0.200 F 
ATOM     56  C   UNL A   1      34.629  33.781  30.281  1.00  0.00     0.200 A 
ATOM     57  F   UNL A   1      34.190  32.564  32.252  1.00  0.00    -0.200 F 
ATOM     58  F   UNL A   1      33.397  34.308  30.311  1.00  0.00    -0.200 F 
ENDBRANCH  24  48
BRANCH  36  59
ATOM     59  C   UNL A   1      43.392  35.013  32.517  1.00  0.00     0.064 A 
ATOM     60  C   UNL A   1      43.676  36.245  31.905  1.00  0.00     0.173 A 
ATOM     61  C   UNL A   1      43.493  34.939  33.914  1.00  0.00     0.173 A 
ATOM     62  F   UNL A   1      43.607  36.367  30.571  1.00  0.00    -0.203 F 
ATOM     63  C   UNL A   1      44.081  37.344  32.657  1.00  0.00     0.198 A 
ATOM     64  C   UNL A   1      43.865  36.050  34.666  1.00  0.00     0.198 A 
ATOM     65  F   UNL A   1      43.230  33.789  34.552  1.00  0.00    -0.203 F 
ATOM     66  F   UNL A   1      44.405  38.490  32.042  1.00  0.00    -0.200 F 
ATOM     67  C   UNL A   1      44.168  37.249  34.036  1.00  0.00     0.200 A 
ATOM     68  F   UNL A   1      43.938  35.960  36.001  1.00  0.00    -0.200 F 
ATOM     69  F   UNL A   1      44.556  38.308  34.759  1.00  0.00    -0.200 F 
ENDBRANCH  36  59
ENDBRANCH  10  11
ENDBRANCH   3   5
ENDBRANCH   2   3
ENDBRANCH   1   2
BRANCH   1  70
ATOM     70  C   UNL A   1      41.369  20.034  26.159  1.00  0.00     0.274 C 
BRANCH  70  71
ATOM     71  O   UNL A   1      42.596  19.977  25.437  1.00  0.00    -0.458 OA
BRANCH  71  72
ATOM     72  C   UNL A   1      43.217  18.764  25.412  1.00  0.00     0.365 C 
ATOM     73  O   UNL A   1      42.891  17.783  26.043  1.00  0.00    -0.245 OA
BRANCH  72  74
ATOM     74  C   UNL A   1      44.355  18.790  24.393  1.00  0.00     0.304 C 
ATOM     75  C   UNL A   1      45.707  18.484  24.995  1.00  0.00     0.153 C 
ATOM     76  N   UNL A   1      44.380  20.086  23.685  1.00  0.00    -0.319 N 
ATOM     77  S   UNL A   1      46.432  20.102  25.377  1.00  0.00    -0.087 SA
ATOM     78  C   UNL A   1      45.375  21.011  24.226  1.00  0.00     0.278 C 
ATOM     79  H   UNL A   1      43.459  20.518  23.762  1.00  0.00     0.348 HD
ATOM     80  H   UNL A   1      44.631  19.901  22.714  1.00  0.00     0.348 HD
BRANCH  78  81
ATOM     81  C   UNL A   1      45.095  22.486  24.610  1.00  0.00     0.063 A 
ATOM     82  C   UNL A   1      46.249  23.306  24.631  1.00  0.00     0.030 A 
ATOM     83  C   UNL A   1      43.921  23.203  24.911  1.00  0.00     0.125 A 
ATOM     84  C   UNL A   1      46.214  24.659  24.999  1.00  0.00     0.018 A 
ATOM     85  C   UNL A   1      43.909  24.482  25.495  1.00  0.00     0.048 A 
ATOM     86  Br  UNL A   1      47.728  25.745  24.704  1.00  0.00    -0.051 Br
ATOM     87  C   UNL A   1      45.062  25.231  25.510  1.00  0.00     0.019 A 
BRANCH  83  88
ATOM     88  O   UNL A   1      42.696  22.954  24.365  1.00  0.00    -0.507 OA
ATOM     89  H   UNL A   1      42.166  22.258  24.701  1.00  0.00     0.293 HD
ENDBRANCH  83  88
ENDBRANCH  78  81
ENDBRANCH  72  74
ENDBRANCH  71  72
ENDBRANCH  70  71
ENDBRANCH   1  70
TORSDOF 13
ENDMDL
