MODEL 1
REMARK VINA RESULT:     -12.2      0.000      0.000
REMARK SMILES COc1ccc([C@@H]2CC(c3ccc(Cl)cc3)=NN2C2=[NH+]C(=O)[C@@H](CC(=O)OCCOC(=O)c3ccc(-c4c5nc(c(-c6c(F)c(F)c(F)c(F)c6F)c6ccc([nH]6)c(-c6c(F)c(F)c(F)c(F)c6F)c6nc(c(-c7c(F)c(F)c(F)c(F)c7F)c7ccc4[nH]7)C=C6)C=C5)cc3)S2)cc1OC
REMARK SMILES IDX 28 1 27 2 25 3 26 4 24 5 23 6 19 7 20 8 96 9 21 10 22 12
REMARK SMILES IDX 18 13 7 14 8 15 9 16 17 17 6 18 3 19 4 20 98 21 5 22 97 23
REMARK SMILES IDX 2 24 1 25 99 26 100 27 10 28 11 29 16 30 12 31 15 32 13 33
REMARK SMILES IDX 14 34 29 35 30 36 31 37 32 38 33 39 34 40 95 41 35 42 94 43
REMARK SMILES IDX 36 44 37 45 38 46 88 47 39 48 93 49 87 50 89 51 40 52 92 53
REMARK SMILES IDX 86 54 85 55 41 57 73 58 53 59 72 60 54 61 57 62 71 63 90 64
REMARK SMILES IDX 55 65 56 66 70 68 91 69 58 70 42 71 43 72 51 73 44 74 45 75
REMARK SMILES IDX 49 76 52 77 46 78 47 79 50 80 48 81 74 82 75 83 83 84 76 85
REMARK SMILES IDX 77 86 81 87 84 88 78 89 79 90 82 91 80 92 59 93 60 94 68 95
REMARK SMILES IDX 61 96 62 97 66 98 69 99 63 100 64 101 67 102 65 103
REMARK H PARENT 20 11 89 56 57 67
REMARK Flexibility Score: inf
ROOT
ATOM      1  C   UNL A   1      31.738  28.849  24.868  1.00  0.00     0.274 C 
ENDROOT
BRANCH   1   2
ATOM      2  O   UNL A   1      30.746  27.808  24.841  1.00  0.00    -0.462 OA
BRANCH   2   3
ATOM      3  C   UNL A   1      31.097  26.594  25.325  1.00  0.00     0.307 C 
ATOM      4  O   UNL A   1      30.900  26.209  26.470  1.00  0.00    -0.252 OA
BRANCH   3   5
ATOM      5  C   UNL A   1      31.825  25.767  24.298  1.00  0.00     0.150 C 
BRANCH   5   6
ATOM      6  C   UNL A   1      33.303  26.116  24.168  1.00  0.00     0.184 C 
ATOM      7  C   UNL A   1      34.996  24.265  24.425  1.00  0.00     0.340 C 
ATOM      8  N   UNL A   1      34.699  24.387  23.173  1.00  0.00    -0.202 N 
ATOM      9  S   UNL A   1      34.304  25.432  25.518  1.00  0.00    -0.020 SA
ATOM     10  C   UNL A   1      33.865  25.452  22.926  1.00  0.00     0.322 C 
ATOM     11  H   UNL A   1      35.035  23.783  22.471  1.00  0.00     0.316 HD
ATOM     12  O   UNL A   1      33.527  25.800  21.799  1.00  0.00    -0.246 OA
BRANCH   7  13
ATOM     13  N   UNL A   1      35.772  23.282  24.987  1.00  0.00    -0.120 N 
ATOM     14  C   UNL A   1      36.000  22.033  24.254  1.00  0.00     0.243 C 
ATOM     15  C   UNL A   1      37.417  21.619  24.650  1.00  0.00     0.118 C 
ATOM     16  C   UNL A   1      37.714  22.663  25.684  1.00  0.00     0.096 C 
ATOM     17  N   UNL A   1      36.806  23.572  25.844  1.00  0.00    -0.086 NA
BRANCH  14  18
ATOM     18  C   UNL A   1      34.948  20.987  24.576  1.00  0.00     0.003 A 
ATOM     19  C   UNL A   1      32.919  19.103  25.124  1.00  0.00     0.160 A 
ATOM     20  C   UNL A   1      34.243  18.687  24.919  1.00  0.00     0.051 A 
ATOM     21  C   UNL A   1      32.605  20.466  25.106  1.00  0.00     0.161 A 
ATOM     22  C   UNL A   1      35.247  19.620  24.642  1.00  0.00     0.012 A 
ATOM     23  C   UNL A   1      33.625  21.388  24.828  1.00  0.00     0.058 A 
BRANCH  19  24
ATOM     24  O   UNL A   1      31.979  18.154  25.422  1.00  0.00    -0.493 OA
ATOM     25  C   UNL A   1      32.539  16.838  25.417  1.00  0.00     0.278 C 
ENDBRANCH  19  24
BRANCH  21  26
ATOM     26  O   UNL A   1      31.399  21.069  25.335  1.00  0.00    -0.493 OA
ATOM     27  C   UNL A   1      31.387  22.416  25.785  1.00  0.00     0.278 C 
ENDBRANCH  21  26
ENDBRANCH  14  18
BRANCH  16  28
ATOM     28  C   UNL A   1      38.970  22.659  26.453  1.00  0.00     0.000 A 
ATOM     29  C   UNL A   1      39.738  21.489  26.479  1.00  0.00     0.011 A 
ATOM     30  C   UNL A   1      39.374  23.785  27.177  1.00  0.00     0.011 A 
ATOM     31  C   UNL A   1      40.922  21.450  27.216  1.00  0.00     0.021 A 
ATOM     32  C   UNL A   1      40.552  23.735  27.928  1.00  0.00     0.021 A 
ATOM     33  C   UNL A   1      41.322  22.571  27.941  1.00  0.00     0.041 A 
ATOM     34  Cl  UNL A   1      42.772  22.518  28.865  1.00  0.00    -0.084 Cl
ENDBRANCH  16  28
ENDBRANCH   7  13
ENDBRANCH   5   6
ENDBRANCH   3   5
ENDBRANCH   2   3
ENDBRANCH   1   2
BRANCH   1  35
ATOM     35  C   UNL A   1      32.280  29.054  26.283  1.00  0.00     0.275 C 
BRANCH  35  36
ATOM     36  O   UNL A   1      33.586  29.661  26.256  1.00  0.00    -0.458 OA
BRANCH  36  37
ATOM     37  C   UNL A   1      33.729  30.772  27.011  1.00  0.00     0.338 C 
ATOM     38  O   UNL A   1      32.925  31.680  27.160  1.00  0.00    -0.246 OA
BRANCH  37  39
ATOM     39  C   UNL A   1      34.984  30.689  27.767  1.00  0.00     0.060 A 
ATOM     40  C   UNL A   1      35.779  31.834  27.876  1.00  0.00     0.016 A 
ATOM     41  C   UNL A   1      35.401  29.477  28.318  1.00  0.00     0.016 A 
ATOM     42  C   UNL A   1      36.992  31.776  28.556  1.00  0.00     0.010 A 
ATOM     43  C   UNL A   1      36.618  29.420  29.004  1.00  0.00     0.010 A 
ATOM     44  C   UNL A   1      37.419  30.569  29.128  1.00  0.00    -0.014 A 
BRANCH  44  45
ATOM     45  C   UNL A   1      38.703  30.511  29.863  1.00  0.00     0.031 A 
ATOM     46  C   UNL A   1      39.883  29.801  29.267  1.00  0.00     0.074 A 
ATOM     47  C   UNL A   1      38.799  31.088  31.075  1.00  0.00     0.049 A 
ATOM     48  N   UNL A   1      41.057  29.560  29.795  1.00  0.00    -0.248 NA
ATOM     49  C   UNL A   1      39.719  29.289  27.899  1.00  0.00     0.031 C 
ATOM     50  C   UNL A   1      37.726  31.828  31.741  1.00  0.00     0.029 A 
ATOM     51  N   UNL A   1      39.841  31.132  31.966  1.00  0.00    -0.354 N 
ATOM     52  C   UNL A   1      41.767  28.860  28.831  1.00  0.00     0.074 A 
ATOM     53  C   UNL A   1      40.887  28.695  27.693  1.00  0.00     0.031 C 
ATOM     54  C   UNL A   1      38.164  32.247  32.939  1.00  0.00     0.029 A 
ATOM     55  C   UNL A   1      39.529  31.768  33.141  1.00  0.00     0.049 A 
ATOM     56  H   UNL A   1      40.727  30.746  31.779  1.00  0.00     0.167 HD
ATOM     57  C   UNL A   1      43.040  28.400  28.894  1.00  0.00     0.037 A 
ATOM     58  C   UNL A   1      40.251  31.919  34.268  1.00  0.00     0.037 A 
ATOM     59  C   UNL A   1      43.915  28.581  30.023  1.00  0.00     0.049 A 
ATOM     60  C   UNL A   1      41.641  31.348  34.330  1.00  0.00     0.074 A 
ATOM     61  C   UNL A   1      45.234  28.185  30.166  1.00  0.00     0.029 A 
ATOM     62  N   UNL A   1      43.555  29.206  31.209  1.00  0.00    -0.354 N 
ATOM     63  N   UNL A   1      42.313  30.702  33.409  1.00  0.00    -0.248 NA
ATOM     64  C   UNL A   1      42.373  31.523  35.593  1.00  0.00     0.031 C 
ATOM     65  C   UNL A   1      45.656  28.528  31.455  1.00  0.00     0.029 A 
ATOM     66  C   UNL A   1      44.617  29.179  32.099  1.00  0.00     0.049 A 
ATOM     67  H   UNL A   1      42.675  29.609  31.391  1.00  0.00     0.167 HD
ATOM     68  C   UNL A   1      43.546  30.405  33.971  1.00  0.00     0.074 A 
ATOM     69  C   UNL A   1      43.539  30.961  35.309  1.00  0.00     0.031 C 
ATOM     70  C   UNL A   1      44.590  29.730  33.430  1.00  0.00     0.037 A 
BRANCH  57  71
ATOM     71  C   UNL A   1      43.562  27.633  27.715  1.00  0.00     0.064 A 
ATOM     72  C   UNL A   1      44.289  28.258  26.691  1.00  0.00     0.173 A 
ATOM     73  C   UNL A   1      43.375  26.245  27.636  1.00  0.00     0.173 A 
ATOM     74  F   UNL A   1      44.486  29.584  26.714  1.00  0.00    -0.203 F 
ATOM     75  C   UNL A   1      44.793  27.522  25.621  1.00  0.00     0.198 A 
ATOM     76  C   UNL A   1      43.903  25.509  26.578  1.00  0.00     0.198 A 
ATOM     77  F   UNL A   1      42.693  25.599  28.593  1.00  0.00    -0.203 F 
ATOM     78  F   UNL A   1      45.456  28.144  24.635  1.00  0.00    -0.200 F 
ATOM     79  C   UNL A   1      44.607  26.149  25.570  1.00  0.00     0.200 A 
ATOM     80  F   UNL A   1      43.733  24.180  26.537  1.00  0.00    -0.200 F 
ATOM     81  F   UNL A   1      45.103  25.441  24.545  1.00  0.00    -0.200 F 
ENDBRANCH  57  71
BRANCH  58  82
ATOM     82  C   UNL A   1      39.660  32.617  35.437  1.00  0.00     0.064 A 
ATOM     83  C   UNL A   1      38.860  31.932  36.361  1.00  0.00     0.173 A 
ATOM     84  C   UNL A   1      39.880  33.987  35.651  1.00  0.00     0.173 A 
ATOM     85  F   UNL A   1      38.600  30.629  36.184  1.00  0.00    -0.203 F 
ATOM     86  C   UNL A   1      38.290  32.593  37.447  1.00  0.00     0.198 A 
ATOM     87  C   UNL A   1      39.332  34.640  36.752  1.00  0.00     0.198 A 
ATOM     88  F   UNL A   1      40.634  34.688  34.793  1.00  0.00    -0.203 F 
ATOM     89  F   UNL A   1      37.492  31.925  38.292  1.00  0.00    -0.200 F 
ATOM     90  C   UNL A   1      38.533  33.945  37.646  1.00  0.00     0.200 A 
ATOM     91  F   UNL A   1      39.577  35.944  36.946  1.00  0.00    -0.200 F 
ATOM     92  F   UNL A   1      37.986  34.579  38.693  1.00  0.00    -0.200 F 
ENDBRANCH  58  82
BRANCH  70  93
ATOM     93  C   UNL A   1      45.813  29.566  34.283  1.00  0.00     0.064 A 
ATOM     94  C   UNL A   1      46.836  30.525  34.289  1.00  0.00     0.173 A 
ATOM     95  C   UNL A   1      45.949  28.454  35.128  1.00  0.00     0.173 A 
ATOM     96  F   UNL A   1      46.760  31.597  33.485  1.00  0.00    -0.203 F 
ATOM     97  C   UNL A   1      47.962  30.366  35.090  1.00  0.00     0.198 A 
ATOM     98  C   UNL A   1      47.065  28.312  35.950  1.00  0.00     0.198 A 
ATOM     99  F   UNL A   1      44.997  27.511  35.164  1.00  0.00    -0.203 F 
ATOM    100  F   UNL A   1      48.949  31.271  35.045  1.00  0.00    -0.200 F 
ATOM    101  C   UNL A   1      48.073  29.263  35.925  1.00  0.00     0.200 A 
ATOM    102  F   UNL A   1      47.165  27.251  36.764  1.00  0.00    -0.200 F 
ATOM    103  F   UNL A   1      49.156  29.114  36.700  1.00  0.00    -0.200 F 
ENDBRANCH  70  93
ENDBRANCH  44  45
ENDBRANCH  37  39
ENDBRANCH  36  37
ENDBRANCH  35  36
ENDBRANCH   1  35
TORSDOF 17
ENDMDL
MODEL 2
REMARK VINA RESULT:     -12.0      4.823     11.188
REMARK SMILES COc1ccc([C@@H]2CC(c3ccc(Cl)cc3)=NN2C2=[NH+]C(=O)[C@@H](CC(=O)OCCOC(=O)c3ccc(-c4c5nc(c(-c6c(F)c(F)c(F)c(F)c6F)c6ccc([nH]6)c(-c6c(F)c(F)c(F)c(F)c6F)c6nc(c(-c7c(F)c(F)c(F)c(F)c7F)c7ccc4[nH]7)C=C6)C=C5)cc3)S2)cc1OC
REMARK SMILES IDX 28 1 27 2 25 3 26 4 24 5 23 6 19 7 20 8 96 9 21 10 22 12
REMARK SMILES IDX 18 13 7 14 8 15 9 16 17 17 6 18 3 19 4 20 98 21 5 22 97 23
REMARK SMILES IDX 2 24 1 25 99 26 100 27 10 28 11 29 16 30 12 31 15 32 13 33
REMARK SMILES IDX 14 34 29 35 30 36 31 37 32 38 33 39 34 40 95 41 35 42 94 43
REMARK SMILES IDX 36 44 37 45 38 46 88 47 39 48 93 49 87 50 89 51 40 52 92 53
REMARK SMILES IDX 86 54 85 55 41 57 73 58 53 59 72 60 54 61 57 62 71 63 90 64
REMARK SMILES IDX 55 65 56 66 70 68 91 69 58 70 42 71 43 72 51 73 44 74 45 75
REMARK SMILES IDX 49 76 52 77 46 78 47 79 50 80 48 81 74 82 75 83 83 84 76 85
REMARK SMILES IDX 77 86 81 87 84 88 78 89 79 90 82 91 80 92 59 93 60 94 68 95
REMARK SMILES IDX 61 96 62 97 66 98 69 99 63 100 64 101 67 102 65 103
REMARK H PARENT 20 11 89 56 57 67
REMARK Flexibility Score: inf
ROOT
ATOM      1  C   UNL A   1      33.528  33.893  28.169  1.00  0.00     0.274 C 
ENDROOT
BRANCH   1   2
ATOM      2  O   UNL A   1      33.320  33.817  29.590  1.00  0.00    -0.462 OA
BRANCH   2   3
ATOM      3  C   UNL A   1      33.814  34.820  30.351  1.00  0.00     0.307 C 
ATOM      4  O   UNL A   1      33.353  35.953  30.408  1.00  0.00    -0.252 OA
BRANCH   3   5
ATOM      5  C   UNL A   1      35.056  34.405  31.095  1.00  0.00     0.150 C 
BRANCH   5   6
ATOM      6  C   UNL A   1      34.787  33.920  32.514  1.00  0.00     0.184 C 
ATOM      7  C   UNL A   1      36.759  33.388  33.993  1.00  0.00     0.340 C 
ATOM      8  N   UNL A   1      36.415  34.619  34.183  1.00  0.00    -0.202 N 
ATOM      9  S   UNL A   1      35.743  32.439  32.941  1.00  0.00    -0.020 SA
ATOM     10  C   UNL A   1      35.274  34.965  33.500  1.00  0.00     0.322 C 
ATOM     11  H   UNL A   1      36.916  35.243  34.757  1.00  0.00     0.316 HD
ATOM     12  O   UNL A   1      34.726  36.057  33.605  1.00  0.00    -0.246 OA
BRANCH   7  13
ATOM     13  N   UNL A   1      37.868  32.761  34.505  1.00  0.00    -0.120 N 
ATOM     14  C   UNL A   1      37.845  32.266  35.884  1.00  0.00     0.243 C 
ATOM     15  C   UNL A   1      38.711  31.007  35.844  1.00  0.00     0.118 C 
ATOM     16  C   UNL A   1      39.210  31.078  34.433  1.00  0.00     0.096 C 
ATOM     17  N   UNL A   1      38.727  32.039  33.712  1.00  0.00    -0.086 NA
BRANCH  14  18
ATOM     18  C   UNL A   1      38.334  33.311  36.871  1.00  0.00     0.003 A 
ATOM     19  C   UNL A   1      39.230  35.328  38.628  1.00  0.00     0.160 A 
ATOM     20  C   UNL A   1      38.559  34.199  39.120  1.00  0.00     0.051 A 
ATOM     21  C   UNL A   1      39.503  35.436  37.261  1.00  0.00     0.161 A 
ATOM     22  C   UNL A   1      38.110  33.202  38.249  1.00  0.00     0.012 A 
ATOM     23  C   UNL A   1      39.048  34.427  36.401  1.00  0.00     0.058 A 
BRANCH  19  24
ATOM     24  O   UNL A   1      39.676  36.260  39.526  1.00  0.00    -0.493 OA
ATOM     25  C   UNL A   1      38.877  37.446  39.494  1.00  0.00     0.278 C 
ENDBRANCH  19  24
BRANCH  21  26
ATOM     26  O   UNL A   1      40.187  36.421  36.601  1.00  0.00    -0.493 OA
ATOM     27  C   UNL A   1      40.693  36.143  35.304  1.00  0.00     0.278 C 
ENDBRANCH  21  26
ENDBRANCH  14  18
BRANCH  16  28
ATOM     28  C   UNL A   1      40.177  30.103  33.901  1.00  0.00     0.000 A 
ATOM     29  C   UNL A   1      41.539  30.301  34.154  1.00  0.00     0.011 A 
ATOM     30  C   UNL A   1      39.754  29.021  33.124  1.00  0.00     0.011 A 
ATOM     31  C   UNL A   1      42.480  29.406  33.644  1.00  0.00     0.021 A 
ATOM     32  C   UNL A   1      40.701  28.135  32.601  1.00  0.00     0.021 A 
ATOM     33  C   UNL A   1      42.057  28.329  32.867  1.00  0.00     0.041 A 
ATOM     34  Cl  UNL A   1      43.217  27.234  32.223  1.00  0.00    -0.084 Cl
ENDBRANCH  16  28
ENDBRANCH   7  13
ENDBRANCH   5   6
ENDBRANCH   3   5
ENDBRANCH   2   3
ENDBRANCH   1   2
BRANCH   1  35
ATOM     35  C   UNL A   1      33.710  32.498  27.566  1.00  0.00     0.275 C 
BRANCH  35  36
ATOM     36  O   UNL A   1      34.138  31.554  28.566  1.00  0.00    -0.458 OA
BRANCH  36  37
ATOM     37  C   UNL A   1      34.473  30.329  28.107  1.00  0.00     0.338 C 
ATOM     38  O   UNL A   1      33.779  29.562  27.455  1.00  0.00    -0.246 OA
BRANCH  37  39
ATOM     39  C   UNL A   1      35.889  30.070  28.395  1.00  0.00     0.060 A 
ATOM     40  C   UNL A   1      36.815  30.176  27.354  1.00  0.00     0.016 A 
ATOM     41  C   UNL A   1      36.292  29.674  29.671  1.00  0.00     0.016 A 
ATOM     42  C   UNL A   1      38.160  29.902  27.590  1.00  0.00     0.010 A 
ATOM     43  C   UNL A   1      37.642  29.402  29.907  1.00  0.00     0.010 A 
ATOM     44  C   UNL A   1      38.584  29.515  28.868  1.00  0.00    -0.014 A 
BRANCH  44  45
ATOM     45  C   UNL A   1      40.016  29.236  29.123  1.00  0.00     0.031 A 
ATOM     46  C   UNL A   1      40.880  30.268  29.786  1.00  0.00     0.074 A 
ATOM     47  C   UNL A   1      40.538  28.055  28.742  1.00  0.00     0.049 A 
ATOM     48  N   UNL A   1      42.170  30.248  30.007  1.00  0.00    -0.248 NA
ATOM     49  C   UNL A   1      40.204  31.485  30.258  1.00  0.00     0.031 C 
ATOM     50  C   UNL A   1      39.788  26.968  28.114  1.00  0.00     0.029 A 
ATOM     51  N   UNL A   1      41.822  27.579  28.818  1.00  0.00    -0.354 N 
ATOM     52  C   UNL A   1      42.464  31.452  30.632  1.00  0.00     0.074 A 
ATOM     53  C   UNL A   1      41.222  32.189  30.737  1.00  0.00     0.031 C 
ATOM     54  C   UNL A   1      40.626  25.953  27.854  1.00  0.00     0.029 A 
ATOM     55  C   UNL A   1      41.977  26.336  28.257  1.00  0.00     0.049 A 
ATOM     56  H   UNL A   1      42.560  28.080  29.234  1.00  0.00     0.167 HD
ATOM     57  C   UNL A   1      43.664  31.896  31.077  1.00  0.00     0.037 A 
ATOM     58  C   UNL A   1      43.089  25.602  28.060  1.00  0.00     0.037 A 
ATOM     59  C   UNL A   1      44.893  31.151  30.982  1.00  0.00     0.049 A 
ATOM     60  C   UNL A   1      44.416  26.145  28.514  1.00  0.00     0.074 A 
ATOM     61  C   UNL A   1      46.152  31.500  31.440  1.00  0.00     0.029 A 
ATOM     62  N   UNL A   1      45.018  29.906  30.383  1.00  0.00    -0.354 N 
ATOM     63  N   UNL A   1      44.685  27.277  29.120  1.00  0.00    -0.248 NA
ATOM     64  C   UNL A   1      45.598  25.311  28.252  1.00  0.00     0.031 C 
ATOM     65  C   UNL A   1      47.047  30.489  31.074  1.00  0.00     0.029 A 
ATOM     66  C   UNL A   1      46.338  29.488  30.431  1.00  0.00     0.049 A 
ATOM     67  H   UNL A   1      44.278  29.395  29.982  1.00  0.00     0.167 HD
ATOM     68  C   UNL A   1      46.057  27.286  29.323  1.00  0.00     0.074 A 
ATOM     69  C   UNL A   1      46.565  26.036  28.795  1.00  0.00     0.031 C 
ATOM     70  C   UNL A   1      46.828  28.244  29.893  1.00  0.00     0.037 A 
BRANCH  57  71
ATOM     71  C   UNL A   1      43.715  33.264  31.690  1.00  0.00     0.064 A 
ATOM     72  C   UNL A   1      43.668  34.427  30.907  1.00  0.00     0.173 A 
ATOM     73  C   UNL A   1      43.760  33.412  33.085  1.00  0.00     0.173 A 
ATOM     74  F   UNL A   1      43.635  34.339  29.569  1.00  0.00    -0.203 F 
ATOM     75  C   UNL A   1      43.684  35.688  31.499  1.00  0.00     0.198 A 
ATOM     76  C   UNL A   1      43.750  34.674  33.673  1.00  0.00     0.198 A 
ATOM     77  F   UNL A   1      43.801  32.331  33.879  1.00  0.00    -0.203 F 
ATOM     78  F   UNL A   1      43.672  36.786  30.730  1.00  0.00    -0.200 F 
ATOM     79  C   UNL A   1      43.716  35.810  32.879  1.00  0.00     0.200 A 
ATOM     80  F   UNL A   1      43.769  34.790  35.008  1.00  0.00    -0.200 F 
ATOM     81  F   UNL A   1      43.720  37.025  33.447  1.00  0.00    -0.200 F 
ENDBRANCH  57  71
BRANCH  58  82
ATOM     82  C   UNL A   1      42.996  24.287  27.376  1.00  0.00     0.064 A 
ATOM     83  C   UNL A   1      42.638  23.130  28.079  1.00  0.00     0.173 A 
ATOM     84  C   UNL A   1      43.269  24.163  26.005  1.00  0.00     0.173 A 
ATOM     85  F   UNL A   1      42.395  23.195  29.396  1.00  0.00    -0.203 F 
ATOM     86  C   UNL A   1      42.572  21.894  27.440  1.00  0.00     0.198 A 
ATOM     87  C   UNL A   1      43.175  22.932  25.362  1.00  0.00     0.198 A 
ATOM     88  F   UNL A   1      43.620  25.241  25.289  1.00  0.00    -0.203 F 
ATOM     89  F   UNL A   1      42.271  20.793  28.143  1.00  0.00    -0.200 F 
ATOM     90  C   UNL A   1      42.832  21.797  26.080  1.00  0.00     0.200 A 
ATOM     91  F   UNL A   1      43.417  22.844  24.046  1.00  0.00    -0.200 F 
ATOM     92  F   UNL A   1      42.764  20.607  25.466  1.00  0.00    -0.200 F 
ENDBRANCH  58  82
BRANCH  70  93
ATOM     93  C   UNL A   1      48.301  27.972  29.983  1.00  0.00     0.064 A 
ATOM     94  C   UNL A   1      49.185  28.389  28.977  1.00  0.00     0.173 A 
ATOM     95  C   UNL A   1      48.838  27.315  31.100  1.00  0.00     0.173 A 
ATOM     96  F   UNL A   1      48.718  29.005  27.881  1.00  0.00    -0.203 F 
ATOM     97  C   UNL A   1      50.550  28.137  29.075  1.00  0.00     0.198 A 
ATOM     98  C   UNL A   1      50.207  27.089  31.208  1.00  0.00     0.198 A 
ATOM     99  F   UNL A   1      48.035  26.900  32.092  1.00  0.00    -0.203 F 
ATOM    100  F   UNL A   1      51.371  28.503  28.081  1.00  0.00    -0.200 F 
ATOM    101  C   UNL A   1      51.062  27.494  30.193  1.00  0.00     0.200 A 
ATOM    102  F   UNL A   1      50.701  26.478  32.294  1.00  0.00    -0.200 F 
ATOM    103  F   UNL A   1      52.377  27.257  30.288  1.00  0.00    -0.200 F 
ENDBRANCH  70  93
ENDBRANCH  44  45
ENDBRANCH  37  39
ENDBRANCH  36  37
ENDBRANCH  35  36
ENDBRANCH   1  35
TORSDOF 17
ENDMDL
MODEL 3
REMARK VINA RESULT:     -12.0      3.514      9.593
REMARK SMILES COc1ccc([C@@H]2CC(c3ccc(Cl)cc3)=NN2C2=[NH+]C(=O)[C@@H](CC(=O)OCCOC(=O)c3ccc(-c4c5nc(c(-c6c(F)c(F)c(F)c(F)c6F)c6ccc([nH]6)c(-c6c(F)c(F)c(F)c(F)c6F)c6nc(c(-c7c(F)c(F)c(F)c(F)c7F)c7ccc4[nH]7)C=C6)C=C5)cc3)S2)cc1OC
REMARK SMILES IDX 28 1 27 2 25 3 26 4 24 5 23 6 19 7 20 8 96 9 21 10 22 12
REMARK SMILES IDX 18 13 7 14 8 15 9 16 17 17 6 18 3 19 4 20 98 21 5 22 97 23
REMARK SMILES IDX 2 24 1 25 99 26 100 27 10 28 11 29 16 30 12 31 15 32 13 33
REMARK SMILES IDX 14 34 29 35 30 36 31 37 32 38 33 39 34 40 95 41 35 42 94 43
REMARK SMILES IDX 36 44 37 45 38 46 88 47 39 48 93 49 87 50 89 51 40 52 92 53
REMARK SMILES IDX 86 54 85 55 41 57 73 58 53 59 72 60 54 61 57 62 71 63 90 64
REMARK SMILES IDX 55 65 56 66 70 68 91 69 58 70 42 71 43 72 51 73 44 74 45 75
REMARK SMILES IDX 49 76 52 77 46 78 47 79 50 80 48 81 74 82 75 83 83 84 76 85
REMARK SMILES IDX 77 86 81 87 84 88 78 89 79 90 82 91 80 92 59 93 60 94 68 95
REMARK SMILES IDX 61 96 62 97 66 98 69 99 63 100 64 101 67 102 65 103
REMARK H PARENT 20 11 89 56 57 67
REMARK Flexibility Score: inf
ROOT
ATOM      1  C   UNL A   1      35.430  22.187  24.345  1.00  0.00     0.274 C 
ENDROOT
BRANCH   1   2
ATOM      2  O   UNL A   1      34.081  21.994  24.805  1.00  0.00    -0.462 OA
BRANCH   2   3
ATOM      3  C   UNL A   1      33.077  22.376  23.982  1.00  0.00     0.307 C 
ATOM      4  O   UNL A   1      32.814  21.858  22.904  1.00  0.00    -0.252 OA
BRANCH   3   5
ATOM      5  C   UNL A   1      32.334  23.572  24.517  1.00  0.00     0.150 C 
BRANCH   5   6
ATOM      6  C   UNL A   1      32.921  24.129  25.808  1.00  0.00     0.184 C 
ATOM      7  C   UNL A   1      32.665  26.594  26.274  1.00  0.00     0.340 C 
ATOM      8  N   UNL A   1      31.675  25.963  26.815  1.00  0.00    -0.202 N 
ATOM      9  S   UNL A   1      33.912  25.624  25.539  1.00  0.00    -0.020 SA
ATOM     10  C   UNL A   1      31.793  24.598  26.708  1.00  0.00     0.322 C 
ATOM     11  H   UNL A   1      30.918  26.412  27.257  1.00  0.00     0.316 HD
ATOM     12  O   UNL A   1      31.009  23.807  27.224  1.00  0.00    -0.246 OA
BRANCH   7  13
ATOM     13  N   UNL A   1      32.814  27.956  26.186  1.00  0.00    -0.120 N 
ATOM     14  C   UNL A   1      31.634  28.820  26.288  1.00  0.00     0.243 C 
ATOM     15  C   UNL A   1      32.151  30.078  26.985  1.00  0.00     0.118 C 
ATOM     16  C   UNL A   1      33.615  29.765  27.037  1.00  0.00     0.096 C 
ATOM     17  N   UNL A   1      33.956  28.593  26.606  1.00  0.00    -0.086 NA
BRANCH  14  18
ATOM     18  C   UNL A   1      31.008  29.089  24.932  1.00  0.00     0.003 A 
ATOM     19  C   UNL A   1      29.817  29.484  22.405  1.00  0.00     0.160 A 
ATOM     20  C   UNL A   1      29.817  30.509  23.361  1.00  0.00     0.051 A 
ATOM     21  C   UNL A   1      30.452  28.271  22.682  1.00  0.00     0.161 A 
ATOM     22  C   UNL A   1      30.403  30.312  24.616  1.00  0.00     0.012 A 
ATOM     23  C   UNL A   1      31.036  28.089  23.945  1.00  0.00     0.058 A 
BRANCH  19  24
ATOM     24  O   UNL A   1      29.258  29.739  21.182  1.00  0.00    -0.493 OA
ATOM     25  C   UNL A   1      28.216  30.714  21.271  1.00  0.00     0.278 C 
ENDBRANCH  19  24
BRANCH  21  26
ATOM     26  O   UNL A   1      30.607  27.180  21.870  1.00  0.00    -0.493 OA
ATOM     27  C   UNL A   1      31.881  26.555  21.808  1.00  0.00     0.278 C 
ENDBRANCH  21  26
ENDBRANCH  14  18
BRANCH  16  28
ATOM     28  C   UNL A   1      34.598  30.728  27.564  1.00  0.00     0.000 A 
ATOM     29  C   UNL A   1      34.167  32.021  27.882  1.00  0.00     0.011 A 
ATOM     30  C   UNL A   1      35.943  30.377  27.708  1.00  0.00     0.011 A 
ATOM     31  C   UNL A   1      35.079  32.961  28.363  1.00  0.00     0.021 A 
ATOM     32  C   UNL A   1      36.858  31.326  28.173  1.00  0.00     0.021 A 
ATOM     33  C   UNL A   1      36.422  32.611  28.502  1.00  0.00     0.041 A 
ATOM     34  Cl  UNL A   1      37.551  33.773  29.077  1.00  0.00    -0.084 Cl
ENDBRANCH  16  28
ENDBRANCH   7  13
ENDBRANCH   5   6
ENDBRANCH   3   5
ENDBRANCH   2   3
ENDBRANCH   1   2
BRANCH   1  35
ATOM     35  C   UNL A   1      36.431  21.511  25.283  1.00  0.00     0.275 C 
BRANCH  35  36
ATOM     36  O   UNL A   1      37.400  22.457  25.776  1.00  0.00    -0.458 OA
BRANCH  36  37
ATOM     37  C   UNL A   1      38.606  21.942  26.099  1.00  0.00     0.338 C 
ATOM     38  O   UNL A   1      38.999  20.797  25.925  1.00  0.00    -0.246 OA
BRANCH  37  39
ATOM     39  C   UNL A   1      39.476  23.014  26.596  1.00  0.00     0.060 A 
ATOM     40  C   UNL A   1      39.282  24.312  26.115  1.00  0.00     0.016 A 
ATOM     41  C   UNL A   1      40.510  22.733  27.490  1.00  0.00     0.016 A 
ATOM     42  C   UNL A   1      40.116  25.343  26.541  1.00  0.00     0.010 A 
ATOM     43  C   UNL A   1      41.343  23.769  27.919  1.00  0.00     0.010 A 
ATOM     44  C   UNL A   1      41.150  25.080  27.448  1.00  0.00    -0.014 A 
BRANCH  44  45
ATOM     45  C   UNL A   1      42.028  26.178  27.913  1.00  0.00     0.031 A 
ATOM     46  C   UNL A   1      41.535  27.158  28.936  1.00  0.00     0.074 A 
ATOM     47  C   UNL A   1      43.267  26.298  27.399  1.00  0.00     0.049 A 
ATOM     48  N   UNL A   1      42.116  28.237  29.396  1.00  0.00    -0.248 NA
ATOM     49  C   UNL A   1      40.210  26.891  29.515  1.00  0.00     0.031 C 
ATOM     50  C   UNL A   1      43.862  25.389  26.419  1.00  0.00     0.029 A 
ATOM     51  N   UNL A   1      44.241  27.238  27.621  1.00  0.00    -0.354 N 
ATOM     52  C   UNL A   1      41.226  28.786  30.308  1.00  0.00     0.074 A 
ATOM     53  C   UNL A   1      40.056  27.933  30.322  1.00  0.00     0.031 C 
ATOM     54  C   UNL A   1      45.097  25.820  26.119  1.00  0.00     0.029 A 
ATOM     55  C   UNL A   1      45.361  27.056  26.850  1.00  0.00     0.049 A 
ATOM     56  H   UNL A   1      44.145  27.971  28.270  1.00  0.00     0.167 HD
ATOM     57  C   UNL A   1      41.378  29.900  31.063  1.00  0.00     0.037 A 
ATOM     58  C   UNL A   1      46.463  27.819  26.723  1.00  0.00     0.037 A 
ATOM     59  C   UNL A   1      42.550  30.735  31.055  1.00  0.00     0.049 A 
ATOM     60  C   UNL A   1      46.580  29.081  27.533  1.00  0.00     0.074 A 
ATOM     61  C   UNL A   1      42.813  31.863  31.813  1.00  0.00     0.029 A 
ATOM     62  N   UNL A   1      43.655  30.536  30.240  1.00  0.00    -0.354 N 
ATOM     63  N   UNL A   1      45.742  29.585  28.406  1.00  0.00    -0.248 NA
ATOM     64  C   UNL A   1      47.794  29.886  27.335  1.00  0.00     0.031 C 
ATOM     65  C   UNL A   1      44.056  32.373  31.423  1.00  0.00     0.029 A 
ATOM     66  C   UNL A   1      44.589  31.538  30.455  1.00  0.00     0.049 A 
ATOM     67  H   UNL A   1      43.761  29.793  29.602  1.00  0.00     0.167 HD
ATOM     68  C   UNL A   1      46.329  30.753  28.870  1.00  0.00     0.074 A 
ATOM     69  C   UNL A   1      47.606  30.873  28.199  1.00  0.00     0.031 C 
ATOM     70  C   UNL A   1      45.852  31.647  29.771  1.00  0.00     0.037 A 
BRANCH  57  71
ATOM     71  C   UNL A   1      40.236  30.298  31.952  1.00  0.00     0.064 A 
ATOM     72  C   UNL A   1      40.211  29.969  33.315  1.00  0.00     0.173 A 
ATOM     73  C   UNL A   1      39.178  31.065  31.441  1.00  0.00     0.173 A 
ATOM     74  F   UNL A   1      41.194  29.229  33.849  1.00  0.00    -0.203 F 
ATOM     75  C   UNL A   1      39.158  30.377  34.130  1.00  0.00     0.198 A 
ATOM     76  C   UNL A   1      38.139  31.492  32.264  1.00  0.00     0.198 A 
ATOM     77  F   UNL A   1      39.157  31.411  30.145  1.00  0.00    -0.203 F 
ATOM     78  F   UNL A   1      39.137  30.022  35.423  1.00  0.00    -0.200 F 
ATOM     79  C   UNL A   1      38.128  31.144  33.606  1.00  0.00     0.200 A 
ATOM     80  F   UNL A   1      37.151  32.244  31.760  1.00  0.00    -0.200 F 
ATOM     81  F   UNL A   1      37.121  31.545  34.395  1.00  0.00    -0.200 F 
ENDBRANCH  57  71
BRANCH  58  82
ATOM     82  C   UNL A   1      47.531  27.423  25.770  1.00  0.00     0.064 A 
ATOM     83  C   UNL A   1      47.469  27.790  24.419  1.00  0.00     0.173 A 
ATOM     84  C   UNL A   1      48.634  26.665  26.192  1.00  0.00     0.173 A 
ATOM     85  F   UNL A   1      46.421  28.492  23.964  1.00  0.00    -0.203 F 
ATOM     86  C   UNL A   1      48.462  27.401  23.523  1.00  0.00     0.198 A 
ATOM     87  C   UNL A   1      49.640  26.300  25.300  1.00  0.00     0.198 A 
ATOM     88  F   UNL A   1      48.738  26.285  27.473  1.00  0.00    -0.203 F 
ATOM     89  F   UNL A   1      48.356  27.726  22.227  1.00  0.00    -0.200 F 
ATOM     90  C   UNL A   1      49.550  26.663  23.966  1.00  0.00     0.200 A 
ATOM     91  F   UNL A   1      50.695  25.596  25.734  1.00  0.00    -0.200 F 
ATOM     92  F   UNL A   1      50.506  26.292  23.102  1.00  0.00    -0.200 F 
ENDBRANCH  58  82
BRANCH  70  93
ATOM     93  C   UNL A   1      46.722  32.828  30.087  1.00  0.00     0.064 A 
ATOM     94  C   UNL A   1      46.631  34.022  29.355  1.00  0.00     0.173 A 
ATOM     95  C   UNL A   1      47.634  32.778  31.152  1.00  0.00     0.173 A 
ATOM     96  F   UNL A   1      45.787  34.113  28.317  1.00  0.00    -0.203 F 
ATOM     97  C   UNL A   1      47.438  35.112  29.663  1.00  0.00     0.198 A 
ATOM     98  C   UNL A   1      48.420  33.881  31.475  1.00  0.00     0.198 A 
ATOM     99  F   UNL A   1      47.756  31.661  31.886  1.00  0.00    -0.203 F 
ATOM    100  F   UNL A   1      47.368  36.227  28.921  1.00  0.00    -0.200 F 
ATOM    101  C   UNL A   1      48.327  35.044  30.726  1.00  0.00     0.200 A 
ATOM    102  F   UNL A   1      49.270  33.816  32.509  1.00  0.00    -0.200 F 
ATOM    103  F   UNL A   1      49.099  36.098  31.024  1.00  0.00    -0.200 F 
ENDBRANCH  70  93
ENDBRANCH  44  45
ENDBRANCH  37  39
ENDBRANCH  36  37
ENDBRANCH  35  36
ENDBRANCH   1  35
TORSDOF 17
ENDMDL
