MODEL 1
REMARK VINA RESULT:     -12.7      0.000      0.000
REMARK SMILES COc1ccc2c(CC(=O)OCCOC(=O)c3ccc(-c4c5nc(c(-c6c(F)c(F)c(F)c(F)c6F)c6ccc([nH]6)c(-c6c(F)c(F)c(F)c(F)c6F)c6nc(c(-c7c(F)c(F)c(F)c(F)c7F)c7ccc4[nH]7)C=C6)C=C5)cc3)c(C(=O)c3cc(C)ccn3)[nH]c2c1
REMARK SMILES IDX 12 1 11 2 9 3 10 4 8 5 7 6 3 7 4 8 92 9 5 10 91 11 6 12
REMARK SMILES IDX 90 13 80 14 2 16 1 17 81 18 82 19 83 20 84 21 89 22 85 23
REMARK SMILES IDX 88 24 86 25 87 26 13 27 14 28 15 29 16 30 17 31 18 32 79 33
REMARK SMILES IDX 19 34 78 35 20 36 21 37 22 38 72 39 23 40 77 41 71 42 73 43
REMARK SMILES IDX 24 44 76 45 70 46 69 47 25 49 57 50 37 51 56 52 38 53 41 54
REMARK SMILES IDX 55 55 74 56 39 57 40 58 54 60 75 61 42 62 26 63 27 64 35 65
REMARK SMILES IDX 28 66 29 67 33 68 36 69 30 70 31 71 34 72 32 73 58 74 59 75
REMARK SMILES IDX 67 76 60 77 61 78 65 79 68 80 62 81 63 82 66 83 64 84 43 85
REMARK SMILES IDX 44 86 52 87 45 88 46 89 50 90 53 91 47 92 48 93 51 94 49 95
REMARK H PARENT 90 15 73 48 41 59
REMARK Flexibility Score: inf
ROOT
ATOM      1  C   UNL A   1      31.806  28.197  26.934  1.00  0.00     0.274 C 
ENDROOT
BRANCH   1   2
ATOM      2  O   UNL A   1      30.659  27.352  26.708  1.00  0.00    -0.462 OA
BRANCH   2   3
ATOM      3  C   UNL A   1      30.929  26.130  26.176  1.00  0.00     0.310 C 
ATOM      4  O   UNL A   1      31.572  25.255  26.753  1.00  0.00    -0.252 OA
BRANCH   3   5
ATOM      5  C   UNL A   1      30.350  25.888  24.800  1.00  0.00     0.161 C 
BRANCH   5   6
ATOM      6  C   UNL A   1      30.620  26.923  23.750  1.00  0.00     0.000 A 
ATOM      7  C   UNL A   1      28.338  30.074  22.198  1.00  0.00     0.120 A 
ATOM      8  C   UNL A   1      27.633  29.168  22.986  1.00  0.00     0.047 A 
ATOM      9  C   UNL A   1      29.660  29.826  21.818  1.00  0.00     0.073 A 
ATOM     10  C   UNL A   1      28.269  28.034  23.501  1.00  0.00     0.014 A 
ATOM     11  C   UNL A   1      30.290  28.710  22.379  1.00  0.00     0.050 A 
ATOM     12  C   UNL A   1      29.639  27.831  23.237  1.00  0.00     0.004 A 
ATOM     13  N   UNL A   1      31.585  28.264  22.261  1.00  0.00    -0.351 N 
ATOM     14  C   UNL A   1      31.856  27.336  23.244  1.00  0.00     0.093 A 
ATOM     15  H   UNL A   1      32.226  28.565  21.576  1.00  0.00     0.167 HD
BRANCH   7  16
ATOM     16  O   UNL A   1      27.781  31.240  21.736  1.00  0.00    -0.497 OA
ATOM     17  C   UNL A   1      28.414  32.397  22.285  1.00  0.00     0.278 C 
ENDBRANCH   7  16
BRANCH  14  18
ATOM     18  C   UNL A   1      33.195  26.991  23.697  1.00  0.00     0.227 C 
ATOM     19  O   UNL A   1      34.025  27.832  24.036  1.00  0.00    -0.285 OA
BRANCH  18  20
ATOM     20  C   UNL A   1      33.649  25.584  23.619  1.00  0.00     0.113 A 
ATOM     21  C   UNL A   1      34.402  25.054  24.661  1.00  0.00     0.036 A 
ATOM     22  N   UNL A   1      33.258  24.884  22.529  1.00  0.00    -0.253 NA
ATOM     23  C   UNL A   1      34.778  23.711  24.586  1.00  0.00    -0.047 A 
ATOM     24  C   UNL A   1      33.580  23.574  22.511  1.00  0.00     0.112 A 
ATOM     25  C   UNL A   1      35.623  23.078  25.651  1.00  0.00     0.044 C 
ATOM     26  C   UNL A   1      34.331  22.952  23.499  1.00  0.00     0.023 A 
ENDBRANCH  18  20
ENDBRANCH  14  18
ENDBRANCH   5   6
ENDBRANCH   3   5
ENDBRANCH   2   3
ENDBRANCH   1   2
BRANCH   1  27
ATOM     27  C   UNL A   1      31.659  29.520  26.184  1.00  0.00     0.275 C 
BRANCH  27  28
ATOM     28  O   UNL A   1      32.952  30.126  26.019  1.00  0.00    -0.458 OA
BRANCH  28  29
ATOM     29  C   UNL A   1      33.277  31.058  26.942  1.00  0.00     0.338 C 
ATOM     30  O   UNL A   1      32.640  32.064  27.226  1.00  0.00    -0.246 OA
BRANCH  29  31
ATOM     31  C   UNL A   1      34.578  30.737  27.563  1.00  0.00     0.060 A 
ATOM     32  C   UNL A   1      34.967  29.419  27.799  1.00  0.00     0.016 A 
ATOM     33  C   UNL A   1      35.381  31.788  28.007  1.00  0.00     0.016 A 
ATOM     34  C   UNL A   1      36.104  29.155  28.565  1.00  0.00     0.010 A 
ATOM     35  C   UNL A   1      36.571  31.520  28.688  1.00  0.00     0.010 A 
ATOM     36  C   UNL A   1      36.927  30.201  29.010  1.00  0.00    -0.014 A 
BRANCH  36  37
ATOM     37  C   UNL A   1      38.144  29.916  29.820  1.00  0.00     0.031 A 
ATOM     38  C   UNL A   1      39.254  29.061  29.266  1.00  0.00     0.074 A 
ATOM     39  C   UNL A   1      38.258  30.425  31.063  1.00  0.00     0.049 A 
ATOM     40  N   UNL A   1      40.319  28.591  29.872  1.00  0.00    -0.248 NA
ATOM     41  C   UNL A   1      39.147  28.664  27.854  1.00  0.00     0.031 C 
ATOM     42  C   UNL A   1      37.270  31.281  31.720  1.00  0.00     0.029 A 
ATOM     43  N   UNL A   1      39.262  30.302  31.992  1.00  0.00    -0.354 N 
ATOM     44  C   UNL A   1      40.974  27.804  28.934  1.00  0.00     0.074 A 
ATOM     45  C   UNL A   1      40.190  27.856  27.718  1.00  0.00     0.031 C 
ATOM     46  C   UNL A   1      37.735  31.645  32.923  1.00  0.00     0.029 A 
ATOM     47  C   UNL A   1      39.020  30.992  33.154  1.00  0.00     0.049 A 
ATOM     48  H   UNL A   1      40.076  29.771  31.840  1.00  0.00     0.167 HD
ATOM     49  C   UNL A   1      42.127  27.103  29.078  1.00  0.00     0.037 A 
ATOM     50  C   UNL A   1      39.736  31.075  34.290  1.00  0.00     0.037 A 
ATOM     51  C   UNL A   1      42.942  27.100  30.265  1.00  0.00     0.049 A 
ATOM     52  C   UNL A   1      41.023  30.312  34.410  1.00  0.00     0.074 A 
ATOM     53  C   UNL A   1      44.137  26.435  30.492  1.00  0.00     0.029 A 
ATOM     54  N   UNL A   1      42.660  27.815  31.420  1.00  0.00    -0.354 N 
ATOM     55  N   UNL A   1      41.607  29.533  33.535  1.00  0.00    -0.248 NA
ATOM     56  C   UNL A   1      41.742  30.430  35.686  1.00  0.00     0.031 C 
ATOM     57  C   UNL A   1      44.566  26.730  31.791  1.00  0.00     0.029 A 
ATOM     58  C   UNL A   1      43.656  27.605  32.362  1.00  0.00     0.049 A 
ATOM     59  H   UNL A   1      41.869  28.386  31.552  1.00  0.00     0.167 HD
ATOM     60  C   UNL A   1      42.760  29.069  34.148  1.00  0.00     0.074 A 
ATOM     61  C   UNL A   1      42.809  29.675  35.463  1.00  0.00     0.031 C 
ATOM     62  C   UNL A   1      43.691  28.210  33.667  1.00  0.00     0.037 A 
BRANCH  49  63
ATOM     63  C   UNL A   1      42.572  26.254  27.924  1.00  0.00     0.064 A 
ATOM     64  C   UNL A   1      42.048  24.972  27.703  1.00  0.00     0.173 A 
ATOM     65  C   UNL A   1      43.495  26.757  26.994  1.00  0.00     0.173 A 
ATOM     66  F   UNL A   1      41.173  24.441  28.570  1.00  0.00    -0.203 F 
ATOM     67  C   UNL A   1      42.446  24.219  26.601  1.00  0.00     0.198 A 
ATOM     68  C   UNL A   1      43.873  26.010  25.882  1.00  0.00     0.198 A 
ATOM     69  F   UNL A   1      44.022  27.980  27.157  1.00  0.00    -0.203 F 
ATOM     70  F   UNL A   1      41.960  22.981  26.428  1.00  0.00    -0.200 F 
ATOM     71  C   UNL A   1      43.350  24.740  25.688  1.00  0.00     0.200 A 
ATOM     72  F   UNL A   1      44.739  26.519  24.995  1.00  0.00    -0.200 F 
ATOM     73  F   UNL A   1      43.724  24.015  24.624  1.00  0.00    -0.200 F 
ENDBRANCH  49  63
BRANCH  50  74
ATOM     74  C   UNL A   1      39.239  31.913  35.408  1.00  0.00     0.064 A 
ATOM     75  C   UNL A   1      39.558  33.275  35.479  1.00  0.00     0.173 A 
ATOM     76  C   UNL A   1      38.417  31.378  36.409  1.00  0.00     0.173 A 
ATOM     77  F   UNL A   1      40.363  33.824  34.557  1.00  0.00    -0.203 F 
ATOM     78  C   UNL A   1      39.077  34.071  36.517  1.00  0.00     0.198 A 
ATOM     79  C   UNL A   1      37.916  32.179  37.431  1.00  0.00     0.198 A 
ATOM     80  F   UNL A   1      38.084  30.079  36.381  1.00  0.00    -0.203 F 
ATOM     81  F   UNL A   1      39.424  35.364  36.582  1.00  0.00    -0.200 F 
ATOM     82  C   UNL A   1      38.251  33.524  37.487  1.00  0.00     0.200 A 
ATOM     83  F   UNL A   1      37.108  31.650  38.360  1.00  0.00    -0.200 F 
ATOM     84  F   UNL A   1      37.780  34.292  38.479  1.00  0.00    -0.200 F 
ENDBRANCH  50  74
BRANCH  62  85
ATOM     85  C   UNL A   1      44.845  27.889  34.567  1.00  0.00     0.064 A 
ATOM     86  C   UNL A   1      46.005  28.676  34.575  1.00  0.00     0.173 A 
ATOM     87  C   UNL A   1      44.788  26.785  35.430  1.00  0.00     0.173 A 
ATOM     88  F   UNL A   1      46.110  29.731  33.753  1.00  0.00    -0.203 F 
ATOM     89  C   UNL A   1      47.079  28.356  35.400  1.00  0.00     0.198 A 
ATOM     90  C   UNL A   1      45.856  26.480  36.270  1.00  0.00     0.198 A 
ATOM     91  F   UNL A   1      43.699  26.004  35.459  1.00  0.00    -0.203 F 
ATOM     92  F   UNL A   1      48.196  29.096  35.361  1.00  0.00    -0.200 F 
ATOM     93  C   UNL A   1      47.003  27.260  36.248  1.00  0.00     0.200 A 
ATOM     94  F   UNL A   1      45.780  25.425  37.092  1.00  0.00    -0.200 F 
ATOM     95  F   UNL A   1      48.041  26.950  37.038  1.00  0.00    -0.200 F 
ENDBRANCH  62  85
ENDBRANCH  36  37
ENDBRANCH  29  31
ENDBRANCH  28  29
ENDBRANCH  27  28
ENDBRANCH   1  27
TORSDOF 15
ENDMDL
MODEL 2
REMARK VINA RESULT:     -12.6      4.580      9.927
REMARK SMILES COc1ccc2c(CC(=O)OCCOC(=O)c3ccc(-c4c5nc(c(-c6c(F)c(F)c(F)c(F)c6F)c6ccc([nH]6)c(-c6c(F)c(F)c(F)c(F)c6F)c6nc(c(-c7c(F)c(F)c(F)c(F)c7F)c7ccc4[nH]7)C=C6)C=C5)cc3)c(C(=O)c3cc(C)ccn3)[nH]c2c1
REMARK SMILES IDX 12 1 11 2 9 3 10 4 8 5 7 6 3 7 4 8 92 9 5 10 91 11 6 12
REMARK SMILES IDX 90 13 80 14 2 16 1 17 81 18 82 19 83 20 84 21 89 22 85 23
REMARK SMILES IDX 88 24 86 25 87 26 13 27 14 28 15 29 16 30 17 31 18 32 79 33
REMARK SMILES IDX 19 34 78 35 20 36 21 37 22 38 72 39 23 40 77 41 71 42 73 43
REMARK SMILES IDX 24 44 76 45 70 46 69 47 25 49 57 50 37 51 56 52 38 53 41 54
REMARK SMILES IDX 55 55 74 56 39 57 40 58 54 60 75 61 42 62 26 63 27 64 35 65
REMARK SMILES IDX 28 66 29 67 33 68 36 69 30 70 31 71 34 72 32 73 58 74 59 75
REMARK SMILES IDX 67 76 60 77 61 78 65 79 68 80 62 81 63 82 66 83 64 84 43 85
REMARK SMILES IDX 44 86 52 87 45 88 46 89 50 90 53 91 47 92 48 93 51 94 49 95
REMARK H PARENT 90 15 73 48 41 59
REMARK Flexibility Score: inf
ROOT
ATOM      1  C   UNL A   1      36.049  22.635  23.942  1.00  0.00     0.274 C 
ENDROOT
BRANCH   1   2
ATOM      2  O   UNL A   1      34.997  22.233  23.041  1.00  0.00    -0.462 OA
BRANCH   2   3
ATOM      3  C   UNL A   1      33.892  23.026  23.041  1.00  0.00     0.310 C 
ATOM      4  O   UNL A   1      33.898  24.217  22.735  1.00  0.00    -0.252 OA
BRANCH   3   5
ATOM      5  C   UNL A   1      32.605  22.330  23.424  1.00  0.00     0.161 C 
BRANCH   5   6
ATOM      6  C   UNL A   1      32.692  21.239  24.449  1.00  0.00     0.000 A 
ATOM      7  C   UNL A   1      33.072  17.078  24.160  1.00  0.00     0.120 A 
ATOM      8  C   UNL A   1      32.760  17.725  22.968  1.00  0.00     0.047 A 
ATOM      9  C   UNL A   1      33.069  17.764  25.378  1.00  0.00     0.073 A 
ATOM     10  C   UNL A   1      32.536  19.105  22.950  1.00  0.00     0.014 A 
ATOM     11  C   UNL A   1      32.885  19.150  25.332  1.00  0.00     0.050 A 
ATOM     12  C   UNL A   1      32.656  19.840  24.147  1.00  0.00     0.004 A 
ATOM     13  N   UNL A   1      32.915  20.087  26.338  1.00  0.00    -0.351 N 
ATOM     14  C   UNL A   1      33.026  21.353  25.802  1.00  0.00     0.093 A 
ATOM     15  H   UNL A   1      32.866  19.884  27.300  1.00  0.00     0.167 HD
BRANCH   7  16
ATOM     16  O   UNL A   1      33.378  15.741  24.217  1.00  0.00    -0.497 OA
ATOM     17  C   UNL A   1      32.906  15.127  25.417  1.00  0.00     0.278 C 
ENDBRANCH   7  16
BRANCH  14  18
ATOM     18  C   UNL A   1      33.516  22.511  26.532  1.00  0.00     0.227 C 
ATOM     19  O   UNL A   1      34.454  22.456  27.325  1.00  0.00    -0.285 OA
BRANCH  18  20
ATOM     20  C   UNL A   1      32.780  23.793  26.443  1.00  0.00     0.113 A 
ATOM     21  C   UNL A   1      33.475  24.955  26.127  1.00  0.00     0.036 A 
ATOM     22  N   UNL A   1      31.443  23.735  26.642  1.00  0.00    -0.253 NA
ATOM     23  C   UNL A   1      32.751  26.143  26.003  1.00  0.00    -0.047 A 
ATOM     24  C   UNL A   1      30.759  24.882  26.453  1.00  0.00     0.112 A 
ATOM     25  C   UNL A   1      33.434  27.444  25.703  1.00  0.00     0.044 C 
ATOM     26  C   UNL A   1      31.360  26.094  26.141  1.00  0.00     0.023 A 
ENDBRANCH  18  20
ENDBRANCH  14  18
ENDBRANCH   5   6
ENDBRANCH   3   5
ENDBRANCH   2   3
ENDBRANCH   1   2
BRANCH   1  27
ATOM     27  C   UNL A   1      36.866  21.427  24.392  1.00  0.00     0.275 C 
BRANCH  27  28
ATOM     28  O   UNL A   1      37.296  21.615  25.751  1.00  0.00    -0.458 OA
BRANCH  28  29
ATOM     29  C   UNL A   1      38.616  21.434  25.972  1.00  0.00     0.338 C 
ATOM     30  O   UNL A   1      39.250  20.397  25.825  1.00  0.00    -0.246 OA
BRANCH  29  31
ATOM     31  C   UNL A   1      39.227  22.675  26.490  1.00  0.00     0.060 A 
ATOM     32  C   UNL A   1      38.713  23.930  26.167  1.00  0.00     0.016 A 
ATOM     33  C   UNL A   1      40.403  22.577  27.236  1.00  0.00     0.016 A 
ATOM     34  C   UNL A   1      39.426  25.082  26.501  1.00  0.00     0.010 A 
ATOM     35  C   UNL A   1      41.063  23.734  27.656  1.00  0.00     0.010 A 
ATOM     36  C   UNL A   1      40.604  25.001  27.260  1.00  0.00    -0.014 A 
BRANCH  36  37
ATOM     37  C   UNL A   1      41.359  26.232  27.625  1.00  0.00     0.031 A 
ATOM     38  C   UNL A   1      40.728  27.294  28.487  1.00  0.00     0.074 A 
ATOM     39  C   UNL A   1      42.618  26.405  27.178  1.00  0.00     0.049 A 
ATOM     40  N   UNL A   1      41.176  28.490  28.789  1.00  0.00    -0.248 NA
ATOM     41  C   UNL A   1      39.415  26.983  29.073  1.00  0.00     0.031 C 
ATOM     42  C   UNL A   1      43.359  25.454  26.349  1.00  0.00     0.029 A 
ATOM     43  N   UNL A   1      43.502  27.438  27.367  1.00  0.00    -0.354 N 
ATOM     44  C   UNL A   1      40.180  29.088  29.550  1.00  0.00     0.074 A 
ATOM     45  C   UNL A   1      39.102  28.129  29.664  1.00  0.00     0.031 C 
ATOM     46  C   UNL A   1      44.597  25.923  26.141  1.00  0.00     0.029 A 
ATOM     47  C   UNL A   1      44.717  27.240  26.759  1.00  0.00     0.049 A 
ATOM     48  H   UNL A   1      43.286  28.245  27.889  1.00  0.00     0.167 HD
ATOM     49  C   UNL A   1      40.169  30.327  30.102  1.00  0.00     0.037 A 
ATOM     50  C   UNL A   1      45.800  28.033  26.685  1.00  0.00     0.037 A 
ATOM     51  C   UNL A   1      41.265  31.261  30.044  1.00  0.00     0.049 A 
ATOM     52  C   UNL A   1      45.771  29.387  27.331  1.00  0.00     0.074 A 
ATOM     53  C   UNL A   1      41.349  32.531  30.593  1.00  0.00     0.029 A 
ATOM     54  N   UNL A   1      42.479  31.018  29.418  1.00  0.00    -0.354 N 
ATOM     55  N   UNL A   1      44.807  29.961  28.004  1.00  0.00    -0.248 NA
ATOM     56  C   UNL A   1      46.981  30.211  27.190  1.00  0.00     0.031 C 
ATOM     57  C   UNL A   1      42.605  33.063  30.281  1.00  0.00     0.029 A 
ATOM     58  C   UNL A   1      43.315  32.113  29.566  1.00  0.00     0.049 A 
ATOM     59  H   UNL A   1      42.711  30.189  28.939  1.00  0.00     0.167 HD
ATOM     60  C   UNL A   1      45.288  31.208  28.371  1.00  0.00     0.074 A 
ATOM     61  C   UNL A   1      46.643  31.300  27.868  1.00  0.00     0.031 C 
ATOM     62  C   UNL A   1      44.659  32.193  29.057  1.00  0.00     0.037 A 
BRANCH  49  63
ATOM     63  C   UNL A   1      38.918  30.764  30.806  1.00  0.00     0.064 A 
ATOM     64  C   UNL A   1      38.751  30.600  32.188  1.00  0.00     0.173 A 
ATOM     65  C   UNL A   1      37.897  31.410  30.092  1.00  0.00     0.173 A 
ATOM     66  F   UNL A   1      39.692  29.978  32.913  1.00  0.00    -0.203 F 
ATOM     67  C   UNL A   1      37.598  31.051  32.826  1.00  0.00     0.198 A 
ATOM     68  C   UNL A   1      36.757  31.880  30.737  1.00  0.00     0.198 A 
ATOM     69  F   UNL A   1      38.010  31.597  28.768  1.00  0.00    -0.203 F 
ATOM     70  F   UNL A   1      37.443  30.852  34.144  1.00  0.00    -0.200 F 
ATOM     71  C   UNL A   1      36.607  31.698  32.104  1.00  0.00     0.200 A 
ATOM     72  F   UNL A   1      35.804  32.513  30.039  1.00  0.00    -0.200 F 
ATOM     73  F   UNL A   1      35.503  32.138  32.723  1.00  0.00    -0.200 F 
ENDBRANCH  49  63
BRANCH  50  74
ATOM     74  C   UNL A   1      47.004  27.560  25.959  1.00  0.00     0.064 A 
ATOM     75  C   UNL A   1      47.130  27.752  24.577  1.00  0.00     0.173 A 
ATOM     76  C   UNL A   1      48.061  26.933  26.633  1.00  0.00     0.173 A 
ATOM     77  F   UNL A   1      46.132  28.324  23.887  1.00  0.00    -0.203 F 
ATOM     78  C   UNL A   1      48.267  27.327  23.895  1.00  0.00     0.198 A 
ATOM     79  C   UNL A   1      49.209  26.532  25.955  1.00  0.00     0.198 A 
ATOM     80  F   UNL A   1      47.986  26.729  27.957  1.00  0.00    -0.203 F 
ATOM     81  F   UNL A   1      48.350  27.492  22.567  1.00  0.00    -0.200 F 
ATOM     82  C   UNL A   1      49.309  26.725  24.585  1.00  0.00     0.200 A 
ATOM     83  F   UNL A   1      50.218  25.962  26.627  1.00  0.00    -0.200 F 
ATOM     84  F   UNL A   1      50.408  26.327  23.929  1.00  0.00    -0.200 F 
ENDBRANCH  50  74
BRANCH  62  85
ATOM     85  C   UNL A   1      45.439  33.447  29.310  1.00  0.00     0.064 A 
ATOM     86  C   UNL A   1      45.396  34.526  28.415  1.00  0.00     0.173 A 
ATOM     87  C   UNL A   1      46.234  33.571  30.458  1.00  0.00     0.173 A 
ATOM     88  F   UNL A   1      44.663  34.444  27.295  1.00  0.00    -0.203 F 
ATOM     89  C   UNL A   1      46.142  35.677  28.649  1.00  0.00     0.198 A 
ATOM     90  C   UNL A   1      46.962  34.733  30.700  1.00  0.00     0.198 A 
ATOM     91  F   UNL A   1      46.306  32.567  31.344  1.00  0.00    -0.203 F 
ATOM     92  F   UNL A   1      46.121  36.680  27.760  1.00  0.00    -0.200 F 
ATOM     93  C   UNL A   1      46.922  35.782  29.792  1.00  0.00     0.200 A 
ATOM     94  F   UNL A   1      47.711  34.835  31.806  1.00  0.00    -0.200 F 
ATOM     95  F   UNL A   1      47.643  36.889  30.013  1.00  0.00    -0.200 F 
ENDBRANCH  62  85
ENDBRANCH  36  37
ENDBRANCH  29  31
ENDBRANCH  28  29
ENDBRANCH  27  28
ENDBRANCH   1  27
TORSDOF 15
ENDMDL
MODEL 3
REMARK VINA RESULT:     -12.5      1.204      3.857
REMARK SMILES COc1ccc2c(CC(=O)OCCOC(=O)c3ccc(-c4c5nc(c(-c6c(F)c(F)c(F)c(F)c6F)c6ccc([nH]6)c(-c6c(F)c(F)c(F)c(F)c6F)c6nc(c(-c7c(F)c(F)c(F)c(F)c7F)c7ccc4[nH]7)C=C6)C=C5)cc3)c(C(=O)c3cc(C)ccn3)[nH]c2c1
REMARK SMILES IDX 12 1 11 2 9 3 10 4 8 5 7 6 3 7 4 8 92 9 5 10 91 11 6 12
REMARK SMILES IDX 90 13 80 14 2 16 1 17 81 18 82 19 83 20 84 21 89 22 85 23
REMARK SMILES IDX 88 24 86 25 87 26 13 27 14 28 15 29 16 30 17 31 18 32 79 33
REMARK SMILES IDX 19 34 78 35 20 36 21 37 22 38 72 39 23 40 77 41 71 42 73 43
REMARK SMILES IDX 24 44 76 45 70 46 69 47 25 49 57 50 37 51 56 52 38 53 41 54
REMARK SMILES IDX 55 55 74 56 39 57 40 58 54 60 75 61 42 62 26 63 27 64 35 65
REMARK SMILES IDX 28 66 29 67 33 68 36 69 30 70 31 71 34 72 32 73 58 74 59 75
REMARK SMILES IDX 67 76 60 77 61 78 65 79 68 80 62 81 63 82 66 83 64 84 43 85
REMARK SMILES IDX 44 86 52 87 45 88 46 89 50 90 53 91 47 92 48 93 51 94 49 95
REMARK H PARENT 90 15 73 48 41 59
REMARK Flexibility Score: inf
ROOT
ATOM      1  C   UNL A   1      31.696  28.484  26.430  1.00  0.00     0.274 C 
ENDROOT
BRANCH   1   2
ATOM      2  O   UNL A   1      32.882  27.853  25.906  1.00  0.00    -0.462 OA
BRANCH   2   3
ATOM      3  C   UNL A   1      32.891  26.494  25.953  1.00  0.00     0.310 C 
ATOM      4  O   UNL A   1      32.034  25.820  26.522  1.00  0.00    -0.252 OA
BRANCH   3   5
ATOM      5  C   UNL A   1      34.036  25.835  25.217  1.00  0.00     0.161 C 
BRANCH   5   6
ATOM      6  C   UNL A   1      33.692  24.742  24.251  1.00  0.00     0.000 A 
ATOM      7  C   UNL A   1      32.577  20.736  24.756  1.00  0.00     0.120 A 
ATOM      8  C   UNL A   1      33.070  21.359  25.899  1.00  0.00     0.047 A 
ATOM      9  C   UNL A   1      32.634  21.363  23.509  1.00  0.00     0.073 A 
ATOM     10  C   UNL A   1      33.543  22.674  25.840  1.00  0.00     0.014 A 
ATOM     11  C   UNL A   1      33.070  22.693  23.479  1.00  0.00     0.050 A 
ATOM     12  C   UNL A   1      33.490  23.372  24.617  1.00  0.00     0.004 A 
ATOM     13  N   UNL A   1      33.154  23.580  22.432  1.00  0.00    -0.351 N 
ATOM     14  C   UNL A   1      33.307  24.863  22.913  1.00  0.00     0.093 A 
ATOM     15  H   UNL A   1      33.110  23.335  21.480  1.00  0.00     0.167 HD
BRANCH   7  16
ATOM     16  O   UNL A   1      32.029  19.478  24.779  1.00  0.00    -0.497 OA
ATOM     17  C   UNL A   1      32.770  18.579  25.607  1.00  0.00     0.278 C 
ENDBRANCH   7  16
BRANCH  14  18
ATOM     18  C   UNL A   1      32.994  26.064  22.153  1.00  0.00     0.227 C 
ATOM     19  O   UNL A   1      33.726  26.510  21.271  1.00  0.00    -0.285 OA
BRANCH  18  20
ATOM     20  C   UNL A   1      31.822  26.883  22.538  1.00  0.00     0.113 A 
ATOM     21  C   UNL A   1      30.702  26.257  23.074  1.00  0.00     0.036 A 
ATOM     22  N   UNL A   1      31.941  28.220  22.373  1.00  0.00    -0.253 NA
ATOM     23  C   UNL A   1      29.628  27.056  23.473  1.00  0.00    -0.047 A 
ATOM     24  C   UNL A   1      30.917  28.973  22.824  1.00  0.00     0.112 A 
ATOM     25  C   UNL A   1      28.370  26.452  24.023  1.00  0.00     0.044 C 
ATOM     26  C   UNL A   1      29.755  28.445  23.370  1.00  0.00     0.023 A 
ENDBRANCH  18  20
ENDBRANCH  14  18
ENDBRANCH   5   6
ENDBRANCH   3   5
ENDBRANCH   2   3
ENDBRANCH   1   2
BRANCH   1  27
ATOM     27  C   UNL A   1      31.736  29.992  26.194  1.00  0.00     0.275 C 
BRANCH  27  28
ATOM     28  O   UNL A   1      33.103  30.430  26.107  1.00  0.00    -0.458 OA
BRANCH  28  29
ATOM     29  C   UNL A   1      33.471  31.361  27.014  1.00  0.00     0.338 C 
ATOM     30  O   UNL A   1      32.879  32.398  27.285  1.00  0.00    -0.246 OA
BRANCH  29  31
ATOM     31  C   UNL A   1      34.761  30.995  27.633  1.00  0.00     0.060 A 
ATOM     32  C   UNL A   1      35.054  29.677  27.982  1.00  0.00     0.016 A 
ATOM     33  C   UNL A   1      35.656  32.015  27.960  1.00  0.00     0.016 A 
ATOM     34  C   UNL A   1      36.188  29.394  28.745  1.00  0.00     0.010 A 
ATOM     35  C   UNL A   1      36.841  31.716  28.637  1.00  0.00     0.010 A 
ATOM     36  C   UNL A   1      37.103  30.407  29.072  1.00  0.00    -0.014 A 
BRANCH  36  37
ATOM     37  C   UNL A   1      38.318  30.101  29.878  1.00  0.00     0.031 A 
ATOM     38  C   UNL A   1      39.420  29.244  29.313  1.00  0.00     0.074 A 
ATOM     39  C   UNL A   1      38.436  30.591  31.128  1.00  0.00     0.049 A 
ATOM     40  N   UNL A   1      40.481  28.758  29.912  1.00  0.00    -0.248 NA
ATOM     41  C   UNL A   1      39.311  28.869  27.895  1.00  0.00     0.031 C 
ATOM     42  C   UNL A   1      37.454  31.446  31.797  1.00  0.00     0.029 A 
ATOM     43  N   UNL A   1      39.438  30.447  32.056  1.00  0.00    -0.354 N 
ATOM     44  C   UNL A   1      41.131  27.978  28.963  1.00  0.00     0.074 A 
ATOM     45  C   UNL A   1      40.347  28.053  27.748  1.00  0.00     0.031 C 
ATOM     46  C   UNL A   1      37.922  31.789  33.005  1.00  0.00     0.029 A 
ATOM     47  C   UNL A   1      39.201  31.122  33.227  1.00  0.00     0.049 A 
ATOM     48  H   UNL A   1      40.248  29.911  31.896  1.00  0.00     0.167 HD
ATOM     49  C   UNL A   1      42.277  27.265  29.097  1.00  0.00     0.037 A 
ATOM     50  C   UNL A   1      39.917  31.184  34.364  1.00  0.00     0.037 A 
ATOM     51  C   UNL A   1      43.092  27.239  30.285  1.00  0.00     0.049 A 
ATOM     52  C   UNL A   1      41.198  30.409  34.474  1.00  0.00     0.074 A 
ATOM     53  C   UNL A   1      44.281  26.561  30.503  1.00  0.00     0.029 A 
ATOM     54  N   UNL A   1      42.816  27.940  31.449  1.00  0.00    -0.354 N 
ATOM     55  N   UNL A   1      41.776  29.637  33.588  1.00  0.00    -0.248 NA
ATOM     56  C   UNL A   1      41.918  30.502  35.752  1.00  0.00     0.031 C 
ATOM     57  C   UNL A   1      44.712  26.835  31.805  1.00  0.00     0.029 A 
ATOM     58  C   UNL A   1      43.809  27.709  32.388  1.00  0.00     0.049 A 
ATOM     59  H   UNL A   1      42.029  28.516  31.589  1.00  0.00     0.167 HD
ATOM     60  C   UNL A   1      42.925  29.155  34.195  1.00  0.00     0.074 A 
ATOM     61  C   UNL A   1      42.979  29.742  35.518  1.00  0.00     0.031 C 
ATOM     62  C   UNL A   1      43.849  28.295  33.702  1.00  0.00     0.037 A 
BRANCH  49  63
ATOM     63  C   UNL A   1      42.716  26.429  27.932  1.00  0.00     0.064 A 
ATOM     64  C   UNL A   1      42.269  25.112  27.757  1.00  0.00     0.173 A 
ATOM     65  C   UNL A   1      43.550  26.977  26.946  1.00  0.00     0.173 A 
ATOM     66  F   UNL A   1      41.480  24.538  28.677  1.00  0.00    -0.203 F 
ATOM     67  C   UNL A   1      42.656  24.368  26.645  1.00  0.00     0.198 A 
ATOM     68  C   UNL A   1      43.917  26.239  25.824  1.00  0.00     0.198 A 
ATOM     69  F   UNL A   1      44.001  28.236  27.063  1.00  0.00    -0.203 F 
ATOM     70  F   UNL A   1      42.246  23.098  26.514  1.00  0.00    -0.200 F 
ATOM     71  C   UNL A   1      43.472  24.934  25.676  1.00  0.00     0.200 A 
ATOM     72  F   UNL A   1      44.697  26.790  24.884  1.00  0.00    -0.200 F 
ATOM     73  F   UNL A   1      43.836  24.218  24.603  1.00  0.00    -0.200 F 
ENDBRANCH  49  63
BRANCH  50  74
ATOM     74  C   UNL A   1      39.427  32.010  35.494  1.00  0.00     0.064 A 
ATOM     75  C   UNL A   1      38.560  31.471  36.453  1.00  0.00     0.173 A 
ATOM     76  C   UNL A   1      39.834  33.342  35.651  1.00  0.00     0.173 A 
ATOM     77  F   UNL A   1      38.125  30.209  36.328  1.00  0.00    -0.203 F 
ATOM     78  C   UNL A   1      38.113  32.238  37.527  1.00  0.00     0.198 A 
ATOM     79  C   UNL A   1      39.407  34.100  36.738  1.00  0.00     0.198 A 
ATOM     80  F   UNL A   1      40.664  33.901  34.758  1.00  0.00    -0.203 F 
ATOM     81  F   UNL A   1      37.258  31.710  38.414  1.00  0.00    -0.200 F 
ATOM     82  C   UNL A   1      38.543  33.548  37.673  1.00  0.00     0.200 A 
ATOM     83  F   UNL A   1      39.834  35.362  36.882  1.00  0.00    -0.200 F 
ATOM     84  F   UNL A   1      38.121  34.282  38.712  1.00  0.00    -0.200 F 
ENDBRANCH  50  74
BRANCH  62  85
ATOM     85  C   UNL A   1      45.000  27.951  34.597  1.00  0.00     0.064 A 
ATOM     86  C   UNL A   1      44.945  26.852  35.466  1.00  0.00     0.173 A 
ATOM     87  C   UNL A   1      46.169  28.726  34.584  1.00  0.00     0.173 A 
ATOM     88  F   UNL A   1      43.840  26.094  35.525  1.00  0.00    -0.203 F 
ATOM     89  C   UNL A   1      46.012  26.555  36.309  1.00  0.00     0.198 A 
ATOM     90  C   UNL A   1      47.242  28.412  35.413  1.00  0.00     0.198 A 
ATOM     91  F   UNL A   1      46.268  29.786  33.768  1.00  0.00    -0.203 F 
ATOM     92  F   UNL A   1      45.922  25.526  37.163  1.00  0.00    -0.200 F 
ATOM     93  C   UNL A   1      47.160  27.332  36.280  1.00  0.00     0.200 A 
ATOM     94  F   UNL A   1      48.353  29.162  35.381  1.00  0.00    -0.200 F 
ATOM     95  F   UNL A   1      48.184  27.048  37.096  1.00  0.00    -0.200 F 
ENDBRANCH  62  85
ENDBRANCH  36  37
ENDBRANCH  29  31
ENDBRANCH  28  29
ENDBRANCH  27  28
ENDBRANCH   1  27
TORSDOF 15
ENDMDL
