MODEL 1
REMARK VINA RESULT:     -12.6      0.000      0.000
REMARK SMILES CC[C@@H](C(=O)OCCOC(=O)c1ccc(-c2c3nc(c(-c4c(F)c(F)c(F)c(F)c4F)c4ccc([nH]4)c(-c4c(F)c(F)c(F)c(F)c4F)c4nc(c(-c5c(F)c(F)c(F)c(F)c5F)c5ccc2[nH]5)C=C4)C=C3)cc1)N1C(=O)/C(=C/C(C)=C/c2ccccc2)SC1=S
REMARK SMILES IDX 7 1 6 2 4 3 5 4 3 5 2 6 1 7 75 8 76 9 90 10 77 11 78 12
REMARK SMILES IDX 89 13 91 14 79 15 80 16 81 17 82 18 83 19 84 20 88 21 85 22
REMARK SMILES IDX 87 23 86 24 8 25 9 26 10 27 11 28 12 29 13 30 74 31 14 32
REMARK SMILES IDX 73 33 15 34 16 35 17 36 67 37 18 38 72 39 66 40 68 41 19 42
REMARK SMILES IDX 71 43 65 44 64 45 20 47 52 48 32 49 51 50 33 51 36 52 50 53
REMARK SMILES IDX 69 54 34 55 35 56 49 58 70 59 37 60 21 61 22 62 30 63 23 64
REMARK SMILES IDX 24 65 28 66 31 67 25 68 26 69 29 70 27 71 53 72 54 73 62 74
REMARK SMILES IDX 55 75 56 76 60 77 63 78 57 79 58 80 61 81 59 82 38 83 39 84
REMARK SMILES IDX 47 85 40 86 41 87 45 88 48 89 42 90 43 91 46 92 44 93
REMARK H PARENT 68 46 36 57
REMARK Flexibility Score: inf
ROOT
ATOM      1  C   UNL A   1      31.183  29.811  24.187  1.00  0.00     0.274 C 
ENDROOT
BRANCH   1   2
ATOM      2  O   UNL A   1      30.511  28.540  24.032  1.00  0.00    -0.461 OA
BRANCH   2   3
ATOM      3  C   UNL A   1      31.079  27.640  23.177  1.00  0.00     0.329 C 
ATOM      4  O   UNL A   1      30.656  27.441  22.048  1.00  0.00    -0.250 OA
BRANCH   3   5
ATOM      5  C   UNL A   1      32.358  26.999  23.798  1.00  0.00     0.201 C 
BRANCH   5   6
ATOM      6  C   UNL A   1      33.470  27.170  22.714  1.00  0.00     0.034 C 
ATOM      7  C   UNL A   1      34.103  28.556  22.651  1.00  0.00     0.007 C 
ENDBRANCH   5   6
BRANCH   5   8
ATOM      8  N   UNL A   1      32.196  25.544  24.170  1.00  0.00    -0.278 N 
ATOM      9  C   UNL A   1      32.411  24.533  23.246  1.00  0.00     0.266 C 
ATOM     10  C   UNL A   1      31.417  25.075  25.213  1.00  0.00     0.149 C 
ATOM     11  O   UNL A   1      32.360  24.628  22.028  1.00  0.00    -0.268 OA
ATOM     12  C   UNL A   1      32.510  23.216  23.944  1.00  0.00     0.080 C 
ATOM     13  S   UNL A   1      31.675  23.343  25.430  1.00  0.00    -0.054 SA
ATOM     14  S   UNL A   1      30.291  25.879  26.151  1.00  0.00    -0.052 S 
ATOM     15  C   UNL A   1      33.182  22.178  23.423  1.00  0.00     0.024 C 
BRANCH  15  16
ATOM     16  C   UNL A   1      33.384  20.822  23.940  1.00  0.00    -0.049 C 
ATOM     17  C   UNL A   1      34.534  20.680  24.916  1.00  0.00     0.044 C 
ATOM     18  C   UNL A   1      32.586  19.768  23.665  1.00  0.00     0.011 C 
BRANCH  18  19
ATOM     19  C   UNL A   1      32.868  18.400  24.121  1.00  0.00    -0.025 A 
ATOM     20  C   UNL A   1      33.597  17.540  23.290  1.00  0.00     0.008 A 
ATOM     21  C   UNL A   1      32.468  17.954  25.384  1.00  0.00     0.008 A 
ATOM     22  C   UNL A   1      33.930  16.254  23.722  1.00  0.00     0.001 A 
ATOM     23  C   UNL A   1      32.800  16.668  25.815  1.00  0.00     0.001 A 
ATOM     24  C   UNL A   1      33.533  15.820  24.986  1.00  0.00     0.000 A 
ENDBRANCH  18  19
ENDBRANCH  15  16
ENDBRANCH   5   8
ENDBRANCH   3   5
ENDBRANCH   2   3
ENDBRANCH   1   2
BRANCH   1  25
ATOM     25  C   UNL A   1      31.421  30.217  25.652  1.00  0.00     0.275 C 
BRANCH  25  26
ATOM     26  O   UNL A   1      32.825  30.312  25.960  1.00  0.00    -0.458 OA
BRANCH  26  27
ATOM     27  C   UNL A   1      33.177  31.272  26.856  1.00  0.00     0.338 C 
ATOM     28  O   UNL A   1      32.529  32.244  27.173  1.00  0.00    -0.246 OA
BRANCH  27  29
ATOM     29  C   UNL A   1      34.401  30.841  27.572  1.00  0.00     0.060 A 
ATOM     30  C   UNL A   1      35.274  31.838  28.021  1.00  0.00     0.016 A 
ATOM     31  C   UNL A   1      34.670  29.497  27.842  1.00  0.00     0.016 A 
ATOM     32  C   UNL A   1      36.375  31.503  28.804  1.00  0.00     0.010 A 
ATOM     33  C   UNL A   1      35.802  29.159  28.593  1.00  0.00     0.010 A 
ATOM     34  C   UNL A   1      36.645  30.161  29.101  1.00  0.00    -0.014 A 
BRANCH  34  35
ATOM     35  C   UNL A   1      37.827  29.823  29.931  1.00  0.00     0.031 A 
ATOM     36  C   UNL A   1      38.962  29.053  29.326  1.00  0.00     0.074 A 
ATOM     37  C   UNL A   1      37.916  30.279  31.194  1.00  0.00     0.049 A 
ATOM     38  N   UNL A   1      40.086  28.664  29.873  1.00  0.00    -0.248 NA
ATOM     39  C   UNL A   1      38.822  28.685  27.909  1.00  0.00     0.031 C 
ATOM     40  C   UNL A   1      36.938  31.153  31.839  1.00  0.00     0.029 A 
ATOM     41  N   UNL A   1      38.898  30.117  32.141  1.00  0.00    -0.354 N 
ATOM     42  C   UNL A   1      40.775  27.988  28.877  1.00  0.00     0.074 A 
ATOM     43  C   UNL A   1      39.958  28.042  27.684  1.00  0.00     0.031 C 
ATOM     44  C   UNL A   1      37.401  31.505  33.051  1.00  0.00     0.029 A 
ATOM     45  C   UNL A   1      38.686  30.849  33.286  1.00  0.00     0.049 A 
ATOM     46  H   UNL A   1      39.680  29.533  32.012  1.00  0.00     0.167 HD
ATOM     47  C   UNL A   1      41.971  27.357  28.961  1.00  0.00     0.037 A 
ATOM     48  C   UNL A   1      39.462  30.990  34.379  1.00  0.00     0.037 A 
ATOM     49  C   UNL A   1      42.775  27.296  30.151  1.00  0.00     0.049 A 
ATOM     50  C   UNL A   1      40.748  30.205  34.469  1.00  0.00     0.074 A 
ATOM     51  C   UNL A   1      43.968  26.623  30.352  1.00  0.00     0.029 A 
ATOM     52  N   UNL A   1      42.465  27.927  31.347  1.00  0.00    -0.354 N 
ATOM     53  N   UNL A   1      41.364  29.506  33.548  1.00  0.00    -0.248 NA
ATOM     54  C   UNL A   1      41.429  30.205  35.775  1.00  0.00     0.031 C 
ATOM     55  C   UNL A   1      44.353  26.808  31.684  1.00  0.00     0.029 A 
ATOM     56  C   UNL A   1      43.432  27.641  32.297  1.00  0.00     0.049 A 
ATOM     57  H   UNL A   1      41.675  28.495  31.498  1.00  0.00     0.167 HD
ATOM     58  C   UNL A   1      42.496  28.981  34.159  1.00  0.00     0.074 A 
ATOM     59  C   UNL A   1      42.510  29.482  35.516  1.00  0.00     0.031 C 
ATOM     60  C   UNL A   1      43.426  28.135  33.650  1.00  0.00     0.037 A 
BRANCH  47  61
ATOM     61  C   UNL A   1      42.422  26.596  27.752  1.00  0.00     0.064 A 
ATOM     62  C   UNL A   1      41.992  25.289  27.485  1.00  0.00     0.173 A 
ATOM     63  C   UNL A   1      43.317  27.192  26.849  1.00  0.00     0.173 A 
ATOM     64  F   UNL A   1      41.154  24.668  28.330  1.00  0.00    -0.203 F 
ATOM     65  C   UNL A   1      42.466  24.595  26.374  1.00  0.00     0.198 A 
ATOM     66  C   UNL A   1      43.766  26.506  25.726  1.00  0.00     0.198 A 
ATOM     67  F   UNL A   1      43.757  28.442  27.061  1.00  0.00    -0.203 F 
ATOM     68  F   UNL A   1      42.088  23.326  26.166  1.00  0.00    -0.200 F 
ATOM     69  C   UNL A   1      43.349  25.206  25.494  1.00  0.00     0.200 A 
ATOM     70  F   UNL A   1      44.612  27.101  24.873  1.00  0.00    -0.200 F 
ATOM     71  F   UNL A   1      43.808  24.534  24.429  1.00  0.00    -0.200 F 
ENDBRANCH  47  61
BRANCH  48  72
ATOM     72  C   UNL A   1      39.083  31.930  35.472  1.00  0.00     0.064 A 
ATOM     73  C   UNL A   1      38.300  31.484  36.548  1.00  0.00     0.173 A 
ATOM     74  C   UNL A   1      39.452  33.284  35.458  1.00  0.00     0.173 A 
ATOM     75  F   UNL A   1      37.898  30.205  36.597  1.00  0.00    -0.203 F 
ATOM     76  C   UNL A   1      37.885  32.356  37.553  1.00  0.00     0.198 A 
ATOM     77  C   UNL A   1      39.067  34.147  36.483  1.00  0.00     0.198 A 
ATOM     78  F   UNL A   1      40.187  33.772  34.448  1.00  0.00    -0.203 F 
ATOM     79  F   UNL A   1      37.088  31.912  38.534  1.00  0.00    -0.200 F 
ATOM     80  C   UNL A   1      38.275  33.685  37.523  1.00  0.00     0.200 A 
ATOM     81  F   UNL A   1      39.454  35.429  36.456  1.00  0.00    -0.200 F 
ATOM     82  F   UNL A   1      37.877  34.524  38.490  1.00  0.00    -0.200 F 
ENDBRANCH  48  72
BRANCH  60  83
ATOM     83  C   UNL A   1      44.516  27.660  34.569  1.00  0.00     0.064 A 
ATOM     84  C   UNL A   1      45.694  28.404  34.738  1.00  0.00     0.173 A 
ATOM     85  C   UNL A   1      44.352  26.506  35.349  1.00  0.00     0.173 A 
ATOM     86  F   UNL A   1      45.905  29.509  34.008  1.00  0.00    -0.203 F 
ATOM     87  C   UNL A   1      46.670  28.004  35.647  1.00  0.00     0.198 A 
ATOM     88  C   UNL A   1      45.317  26.125  36.278  1.00  0.00     0.198 A 
ATOM     89  F   UNL A   1      43.240  25.763  35.232  1.00  0.00    -0.203 F 
ATOM     90  F   UNL A   1      47.800  28.715  35.770  1.00  0.00    -0.200 F 
ATOM     91  C   UNL A   1      46.476  26.873  36.424  1.00  0.00     0.200 A 
ATOM     92  F   UNL A   1      45.120  25.042  37.041  1.00  0.00    -0.200 F 
ATOM     93  F   UNL A   1      47.407  26.502  37.315  1.00  0.00    -0.200 F 
ENDBRANCH  60  83
ENDBRANCH  34  35
ENDBRANCH  27  29
ENDBRANCH  26  27
ENDBRANCH  25  26
ENDBRANCH   1  25
TORSDOF 15
ENDMDL
MODEL 2
REMARK VINA RESULT:     -12.4      1.050      1.733
REMARK SMILES CC[C@@H](C(=O)OCCOC(=O)c1ccc(-c2c3nc(c(-c4c(F)c(F)c(F)c(F)c4F)c4ccc([nH]4)c(-c4c(F)c(F)c(F)c(F)c4F)c4nc(c(-c5c(F)c(F)c(F)c(F)c5F)c5ccc2[nH]5)C=C4)C=C3)cc1)N1C(=O)/C(=C/C(C)=C/c2ccccc2)SC1=S
REMARK SMILES IDX 7 1 6 2 4 3 5 4 3 5 2 6 1 7 75 8 76 9 90 10 77 11 78 12
REMARK SMILES IDX 89 13 91 14 79 15 80 16 81 17 82 18 83 19 84 20 88 21 85 22
REMARK SMILES IDX 87 23 86 24 8 25 9 26 10 27 11 28 12 29 13 30 74 31 14 32
REMARK SMILES IDX 73 33 15 34 16 35 17 36 67 37 18 38 72 39 66 40 68 41 19 42
REMARK SMILES IDX 71 43 65 44 64 45 20 47 52 48 32 49 51 50 33 51 36 52 50 53
REMARK SMILES IDX 69 54 34 55 35 56 49 58 70 59 37 60 21 61 22 62 30 63 23 64
REMARK SMILES IDX 24 65 28 66 31 67 25 68 26 69 29 70 27 71 53 72 54 73 62 74
REMARK SMILES IDX 55 75 56 76 60 77 63 78 57 79 58 80 61 81 59 82 38 83 39 84
REMARK SMILES IDX 47 85 40 86 41 87 45 88 48 89 42 90 43 91 46 92 44 93
REMARK H PARENT 68 46 36 57
REMARK Flexibility Score: inf
ROOT
ATOM      1  C   UNL A   1      31.207  29.922  24.972  1.00  0.00     0.274 C 
ENDROOT
BRANCH   1   2
ATOM      2  O   UNL A   1      31.407  28.489  24.977  1.00  0.00    -0.461 OA
BRANCH   2   3
ATOM      3  C   UNL A   1      31.951  27.937  23.854  1.00  0.00     0.329 C 
ATOM      4  O   UNL A   1      33.025  28.297  23.393  1.00  0.00    -0.250 OA
BRANCH   3   5
ATOM      5  C   UNL A   1      31.080  26.758  23.324  1.00  0.00     0.201 C 
BRANCH   5   6
ATOM      6  C   UNL A   1      29.862  26.676  24.299  1.00  0.00     0.034 C 
ATOM      7  C   UNL A   1      28.516  27.049  23.686  1.00  0.00     0.007 C 
ENDBRANCH   5   6
BRANCH   5   8
ATOM      8  N   UNL A   1      31.806  25.435  23.267  1.00  0.00    -0.278 N 
ATOM      9  C   UNL A   1      32.403  24.889  24.393  1.00  0.00     0.266 C 
ATOM     10  C   UNL A   1      32.355  24.880  22.123  1.00  0.00     0.149 C 
ATOM     11  O   UNL A   1      32.770  25.488  25.394  1.00  0.00    -0.268 OA
ATOM     12  C   UNL A   1      32.750  23.457  24.144  1.00  0.00     0.080 C 
ATOM     13  S   UNL A   1      32.920  23.242  22.456  1.00  0.00    -0.054 SA
ATOM     14  S   UNL A   1      32.600  25.563  20.618  1.00  0.00    -0.052 S 
ATOM     15  C   UNL A   1      32.863  22.563  25.138  1.00  0.00     0.024 C 
BRANCH  15  16
ATOM     16  C   UNL A   1      33.199  21.138  25.100  1.00  0.00    -0.049 C 
ATOM     17  C   UNL A   1      34.590  20.800  25.593  1.00  0.00     0.044 C 
ATOM     18  C   UNL A   1      32.343  20.157  24.741  1.00  0.00     0.011 C 
BRANCH  18  19
ATOM     19  C   UNL A   1      32.736  18.746  24.620  1.00  0.00    -0.025 A 
ATOM     20  C   UNL A   1      33.173  18.262  23.381  1.00  0.00     0.008 A 
ATOM     21  C   UNL A   1      32.729  17.889  25.724  1.00  0.00     0.008 A 
ATOM     22  C   UNL A   1      33.608  16.942  23.251  1.00  0.00     0.001 A 
ATOM     23  C   UNL A   1      33.163  16.568  25.594  1.00  0.00     0.001 A 
ATOM     24  C   UNL A   1      33.605  16.095  24.359  1.00  0.00     0.000 A 
ENDBRANCH  18  19
ENDBRANCH  15  16
ENDBRANCH   5   8
ENDBRANCH   3   5
ENDBRANCH   2   3
ENDBRANCH   1   2
BRANCH   1  25
ATOM     25  C   UNL A   1      31.669  30.620  26.264  1.00  0.00     0.275 C 
BRANCH  25  26
ATOM     26  O   UNL A   1      33.106  30.696  26.346  1.00  0.00    -0.458 OA
BRANCH  26  27
ATOM     27  C   UNL A   1      33.607  31.688  27.130  1.00  0.00     0.338 C 
ATOM     28  O   UNL A   1      33.095  32.759  27.365  1.00  0.00    -0.246 OA
BRANCH  27  29
ATOM     29  C   UNL A   1      34.798  31.180  27.850  1.00  0.00     0.060 A 
ATOM     30  C   UNL A   1      35.797  32.103  28.181  1.00  0.00     0.016 A 
ATOM     31  C   UNL A   1      34.921  29.844  28.236  1.00  0.00     0.016 A 
ATOM     32  C   UNL A   1      36.880  31.711  28.963  1.00  0.00     0.010 A 
ATOM     33  C   UNL A   1      36.033  29.442  28.985  1.00  0.00     0.010 A 
ATOM     34  C   UNL A   1      37.004  30.378  29.376  1.00  0.00    -0.014 A 
BRANCH  34  35
ATOM     35  C   UNL A   1      38.170  29.977  30.201  1.00  0.00     0.031 A 
ATOM     36  C   UNL A   1      39.283  29.189  29.581  1.00  0.00     0.074 A 
ATOM     37  C   UNL A   1      38.264  30.392  31.478  1.00  0.00     0.049 A 
ATOM     38  N   UNL A   1      40.390  28.748  30.123  1.00  0.00    -0.248 NA
ATOM     39  C   UNL A   1      39.141  28.868  28.153  1.00  0.00     0.031 C 
ATOM     40  C   UNL A   1      37.311  31.278  32.144  1.00  0.00     0.029 A 
ATOM     41  N   UNL A   1      39.234  30.171  32.425  1.00  0.00    -0.354 N 
ATOM     42  C   UNL A   1      41.064  28.080  29.110  1.00  0.00     0.074 A 
ATOM     43  C   UNL A   1      40.257  28.196  27.915  1.00  0.00     0.031 C 
ATOM     44  C   UNL A   1      37.776  31.578  33.369  1.00  0.00     0.029 A 
ATOM     45  C   UNL A   1      39.038  30.874  33.591  1.00  0.00     0.049 A 
ATOM     46  H   UNL A   1      39.998  29.566  32.283  1.00  0.00     0.167 HD
ATOM     47  C   UNL A   1      42.238  27.409  29.182  1.00  0.00     0.037 A 
ATOM     48  C   UNL A   1      39.811  30.958  34.693  1.00  0.00     0.037 A 
ATOM     49  C   UNL A   1      43.032  27.286  30.374  1.00  0.00     0.049 A 
ATOM     50  C   UNL A   1      41.071  30.130  34.766  1.00  0.00     0.074 A 
ATOM     51  C   UNL A   1      44.201  26.569  30.563  1.00  0.00     0.029 A 
ATOM     52  N   UNL A   1      42.735  27.891  31.587  1.00  0.00    -0.354 N 
ATOM     53  N   UNL A   1      41.670  29.439  33.828  1.00  0.00    -0.248 NA
ATOM     54  C   UNL A   1      41.742  30.069  36.075  1.00  0.00     0.031 C 
ATOM     55  C   UNL A   1      44.584  26.702  31.901  1.00  0.00     0.029 A 
ATOM     56  C   UNL A   1      43.685  27.546  32.534  1.00  0.00     0.049 A 
ATOM     57  H   UNL A   1      41.962  28.479  31.750  1.00  0.00     0.167 HD
ATOM     58  C   UNL A   1      42.781  28.860  34.430  1.00  0.00     0.074 A 
ATOM     59  C   UNL A   1      42.801  29.320  35.801  1.00  0.00     0.031 C 
ATOM     60  C   UNL A   1      43.686  28.000  33.901  1.00  0.00     0.037 A 
BRANCH  47  61
ATOM     61  C   UNL A   1      42.673  26.669  27.954  1.00  0.00     0.064 A 
ATOM     62  C   UNL A   1      43.532  27.236  27.002  1.00  0.00     0.173 A 
ATOM     63  C   UNL A   1      42.206  25.365  27.725  1.00  0.00     0.173 A 
ATOM     64  F   UNL A   1      43.988  28.487  27.164  1.00  0.00    -0.203 F 
ATOM     65  C   UNL A   1      43.882  26.535  25.851  1.00  0.00     0.198 A 
ATOM     66  C   UNL A   1      42.580  24.658  26.588  1.00  0.00     0.198 A 
ATOM     67  F   UNL A   1      41.382  24.779  28.608  1.00  0.00    -0.203 F 
ATOM     68  F   UNL A   1      44.658  27.115  24.924  1.00  0.00    -0.200 F 
ATOM     69  C   UNL A   1      43.409  25.246  25.647  1.00  0.00     0.200 A 
ATOM     70  F   UNL A   1      42.128  23.410  26.398  1.00  0.00    -0.200 F 
ATOM     71  F   UNL A   1      43.741  24.576  24.535  1.00  0.00    -0.200 F 
ENDBRANCH  47  61
BRANCH  48  72
ATOM     72  C   UNL A   1      39.456  31.877  35.810  1.00  0.00     0.064 A 
ATOM     73  C   UNL A   1      38.493  31.497  36.758  1.00  0.00     0.173 A 
ATOM     74  C   UNL A   1      40.026  33.152  35.944  1.00  0.00     0.173 A 
ATOM     75  F   UNL A   1      37.895  30.300  36.662  1.00  0.00    -0.203 F 
ATOM     76  C   UNL A   1      38.101  32.361  37.780  1.00  0.00     0.198 A 
ATOM     77  C   UNL A   1      39.661  34.000  36.988  1.00  0.00     0.198 A 
ATOM     78  F   UNL A   1      40.941  33.576  35.060  1.00  0.00    -0.203 F 
ATOM     79  F   UNL A   1      37.136  31.991  38.633  1.00  0.00    -0.200 F 
ATOM     80  C   UNL A   1      38.691  33.609  37.898  1.00  0.00     0.200 A 
ATOM     81  F   UNL A   1      40.241  35.202  37.106  1.00  0.00    -0.200 F 
ATOM     82  F   UNL A   1      38.316  34.439  38.881  1.00  0.00    -0.200 F 
ENDBRANCH  48  72
BRANCH  60  83
ATOM     83  C   UNL A   1      44.754  27.462  34.811  1.00  0.00     0.064 A 
ATOM     84  C   UNL A   1      45.955  28.162  35.009  1.00  0.00     0.173 A 
ATOM     85  C   UNL A   1      44.547  26.292  35.556  1.00  0.00     0.173 A 
ATOM     86  F   UNL A   1      46.207  29.280  34.312  1.00  0.00    -0.203 F 
ATOM     87  C   UNL A   1      46.912  27.704  35.911  1.00  0.00     0.198 A 
ATOM     88  C   UNL A   1      45.494  25.853  36.479  1.00  0.00     0.198 A 
ATOM     89  F   UNL A   1      43.412  25.590  35.412  1.00  0.00    -0.203 F 
ATOM     90  F   UNL A   1      48.063  28.374  36.060  1.00  0.00    -0.200 F 
ATOM     91  C   UNL A   1      46.676  26.557  36.653  1.00  0.00     0.200 A 
ATOM     92  F   UNL A   1      45.257  24.755  37.209  1.00  0.00    -0.200 F 
ATOM     93  F   UNL A   1      47.588  26.131  37.538  1.00  0.00    -0.200 F 
ENDBRANCH  60  83
ENDBRANCH  34  35
ENDBRANCH  27  29
ENDBRANCH  26  27
ENDBRANCH  25  26
ENDBRANCH   1  25
TORSDOF 15
ENDMDL
MODEL 3
REMARK VINA RESULT:     -12.1      4.369     10.302
REMARK SMILES CC[C@@H](C(=O)OCCOC(=O)c1ccc(-c2c3nc(c(-c4c(F)c(F)c(F)c(F)c4F)c4ccc([nH]4)c(-c4c(F)c(F)c(F)c(F)c4F)c4nc(c(-c5c(F)c(F)c(F)c(F)c5F)c5ccc2[nH]5)C=C4)C=C3)cc1)N1C(=O)/C(=C/C(C)=C/c2ccccc2)SC1=S
REMARK SMILES IDX 7 1 6 2 4 3 5 4 3 5 2 6 1 7 75 8 76 9 90 10 77 11 78 12
REMARK SMILES IDX 89 13 91 14 79 15 80 16 81 17 82 18 83 19 84 20 88 21 85 22
REMARK SMILES IDX 87 23 86 24 8 25 9 26 10 27 11 28 12 29 13 30 74 31 14 32
REMARK SMILES IDX 73 33 15 34 16 35 17 36 67 37 18 38 72 39 66 40 68 41 19 42
REMARK SMILES IDX 71 43 65 44 64 45 20 47 52 48 32 49 51 50 33 51 36 52 50 53
REMARK SMILES IDX 69 54 34 55 35 56 49 58 70 59 37 60 21 61 22 62 30 63 23 64
REMARK SMILES IDX 24 65 28 66 31 67 25 68 26 69 29 70 27 71 53 72 54 73 62 74
REMARK SMILES IDX 55 75 56 76 60 77 63 78 57 79 58 80 61 81 59 82 38 83 39 84
REMARK SMILES IDX 47 85 40 86 41 87 45 88 48 89 42 90 43 91 46 92 44 93
REMARK H PARENT 68 46 36 57
REMARK Flexibility Score: inf
ROOT
ATOM      1  C   UNL A   1      35.184  20.741  25.084  1.00  0.00     0.274 C 
ENDROOT
BRANCH   1   2
ATOM      2  O   UNL A   1      34.384  21.612  24.252  1.00  0.00    -0.461 OA
BRANCH   2   3
ATOM      3  C   UNL A   1      33.031  21.548  24.411  1.00  0.00     0.329 C 
ATOM      4  O   UNL A   1      32.343  20.683  23.889  1.00  0.00    -0.250 OA
BRANCH   3   5
ATOM      5  C   UNL A   1      32.524  22.645  25.398  1.00  0.00     0.201 C 
BRANCH   5   6
ATOM      6  C   UNL A   1      31.079  22.204  25.794  1.00  0.00     0.034 C 
ATOM      7  C   UNL A   1      30.407  23.069  26.856  1.00  0.00     0.007 C 
ENDBRANCH   5   6
BRANCH   5   8
ATOM      8  N   UNL A   1      32.515  24.038  24.815  1.00  0.00    -0.278 N 
ATOM      9  C   UNL A   1      31.683  24.374  23.758  1.00  0.00     0.266 C 
ATOM     10  C   UNL A   1      33.562  24.939  24.898  1.00  0.00     0.149 C 
ATOM     11  O   UNL A   1      31.187  23.610  22.942  1.00  0.00    -0.268 OA
ATOM     12  C   UNL A   1      31.629  25.859  23.602  1.00  0.00     0.080 C 
ATOM     13  S   UNL A   1      33.059  26.511  24.274  1.00  0.00    -0.054 SA
ATOM     14  S   UNL A   1      35.139  24.700  25.399  1.00  0.00    -0.052 S 
ATOM     15  C   UNL A   1      30.584  26.483  23.039  1.00  0.00     0.024 C 
BRANCH  15  16
ATOM     16  C   UNL A   1      30.350  27.908  22.791  1.00  0.00    -0.049 C 
ATOM     17  C   UNL A   1      31.595  28.710  22.478  1.00  0.00     0.044 C 
ATOM     18  C   UNL A   1      29.132  28.490  22.750  1.00  0.00     0.011 C 
BRANCH  18  19
ATOM     19  C   UNL A   1      28.933  29.938  22.594  1.00  0.00    -0.025 A 
ATOM     20  C   UNL A   1      28.553  30.445  21.345  1.00  0.00     0.008 A 
ATOM     21  C   UNL A   1      29.067  30.814  23.675  1.00  0.00     0.008 A 
ATOM     22  C   UNL A   1      28.300  31.808  21.184  1.00  0.00     0.001 A 
ATOM     23  C   UNL A   1      28.815  32.178  23.513  1.00  0.00     0.001 A 
ATOM     24  C   UNL A   1      28.429  32.674  22.268  1.00  0.00     0.000 A 
ENDBRANCH  18  19
ENDBRANCH  15  16
ENDBRANCH   5   8
ENDBRANCH   3   5
ENDBRANCH   2   3
ENDBRANCH   1   2
BRANCH   1  25
ATOM     25  C   UNL A   1      36.701  20.903  24.882  1.00  0.00     0.275 C 
BRANCH  25  26
ATOM     26  O   UNL A   1      37.317  21.592  25.987  1.00  0.00    -0.458 OA
BRANCH  26  27
ATOM     27  C   UNL A   1      38.659  21.420  26.124  1.00  0.00     0.338 C 
ATOM     28  O   UNL A   1      39.298  20.430  25.846  1.00  0.00    -0.246 OA
BRANCH  27  29
ATOM     29  C   UNL A   1      39.281  22.721  26.469  1.00  0.00     0.060 A 
ATOM     30  C   UNL A   1      40.516  22.694  27.127  1.00  0.00     0.016 A 
ATOM     31  C   UNL A   1      38.698  23.940  26.118  1.00  0.00     0.016 A 
ATOM     32  C   UNL A   1      41.206  23.879  27.366  1.00  0.00     0.010 A 
ATOM     33  C   UNL A   1      39.374  25.133  26.400  1.00  0.00     0.010 A 
ATOM     34  C   UNL A   1      40.643  25.108  27.000  1.00  0.00    -0.014 A 
BRANCH  34  35
ATOM     35  C   UNL A   1      41.390  26.360  27.271  1.00  0.00     0.031 A 
ATOM     36  C   UNL A   1      40.807  27.387  28.194  1.00  0.00     0.074 A 
ATOM     37  C   UNL A   1      42.622  26.534  26.757  1.00  0.00     0.049 A 
ATOM     38  N   UNL A   1      41.299  28.541  28.569  1.00  0.00    -0.248 NA
ATOM     39  C   UNL A   1      39.502  27.065  28.790  1.00  0.00     0.031 C 
ATOM     40  C   UNL A   1      43.345  25.543  25.962  1.00  0.00     0.029 A 
ATOM     41  N   UNL A   1      43.504  27.580  26.873  1.00  0.00    -0.354 N 
ATOM     42  C   UNL A   1      40.356  29.091  29.425  1.00  0.00     0.074 A 
ATOM     43  C   UNL A   1      39.275  28.135  29.537  1.00  0.00     0.031 C 
ATOM     44  C   UNL A   1      44.585  26.002  25.717  1.00  0.00     0.029 A 
ATOM     45  C   UNL A   1      44.731  27.334  26.301  1.00  0.00     0.049 A 
ATOM     46  H   UNL A   1      43.280  28.427  27.323  1.00  0.00     0.167 HD
ATOM     47  C   UNL A   1      40.380  30.298  30.039  1.00  0.00     0.037 A 
ATOM     48  C   UNL A   1      45.846  28.090  26.284  1.00  0.00     0.037 A 
ATOM     49  C   UNL A   1      41.451  31.250  29.917  1.00  0.00     0.049 A 
ATOM     50  C   UNL A   1      45.808  29.464  26.909  1.00  0.00     0.074 A 
ATOM     51  C   UNL A   1      41.535  32.526  30.447  1.00  0.00     0.029 A 
ATOM     52  N   UNL A   1      42.624  31.033  29.210  1.00  0.00    -0.354 N 
ATOM     53  N   UNL A   1      44.883  30.012  27.659  1.00  0.00    -0.248 NA
ATOM     54  C   UNL A   1      46.963  30.338  26.649  1.00  0.00     0.031 C 
ATOM     55  C   UNL A   1      42.737  33.098  30.019  1.00  0.00     0.029 A 
ATOM     56  C   UNL A   1      43.428  32.159  29.269  1.00  0.00     0.049 A 
ATOM     57  H   UNL A   1      42.851  30.201  28.734  1.00  0.00     0.167 HD
ATOM     58  C   UNL A   1      45.341  31.291  27.956  1.00  0.00     0.074 A 
ATOM     59  C   UNL A   1      46.648  31.420  27.348  1.00  0.00     0.031 C 
ATOM     60  C   UNL A   1      44.721  32.279  28.646  1.00  0.00     0.037 A 
BRANCH  47  61
ATOM     61  C   UNL A   1      39.159  30.690  30.814  1.00  0.00     0.064 A 
ATOM     62  C   UNL A   1      39.048  30.478  32.195  1.00  0.00     0.173 A 
ATOM     63  C   UNL A   1      38.074  31.283  30.149  1.00  0.00     0.173 A 
ATOM     64  F   UNL A   1      40.049  29.894  32.872  1.00  0.00    -0.203 F 
ATOM     65  C   UNL A   1      37.881  30.815  32.876  1.00  0.00     0.198 A 
ATOM     66  C   UNL A   1      36.922  31.645  30.838  1.00  0.00     0.198 A 
ATOM     67  F   UNL A   1      38.133  31.507  28.828  1.00  0.00    -0.203 F 
ATOM     68  F   UNL A   1      37.770  30.552  34.186  1.00  0.00    -0.200 F 
ATOM     69  C   UNL A   1      36.821  31.402  32.198  1.00  0.00     0.200 A 
ATOM     70  F   UNL A   1      35.903  32.218  30.181  1.00  0.00    -0.200 F 
ATOM     71  F   UNL A   1      35.697  31.721  32.854  1.00  0.00    -0.200 F 
ENDBRANCH  47  61
BRANCH  48  72
ATOM     72  C   UNL A   1      47.113  27.576  25.692  1.00  0.00     0.064 A 
ATOM     73  C   UNL A   1      47.331  27.659  24.308  1.00  0.00     0.173 A 
ATOM     74  C   UNL A   1      48.109  26.963  26.468  1.00  0.00     0.173 A 
ATOM     75  F   UNL A   1      46.399  28.211  23.516  1.00  0.00    -0.203 F 
ATOM     76  C   UNL A   1      48.482  27.133  23.723  1.00  0.00     0.198 A 
ATOM     77  C   UNL A   1      49.276  26.471  25.885  1.00  0.00     0.198 A 
ATOM     78  F   UNL A   1      47.951  26.841  27.794  1.00  0.00    -0.203 F 
ATOM     79  F   UNL A   1      48.632  27.176  22.392  1.00  0.00    -0.200 F 
ATOM     80  C   UNL A   1      49.457  26.547  24.513  1.00  0.00     0.200 A 
ATOM     81  F   UNL A   1      50.222  25.914  26.654  1.00  0.00    -0.200 F 
ATOM     82  F   UNL A   1      50.564  26.043  23.951  1.00  0.00    -0.200 F 
ENDBRANCH  48  72
BRANCH  60  83
ATOM     83  C   UNL A   1      45.422  33.605  28.750  1.00  0.00     0.064 A 
ATOM     84  C   UNL A   1      45.171  34.630  27.825  1.00  0.00     0.173 A 
ATOM     85  C   UNL A   1      46.283  33.885  29.822  1.00  0.00     0.173 A 
ATOM     86  F   UNL A   1      44.366  34.410  26.775  1.00  0.00    -0.203 F 
ATOM     87  C   UNL A   1      45.762  35.883  27.966  1.00  0.00     0.198 A 
ATOM     88  C   UNL A   1      46.848  35.149  29.975  1.00  0.00     0.198 A 
ATOM     89  F   UNL A   1      46.550  32.943  30.739  1.00  0.00    -0.203 F 
ATOM     90  F   UNL A   1      45.528  36.837  27.054  1.00  0.00    -0.200 F 
ATOM     91  C   UNL A   1      46.590  36.145  29.046  1.00  0.00     0.200 A 
ATOM     92  F   UNL A   1      47.635  35.406  31.029  1.00  0.00    -0.200 F 
ATOM     93  F   UNL A   1      47.139  37.359  29.192  1.00  0.00    -0.200 F 
ENDBRANCH  60  83
ENDBRANCH  34  35
ENDBRANCH  27  29
ENDBRANCH  26  27
ENDBRANCH  25  26
ENDBRANCH   1  25
TORSDOF 15
ENDMDL
