MODEL 1
REMARK VINA RESULT:      -9.8      0.000      0.000
REMARK SMILES O=C(Cc1ccccc1Nc1c(F)cccc1C(F)(F)F)OCCOC(=O)c1ccc(-c2c3nc(c(-c4c(F)c(F)c(F)c(F)c4F)c4ccc([nH]4)c(-c4c(F)c(F)c(F)c(F)c4F)c4nc(c(-c5c(F)c(F)c(F)c(F)c5F)c5ccc2[nH]5)C=C4)C=C3)cc1
REMARK SMILES IDX 23 1 22 2 2 3 1 4 3 5 4 6 5 7 9 8 6 9 8 10 7 11 10 12 11 14
REMARK SMILES IDX 12 15 17 16 13 17 14 18 16 19 15 20 18 21 19 22 20 23 21 24
REMARK SMILES IDX 24 25 25 26 26 27 27 28 28 29 29 30 90 31 30 32 89 33 31 34
REMARK SMILES IDX 32 35 33 36 83 37 34 38 88 39 82 40 84 41 35 42 87 43 81 44
REMARK SMILES IDX 80 45 36 47 68 48 48 49 67 50 49 51 52 52 66 53 85 54 50 55
REMARK SMILES IDX 51 56 65 58 86 59 53 60 37 61 38 62 46 63 39 64 40 65 44 66
REMARK SMILES IDX 47 67 41 68 42 69 45 70 43 71 69 72 70 73 78 74 71 75 72 76
REMARK SMILES IDX 76 77 79 78 73 79 74 80 77 81 75 82 54 83 55 84 63 85 56 86
REMARK SMILES IDX 57 87 61 88 64 89 58 90 59 91 62 92 60 93
REMARK H PARENT 10 13 84 46 52 57
REMARK Flexibility Score: inf
ROOT
ATOM      1  C   UNL A   1      41.861  20.303  26.383  1.00  0.00     0.274 C 
ENDROOT
BRANCH   1   2
ATOM      2  O   UNL A   1      42.751  20.869  25.395  1.00  0.00    -0.462 OA
BRANCH   2   3
ATOM      3  C   UNL A   1      43.724  21.776  25.647  1.00  0.00     0.310 C 
ATOM      4  O   UNL A   1      44.896  21.512  25.386  1.00  0.00    -0.252 OA
BRANCH   3   5
ATOM      5  C   UNL A   1      43.348  23.109  26.242  1.00  0.00     0.160 C 
BRANCH   5   6
ATOM      6  C   UNL A   1      43.715  23.363  27.689  1.00  0.00    -0.013 A 
ATOM      7  C   UNL A   1      42.838  23.029  28.735  1.00  0.00     0.006 A 
ATOM      8  C   UNL A   1      44.980  23.920  28.001  1.00  0.00     0.042 A 
ATOM      9  C   UNL A   1      43.200  23.236  30.065  1.00  0.00     0.000 A 
ATOM     10  C   UNL A   1      45.325  24.110  29.347  1.00  0.00     0.026 A 
ATOM     11  C   UNL A   1      44.441  23.779  30.372  1.00  0.00     0.002 A 
BRANCH   8  12
ATOM     12  N   UNL A   1      45.904  24.215  26.967  1.00  0.00    -0.352 N 
ATOM     13  H   UNL A   1      46.073  23.494  26.318  1.00  0.00     0.167 HD
BRANCH  12  14
ATOM     14  C   UNL A   1      46.610  25.417  26.760  1.00  0.00     0.087 A 
ATOM     15  C   UNL A   1      47.954  25.464  27.156  1.00  0.00     0.147 A 
ATOM     16  C   UNL A   1      46.061  26.537  26.119  1.00  0.00     0.082 A 
ATOM     17  F   UNL A   1      48.512  24.380  27.719  1.00  0.00    -0.205 F 
ATOM     18  C   UNL A   1      48.738  26.592  26.970  1.00  0.00     0.041 A 
ATOM     19  C   UNL A   1      46.863  27.689  25.952  1.00  0.00     0.015 A 
ATOM     20  C   UNL A   1      48.187  27.723  26.387  1.00  0.00     0.004 A 
BRANCH  16  21
ATOM     21  C   UNL A   1      44.663  26.547  25.555  1.00  0.00     0.418 C 
ATOM     22  F   UNL A   1      44.393  27.695  24.864  1.00  0.00    -0.166 F 
ATOM     23  F   UNL A   1      44.461  25.538  24.661  1.00  0.00    -0.166 F 
ATOM     24  F   UNL A   1      43.665  26.454  26.477  1.00  0.00    -0.166 F 
ENDBRANCH  16  21
ENDBRANCH  12  14
ENDBRANCH   8  12
ENDBRANCH   5   6
ENDBRANCH   3   5
ENDBRANCH   2   3
ENDBRANCH   1   2
BRANCH   1  25
ATOM     25  C   UNL A   1      40.426  20.794  26.183  1.00  0.00     0.275 C 
BRANCH  25  26
ATOM     26  O   UNL A   1      40.173  21.967  26.982  1.00  0.00    -0.458 OA
BRANCH  26  27
ATOM     27  C   UNL A   1      39.307  22.869  26.453  1.00  0.00     0.338 C 
ATOM     28  O   UNL A   1      38.393  22.634  25.690  1.00  0.00    -0.246 OA
BRANCH  27  29
ATOM     29  C   UNL A   1      39.523  24.197  27.082  1.00  0.00     0.060 A 
ATOM     30  C   UNL A   1      40.254  25.152  26.363  1.00  0.00     0.016 A 
ATOM     31  C   UNL A   1      39.022  24.515  28.348  1.00  0.00     0.016 A 
ATOM     32  C   UNL A   1      40.518  26.408  26.919  1.00  0.00     0.010 A 
ATOM     33  C   UNL A   1      39.286  25.775  28.903  1.00  0.00     0.010 A 
ATOM     34  C   UNL A   1      40.058  26.723  28.205  1.00  0.00    -0.014 A 
BRANCH  34  35
ATOM     35  C   UNL A   1      40.470  27.985  28.877  1.00  0.00     0.031 A 
ATOM     36  C   UNL A   1      41.815  28.061  29.545  1.00  0.00     0.074 A 
ATOM     37  C   UNL A   1      39.676  29.071  28.897  1.00  0.00     0.049 A 
ATOM     38  N   UNL A   1      42.338  29.041  30.240  1.00  0.00    -0.248 NA
ATOM     39  C   UNL A   1      42.697  26.896  29.383  1.00  0.00     0.031 C 
ATOM     40  C   UNL A   1      38.398  29.201  28.209  1.00  0.00     0.029 A 
ATOM     41  N   UNL A   1      39.822  30.270  29.557  1.00  0.00    -0.354 N 
ATOM     42  C   UNL A   1      43.629  28.637  30.545  1.00  0.00     0.074 A 
ATOM     43  C   UNL A   1      43.783  27.290  30.035  1.00  0.00     0.031 C 
ATOM     44  C   UNL A   1      37.835  30.373  28.551  1.00  0.00     0.029 A 
ATOM     45  C   UNL A   1      38.699  31.058  29.503  1.00  0.00     0.049 A 
ATOM     46  H   UNL A   1      40.649  30.536  30.020  1.00  0.00     0.167 HD
ATOM     47  C   UNL A   1      44.613  29.345  31.148  1.00  0.00     0.037 A 
ATOM     48  C   UNL A   1      38.381  32.177  30.181  1.00  0.00     0.037 A 
ATOM     49  C   UNL A   1      44.465  30.675  31.676  1.00  0.00     0.049 A 
ATOM     50  C   UNL A   1      39.399  32.830  31.066  1.00  0.00     0.074 A 
ATOM     51  C   UNL A   1      45.428  31.486  32.254  1.00  0.00     0.029 A 
ATOM     52  N   UNL A   1      43.276  31.383  31.714  1.00  0.00    -0.354 N 
ATOM     53  N   UNL A   1      40.626  32.457  31.325  1.00  0.00    -0.248 NA
ATOM     54  C   UNL A   1      38.997  34.085  31.716  1.00  0.00     0.031 C 
ATOM     55  C   UNL A   1      44.806  32.661  32.697  1.00  0.00     0.029 A 
ATOM     56  C   UNL A   1      43.469  32.603  32.344  1.00  0.00     0.049 A 
ATOM     57  H   UNL A   1      42.418  31.067  31.347  1.00  0.00     0.167 HD
ATOM     58  C   UNL A   1      41.166  33.464  32.110  1.00  0.00     0.074 A 
ATOM     59  C   UNL A   1      40.121  34.443  32.321  1.00  0.00     0.031 C 
ATOM     60  C   UNL A   1      42.435  33.579  32.569  1.00  0.00     0.037 A 
BRANCH  47  61
ATOM     61  C   UNL A   1      45.959  28.693  31.253  1.00  0.00     0.064 A 
ATOM     62  C   UNL A   1      46.945  28.904  30.277  1.00  0.00     0.173 A 
ATOM     63  C   UNL A   1      46.287  27.904  32.363  1.00  0.00     0.173 A 
ATOM     64  F   UNL A   1      46.674  29.646  29.192  1.00  0.00    -0.203 F 
ATOM     65  C   UNL A   1      48.207  28.331  30.401  1.00  0.00     0.198 A 
ATOM     66  C   UNL A   1      47.557  27.352  32.495  1.00  0.00     0.198 A 
ATOM     67  F   UNL A   1      45.378  27.678  33.324  1.00  0.00    -0.203 F 
ATOM     68  F   UNL A   1      49.123  28.517  29.441  1.00  0.00    -0.200 F 
ATOM     69  C   UNL A   1      48.515  27.562  31.514  1.00  0.00     0.200 A 
ATOM     70  F   UNL A   1      47.858  26.618  33.576  1.00  0.00    -0.200 F 
ATOM     71  F   UNL A   1      49.734  27.019  31.638  1.00  0.00    -0.200 F 
ENDBRANCH  47  61
BRANCH  48  72
ATOM     72  C   UNL A   1      37.008  32.729  30.125  1.00  0.00     0.064 A 
ATOM     73  C   UNL A   1      36.590  33.583  29.099  1.00  0.00     0.173 A 
ATOM     74  C   UNL A   1      36.109  32.462  31.167  1.00  0.00     0.173 A 
ATOM     75  F   UNL A   1      37.439  33.908  28.114  1.00  0.00    -0.203 F 
ATOM     76  C   UNL A   1      35.315  34.148  29.116  1.00  0.00     0.198 A 
ATOM     77  C   UNL A   1      34.829  33.009  31.171  1.00  0.00     0.198 A 
ATOM     78  F   UNL A   1      36.479  31.671  32.185  1.00  0.00    -0.203 F 
ATOM     79  F   UNL A   1      34.947  34.995  28.145  1.00  0.00    -0.200 F 
ATOM     80  C   UNL A   1      34.434  33.854  30.148  1.00  0.00     0.200 A 
ATOM     81  F   UNL A   1      33.983  32.715  32.169  1.00  0.00    -0.200 F 
ATOM     82  F   UNL A   1      33.209  34.398  30.162  1.00  0.00    -0.200 F 
ENDBRANCH  48  72
BRANCH  60  83
ATOM     83  C   UNL A   1      42.790  34.849  33.283  1.00  0.00     0.064 A 
ATOM     84  C   UNL A   1      43.248  35.984  32.601  1.00  0.00     0.173 A 
ATOM     85  C   UNL A   1      42.668  34.924  34.680  1.00  0.00     0.173 A 
ATOM     86  F   UNL A   1      43.409  35.953  31.269  1.00  0.00    -0.203 F 
ATOM     87  C   UNL A   1      43.597  37.141  33.295  1.00  0.00     0.198 A 
ATOM     88  C   UNL A   1      42.989  36.091  35.365  1.00  0.00     0.198 A 
ATOM     89  F   UNL A   1      42.239  33.863  35.379  1.00  0.00    -0.203 F 
ATOM     90  F   UNL A   1      44.087  38.196  32.628  1.00  0.00    -0.200 F 
ATOM     91  C   UNL A   1      43.460  37.196  34.674  1.00  0.00     0.200 A 
ATOM     92  F   UNL A   1      42.850  36.143  36.698  1.00  0.00    -0.200 F 
ATOM     93  F   UNL A   1      43.797  38.310  35.338  1.00  0.00    -0.200 F 
ENDBRANCH  60  83
ENDBRANCH  34  35
ENDBRANCH  27  29
ENDBRANCH  26  27
ENDBRANCH  25  26
ENDBRANCH   1  25
TORSDOF 15
ENDMDL
MODEL 2
REMARK VINA RESULT:      -9.7      5.262     10.961
REMARK SMILES O=C(Cc1ccccc1Nc1c(F)cccc1C(F)(F)F)OCCOC(=O)c1ccc(-c2c3nc(c(-c4c(F)c(F)c(F)c(F)c4F)c4ccc([nH]4)c(-c4c(F)c(F)c(F)c(F)c4F)c4nc(c(-c5c(F)c(F)c(F)c(F)c5F)c5ccc2[nH]5)C=C4)C=C3)cc1
REMARK SMILES IDX 23 1 22 2 2 3 1 4 3 5 4 6 5 7 9 8 6 9 8 10 7 11 10 12 11 14
REMARK SMILES IDX 12 15 17 16 13 17 14 18 16 19 15 20 18 21 19 22 20 23 21 24
REMARK SMILES IDX 24 25 25 26 26 27 27 28 28 29 29 30 90 31 30 32 89 33 31 34
REMARK SMILES IDX 32 35 33 36 83 37 34 38 88 39 82 40 84 41 35 42 87 43 81 44
REMARK SMILES IDX 80 45 36 47 68 48 48 49 67 50 49 51 52 52 66 53 85 54 50 55
REMARK SMILES IDX 51 56 65 58 86 59 53 60 37 61 38 62 46 63 39 64 40 65 44 66
REMARK SMILES IDX 47 67 41 68 42 69 45 70 43 71 69 72 70 73 78 74 71 75 72 76
REMARK SMILES IDX 76 77 79 78 73 79 74 80 77 81 75 82 54 83 55 84 63 85 56 86
REMARK SMILES IDX 57 87 61 88 64 89 58 90 59 91 62 92 60 93
REMARK H PARENT 10 13 84 46 52 57
REMARK Flexibility Score: inf
ROOT
ATOM      1  C   UNL A   1      32.350  31.968  27.345  1.00  0.00     0.274 C 
ENDROOT
BRANCH   1   2
ATOM      2  O   UNL A   1      33.452  31.041  27.463  1.00  0.00    -0.462 OA
BRANCH   2   3
ATOM      3  C   UNL A   1      33.459  29.770  26.997  1.00  0.00     0.310 C 
ATOM      4  O   UNL A   1      34.484  29.297  26.509  1.00  0.00    -0.252 OA
BRANCH   3   5
ATOM      5  C   UNL A   1      32.200  28.947  27.094  1.00  0.00     0.160 C 
BRANCH   5   6
ATOM      6  C   UNL A   1      31.461  28.638  25.809  1.00  0.00    -0.013 A 
ATOM      7  C   UNL A   1      31.219  29.632  24.846  1.00  0.00     0.006 A 
ATOM      8  C   UNL A   1      31.028  27.311  25.555  1.00  0.00     0.042 A 
ATOM      9  C   UNL A   1      30.568  29.328  23.652  1.00  0.00     0.000 A 
ATOM     10  C   UNL A   1      30.383  27.030  24.341  1.00  0.00     0.026 A 
ATOM     11  C   UNL A   1      30.147  28.029  23.400  1.00  0.00     0.002 A 
BRANCH   8  12
ATOM     12  N   UNL A   1      31.307  26.280  26.485  1.00  0.00    -0.352 N 
ATOM     13  H   UNL A   1      31.292  26.537  27.435  1.00  0.00     0.167 HD
BRANCH  12  14
ATOM     14  C   UNL A   1      31.606  24.931  26.209  1.00  0.00     0.087 A 
ATOM     15  C   UNL A   1      30.589  23.983  26.394  1.00  0.00     0.147 A 
ATOM     16  C   UNL A   1      32.838  24.499  25.695  1.00  0.00     0.082 A 
ATOM     17  F   UNL A   1      29.385  24.387  26.831  1.00  0.00    -0.205 F 
ATOM     18  C   UNL A   1      30.779  22.637  26.125  1.00  0.00     0.041 A 
ATOM     19  C   UNL A   1      33.027  23.121  25.442  1.00  0.00     0.015 A 
ATOM     20  C   UNL A   1      32.011  22.194  25.669  1.00  0.00     0.004 A 
BRANCH  16  21
ATOM     21  C   UNL A   1      33.955  25.453  25.354  1.00  0.00     0.418 C 
ATOM     22  F   UNL A   1      35.131  24.802  25.105  1.00  0.00    -0.166 F 
ATOM     23  F   UNL A   1      33.696  26.165  24.221  1.00  0.00    -0.166 F 
ATOM     24  F   UNL A   1      34.258  26.360  26.323  1.00  0.00    -0.166 F 
ENDBRANCH  16  21
ENDBRANCH  12  14
ENDBRANCH   8  12
ENDBRANCH   5   6
ENDBRANCH   3   5
ENDBRANCH   2   3
ENDBRANCH   1   2
BRANCH   1  25
ATOM     25  C   UNL A   1      32.847  33.407  27.191  1.00  0.00     0.275 C 
BRANCH  25  26
ATOM     26  O   UNL A   1      32.211  34.271  28.153  1.00  0.00    -0.458 OA
BRANCH  26  27
ATOM     27  C   UNL A   1      33.006  35.215  28.719  1.00  0.00     0.338 C 
ATOM     28  O   UNL A   1      32.793  36.408  28.767  1.00  0.00    -0.246 OA
BRANCH  27  29
ATOM     29  C   UNL A   1      34.122  34.557  29.446  1.00  0.00     0.060 A 
ATOM     30  C   UNL A   1      35.378  34.521  28.824  1.00  0.00     0.016 A 
ATOM     31  C   UNL A   1      33.958  33.986  30.712  1.00  0.00     0.016 A 
ATOM     32  C   UNL A   1      36.457  33.885  29.445  1.00  0.00     0.010 A 
ATOM     33  C   UNL A   1      35.042  33.351  31.333  1.00  0.00     0.010 A 
ATOM     34  C   UNL A   1      36.294  33.272  30.694  1.00  0.00    -0.014 A 
BRANCH  34  35
ATOM     35  C   UNL A   1      37.381  32.449  31.291  1.00  0.00     0.031 A 
ATOM     36  C   UNL A   1      38.013  32.886  32.583  1.00  0.00     0.074 A 
ATOM     37  C   UNL A   1      37.811  31.313  30.712  1.00  0.00     0.049 A 
ATOM     38  N   UNL A   1      39.016  32.350  33.235  1.00  0.00    -0.248 NA
ATOM     39  C   UNL A   1      37.421  34.059  33.243  1.00  0.00     0.031 C 
ATOM     40  C   UNL A   1      37.236  30.694  29.525  1.00  0.00     0.029 A 
ATOM     41  N   UNL A   1      38.867  30.491  31.037  1.00  0.00    -0.354 N 
ATOM     42  C   UNL A   1      39.134  33.080  34.408  1.00  0.00     0.074 A 
ATOM     43  C   UNL A   1      38.160  34.150  34.340  1.00  0.00     0.031 C 
ATOM     44  C   UNL A   1      37.995  29.643  29.169  1.00  0.00     0.029 A 
ATOM     45  C   UNL A   1      39.122  29.536  30.085  1.00  0.00     0.049 A 
ATOM     46  H   UNL A   1      39.386  30.580  31.868  1.00  0.00     0.167 HD
ATOM     47  C   UNL A   1      39.945  32.848  35.467  1.00  0.00     0.037 A 
ATOM     48  C   UNL A   1      40.171  28.704  29.939  1.00  0.00     0.037 A 
ATOM     49  C   UNL A   1      40.930  31.802  35.536  1.00  0.00     0.049 A 
ATOM     50  C   UNL A   1      41.222  28.631  31.004  1.00  0.00     0.074 A 
ATOM     51  C   UNL A   1      41.757  31.462  36.594  1.00  0.00     0.029 A 
ATOM     52  N   UNL A   1      41.242  30.939  34.498  1.00  0.00    -0.354 N 
ATOM     53  N   UNL A   1      41.311  29.304  32.121  1.00  0.00    -0.248 NA
ATOM     54  C   UNL A   1      42.296  27.648  30.802  1.00  0.00     0.031 C 
ATOM     55  C   UNL A   1      42.610  30.434  36.175  1.00  0.00     0.029 A 
ATOM     56  C   UNL A   1      42.277  30.097  34.875  1.00  0.00     0.049 A 
ATOM     57  H   UNL A   1      40.794  30.927  33.621  1.00  0.00     0.167 HD
ATOM     58  C   UNL A   1      42.406  28.780  32.789  1.00  0.00     0.074 A 
ATOM     59  C   UNL A   1      42.978  27.763  31.933  1.00  0.00     0.031 C 
ATOM     60  C   UNL A   1      42.860  29.090  34.028  1.00  0.00     0.037 A 
BRANCH  47  61
ATOM     61  C   UNL A   1      39.785  33.742  36.660  1.00  0.00     0.064 A 
ATOM     62  C   UNL A   1      40.391  35.007  36.704  1.00  0.00     0.173 A 
ATOM     63  C   UNL A   1      38.975  33.360  37.737  1.00  0.00     0.173 A 
ATOM     64  F   UNL A   1      41.183  35.413  35.700  1.00  0.00    -0.203 F 
ATOM     65  C   UNL A   1      40.205  35.850  37.795  1.00  0.00     0.198 A 
ATOM     66  C   UNL A   1      38.772  34.215  38.815  1.00  0.00     0.198 A 
ATOM     67  F   UNL A   1      38.371  32.161  37.737  1.00  0.00    -0.203 F 
ATOM     68  F   UNL A   1      40.820  37.040  37.833  1.00  0.00    -0.200 F 
ATOM     69  C   UNL A   1      39.389  35.457  38.846  1.00  0.00     0.200 A 
ATOM     70  F   UNL A   1      37.976  33.840  39.826  1.00  0.00    -0.200 F 
ATOM     71  F   UNL A   1      39.202  36.274  39.892  1.00  0.00    -0.200 F 
ENDBRANCH  47  61
BRANCH  48  72
ATOM     72  C   UNL A   1      40.339  27.914  28.697  1.00  0.00     0.064 A 
ATOM     73  C   UNL A   1      39.827  26.619  28.563  1.00  0.00     0.173 A 
ATOM     74  C   UNL A   1      41.102  28.433  27.641  1.00  0.00     0.173 A 
ATOM     75  F   UNL A   1      39.141  26.065  29.572  1.00  0.00    -0.203 F 
ATOM     76  C   UNL A   1      40.069  25.871  27.412  1.00  0.00     0.198 A 
ATOM     77  C   UNL A   1      41.324  27.694  26.483  1.00  0.00     0.198 A 
ATOM     78  F   UNL A   1      41.635  29.660  27.740  1.00  0.00    -0.203 F 
ATOM     79  F   UNL A   1      39.604  24.619  27.318  1.00  0.00    -0.200 F 
ATOM     80  C   UNL A   1      40.811  26.412  26.370  1.00  0.00     0.200 A 
ATOM     81  F   UNL A   1      42.037  28.228  25.480  1.00  0.00    -0.200 F 
ATOM     82  F   UNL A   1      41.042  25.693  25.263  1.00  0.00    -0.200 F 
ENDBRANCH  48  72
BRANCH  60  83
ATOM     83  C   UNL A   1      43.990  28.265  34.566  1.00  0.00     0.064 A 
ATOM     84  C   UNL A   1      43.774  27.046  35.223  1.00  0.00     0.173 A 
ATOM     85  C   UNL A   1      45.313  28.710  34.422  1.00  0.00     0.173 A 
ATOM     86  F   UNL A   1      42.526  26.591  35.411  1.00  0.00    -0.203 F 
ATOM     87  C   UNL A   1      44.842  26.313  35.738  1.00  0.00     0.198 A 
ATOM     88  C   UNL A   1      46.378  27.962  34.912  1.00  0.00     0.198 A 
ATOM     89  F   UNL A   1      45.572  29.873  33.807  1.00  0.00    -0.203 F 
ATOM     90  F   UNL A   1      44.609  25.178  36.411  1.00  0.00    -0.200 F 
ATOM     91  C   UNL A   1      46.142  26.768  35.576  1.00  0.00     0.200 A 
ATOM     92  F   UNL A   1      47.635  28.401  34.748  1.00  0.00    -0.200 F 
ATOM     93  F   UNL A   1      47.167  26.063  36.073  1.00  0.00    -0.200 F 
ENDBRANCH  60  83
ENDBRANCH  34  35
ENDBRANCH  27  29
ENDBRANCH  26  27
ENDBRANCH  25  26
ENDBRANCH   1  25
TORSDOF 15
ENDMDL
MODEL 3
REMARK VINA RESULT:      -9.7      5.344     10.416
REMARK SMILES O=C(Cc1ccccc1Nc1c(F)cccc1C(F)(F)F)OCCOC(=O)c1ccc(-c2c3nc(c(-c4c(F)c(F)c(F)c(F)c4F)c4ccc([nH]4)c(-c4c(F)c(F)c(F)c(F)c4F)c4nc(c(-c5c(F)c(F)c(F)c(F)c5F)c5ccc2[nH]5)C=C4)C=C3)cc1
REMARK SMILES IDX 23 1 22 2 2 3 1 4 3 5 4 6 5 7 9 8 6 9 8 10 7 11 10 12 11 14
REMARK SMILES IDX 12 15 17 16 13 17 14 18 16 19 15 20 18 21 19 22 20 23 21 24
REMARK SMILES IDX 24 25 25 26 26 27 27 28 28 29 29 30 90 31 30 32 89 33 31 34
REMARK SMILES IDX 32 35 33 36 83 37 34 38 88 39 82 40 84 41 35 42 87 43 81 44
REMARK SMILES IDX 80 45 36 47 68 48 48 49 67 50 49 51 52 52 66 53 85 54 50 55
REMARK SMILES IDX 51 56 65 58 86 59 53 60 37 61 38 62 46 63 39 64 40 65 44 66
REMARK SMILES IDX 47 67 41 68 42 69 45 70 43 71 69 72 70 73 78 74 71 75 72 76
REMARK SMILES IDX 76 77 79 78 73 79 74 80 77 81 75 82 54 83 55 84 63 85 56 86
REMARK SMILES IDX 57 87 61 88 64 89 58 90 59 91 62 92 60 93
REMARK H PARENT 10 13 84 46 52 57
REMARK Flexibility Score: inf
ROOT
ATOM      1  C   UNL A   1      32.453  31.652  27.231  1.00  0.00     0.274 C 
ENDROOT
BRANCH   1   2
ATOM      2  O   UNL A   1      33.531  30.689  27.257  1.00  0.00    -0.462 OA
BRANCH   2   3
ATOM      3  C   UNL A   1      33.475  29.439  26.742  1.00  0.00     0.310 C 
ATOM      4  O   UNL A   1      34.438  28.981  26.129  1.00  0.00    -0.252 OA
BRANCH   3   5
ATOM      5  C   UNL A   1      32.226  28.619  26.938  1.00  0.00     0.160 C 
BRANCH   5   6
ATOM      6  C   UNL A   1      31.404  28.283  25.712  1.00  0.00    -0.013 A 
ATOM      7  C   UNL A   1      31.080  29.262  24.757  1.00  0.00     0.006 A 
ATOM      8  C   UNL A   1      30.977  26.947  25.503  1.00  0.00     0.042 A 
ATOM      9  C   UNL A   1      30.352  28.933  23.615  1.00  0.00     0.000 A 
ATOM     10  C   UNL A   1      30.254  26.640  24.340  1.00  0.00     0.026 A 
ATOM     11  C   UNL A   1      29.936  27.624  23.407  1.00  0.00     0.002 A 
BRANCH   8  12
ATOM     12  N   UNL A   1      31.338  25.931  26.422  1.00  0.00    -0.352 N 
ATOM     13  H   UNL A   1      31.376  26.197  27.369  1.00  0.00     0.167 HD
BRANCH  12  14
ATOM     14  C   UNL A   1      31.650  24.586  26.140  1.00  0.00     0.087 A 
ATOM     15  C   UNL A   1      30.664  23.619  26.382  1.00  0.00     0.147 A 
ATOM     16  C   UNL A   1      32.863  24.177  25.567  1.00  0.00     0.082 A 
ATOM     17  F   UNL A   1      29.475  24.002  26.876  1.00  0.00    -0.205 F 
ATOM     18  C   UNL A   1      30.867  22.275  26.111  1.00  0.00     0.041 A 
ATOM     19  C   UNL A   1      33.068  22.801  25.313  1.00  0.00     0.015 A 
ATOM     20  C   UNL A   1      32.084  21.855  25.596  1.00  0.00     0.004 A 
BRANCH  16  21
ATOM     21  C   UNL A   1      33.942  25.150  25.165  1.00  0.00     0.418 C 
ATOM     22  F   UNL A   1      35.103  24.519  24.816  1.00  0.00    -0.166 F 
ATOM     23  F   UNL A   1      33.593  25.881  24.068  1.00  0.00    -0.166 F 
ATOM     24  F   UNL A   1      34.305  26.043  26.126  1.00  0.00    -0.166 F 
ENDBRANCH  16  21
ENDBRANCH  12  14
ENDBRANCH   8  12
ENDBRANCH   5   6
ENDBRANCH   3   5
ENDBRANCH   2   3
ENDBRANCH   1   2
BRANCH   1  25
ATOM     25  C   UNL A   1      32.988  33.085  27.251  1.00  0.00     0.275 C 
BRANCH  25  26
ATOM     26  O   UNL A   1      32.274  33.881  28.217  1.00  0.00    -0.458 OA
BRANCH  26  27
ATOM     27  C   UNL A   1      32.960  34.926  28.748  1.00  0.00     0.338 C 
ATOM     28  O   UNL A   1      32.620  36.090  28.751  1.00  0.00    -0.246 OA
BRANCH  27  29
ATOM     29  C   UNL A   1      34.136  34.419  29.500  1.00  0.00     0.060 A 
ATOM     30  C   UNL A   1      35.399  34.546  28.906  1.00  0.00     0.016 A 
ATOM     31  C   UNL A   1      34.021  33.833  30.765  1.00  0.00     0.016 A 
ATOM     32  C   UNL A   1      36.539  34.056  29.552  1.00  0.00     0.010 A 
ATOM     33  C   UNL A   1      35.164  33.345  31.411  1.00  0.00     0.010 A 
ATOM     34  C   UNL A   1      36.429  33.429  30.799  1.00  0.00    -0.014 A 
BRANCH  34  35
ATOM     35  C   UNL A   1      37.601  32.755  31.422  1.00  0.00     0.031 A 
ATOM     36  C   UNL A   1      38.157  31.508  30.792  1.00  0.00     0.074 A 
ATOM     37  C   UNL A   1      38.190  33.236  32.532  1.00  0.00     0.049 A 
ATOM     38  N   UNL A   1      39.128  30.733  31.210  1.00  0.00    -0.248 NA
ATOM     39  C   UNL A   1      37.565  31.097  29.511  1.00  0.00     0.031 C 
ATOM     40  C   UNL A   1      37.848  34.484  33.202  1.00  0.00     0.029 A 
ATOM     41  N   UNL A   1      39.189  32.702  33.315  1.00  0.00    -0.354 N 
ATOM     42  C   UNL A   1      39.304  29.783  30.216  1.00  0.00     0.074 A 
ATOM     43  C   UNL A   1      38.284  30.023  29.215  1.00  0.00     0.031 C 
ATOM     44  C   UNL A   1      38.559  34.579  34.339  1.00  0.00     0.029 A 
ATOM     45  C   UNL A   1      39.381  33.386  34.490  1.00  0.00     0.049 A 
ATOM     46  H   UNL A   1      39.712  31.909  33.057  1.00  0.00     0.167 HD
ATOM     47  C   UNL A   1      40.261  28.830  30.121  1.00  0.00     0.037 A 
ATOM     48  C   UNL A   1      40.097  33.063  35.583  1.00  0.00     0.037 A 
ATOM     49  C   UNL A   1      41.265  28.569  31.118  1.00  0.00     0.049 A 
ATOM     50  C   UNL A   1      40.972  31.847  35.573  1.00  0.00     0.074 A 
ATOM     51  C   UNL A   1      42.307  27.658  31.076  1.00  0.00     0.029 A 
ATOM     52  N   UNL A   1      41.341  29.202  32.348  1.00  0.00    -0.354 N 
ATOM     53  N   UNL A   1      41.153  30.971  34.619  1.00  0.00    -0.248 NA
ATOM     54  C   UNL A   1      41.774  31.603  36.780  1.00  0.00     0.031 C 
ATOM     55  C   UNL A   1      42.976  27.696  32.305  1.00  0.00     0.029 A 
ATOM     56  C   UNL A   1      42.385  28.671  33.091  1.00  0.00     0.049 A 
ATOM     57  H   UNL A   1      40.742  29.922  32.650  1.00  0.00     0.167 HD
ATOM     58  C   UNL A   1      42.140  30.113  35.080  1.00  0.00     0.074 A 
ATOM     59  C   UNL A   1      42.488  30.548  36.417  1.00  0.00     0.031 C 
ATOM     60  C   UNL A   1      42.733  29.087  34.424  1.00  0.00     0.037 A 
BRANCH  47  61
ATOM     61  C   UNL A   1      40.280  28.001  28.872  1.00  0.00     0.064 A 
ATOM     62  C   UNL A   1      41.012  28.404  27.745  1.00  0.00     0.173 A 
ATOM     63  C   UNL A   1      39.614  26.769  28.821  1.00  0.00     0.173 A 
ATOM     64  F   UNL A   1      41.659  29.580  27.744  1.00  0.00    -0.203 F 
ATOM     65  C   UNL A   1      41.060  27.610  26.603  1.00  0.00     0.198 A 
ATOM     66  C   UNL A   1      39.684  25.967  27.686  1.00  0.00     0.198 A 
ATOM     67  F   UNL A   1      38.904  26.340  29.876  1.00  0.00    -0.203 F 
ATOM     68  F   UNL A   1      41.737  28.030  25.525  1.00  0.00    -0.200 F 
ATOM     69  C   UNL A   1      40.403  26.389  26.577  1.00  0.00     0.200 A 
ATOM     70  F   UNL A   1      39.057  24.782  27.665  1.00  0.00    -0.200 F 
ATOM     71  F   UNL A   1      40.459  25.620  25.481  1.00  0.00    -0.200 F 
ENDBRANCH  47  61
BRANCH  48  72
ATOM     72  C   UNL A   1      39.970  33.856  36.828  1.00  0.00     0.064 A 
ATOM     73  C   UNL A   1      39.055  33.524  37.833  1.00  0.00     0.173 A 
ATOM     74  C   UNL A   1      40.726  35.026  36.986  1.00  0.00     0.173 A 
ATOM     75  F   UNL A   1      38.273  32.444  37.693  1.00  0.00    -0.203 F 
ATOM     76  C   UNL A   1      38.905  34.334  38.958  1.00  0.00     0.198 A 
ATOM     77  C   UNL A   1      40.591  35.822  38.120  1.00  0.00     0.198 A 
ATOM     78  F   UNL A   1      41.594  35.396  36.033  1.00  0.00    -0.203 F 
ATOM     79  F   UNL A   1      37.996  34.020  39.890  1.00  0.00    -0.200 F 
ATOM     80  C   UNL A   1      39.679  35.478  39.103  1.00  0.00     0.200 A 
ATOM     81  F   UNL A   1      41.347  36.922  38.254  1.00  0.00    -0.200 F 
ATOM     82  F   UNL A   1      39.534  36.256  40.185  1.00  0.00    -0.200 F 
ENDBRANCH  48  72
BRANCH  60  83
ATOM     83  C   UNL A   1      43.877  28.408  35.113  1.00  0.00     0.064 A 
ATOM     84  C   UNL A   1      43.698  27.267  35.906  1.00  0.00     0.173 A 
ATOM     85  C   UNL A   1      45.179  28.916  34.975  1.00  0.00     0.173 A 
ATOM     86  F   UNL A   1      42.469  26.760  36.093  1.00  0.00    -0.203 F 
ATOM     87  C   UNL A   1      44.777  26.673  36.558  1.00  0.00     0.198 A 
ATOM     88  C   UNL A   1      46.258  28.302  35.602  1.00  0.00     0.198 A 
ATOM     89  F   UNL A   1      45.403  30.009  34.231  1.00  0.00    -0.203 F 
ATOM     90  F   UNL A   1      44.575  25.616  37.356  1.00  0.00    -0.200 F 
ATOM     91  C   UNL A   1      46.056  27.187  36.399  1.00  0.00     0.200 A 
ATOM     92  F   UNL A   1      47.494  28.798  35.443  1.00  0.00    -0.200 F 
ATOM     93  F   UNL A   1      47.092  26.614  37.028  1.00  0.00    -0.200 F 
ENDBRANCH  60  83
ENDBRANCH  34  35
ENDBRANCH  27  29
ENDBRANCH  26  27
ENDBRANCH  25  26
ENDBRANCH   1  25
TORSDOF 15
ENDMDL
