MODEL 1
REMARK VINA RESULT:     -11.3      0.000      0.000
REMARK SMILES CC(C)[C@@H](CCNC(=O)N1C[C@@H](C)[C@H](C)C1)CCC(=O)OCCOC(=O)c1ccc(-c2c3nc(c(-c4c(F)c(F)c(F)c(F)c4F)c4ccc([nH]4)c(-c4c(F)c(F)c(F)c(F)c4F)c4nc(c(-c5c(F)c(F)c(F)c(F)c5F)c5ccc2[nH]5)C=C4)C=C3)cc1
REMARK SMILES IDX 21 1 19 2 20 3 18 4 17 5 4 6 2 7 1 8 3 9 5 10 6 11 7 12 8 13
REMARK SMILES IDX 9 15 10 16 11 17 16 18 12 19 14 20 13 21 15 22 22 23 23 24
REMARK SMILES IDX 24 25 25 26 26 27 27 28 28 29 89 30 29 31 88 32 30 33 31 34
REMARK SMILES IDX 32 35 82 36 33 37 87 38 81 39 83 40 34 41 86 42 80 43 79 44
REMARK SMILES IDX 35 46 67 47 47 48 66 49 48 50 51 51 65 52 84 53 49 54 50 55
REMARK SMILES IDX 64 57 85 58 52 59 36 60 37 61 45 62 38 63 39 64 43 65 46 66
REMARK SMILES IDX 40 67 41 68 44 69 42 70 68 71 69 72 77 73 70 74 71 75 75 76
REMARK SMILES IDX 78 77 72 78 73 79 76 80 74 81 53 82 54 83 62 84 55 85 56 86
REMARK SMILES IDX 60 87 63 88 57 89 58 90 61 91 59 92
REMARK H PARENT 7 14 83 45 51 56
REMARK Flexibility Score: inf
ROOT
ATOM      1  O   UNL A   1      31.062  27.177  26.738  1.00  0.00    -0.462 OA
ENDROOT
BRANCH   1   2
ATOM      2  C   UNL A   1      31.497  26.580  25.606  1.00  0.00     0.305 C 
ATOM      3  O   UNL A   1      31.269  26.987  24.472  1.00  0.00    -0.252 OA
BRANCH   2   4
ATOM      4  C   UNL A   1      32.277  25.305  25.844  1.00  0.00     0.123 C 
BRANCH   4   5
ATOM      5  C   UNL A   1      33.789  25.274  25.605  1.00  0.00     0.015 C 
BRANCH   5   6
ATOM      6  C   UNL A   1      34.549  23.925  25.519  1.00  0.00    -0.006 C 
BRANCH   6   7
ATOM      7  C   UNL A   1      35.916  23.945  24.761  1.00  0.00    -0.014 C 
ATOM      8  C   UNL A   1      37.088  23.690  25.725  1.00  0.00     0.007 C 
ATOM      9  C   UNL A   1      36.028  22.917  23.631  1.00  0.00     0.007 C 
ENDBRANCH   6   7
BRANCH   6  10
ATOM     10  C   UNL A   1      34.662  23.313  26.956  1.00  0.00     0.025 C 
BRANCH  10  11
ATOM     11  C   UNL A   1      34.054  21.920  27.190  1.00  0.00     0.118 C 
BRANCH  11  12
ATOM     12  N   UNL A   1      32.671  21.838  26.758  1.00  0.00    -0.338 N 
ATOM     13  C   UNL A   1      32.134  21.436  25.584  1.00  0.00     0.317 C 
ATOM     14  H   UNL A   1      32.013  22.124  27.433  1.00  0.00     0.165 HD
ATOM     15  O   UNL A   1      31.057  21.940  25.263  1.00  0.00    -0.249 OA
ATOM     16  N   UNL A   1      32.762  20.498  24.820  1.00  0.00    -0.324 N 
ATOM     17  C   UNL A   1      32.300  20.213  23.477  1.00  0.00     0.125 C 
ATOM     18  C   UNL A   1      33.645  19.437  25.281  1.00  0.00     0.125 C 
ATOM     19  C   UNL A   1      32.253  18.692  23.416  1.00  0.00     0.010 C 
ATOM     20  C   UNL A   1      33.419  18.254  24.324  1.00  0.00     0.010 C 
ATOM     21  C   UNL A   1      32.383  18.164  21.994  1.00  0.00     0.010 C 
ATOM     22  C   UNL A   1      33.111  16.958  25.066  1.00  0.00     0.010 C 
ENDBRANCH  11  12
ENDBRANCH  10  11
ENDBRANCH   6  10
ENDBRANCH   5   6
ENDBRANCH   4   5
ENDBRANCH   2   4
ENDBRANCH   1   2
BRANCH   1  23
ATOM     23  C   UNL A   1      31.919  28.178  27.319  1.00  0.00     0.274 C 
BRANCH  23  24
ATOM     24  C   UNL A   1      31.767  29.525  26.610  1.00  0.00     0.275 C 
BRANCH  24  25
ATOM     25  O   UNL A   1      33.050  30.085  26.279  1.00  0.00    -0.458 OA
BRANCH  25  26
ATOM     26  C   UNL A   1      33.398  31.172  27.003  1.00  0.00     0.338 C 
ATOM     27  O   UNL A   1      32.717  32.159  27.238  1.00  0.00    -0.246 OA
BRANCH  26  28
ATOM     28  C   UNL A   1      34.703  30.940  27.631  1.00  0.00     0.060 A 
ATOM     29  C   UNL A   1      35.025  29.629  27.984  1.00  0.00     0.016 A 
ATOM     30  C   UNL A   1      35.560  31.992  27.953  1.00  0.00     0.016 A 
ATOM     31  C   UNL A   1      36.202  29.355  28.668  1.00  0.00     0.010 A 
ATOM     32  C   UNL A   1      36.750  31.716  28.637  1.00  0.00     0.010 A 
ATOM     33  C   UNL A   1      37.071  30.397  29.009  1.00  0.00    -0.014 A 
BRANCH  33  34
ATOM     34  C   UNL A   1      38.279  30.099  29.816  1.00  0.00     0.031 A 
ATOM     35  C   UNL A   1      39.357  29.223  29.246  1.00  0.00     0.074 A 
ATOM     36  C   UNL A   1      38.428  30.648  31.035  1.00  0.00     0.049 A 
ATOM     37  N   UNL A   1      40.432  28.751  29.823  1.00  0.00    -0.248 NA
ATOM     38  C   UNL A   1      39.201  28.822  27.839  1.00  0.00     0.031 C 
ATOM     39  C   UNL A   1      37.478  31.562  31.670  1.00  0.00     0.029 A 
ATOM     40  N   UNL A   1      39.439  30.523  31.955  1.00  0.00    -0.354 N 
ATOM     41  C   UNL A   1      41.057  27.963  28.865  1.00  0.00     0.074 A 
ATOM     42  C   UNL A   1      40.245  28.022  27.669  1.00  0.00     0.031 C 
ATOM     43  C   UNL A   1      37.955  31.923  32.872  1.00  0.00     0.029 A 
ATOM     44  C   UNL A   1      39.215  31.224  33.114  1.00  0.00     0.049 A 
ATOM     45  H   UNL A   1      40.246  29.982  31.798  1.00  0.00     0.167 HD
ATOM     46  C   UNL A   1      42.205  27.252  28.981  1.00  0.00     0.037 A 
ATOM     47  C   UNL A   1      39.929  31.271  34.254  1.00  0.00     0.037 A 
ATOM     48  C   UNL A   1      43.033  27.237  30.158  1.00  0.00     0.049 A 
ATOM     49  C   UNL A   1      41.194  30.463  34.359  1.00  0.00     0.074 A 
ATOM     50  C   UNL A   1      44.219  26.555  30.372  1.00  0.00     0.029 A 
ATOM     51  N   UNL A   1      42.767  27.949  31.318  1.00  0.00    -0.354 N 
ATOM     52  N   UNL A   1      41.754  29.683  33.468  1.00  0.00    -0.248 NA
ATOM     53  C   UNL A   1      41.919  30.533  35.636  1.00  0.00     0.031 C 
ATOM     54  C   UNL A   1      44.655  26.833  31.672  1.00  0.00     0.029 A 
ATOM     55  C   UNL A   1      43.761  27.718  32.254  1.00  0.00     0.049 A 
ATOM     56  H   UNL A   1      41.987  28.535  31.455  1.00  0.00     0.167 HD
ATOM     57  C   UNL A   1      42.898  29.178  34.067  1.00  0.00     0.074 A 
ATOM     58  C   UNL A   1      42.966  29.756  35.393  1.00  0.00     0.031 C 
ATOM     59  C   UNL A   1      43.809  28.307  33.567  1.00  0.00     0.037 A 
BRANCH  46  60
ATOM     60  C   UNL A   1      42.612  26.401  27.816  1.00  0.00     0.064 A 
ATOM     61  C   UNL A   1      42.069  25.128  27.601  1.00  0.00     0.173 A 
ATOM     62  C   UNL A   1      43.540  26.888  26.883  1.00  0.00     0.173 A 
ATOM     63  F   UNL A   1      41.188  24.614  28.472  1.00  0.00    -0.203 F 
ATOM     64  C   UNL A   1      42.454  24.362  26.503  1.00  0.00     0.198 A 
ATOM     65  C   UNL A   1      43.906  26.130  25.773  1.00  0.00     0.198 A 
ATOM     66  F   UNL A   1      44.087  28.103  27.042  1.00  0.00    -0.203 F 
ATOM     67  F   UNL A   1      41.951  23.131  26.335  1.00  0.00    -0.200 F 
ATOM     68  C   UNL A   1      43.367  24.866  25.587  1.00  0.00     0.200 A 
ATOM     69  F   UNL A   1      44.780  26.623  24.885  1.00  0.00    -0.200 F 
ATOM     70  F   UNL A   1      43.732  24.131  24.528  1.00  0.00    -0.200 F 
ENDBRANCH  46  60
BRANCH  47  71
ATOM     71  C   UNL A   1      39.445  32.087  35.396  1.00  0.00     0.064 A 
ATOM     72  C   UNL A   1      38.597  31.540  36.369  1.00  0.00     0.173 A 
ATOM     73  C   UNL A   1      39.821  33.431  35.538  1.00  0.00     0.173 A 
ATOM     74  F   UNL A   1      38.188  30.268  36.261  1.00  0.00    -0.203 F 
ATOM     75  C   UNL A   1      38.137  32.310  37.436  1.00  0.00     0.198 A 
ATOM     76  C   UNL A   1      39.382  34.191  36.619  1.00  0.00     0.198 A 
ATOM     77  F   UNL A   1      40.627  34.002  34.631  1.00  0.00    -0.203 F 
ATOM     78  F   UNL A   1      37.296  31.775  38.331  1.00  0.00    -0.200 F 
ATOM     79  C   UNL A   1      38.536  33.632  37.563  1.00  0.00     0.200 A 
ATOM     80  F   UNL A   1      39.779  35.465  36.744  1.00  0.00    -0.200 F 
ATOM     81  F   UNL A   1      38.098  34.370  38.593  1.00  0.00    -0.200 F 
ENDBRANCH  47  71
BRANCH  59  82
ATOM     82  C   UNL A   1      44.963  27.947  34.452  1.00  0.00     0.064 A 
ATOM     83  C   UNL A   1      44.908  26.840  35.311  1.00  0.00     0.173 A 
ATOM     84  C   UNL A   1      46.147  28.700  34.420  1.00  0.00     0.173 A 
ATOM     85  F   UNL A   1      43.792  26.100  35.388  1.00  0.00    -0.203 F 
ATOM     86  C   UNL A   1      45.991  26.511  36.122  1.00  0.00     0.198 A 
ATOM     87  C   UNL A   1      47.235  28.354  35.214  1.00  0.00     0.198 A 
ATOM     88  F   UNL A   1      46.248  29.765  33.611  1.00  0.00    -0.203 F 
ATOM     89  F   UNL A   1      45.903  25.473  36.966  1.00  0.00    -0.200 F 
ATOM     90  C   UNL A   1      47.155  27.265  36.069  1.00  0.00     0.200 A 
ATOM     91  F   UNL A   1      48.361  29.078  35.158  1.00  0.00    -0.200 F 
ATOM     92  F   UNL A   1      48.197  26.946  36.850  1.00  0.00    -0.200 F 
ENDBRANCH  59  82
ENDBRANCH  33  34
ENDBRANCH  26  28
ENDBRANCH  25  26
ENDBRANCH  24  25
ENDBRANCH  23  24
ENDBRANCH   1  23
TORSDOF 17
ENDMDL
MODEL 2
REMARK VINA RESULT:     -11.3      4.279      9.663
REMARK SMILES CC(C)[C@@H](CCNC(=O)N1C[C@@H](C)[C@H](C)C1)CCC(=O)OCCOC(=O)c1ccc(-c2c3nc(c(-c4c(F)c(F)c(F)c(F)c4F)c4ccc([nH]4)c(-c4c(F)c(F)c(F)c(F)c4F)c4nc(c(-c5c(F)c(F)c(F)c(F)c5F)c5ccc2[nH]5)C=C4)C=C3)cc1
REMARK SMILES IDX 21 1 19 2 20 3 18 4 17 5 4 6 2 7 1 8 3 9 5 10 6 11 7 12 8 13
REMARK SMILES IDX 9 15 10 16 11 17 16 18 12 19 14 20 13 21 15 22 22 23 23 24
REMARK SMILES IDX 24 25 25 26 26 27 27 28 28 29 89 30 29 31 88 32 30 33 31 34
REMARK SMILES IDX 32 35 82 36 33 37 87 38 81 39 83 40 34 41 86 42 80 43 79 44
REMARK SMILES IDX 35 46 67 47 47 48 66 49 48 50 51 51 65 52 84 53 49 54 50 55
REMARK SMILES IDX 64 57 85 58 52 59 36 60 37 61 45 62 38 63 39 64 43 65 46 66
REMARK SMILES IDX 40 67 41 68 44 69 42 70 68 71 69 72 77 73 70 74 71 75 75 76
REMARK SMILES IDX 78 77 72 78 73 79 76 80 74 81 53 82 54 83 62 84 55 85 56 86
REMARK SMILES IDX 60 87 63 88 57 89 58 90 61 91 59 92
REMARK H PARENT 7 14 83 45 51 56
REMARK Flexibility Score: inf
ROOT
ATOM      1  O   UNL A   1      35.384  21.361  26.069  1.00  0.00    -0.462 OA
ENDROOT
BRANCH   1   2
ATOM      2  C   UNL A   1      34.070  21.269  26.365  1.00  0.00     0.305 C 
ATOM      3  O   UNL A   1      33.526  21.835  27.309  1.00  0.00    -0.252 OA
BRANCH   2   4
ATOM      4  C   UNL A   1      33.293  20.353  25.444  1.00  0.00     0.123 C 
BRANCH   4   5
ATOM      5  C   UNL A   1      32.410  20.941  24.340  1.00  0.00     0.015 C 
BRANCH   5   6
ATOM      6  C   UNL A   1      32.489  22.448  23.984  1.00  0.00    -0.006 C 
BRANCH   6   7
ATOM      7  C   UNL A   1      33.750  22.907  23.182  1.00  0.00    -0.014 C 
ATOM      8  C   UNL A   1      33.374  23.335  21.754  1.00  0.00     0.007 C 
ATOM      9  C   UNL A   1      34.513  24.074  23.818  1.00  0.00     0.007 C 
ENDBRANCH   6   7
BRANCH   6  10
ATOM     10  C   UNL A   1      31.148  22.881  23.301  1.00  0.00     0.025 C 
BRANCH  10  11
ATOM     11  C   UNL A   1      30.539  24.232  23.712  1.00  0.00     0.118 C 
BRANCH  11  12
ATOM     12  N   UNL A   1      30.463  24.393  25.152  1.00  0.00    -0.338 N 
ATOM     13  C   UNL A   1      31.311  24.989  26.021  1.00  0.00     0.317 C 
ATOM     14  H   UNL A   1      29.660  24.002  25.566  1.00  0.00     0.165 HD
ATOM     15  O   UNL A   1      31.325  24.551  27.172  1.00  0.00    -0.249 OA
ATOM     16  N   UNL A   1      32.084  26.038  25.625  1.00  0.00    -0.324 N 
ATOM     17  C   UNL A   1      33.132  26.546  26.487  1.00  0.00     0.125 C 
ATOM     18  C   UNL A   1      31.788  27.001  24.575  1.00  0.00     0.125 C 
ATOM     19  C   UNL A   1      32.936  28.056  26.457  1.00  0.00     0.010 C 
ATOM     20  C   UNL A   1      32.417  28.330  25.032  1.00  0.00     0.010 C 
ATOM     21  C   UNL A   1      34.219  28.813  26.773  1.00  0.00     0.010 C 
ATOM     22  C   UNL A   1      31.422  29.485  24.997  1.00  0.00     0.010 C 
ENDBRANCH  11  12
ENDBRANCH  10  11
ENDBRANCH   6  10
ENDBRANCH   5   6
ENDBRANCH   4   5
ENDBRANCH   2   4
ENDBRANCH   1   2
BRANCH   1  23
ATOM     23  C   UNL A   1      35.875  20.523  25.004  1.00  0.00     0.274 C 
BRANCH  23  24
ATOM     24  C   UNL A   1      37.400  20.586  24.901  1.00  0.00     0.275 C 
BRANCH  24  25
ATOM     25  O   UNL A   1      37.937  21.599  25.771  1.00  0.00    -0.458 OA
BRANCH  25  26
ATOM     26  C   UNL A   1      39.160  21.323  26.274  1.00  0.00     0.338 C 
ATOM     27  O   UNL A   1      39.759  20.258  26.237  1.00  0.00    -0.246 OA
BRANCH  26  28
ATOM     28  C   UNL A   1      39.777  22.562  26.761  1.00  0.00     0.060 A 
ATOM     29  C   UNL A   1      39.355  23.761  26.186  1.00  0.00     0.016 A 
ATOM     30  C   UNL A   1      40.811  22.549  27.697  1.00  0.00     0.016 A 
ATOM     31  C   UNL A   1      39.965  24.960  26.533  1.00  0.00     0.010 A 
ATOM     32  C   UNL A   1      41.424  23.757  28.051  1.00  0.00     0.010 A 
ATOM     33  C   UNL A   1      41.012  24.967  27.462  1.00  0.00    -0.014 A 
BRANCH  33  34
ATOM     34  C   UNL A   1      41.712  26.241  27.754  1.00  0.00     0.031 A 
ATOM     35  C   UNL A   1      41.023  27.299  28.566  1.00  0.00     0.074 A 
ATOM     36  C   UNL A   1      42.976  26.429  27.333  1.00  0.00     0.049 A 
ATOM     37  N   UNL A   1      41.410  28.519  28.838  1.00  0.00    -0.248 NA
ATOM     38  C   UNL A   1      39.720  26.936  29.145  1.00  0.00     0.031 C 
ATOM     39  C   UNL A   1      43.770  25.451  26.590  1.00  0.00     0.029 A 
ATOM     40  N   UNL A   1      43.816  27.504  27.477  1.00  0.00    -0.354 N 
ATOM     41  C   UNL A   1      40.382  29.083  29.582  1.00  0.00     0.074 A 
ATOM     42  C   UNL A   1      39.355  28.074  29.722  1.00  0.00     0.031 C 
ATOM     43  C   UNL A   1      44.986  25.967  26.350  1.00  0.00     0.029 A 
ATOM     44  C   UNL A   1      45.037  27.329  26.874  1.00  0.00     0.049 A 
ATOM     45  H   UNL A   1      43.567  28.322  27.965  1.00  0.00     0.167 HD
ATOM     46  C   UNL A   1      40.305  30.334  30.096  1.00  0.00     0.037 A 
ATOM     47  C   UNL A   1      46.068  28.184  26.734  1.00  0.00     0.037 A 
ATOM     48  C   UNL A   1      41.352  31.318  29.993  1.00  0.00     0.049 A 
ATOM     49  C   UNL A   1      45.952  29.571  27.304  1.00  0.00     0.074 A 
ATOM     50  C   UNL A   1      41.374  32.611  30.486  1.00  0.00     0.029 A 
ATOM     51  N   UNL A   1      42.570  31.109  29.363  1.00  0.00    -0.354 N 
ATOM     52  N   UNL A   1      44.959  30.113  27.964  1.00  0.00    -0.248 NA
ATOM     53  C   UNL A   1      47.098  30.469  27.098  1.00  0.00     0.031 C 
ATOM     54  C   UNL A   1      42.596  33.194  30.130  1.00  0.00     0.029 A 
ATOM     55  C   UNL A   1      43.348  32.251  29.447  1.00  0.00     0.049 A 
ATOM     56  H   UNL A   1      42.842  30.271  28.922  1.00  0.00     0.167 HD
ATOM     57  C   UNL A   1      45.359  31.408  28.262  1.00  0.00     0.074 A 
ATOM     58  C   UNL A   1      46.697  31.565  27.728  1.00  0.00     0.031 C 
ATOM     59  C   UNL A   1      44.678  32.383  28.912  1.00  0.00     0.037 A 
BRANCH  46  60
ATOM     60  C   UNL A   1      39.031  30.724  30.781  1.00  0.00     0.064 A 
ATOM     61  C   UNL A   1      38.870  30.613  32.169  1.00  0.00     0.173 A 
ATOM     62  C   UNL A   1      37.964  31.246  30.034  1.00  0.00     0.173 A 
ATOM     63  F   UNL A   1      39.856  30.107  32.924  1.00  0.00    -0.203 F 
ATOM     64  C   UNL A   1      37.679  30.995  32.784  1.00  0.00     0.198 A 
ATOM     65  C   UNL A   1      36.784  31.649  30.653  1.00  0.00     0.198 A 
ATOM     66  F   UNL A   1      38.069  31.376  28.703  1.00  0.00    -0.203 F 
ATOM     67  F   UNL A   1      37.532  30.847  34.107  1.00  0.00    -0.200 F 
ATOM     68  C   UNL A   1      36.640  31.518  32.027  1.00  0.00     0.200 A 
ATOM     69  F   UNL A   1      35.786  32.163  29.922  1.00  0.00    -0.200 F 
ATOM     70  F   UNL A   1      35.498  31.890  32.620  1.00  0.00    -0.200 F 
ENDBRANCH  46  60
BRANCH  47  71
ATOM     71  C   UNL A   1      47.282  27.760  25.992  1.00  0.00     0.064 A 
ATOM     72  C   UNL A   1      48.430  27.328  26.670  1.00  0.00     0.173 A 
ATOM     73  C   UNL A   1      47.319  27.776  24.590  1.00  0.00     0.173 A 
ATOM     74  F   UNL A   1      48.454  27.321  28.010  1.00  0.00    -0.203 F 
ATOM     75  C   UNL A   1      49.573  26.938  25.972  1.00  0.00     0.198 A 
ATOM     76  C   UNL A   1      48.451  27.360  23.894  1.00  0.00     0.198 A 
ATOM     77  F   UNL A   1      46.247  28.185  23.896  1.00  0.00    -0.203 F 
ATOM     78  F   UNL A   1      50.671  26.567  26.644  1.00  0.00    -0.200 F 
ATOM     79  C   UNL A   1      49.579  26.948  24.585  1.00  0.00     0.200 A 
ATOM     80  F   UNL A   1      48.449  27.361  22.554  1.00  0.00    -0.200 F 
ATOM     81  F   UNL A   1      50.675  26.566  23.915  1.00  0.00    -0.200 F 
ENDBRANCH  47  71
BRANCH  59  82
ATOM     82  C   UNL A   1      45.379  33.695  29.098  1.00  0.00     0.064 A 
ATOM     83  C   UNL A   1      46.189  33.938  30.216  1.00  0.00     0.173 A 
ATOM     84  C   UNL A   1      45.263  34.706  28.133  1.00  0.00     0.173 A 
ATOM     85  F   UNL A   1      46.317  33.006  31.172  1.00  0.00    -0.203 F 
ATOM     86  C   UNL A   1      46.842  35.158  30.373  1.00  0.00     0.198 A 
ATOM     87  C   UNL A   1      45.935  35.915  28.282  1.00  0.00     0.198 A 
ATOM     88  F   UNL A   1      44.503  34.518  27.044  1.00  0.00    -0.203 F 
ATOM     89  F   UNL A   1      47.578  35.386  31.469  1.00  0.00    -0.200 F 
ATOM     90  C   UNL A   1      46.718  36.143  29.403  1.00  0.00     0.200 A 
ATOM     91  F   UNL A   1      45.822  36.863  27.342  1.00  0.00    -0.200 F 
ATOM     92  F   UNL A   1      47.349  37.316  29.555  1.00  0.00    -0.200 F 
ENDBRANCH  59  82
ENDBRANCH  33  34
ENDBRANCH  26  28
ENDBRANCH  25  26
ENDBRANCH  24  25
ENDBRANCH  23  24
ENDBRANCH   1  23
TORSDOF 17
ENDMDL
MODEL 3
REMARK VINA RESULT:     -11.3      1.142      2.428
REMARK SMILES CC(C)[C@@H](CCNC(=O)N1C[C@@H](C)[C@H](C)C1)CCC(=O)OCCOC(=O)c1ccc(-c2c3nc(c(-c4c(F)c(F)c(F)c(F)c4F)c4ccc([nH]4)c(-c4c(F)c(F)c(F)c(F)c4F)c4nc(c(-c5c(F)c(F)c(F)c(F)c5F)c5ccc2[nH]5)C=C4)C=C3)cc1
REMARK SMILES IDX 21 1 19 2 20 3 18 4 17 5 4 6 2 7 1 8 3 9 5 10 6 11 7 12 8 13
REMARK SMILES IDX 9 15 10 16 11 17 16 18 12 19 14 20 13 21 15 22 22 23 23 24
REMARK SMILES IDX 24 25 25 26 26 27 27 28 28 29 89 30 29 31 88 32 30 33 31 34
REMARK SMILES IDX 32 35 82 36 33 37 87 38 81 39 83 40 34 41 86 42 80 43 79 44
REMARK SMILES IDX 35 46 67 47 47 48 66 49 48 50 51 51 65 52 84 53 49 54 50 55
REMARK SMILES IDX 64 57 85 58 52 59 36 60 37 61 45 62 38 63 39 64 43 65 46 66
REMARK SMILES IDX 40 67 41 68 44 69 42 70 68 71 69 72 77 73 70 74 71 75 75 76
REMARK SMILES IDX 78 77 72 78 73 79 76 80 74 81 53 82 54 83 62 84 55 85 56 86
REMARK SMILES IDX 60 87 63 88 57 89 58 90 61 91 59 92
REMARK H PARENT 7 14 83 45 51 56
REMARK Flexibility Score: inf
ROOT
ATOM      1  O   UNL A   1      31.028  27.275  27.065  1.00  0.00    -0.462 OA
ENDROOT
BRANCH   1   2
ATOM      2  C   UNL A   1      31.575  26.165  26.526  1.00  0.00     0.305 C 
ATOM      3  O   UNL A   1      30.992  25.094  26.393  1.00  0.00    -0.252 OA
BRANCH   2   4
ATOM      4  C   UNL A   1      33.025  26.327  26.121  1.00  0.00     0.123 C 
BRANCH   4   5
ATOM      5  C   UNL A   1      33.384  26.660  24.670  1.00  0.00     0.015 C 
BRANCH   5   6
ATOM      6  C   UNL A   1      32.322  26.544  23.546  1.00  0.00    -0.006 C 
BRANCH   6   7
ATOM      7  C   UNL A   1      31.922  27.875  22.828  1.00  0.00    -0.014 C 
ATOM      8  C   UNL A   1      30.667  28.493  23.466  1.00  0.00     0.007 C 
ATOM      9  C   UNL A   1      33.012  28.951  22.839  1.00  0.00     0.007 C 
ENDBRANCH   6   7
BRANCH   6  10
ATOM     10  C   UNL A   1      32.763  25.426  22.543  1.00  0.00     0.025 C 
BRANCH  10  11
ATOM     11  C   UNL A   1      32.024  24.078  22.603  1.00  0.00     0.118 C 
BRANCH  11  12
ATOM     12  N   UNL A   1      31.919  23.562  23.955  1.00  0.00    -0.338 N 
ATOM     13  C   UNL A   1      32.517  22.502  24.545  1.00  0.00     0.317 C 
ATOM     14  H   UNL A   1      31.310  24.067  24.541  1.00  0.00     0.165 HD
ATOM     15  O   UNL A   1      31.901  21.956  25.463  1.00  0.00    -0.249 OA
ATOM     16  N   UNL A   1      33.751  22.090  24.143  1.00  0.00    -0.324 N 
ATOM     17  C   UNL A   1      34.306  20.842  24.628  1.00  0.00     0.125 C 
ATOM     18  C   UNL A   1      34.800  22.906  23.549  1.00  0.00     0.125 C 
ATOM     19  C   UNL A   1      35.728  21.203  25.036  1.00  0.00     0.010 C 
ATOM     20  C   UNL A   1      36.130  22.299  24.030  1.00  0.00     0.010 C 
ATOM     21  C   UNL A   1      36.663  20.001  25.003  1.00  0.00     0.010 C 
ATOM     22  C   UNL A   1      37.051  23.341  24.656  1.00  0.00     0.010 C 
ENDBRANCH  11  12
ENDBRANCH  10  11
ENDBRANCH   6  10
ENDBRANCH   5   6
ENDBRANCH   4   5
ENDBRANCH   2   4
ENDBRANCH   1   2
BRANCH   1  23
ATOM     23  C   UNL A   1      31.937  28.281  27.556  1.00  0.00     0.274 C 
BRANCH  23  24
ATOM     24  C   UNL A   1      31.779  29.596  26.792  1.00  0.00     0.275 C 
BRANCH  24  25
ATOM     25  O   UNL A   1      33.058  30.117  26.385  1.00  0.00    -0.458 OA
BRANCH  25  26
ATOM     26  C   UNL A   1      33.462  31.216  27.058  1.00  0.00     0.338 C 
ATOM     27  O   UNL A   1      32.832  32.245  27.252  1.00  0.00    -0.246 OA
BRANCH  26  28
ATOM     28  C   UNL A   1      34.759  30.950  27.691  1.00  0.00     0.060 A 
ATOM     29  C   UNL A   1      35.037  29.634  28.060  1.00  0.00     0.016 A 
ATOM     30  C   UNL A   1      35.649  31.978  28.001  1.00  0.00     0.016 A 
ATOM     31  C   UNL A   1      36.205  29.330  28.749  1.00  0.00     0.010 A 
ATOM     32  C   UNL A   1      36.829  31.672  28.690  1.00  0.00     0.010 A 
ATOM     33  C   UNL A   1      37.107  30.348  29.078  1.00  0.00    -0.014 A 
BRANCH  33  34
ATOM     34  C   UNL A   1      38.303  30.021  29.890  1.00  0.00     0.031 A 
ATOM     35  C   UNL A   1      39.366  29.125  29.323  1.00  0.00     0.074 A 
ATOM     36  C   UNL A   1      38.458  30.562  31.113  1.00  0.00     0.049 A 
ATOM     37  N   UNL A   1      40.428  28.627  29.903  1.00  0.00    -0.248 NA
ATOM     38  C   UNL A   1      39.209  28.733  27.913  1.00  0.00     0.031 C 
ATOM     39  C   UNL A   1      37.524  31.493  31.746  1.00  0.00     0.029 A 
ATOM     40  N   UNL A   1      39.460  30.411  32.037  1.00  0.00    -0.354 N 
ATOM     41  C   UNL A   1      41.041  27.830  28.946  1.00  0.00     0.074 A 
ATOM     42  C   UNL A   1      40.237  27.911  27.746  1.00  0.00     0.031 C 
ATOM     43  C   UNL A   1      38.002  31.839  32.952  1.00  0.00     0.029 A 
ATOM     44  C   UNL A   1      39.245  31.112  33.198  1.00  0.00     0.049 A 
ATOM     45  H   UNL A   1      40.257  29.854  31.883  1.00  0.00     0.167 HD
ATOM     46  C   UNL A   1      42.173  27.094  29.064  1.00  0.00     0.037 A 
ATOM     47  C   UNL A   1      39.955  31.139  34.342  1.00  0.00     0.037 A 
ATOM     48  C   UNL A   1      42.994  27.056  30.246  1.00  0.00     0.049 A 
ATOM     49  C   UNL A   1      41.201  30.304  34.451  1.00  0.00     0.074 A 
ATOM     50  C   UNL A   1      44.163  26.348  30.463  1.00  0.00     0.029 A 
ATOM     51  N   UNL A   1      42.737  27.770  31.407  1.00  0.00    -0.354 N 
ATOM     52  N   UNL A   1      41.749  29.516  33.559  1.00  0.00    -0.248 NA
ATOM     53  C   UNL A   1      41.921  30.354  35.731  1.00  0.00     0.031 C 
ATOM     54  C   UNL A   1      44.599  26.612  31.766  1.00  0.00     0.029 A 
ATOM     55  C   UNL A   1      43.720  27.513  32.348  1.00  0.00     0.049 A 
ATOM     56  H   UNL A   1      41.968  28.371  31.543  1.00  0.00     0.167 HD
ATOM     57  C   UNL A   1      42.879  28.985  34.162  1.00  0.00     0.074 A 
ATOM     58  C   UNL A   1      42.953  29.556  35.491  1.00  0.00     0.031 C 
ATOM     59  C   UNL A   1      43.774  28.096  33.663  1.00  0.00     0.037 A 
BRANCH  46  60
ATOM     60  C   UNL A   1      42.567  26.240  27.898  1.00  0.00     0.064 A 
ATOM     61  C   UNL A   1      42.011  24.972  27.684  1.00  0.00     0.173 A 
ATOM     62  C   UNL A   1      43.498  26.717  26.962  1.00  0.00     0.173 A 
ATOM     63  F   UNL A   1      41.127  24.467  28.557  1.00  0.00    -0.203 F 
ATOM     64  C   UNL A   1      42.385  24.203  26.584  1.00  0.00     0.198 A 
ATOM     65  C   UNL A   1      43.854  25.956  25.852  1.00  0.00     0.198 A 
ATOM     66  F   UNL A   1      44.058  27.926  27.120  1.00  0.00    -0.203 F 
ATOM     67  F   UNL A   1      41.868  22.977  26.417  1.00  0.00    -0.200 F 
ATOM     68  C   UNL A   1      43.300  24.697  25.666  1.00  0.00     0.200 A 
ATOM     69  F   UNL A   1      44.730  26.439  24.961  1.00  0.00    -0.200 F 
ATOM     70  F   UNL A   1      43.655  23.959  24.606  1.00  0.00    -0.200 F 
ENDBRANCH  46  60
BRANCH  47  71
ATOM     71  C   UNL A   1      39.481  31.961  35.484  1.00  0.00     0.064 A 
ATOM     72  C   UNL A   1      39.913  33.283  35.653  1.00  0.00     0.173 A 
ATOM     73  C   UNL A   1      38.586  31.439  36.431  1.00  0.00     0.173 A 
ATOM     74  F   UNL A   1      40.789  33.817  34.791  1.00  0.00    -0.203 F 
ATOM     75  C   UNL A   1      39.473  34.050  36.732  1.00  0.00     0.198 A 
ATOM     76  C   UNL A   1      38.126  32.216  37.492  1.00  0.00     0.198 A 
ATOM     77  F   UNL A   1      38.147  30.177  36.315  1.00  0.00    -0.203 F 
ATOM     78  F   UNL A   1      39.931  35.299  36.893  1.00  0.00    -0.200 F 
ATOM     79  C   UNL A   1      38.575  33.518  37.645  1.00  0.00     0.200 A 
ATOM     80  F   UNL A   1      37.251  31.701  38.365  1.00  0.00    -0.200 F 
ATOM     81  F   UNL A   1      38.148  34.258  38.677  1.00  0.00    -0.200 F 
ENDBRANCH  47  71
BRANCH  59  82
ATOM     82  C   UNL A   1      44.916  27.708  34.553  1.00  0.00     0.064 A 
ATOM     83  C   UNL A   1      44.831  26.600  35.408  1.00  0.00     0.173 A 
ATOM     84  C   UNL A   1      46.116  28.434  34.528  1.00  0.00     0.173 A 
ATOM     85  F   UNL A   1      43.698  25.886  35.478  1.00  0.00    -0.203 F 
ATOM     86  C   UNL A   1      45.902  26.244  36.224  1.00  0.00     0.198 A 
ATOM     87  C   UNL A   1      47.192  28.062  35.327  1.00  0.00     0.198 A 
ATOM     88  F   UNL A   1      46.245  29.498  33.723  1.00  0.00    -0.203 F 
ATOM     89  F   UNL A   1      45.788  25.207  37.065  1.00  0.00    -0.200 F 
ATOM     90  C   UNL A   1      47.083  26.973  36.178  1.00  0.00     0.200 A 
ATOM     91  F   UNL A   1      48.334  28.760  35.278  1.00  0.00    -0.200 F 
ATOM     92  F   UNL A   1      48.114  26.628  36.963  1.00  0.00    -0.200 F 
ENDBRANCH  59  82
ENDBRANCH  33  34
ENDBRANCH  26  28
ENDBRANCH  25  26
ENDBRANCH  24  25
ENDBRANCH  23  24
ENDBRANCH   1  23
TORSDOF 17
ENDMDL
