MODEL 1
REMARK VINA RESULT:     -13.3      0.000      0.000
REMARK SMILES COc1cccc(-c2c(C(=O)OCCOC(=O)c3ccc(-c4c5nc(c(-c6c(F)c(F)c(F)c(F)c6F)c6ccc([nH]6)c(-c6c(F)c(F)c(F)c(F)c6F)c6nc(c(-c7c(F)c(F)c(F)c(F)c7F)c7ccc4[nH]7)C=C6)C=C5)cc3)nnn2-c2ccc(OC(F)(F)F)cc2)c1
REMARK SMILES IDX 13 1 12 2 10 3 11 4 9 5 8 6 83 7 81 8 82 9 7 10 3 11 4 12
REMARK SMILES IDX 95 13 5 14 6 15 2 16 1 17 84 18 85 19 94 20 86 21 93 22
REMARK SMILES IDX 87 23 88 24 89 25 90 26 91 27 92 28 14 29 15 30 16 31 17 32
REMARK SMILES IDX 18 33 19 34 80 35 20 36 79 37 21 38 22 39 23 40 73 41 24 42
REMARK SMILES IDX 78 43 72 44 74 45 25 46 77 47 71 48 70 49 26 51 58 52 38 53
REMARK SMILES IDX 57 54 39 55 42 56 56 57 75 58 40 59 41 60 55 62 76 63 43 64
REMARK SMILES IDX 27 65 28 66 36 67 29 68 30 69 34 70 37 71 31 72 32 73 35 74
REMARK SMILES IDX 33 75 59 76 60 77 68 78 61 79 62 80 66 81 69 82 63 83 64 84
REMARK SMILES IDX 67 85 65 86 44 87 45 88 53 89 46 90 47 91 51 92 54 93 48 94
REMARK SMILES IDX 49 95 52 96 50 97
REMARK H PARENT 74 50 42 61
REMARK Flexibility Score: inf
ROOT
ATOM      1  C   UNL A   1      34.246  21.951  25.208  1.00  0.00     0.275 C 
ENDROOT
BRANCH   1   2
ATOM      2  O   UNL A   1      33.690  23.232  25.557  1.00  0.00    -0.457 OA
BRANCH   2   3
ATOM      3  C   UNL A   1      33.986  24.280  24.727  1.00  0.00     0.361 C 
ATOM      4  O   UNL A   1      35.137  24.629  24.456  1.00  0.00    -0.244 OA
BRANCH   3   5
ATOM      5  C   UNL A   1      32.814  24.899  24.121  1.00  0.00     0.198 A 
ATOM      6  C   UNL A   1      32.165  26.082  24.454  1.00  0.00     0.109 A 
ATOM      7  N   UNL A   1      31.161  26.170  23.498  1.00  0.00    -0.212 N 
ATOM      8  N   UNL A   1      32.115  24.276  23.108  1.00  0.00    -0.122 NA
ATOM      9  N   UNL A   1      31.052  25.010  22.816  1.00  0.00    -0.061 NA
BRANCH   6  10
ATOM     10  C   UNL A   1      32.378  27.062  25.519  1.00  0.00     0.007 A 
ATOM     11  C   UNL A   1      33.827  28.651  26.658  1.00  0.00     0.119 A 
ATOM     12  C   UNL A   1      32.860  28.795  27.652  1.00  0.00     0.046 A 
ATOM     13  C   UNL A   1      33.577  27.799  25.583  1.00  0.00     0.056 A 
ATOM     14  C   UNL A   1      31.649  28.108  27.573  1.00  0.00     0.005 A 
ATOM     15  C   UNL A   1      31.411  27.236  26.515  1.00  0.00     0.011 A 
BRANCH  11  16
ATOM     16  O   UNL A   1      34.991  29.329  26.891  1.00  0.00    -0.497 OA
ATOM     17  C   UNL A   1      34.913  30.515  27.671  1.00  0.00     0.278 C 
ENDBRANCH  11  16
ENDBRANCH   6  10
BRANCH   7  18
ATOM     18  C   UNL A   1      30.392  27.299  23.135  1.00  0.00     0.067 A 
ATOM     19  C   UNL A   1      29.038  27.360  23.461  1.00  0.00     0.032 A 
ATOM     20  C   UNL A   1      31.002  28.358  22.451  1.00  0.00     0.032 A 
ATOM     21  C   UNL A   1      28.318  28.520  23.159  1.00  0.00     0.049 A 
ATOM     22  C   UNL A   1      30.261  29.491  22.110  1.00  0.00     0.049 A 
ATOM     23  C   UNL A   1      28.921  29.592  22.486  1.00  0.00     0.129 A 
BRANCH  23  24
ATOM     24  O   UNL A   1      28.101  30.661  22.264  1.00  0.00    -0.406 OA
BRANCH  24  25
ATOM     25  C   UNL A   1      28.067  31.681  23.249  1.00  0.00     0.573 C 
ATOM     26  F   UNL A   1      26.883  31.702  23.900  1.00  0.00    -0.132 F 
ATOM     27  F   UNL A   1      29.069  31.525  24.142  1.00  0.00    -0.132 F 
ATOM     28  F   UNL A   1      28.229  32.878  22.642  1.00  0.00    -0.132 F 
ENDBRANCH  24  25
ENDBRANCH  23  24
ENDBRANCH   7  18
ENDBRANCH   3   5
ENDBRANCH   2   3
ENDBRANCH   1   2
BRANCH   1  29
ATOM     29  C   UNL A   1      35.217  21.460  26.269  1.00  0.00     0.275 C 
BRANCH  29  30
ATOM     30  O   UNL A   1      36.454  22.153  26.144  1.00  0.00    -0.458 OA
BRANCH  30  31
ATOM     31  C   UNL A   1      37.461  21.415  25.609  1.00  0.00     0.338 C 
ATOM     32  O   UNL A   1      37.437  20.262  25.251  1.00  0.00    -0.246 OA
BRANCH  31  33
ATOM     33  C   UNL A   1      38.699  22.141  25.833  1.00  0.00     0.060 A 
ATOM     34  C   UNL A   1      39.800  21.494  26.394  1.00  0.00     0.016 A 
ATOM     35  C   UNL A   1      38.606  23.519  25.803  1.00  0.00     0.016 A 
ATOM     36  C   UNL A   1      40.595  22.232  27.264  1.00  0.00     0.010 A 
ATOM     37  C   UNL A   1      39.579  24.209  26.443  1.00  0.00     0.010 A 
ATOM     38  C   UNL A   1      40.319  23.594  27.439  1.00  0.00    -0.014 A 
BRANCH  38  39
ATOM     39  C   UNL A   1      41.119  24.510  28.255  1.00  0.00     0.031 A 
ATOM     40  C   UNL A   1      40.338  25.793  28.357  1.00  0.00     0.074 A 
ATOM     41  C   UNL A   1      42.285  24.160  28.889  1.00  0.00     0.049 A 
ATOM     42  N   UNL A   1      40.539  26.843  27.627  1.00  0.00    -0.248 NA
ATOM     43  C   UNL A   1      39.007  25.838  29.018  1.00  0.00     0.031 C 
ATOM     44  C   UNL A   1      43.049  22.889  28.903  1.00  0.00     0.029 A 
ATOM     45  N   UNL A   1      43.095  24.937  29.704  1.00  0.00    -0.354 N 
ATOM     46  C   UNL A   1      39.562  27.761  28.009  1.00  0.00     0.074 A 
ATOM     47  C   UNL A   1      38.507  26.997  28.584  1.00  0.00     0.031 C 
ATOM     48  C   UNL A   1      44.008  22.905  29.874  1.00  0.00     0.029 A 
ATOM     49  C   UNL A   1      44.050  24.220  30.482  1.00  0.00     0.049 A 
ATOM     50  H   UNL A   1      43.016  25.918  29.742  1.00  0.00     0.167 HD
ATOM     51  C   UNL A   1      39.916  29.061  28.213  1.00  0.00     0.037 A 
ATOM     52  C   UNL A   1      44.874  24.730  31.462  1.00  0.00     0.037 A 
ATOM     53  C   UNL A   1      41.187  29.298  27.573  1.00  0.00     0.049 A 
ATOM     54  C   UNL A   1      44.929  26.197  31.219  1.00  0.00     0.074 A 
ATOM     55  C   UNL A   1      41.641  29.293  26.273  1.00  0.00     0.029 A 
ATOM     56  N   UNL A   1      42.267  29.039  28.376  1.00  0.00    -0.354 N 
ATOM     57  N   UNL A   1      45.464  26.688  30.132  1.00  0.00    -0.248 NA
ATOM     58  C   UNL A   1      43.848  26.967  31.822  1.00  0.00     0.031 C 
ATOM     59  C   UNL A   1      42.919  28.658  26.325  1.00  0.00     0.029 A 
ATOM     60  C   UNL A   1      43.271  28.457  27.659  1.00  0.00     0.049 A 
ATOM     61  H   UNL A   1      42.312  29.244  29.337  1.00  0.00     0.167 HD
ATOM     62  C   UNL A   1      44.489  27.542  29.639  1.00  0.00     0.074 A 
ATOM     63  C   UNL A   1      43.508  27.665  30.731  1.00  0.00     0.031 C 
ATOM     64  C   UNL A   1      44.376  27.779  28.296  1.00  0.00     0.037 A 
BRANCH  51  65
ATOM     65  C   UNL A   1      39.461  29.909  29.393  1.00  0.00     0.064 A 
ATOM     66  C   UNL A   1      39.759  29.448  30.692  1.00  0.00     0.173 A 
ATOM     67  C   UNL A   1      38.504  30.950  29.336  1.00  0.00     0.173 A 
ATOM     68  F   UNL A   1      40.644  28.455  30.874  1.00  0.00    -0.203 F 
ATOM     69  C   UNL A   1      39.095  29.928  31.826  1.00  0.00     0.198 A 
ATOM     70  C   UNL A   1      37.877  31.459  30.475  1.00  0.00     0.198 A 
ATOM     71  F   UNL A   1      38.052  31.455  28.185  1.00  0.00    -0.203 F 
ATOM     72  F   UNL A   1      39.331  29.369  33.020  1.00  0.00    -0.200 F 
ATOM     73  C   UNL A   1      38.150  30.929  31.716  1.00  0.00     0.200 A 
ATOM     74  F   UNL A   1      36.946  32.415  30.343  1.00  0.00    -0.200 F 
ATOM     75  F   UNL A   1      37.477  31.355  32.792  1.00  0.00    -0.200 F 
ENDBRANCH  51  65
BRANCH  52  76
ATOM     76  C   UNL A   1      45.256  24.160  32.804  1.00  0.00     0.064 A 
ATOM     77  C   UNL A   1      44.549  23.140  33.489  1.00  0.00     0.173 A 
ATOM     78  C   UNL A   1      46.543  24.427  33.303  1.00  0.00     0.173 A 
ATOM     79  F   UNL A   1      43.347  22.732  33.053  1.00  0.00    -0.203 F 
ATOM     80  C   UNL A   1      45.091  22.470  34.610  1.00  0.00     0.198 A 
ATOM     81  C   UNL A   1      47.086  23.754  34.405  1.00  0.00     0.198 A 
ATOM     82  F   UNL A   1      47.343  25.286  32.660  1.00  0.00    -0.203 F 
ATOM     83  F   UNL A   1      44.403  21.493  35.223  1.00  0.00    -0.200 F 
ATOM     84  C   UNL A   1      46.363  22.778  35.061  1.00  0.00     0.200 A 
ATOM     85  F   UNL A   1      48.343  24.022  34.787  1.00  0.00    -0.200 F 
ATOM     86  F   UNL A   1      46.906  22.114  36.095  1.00  0.00    -0.200 F 
ENDBRANCH  52  76
BRANCH  64  87
ATOM     87  C   UNL A   1      45.447  27.249  27.378  1.00  0.00     0.064 A 
ATOM     88  C   UNL A   1      45.357  26.073  26.608  1.00  0.00     0.173 A 
ATOM     89  C   UNL A   1      46.542  28.084  27.138  1.00  0.00     0.173 A 
ATOM     90  F   UNL A   1      44.284  25.279  26.687  1.00  0.00    -0.203 F 
ATOM     91  C   UNL A   1      46.347  25.735  25.679  1.00  0.00     0.198 A 
ATOM     92  C   UNL A   1      47.505  27.766  26.187  1.00  0.00     0.198 A 
ATOM     93  F   UNL A   1      46.636  29.255  27.784  1.00  0.00    -0.203 F 
ATOM     94  F   UNL A   1      46.240  24.610  24.955  1.00  0.00    -0.200 F 
ATOM     95  C   UNL A   1      47.418  26.585  25.468  1.00  0.00     0.200 A 
ATOM     96  F   UNL A   1      48.496  28.632  25.937  1.00  0.00    -0.200 F 
ATOM     97  F   UNL A   1      48.351  26.286  24.555  1.00  0.00    -0.200 F 
ENDBRANCH  64  87
ENDBRANCH  38  39
ENDBRANCH  31  33
ENDBRANCH  30  31
ENDBRANCH  29  30
ENDBRANCH   1  29
TORSDOF 16
ENDMDL
MODEL 2
REMARK VINA RESULT:     -13.0      2.817      7.442
REMARK SMILES COc1cccc(-c2c(C(=O)OCCOC(=O)c3ccc(-c4c5nc(c(-c6c(F)c(F)c(F)c(F)c6F)c6ccc([nH]6)c(-c6c(F)c(F)c(F)c(F)c6F)c6nc(c(-c7c(F)c(F)c(F)c(F)c7F)c7ccc4[nH]7)C=C6)C=C5)cc3)nnn2-c2ccc(OC(F)(F)F)cc2)c1
REMARK SMILES IDX 13 1 12 2 10 3 11 4 9 5 8 6 83 7 81 8 82 9 7 10 3 11 4 12
REMARK SMILES IDX 95 13 5 14 6 15 2 16 1 17 84 18 85 19 94 20 86 21 93 22
REMARK SMILES IDX 87 23 88 24 89 25 90 26 91 27 92 28 14 29 15 30 16 31 17 32
REMARK SMILES IDX 18 33 19 34 80 35 20 36 79 37 21 38 22 39 23 40 73 41 24 42
REMARK SMILES IDX 78 43 72 44 74 45 25 46 77 47 71 48 70 49 26 51 58 52 38 53
REMARK SMILES IDX 57 54 39 55 42 56 56 57 75 58 40 59 41 60 55 62 76 63 43 64
REMARK SMILES IDX 27 65 28 66 36 67 29 68 30 69 34 70 37 71 31 72 32 73 35 74
REMARK SMILES IDX 33 75 59 76 60 77 68 78 61 79 62 80 66 81 69 82 63 83 64 84
REMARK SMILES IDX 67 85 65 86 44 87 45 88 53 89 46 90 47 91 51 92 54 93 48 94
REMARK SMILES IDX 49 95 52 96 50 97
REMARK H PARENT 74 50 42 61
REMARK Flexibility Score: inf
ROOT
ATOM      1  C   UNL A   1      35.975  22.843  25.252  1.00  0.00     0.275 C 
ENDROOT
BRANCH   1   2
ATOM      2  O   UNL A   1      34.997  23.799  24.802  1.00  0.00    -0.457 OA
BRANCH   2   3
ATOM      3  C   UNL A   1      33.875  23.943  25.573  1.00  0.00     0.361 C 
ATOM      4  O   UNL A   1      33.838  23.675  26.776  1.00  0.00    -0.244 OA
BRANCH   3   5
ATOM      5  C   UNL A   1      32.745  24.526  24.863  1.00  0.00     0.198 A 
ATOM      6  C   UNL A   1      32.169  25.784  24.994  1.00  0.00     0.109 A 
ATOM      7  N   UNL A   1      31.172  25.777  24.025  1.00  0.00    -0.212 N 
ATOM      8  N   UNL A   1      32.010  23.791  23.954  1.00  0.00    -0.122 NA
ATOM      9  N   UNL A   1      30.994  24.531  23.537  1.00  0.00    -0.061 NA
BRANCH   6  10
ATOM     10  C   UNL A   1      32.439  26.907  25.891  1.00  0.00     0.007 A 
ATOM     11  C   UNL A   1      33.992  28.541  26.809  1.00  0.00     0.119 A 
ATOM     12  C   UNL A   1      33.016  28.928  27.727  1.00  0.00     0.046 A 
ATOM     13  C   UNL A   1      33.696  27.544  25.880  1.00  0.00     0.056 A 
ATOM     14  C   UNL A   1      31.752  28.339  27.715  1.00  0.00     0.005 A 
ATOM     15  C   UNL A   1      31.466  27.325  26.805  1.00  0.00     0.011 A 
BRANCH  11  16
ATOM     16  O   UNL A   1      35.205  29.151  26.973  1.00  0.00    -0.497 OA
ATOM     17  C   UNL A   1      35.419  29.865  28.183  1.00  0.00     0.278 C 
ENDBRANCH  11  16
ENDBRANCH   6  10
BRANCH   7  18
ATOM     18  C   UNL A   1      30.475  26.878  23.478  1.00  0.00     0.067 A 
ATOM     19  C   UNL A   1      29.099  26.999  23.666  1.00  0.00     0.032 A 
ATOM     20  C   UNL A   1      31.176  27.846  22.750  1.00  0.00     0.032 A 
ATOM     21  C   UNL A   1      28.444  28.135  23.180  1.00  0.00     0.049 A 
ATOM     22  C   UNL A   1      30.504  28.953  22.226  1.00  0.00     0.049 A 
ATOM     23  C   UNL A   1      29.139  29.119  22.461  1.00  0.00     0.129 A 
BRANCH  23  24
ATOM     24  O   UNL A   1      28.374  30.176  22.054  1.00  0.00    -0.406 OA
BRANCH  24  25
ATOM     25  C   UNL A   1      28.465  31.379  22.799  1.00  0.00     0.573 C 
ATOM     26  F   UNL A   1      29.121  31.192  23.965  1.00  0.00    -0.132 F 
ATOM     27  F   UNL A   1      29.083  32.345  22.085  1.00  0.00    -0.132 F 
ATOM     28  F   UNL A   1      27.215  31.806  23.088  1.00  0.00    -0.132 F 
ENDBRANCH  24  25
ENDBRANCH  23  24
ENDBRANCH   7  18
ENDBRANCH   3   5
ENDBRANCH   2   3
ENDBRANCH   1   2
BRANCH   1  29
ATOM     29  C   UNL A   1      37.387  23.387  25.112  1.00  0.00     0.275 C 
BRANCH  29  30
ATOM     30  O   UNL A   1      37.977  23.525  26.400  1.00  0.00    -0.458 OA
BRANCH  30  31
ATOM     31  C   UNL A   1      39.224  22.997  26.507  1.00  0.00     0.338 C 
ATOM     32  O   UNL A   1      39.542  21.835  26.590  1.00  0.00    -0.246 OA
BRANCH  31  33
ATOM     33  C   UNL A   1      40.129  24.084  26.840  1.00  0.00     0.060 A 
ATOM     34  C   UNL A   1      40.922  24.010  27.985  1.00  0.00     0.016 A 
ATOM     35  C   UNL A   1      39.897  25.284  26.195  1.00  0.00     0.016 A 
ATOM     36  C   UNL A   1      41.140  25.192  28.684  1.00  0.00     0.010 A 
ATOM     37  C   UNL A   1      40.383  26.398  26.791  1.00  0.00     0.010 A 
ATOM     38  C   UNL A   1      40.656  26.392  28.147  1.00  0.00    -0.014 A 
BRANCH  38  39
ATOM     39  C   UNL A   1      40.882  27.718  28.728  1.00  0.00     0.031 A 
ATOM     40  C   UNL A   1      42.147  28.251  28.107  1.00  0.00     0.074 A 
ATOM     41  C   UNL A   1      40.002  28.353  29.567  1.00  0.00     0.049 A 
ATOM     42  N   UNL A   1      43.318  28.207  28.658  1.00  0.00    -0.248 NA
ATOM     43  C   UNL A   1      42.242  28.509  26.646  1.00  0.00     0.031 C 
ATOM     44  C   UNL A   1      38.702  27.919  30.134  1.00  0.00     0.029 A 
ATOM     45  N   UNL A   1      40.107  29.612  30.141  1.00  0.00    -0.354 N 
ATOM     46  C   UNL A   1      44.196  28.748  27.720  1.00  0.00     0.074 A 
ATOM     47  C   UNL A   1      43.561  28.599  26.454  1.00  0.00     0.031 C 
ATOM     48  C   UNL A   1      38.045  28.967  30.710  1.00  0.00     0.029 A 
ATOM     49  C   UNL A   1      38.903  30.135  30.694  1.00  0.00     0.049 A 
ATOM     50  H   UNL A   1      40.956  30.109  30.165  1.00  0.00     0.167 HD
ATOM     51  C   UNL A   1      45.136  29.645  28.129  1.00  0.00     0.037 A 
ATOM     52  C   UNL A   1      38.701  31.403  31.196  1.00  0.00     0.037 A 
ATOM     53  C   UNL A   1      45.290  29.530  29.559  1.00  0.00     0.049 A 
ATOM     54  C   UNL A   1      40.058  31.938  31.494  1.00  0.00     0.074 A 
ATOM     55  C   UNL A   1      45.733  28.549  30.418  1.00  0.00     0.029 A 
ATOM     56  N   UNL A   1      44.436  30.330  30.273  1.00  0.00    -0.354 N 
ATOM     57  N   UNL A   1      40.816  31.400  32.413  1.00  0.00    -0.248 NA
ATOM     58  C   UNL A   1      40.740  32.565  30.369  1.00  0.00     0.031 C 
ATOM     59  C   UNL A   1      44.832  28.583  31.524  1.00  0.00     0.029 A 
ATOM     60  C   UNL A   1      43.986  29.682  31.387  1.00  0.00     0.049 A 
ATOM     61  H   UNL A   1      44.183  31.246  30.018  1.00  0.00     0.167 HD
ATOM     62  C   UNL A   1      42.020  31.177  31.762  1.00  0.00     0.074 A 
ATOM     63  C   UNL A   1      41.904  31.916  30.494  1.00  0.00     0.031 C 
ATOM     64  C   UNL A   1      42.838  30.144  32.131  1.00  0.00     0.037 A 
BRANCH  51  65
ATOM     65  C   UNL A   1      45.471  30.942  27.407  1.00  0.00     0.064 A 
ATOM     66  C   UNL A   1      46.821  31.185  27.078  1.00  0.00     0.173 A 
ATOM     67  C   UNL A   1      44.622  32.069  27.305  1.00  0.00     0.173 A 
ATOM     68  F   UNL A   1      47.726  30.197  27.147  1.00  0.00    -0.203 F 
ATOM     69  C   UNL A   1      47.294  32.462  26.757  1.00  0.00     0.198 A 
ATOM     70  C   UNL A   1      45.089  33.332  26.940  1.00  0.00     0.198 A 
ATOM     71  F   UNL A   1      43.330  32.035  27.647  1.00  0.00    -0.203 F 
ATOM     72  F   UNL A   1      48.606  32.658  26.573  1.00  0.00    -0.200 F 
ATOM     73  C   UNL A   1      46.428  33.536  26.695  1.00  0.00     0.200 A 
ATOM     74  F   UNL A   1      44.235  34.366  26.907  1.00  0.00    -0.200 F 
ATOM     75  F   UNL A   1      46.885  34.769  26.438  1.00  0.00    -0.200 F 
ENDBRANCH  51  65
BRANCH  52  76
ATOM     76  C   UNL A   1      37.527  32.335  31.041  1.00  0.00     0.064 A 
ATOM     77  C   UNL A   1      37.199  33.046  29.859  1.00  0.00     0.173 A 
ATOM     78  C   UNL A   1      36.511  32.299  32.013  1.00  0.00     0.173 A 
ATOM     79  F   UNL A   1      38.050  33.076  28.823  1.00  0.00    -0.203 F 
ATOM     80  C   UNL A   1      35.954  33.695  29.692  1.00  0.00     0.198 A 
ATOM     81  C   UNL A   1      35.272  32.930  31.841  1.00  0.00     0.198 A 
ATOM     82  F   UNL A   1      36.668  31.556  33.116  1.00  0.00    -0.203 F 
ATOM     83  F   UNL A   1      35.667  34.342  28.550  1.00  0.00    -0.200 F 
ATOM     84  C   UNL A   1      34.991  33.630  30.685  1.00  0.00     0.200 A 
ATOM     85  F   UNL A   1      34.332  32.803  32.788  1.00  0.00    -0.200 F 
ATOM     86  F   UNL A   1      33.789  34.203  30.516  1.00  0.00    -0.200 F 
ENDBRANCH  52  76
BRANCH  64  87
ATOM     87  C   UNL A   1      42.502  29.370  33.380  1.00  0.00     0.064 A 
ATOM     88  C   UNL A   1      41.812  28.143  33.423  1.00  0.00     0.173 A 
ATOM     89  C   UNL A   1      43.078  29.817  34.573  1.00  0.00     0.173 A 
ATOM     90  F   UNL A   1      41.335  27.583  32.306  1.00  0.00    -0.203 F 
ATOM     91  C   UNL A   1      41.670  27.430  34.617  1.00  0.00     0.198 A 
ATOM     92  C   UNL A   1      42.969  29.088  35.752  1.00  0.00     0.198 A 
ATOM     93  F   UNL A   1      43.815  30.938  34.573  1.00  0.00    -0.203 F 
ATOM     94  F   UNL A   1      41.008  26.262  34.635  1.00  0.00    -0.200 F 
ATOM     95  C   UNL A   1      42.252  27.904  35.780  1.00  0.00     0.200 A 
ATOM     96  F   UNL A   1      43.600  29.517  36.853  1.00  0.00    -0.200 F 
ATOM     97  F   UNL A   1      42.150  27.209  36.921  1.00  0.00    -0.200 F 
ENDBRANCH  64  87
ENDBRANCH  38  39
ENDBRANCH  31  33
ENDBRANCH  30  31
ENDBRANCH  29  30
ENDBRANCH   1  29
TORSDOF 16
ENDMDL
MODEL 3
REMARK VINA RESULT:     -13.0      0.510      1.736
REMARK SMILES COc1cccc(-c2c(C(=O)OCCOC(=O)c3ccc(-c4c5nc(c(-c6c(F)c(F)c(F)c(F)c6F)c6ccc([nH]6)c(-c6c(F)c(F)c(F)c(F)c6F)c6nc(c(-c7c(F)c(F)c(F)c(F)c7F)c7ccc4[nH]7)C=C6)C=C5)cc3)nnn2-c2ccc(OC(F)(F)F)cc2)c1
REMARK SMILES IDX 13 1 12 2 10 3 11 4 9 5 8 6 83 7 81 8 82 9 7 10 3 11 4 12
REMARK SMILES IDX 95 13 5 14 6 15 2 16 1 17 84 18 85 19 94 20 86 21 93 22
REMARK SMILES IDX 87 23 88 24 89 25 90 26 91 27 92 28 14 29 15 30 16 31 17 32
REMARK SMILES IDX 18 33 19 34 80 35 20 36 79 37 21 38 22 39 23 40 73 41 24 42
REMARK SMILES IDX 78 43 72 44 74 45 25 46 77 47 71 48 70 49 26 51 58 52 38 53
REMARK SMILES IDX 57 54 39 55 42 56 56 57 75 58 40 59 41 60 55 62 76 63 43 64
REMARK SMILES IDX 27 65 28 66 36 67 29 68 30 69 34 70 37 71 31 72 32 73 35 74
REMARK SMILES IDX 33 75 59 76 60 77 68 78 61 79 62 80 66 81 69 82 63 83 64 84
REMARK SMILES IDX 67 85 65 86 44 87 45 88 53 89 46 90 47 91 51 92 54 93 48 94
REMARK SMILES IDX 49 95 52 96 50 97
REMARK H PARENT 74 50 42 61
REMARK Flexibility Score: inf
ROOT
ATOM      1  C   UNL A   1      33.957  22.198  25.429  1.00  0.00     0.275 C 
ENDROOT
BRANCH   1   2
ATOM      2  O   UNL A   1      33.841  23.629  25.535  1.00  0.00    -0.457 OA
BRANCH   2   3
ATOM      3  C   UNL A   1      34.112  24.356  24.407  1.00  0.00     0.361 C 
ATOM      4  O   UNL A   1      35.223  24.398  23.875  1.00  0.00    -0.244 OA
BRANCH   3   5
ATOM      5  C   UNL A   1      32.943  25.014  23.838  1.00  0.00     0.198 A 
ATOM      6  C   UNL A   1      32.286  26.167  24.251  1.00  0.00     0.109 A 
ATOM      7  N   UNL A   1      31.290  26.322  23.295  1.00  0.00    -0.212 N 
ATOM      8  N   UNL A   1      32.257  24.466  22.774  1.00  0.00    -0.122 NA
ATOM      9  N   UNL A   1      31.193  25.215  22.527  1.00  0.00    -0.061 NA
BRANCH   6  10
ATOM     10  C   UNL A   1      32.484  27.065  25.389  1.00  0.00     0.007 A 
ATOM     11  C   UNL A   1      33.906  28.593  26.641  1.00  0.00     0.119 A 
ATOM     12  C   UNL A   1      32.941  28.637  27.648  1.00  0.00     0.046 A 
ATOM     13  C   UNL A   1      33.667  27.821  25.504  1.00  0.00     0.056 A 
ATOM     14  C   UNL A   1      31.745  27.932  27.522  1.00  0.00     0.005 A 
ATOM     15  C   UNL A   1      31.520  27.140  26.399  1.00  0.00     0.011 A 
BRANCH  11  16
ATOM     16  O   UNL A   1      35.056  29.276  26.921  1.00  0.00    -0.497 OA
ATOM     17  C   UNL A   1      34.928  30.540  27.559  1.00  0.00     0.278 C 
ENDBRANCH  11  16
ENDBRANCH   6  10
BRANCH   7  18
ATOM     18  C   UNL A   1      30.520  27.472  23.010  1.00  0.00     0.067 A 
ATOM     19  C   UNL A   1      31.093  28.550  22.336  1.00  0.00     0.032 A 
ATOM     20  C   UNL A   1      29.177  27.520  23.406  1.00  0.00     0.032 A 
ATOM     21  C   UNL A   1      30.290  29.644  21.998  1.00  0.00     0.049 A 
ATOM     22  C   UNL A   1      28.398  28.639  23.107  1.00  0.00     0.049 A 
ATOM     23  C   UNL A   1      28.941  29.697  22.378  1.00  0.00     0.129 A 
BRANCH  23  24
ATOM     24  O   UNL A   1      28.278  30.821  21.974  1.00  0.00    -0.406 OA
BRANCH  24  25
ATOM     25  C   UNL A   1      28.149  31.881  22.908  1.00  0.00     0.573 C 
ATOM     26  F   UNL A   1      29.160  31.876  23.805  1.00  0.00    -0.132 F 
ATOM     27  F   UNL A   1      28.111  33.076  22.281  1.00  0.00    -0.132 F 
ATOM     28  F   UNL A   1      26.990  31.725  23.586  1.00  0.00    -0.132 F 
ENDBRANCH  24  25
ENDBRANCH  23  24
ENDBRANCH   7  18
ENDBRANCH   3   5
ENDBRANCH   2   3
ENDBRANCH   1   2
BRANCH   1  29
ATOM     29  C   UNL A   1      35.021  21.656  26.369  1.00  0.00     0.275 C 
BRANCH  29  30
ATOM     30  O   UNL A   1      36.254  22.325  26.133  1.00  0.00    -0.458 OA
BRANCH  30  31
ATOM     31  C   UNL A   1      37.236  21.534  25.628  1.00  0.00     0.338 C 
ATOM     32  O   UNL A   1      37.172  20.371  25.308  1.00  0.00    -0.246 OA
BRANCH  31  33
ATOM     33  C   UNL A   1      38.499  22.221  25.836  1.00  0.00     0.060 A 
ATOM     34  C   UNL A   1      39.581  21.544  26.399  1.00  0.00     0.016 A 
ATOM     35  C   UNL A   1      38.452  23.601  25.792  1.00  0.00     0.016 A 
ATOM     36  C   UNL A   1      40.406  22.265  27.255  1.00  0.00     0.010 A 
ATOM     37  C   UNL A   1      39.451  24.264  26.419  1.00  0.00     0.010 A 
ATOM     38  C   UNL A   1      40.176  23.637  27.416  1.00  0.00    -0.014 A 
BRANCH  38  39
ATOM     39  C   UNL A   1      41.012  24.535  28.217  1.00  0.00     0.031 A 
ATOM     40  C   UNL A   1      40.238  25.817  28.378  1.00  0.00     0.074 A 
ATOM     41  C   UNL A   1      42.201  24.170  28.796  1.00  0.00     0.049 A 
ATOM     42  N   UNL A   1      40.412  26.881  27.661  1.00  0.00    -0.248 NA
ATOM     43  C   UNL A   1      38.935  25.850  29.094  1.00  0.00     0.031 C 
ATOM     44  C   UNL A   1      42.962  22.898  28.753  1.00  0.00     0.029 A 
ATOM     45  N   UNL A   1      43.046  24.929  29.593  1.00  0.00    -0.354 N 
ATOM     46  C   UNL A   1      39.454  27.793  28.102  1.00  0.00     0.074 A 
ATOM     47  C   UNL A   1      38.421  27.019  28.704  1.00  0.00     0.031 C 
ATOM     48  C   UNL A   1      43.960  22.893  29.684  1.00  0.00     0.029 A 
ATOM     49  C   UNL A   1      44.030  24.195  30.316  1.00  0.00     0.049 A 
ATOM     50  H   UNL A   1      42.971  25.909  29.653  1.00  0.00     0.167 HD
ATOM     51  C   UNL A   1      39.818  29.088  28.317  1.00  0.00     0.037 A 
ATOM     52  C   UNL A   1      44.895  24.683  31.272  1.00  0.00     0.037 A 
ATOM     53  C   UNL A   1      41.063  29.336  27.630  1.00  0.00     0.049 A 
ATOM     54  C   UNL A   1      44.943  26.155  31.057  1.00  0.00     0.074 A 
ATOM     55  C   UNL A   1      41.463  29.357  26.313  1.00  0.00     0.029 A 
ATOM     56  N   UNL A   1      42.174  29.059  28.383  1.00  0.00    -0.354 N 
ATOM     57  N   UNL A   1      45.435  26.668  29.959  1.00  0.00    -0.248 NA
ATOM     58  C   UNL A   1      43.891  26.915  31.718  1.00  0.00     0.031 C 
ATOM     59  C   UNL A   1      42.740  28.718  26.300  1.00  0.00     0.029 A 
ATOM     60  C   UNL A   1      43.147  28.489  27.613  1.00  0.00     0.049 A 
ATOM     61  H   UNL A   1      42.259  29.244  29.345  1.00  0.00     0.167 HD
ATOM     62  C   UNL A   1      44.443  27.533  29.523  1.00  0.00     0.074 A 
ATOM     63  C   UNL A   1      43.508  27.635  30.656  1.00  0.00     0.031 C 
ATOM     64  C   UNL A   1      44.275  27.797  28.191  1.00  0.00     0.037 A 
BRANCH  51  65
ATOM     65  C   UNL A   1      39.415  29.913  29.531  1.00  0.00     0.064 A 
ATOM     66  C   UNL A   1      38.631  31.065  29.316  1.00  0.00     0.173 A 
ATOM     67  C   UNL A   1      39.999  29.822  30.817  1.00  0.00     0.173 A 
ATOM     68  F   UNL A   1      38.035  31.270  28.132  1.00  0.00    -0.203 F 
ATOM     69  C   UNL A   1      38.512  32.077  30.275  1.00  0.00     0.198 A 
ATOM     70  C   UNL A   1      39.840  30.812  31.788  1.00  0.00     0.198 A 
ATOM     71  F   UNL A   1      40.828  28.834  31.167  1.00  0.00    -0.203 F 
ATOM     72  F   UNL A   1      37.856  33.205  29.972  1.00  0.00    -0.200 F 
ATOM     73  C   UNL A   1      39.122  31.953  31.507  1.00  0.00     0.200 A 
ATOM     74  F   UNL A   1      40.459  30.681  32.970  1.00  0.00    -0.200 F 
ATOM     75  F   UNL A   1      39.051  32.942  32.408  1.00  0.00    -0.200 F 
ENDBRANCH  51  65
BRANCH  52  76
ATOM     76  C   UNL A   1      45.330  24.086  32.585  1.00  0.00     0.064 A 
ATOM     77  C   UNL A   1      46.468  24.490  33.328  1.00  0.00     0.173 A 
ATOM     78  C   UNL A   1      44.420  23.277  33.287  1.00  0.00     0.173 A 
ATOM     79  F   UNL A   1      47.364  25.336  32.798  1.00  0.00    -0.203 F 
ATOM     80  C   UNL A   1      46.680  24.078  34.665  1.00  0.00     0.198 A 
ATOM     81  C   UNL A   1      44.623  22.880  34.615  1.00  0.00     0.198 A 
ATOM     82  F   UNL A   1      43.255  22.936  32.721  1.00  0.00    -0.203 F 
ATOM     83  F   UNL A   1      47.758  24.497  35.347  1.00  0.00    -0.200 F 
ATOM     84  C   UNL A   1      45.751  23.276  35.305  1.00  0.00     0.200 A 
ATOM     85  F   UNL A   1      43.681  22.156  35.237  1.00  0.00    -0.200 F 
ATOM     86  F   UNL A   1      45.919  22.919  36.589  1.00  0.00    -0.200 F 
ENDBRANCH  52  76
BRANCH  64  87
ATOM     87  C   UNL A   1      45.306  27.284  27.220  1.00  0.00     0.064 A 
ATOM     88  C   UNL A   1      45.175  26.134  26.417  1.00  0.00     0.173 A 
ATOM     89  C   UNL A   1      46.403  28.113  26.967  1.00  0.00     0.173 A 
ATOM     90  F   UNL A   1      44.095  25.350  26.508  1.00  0.00    -0.203 F 
ATOM     91  C   UNL A   1      46.126  25.814  25.443  1.00  0.00     0.198 A 
ATOM     92  C   UNL A   1      47.328  27.815  25.972  1.00  0.00     0.198 A 
ATOM     93  F   UNL A   1      46.535  29.262  27.646  1.00  0.00    -0.203 F 
ATOM     94  F   UNL A   1      45.980  24.714  24.688  1.00  0.00    -0.200 F 
ATOM     95  C   UNL A   1      47.201  26.659  25.221  1.00  0.00     0.200 A 
ATOM     96  F   UNL A   1      48.320  28.676  25.715  1.00  0.00    -0.200 F 
ATOM     97  F   UNL A   1      48.097  26.378  24.265  1.00  0.00    -0.200 F 
ENDBRANCH  64  87
ENDBRANCH  38  39
ENDBRANCH  31  33
ENDBRANCH  30  31
ENDBRANCH  29  30
ENDBRANCH   1  29
TORSDOF 16
ENDMDL
