MODEL 1
REMARK VINA RESULT:     -12.4      0.000      0.000
REMARK SMILES C[C@@]1(CNC(=O)N2CCC(CC(=O)OCCOC(=O)c3ccc(-c4c5nc(c(-c6c(F)c(F)c(F)c(F)c6F)c6ccc([nH]6)c(-c6c(F)c(F)c(F)c(F)c6F)c6nc(c(-c7c(F)c(F)c(F)c(F)c7F)c7ccc4[nH]7)C=C6)C=C5)cc3)CC2)CCCO1
REMARK SMILES IDX 15 1 14 2 12 3 13 4 11 5 10 6 4 7 5 8 6 10 7 11 8 12 84 13
REMARK SMILES IDX 9 14 83 15 3 16 2 17 1 18 85 19 88 20 86 21 87 22 16 23
REMARK SMILES IDX 17 24 18 25 19 26 20 27 21 28 82 29 22 30 81 31 23 32 24 33
REMARK SMILES IDX 25 34 75 35 26 36 80 37 74 38 76 39 27 40 79 41 73 42 72 43
REMARK SMILES IDX 28 45 60 46 40 47 59 48 41 49 44 50 58 51 77 52 42 53 43 54
REMARK SMILES IDX 57 56 78 57 45 58 29 59 30 60 38 61 31 62 32 63 36 64 39 65
REMARK SMILES IDX 33 66 34 67 37 68 35 69 61 70 62 71 70 72 63 73 64 74 68 75
REMARK SMILES IDX 71 76 65 77 66 78 69 79 67 80 46 81 47 82 55 83 48 84 49 85
REMARK SMILES IDX 53 86 56 87 50 88 51 89 54 90 52 91
REMARK H PARENT 4 9 76 44 44 55
REMARK Flexibility Score: inf
ROOT
ATOM      1  C   UNL A   1      31.402  28.869  24.676  1.00  0.00     0.274 C 
ENDROOT
BRANCH   1   2
ATOM      2  O   UNL A   1      32.077  27.754  25.286  1.00  0.00    -0.462 OA
BRANCH   2   3
ATOM      3  C   UNL A   1      31.328  26.922  26.047  1.00  0.00     0.306 C 
ATOM      4  O   UNL A   1      31.030  27.117  27.220  1.00  0.00    -0.252 OA
BRANCH   3   5
ATOM      5  C   UNL A   1      30.923  25.665  25.303  1.00  0.00     0.126 C 
BRANCH   5   6
ATOM      6  C   UNL A   1      32.070  24.694  24.974  1.00  0.00     0.003 C 
ATOM      7  N   UNL A   1      33.674  19.949  25.940  1.00  0.00    -0.335 N 
ATOM      8  C   UNL A   1      33.654  21.223  26.407  1.00  0.00     0.317 C 
ATOM      9  H   UNL A   1      33.365  19.254  26.564  1.00  0.00     0.165 HD
ATOM     10  O   UNL A   1      33.794  21.410  27.615  1.00  0.00    -0.249 OA
ATOM     11  N   UNL A   1      33.552  22.248  25.502  1.00  0.00    -0.325 N 
ATOM     12  C   UNL A   1      34.143  23.534  25.830  1.00  0.00     0.121 C 
ATOM     13  C   UNL A   1      32.594  22.262  24.400  1.00  0.00     0.121 C 
ATOM     14  C   UNL A   1      33.068  24.569  26.139  1.00  0.00     0.026 C 
ATOM     15  C   UNL A   1      31.498  23.303  24.634  1.00  0.00     0.026 C 
BRANCH   7  16
ATOM     16  C   UNL A   1      34.099  19.483  24.626  1.00  0.00     0.152 C 
BRANCH  16  17
ATOM     17  C   UNL A   1      33.194  18.363  24.043  1.00  0.00     0.083 C 
ATOM     18  C   UNL A   1      32.153  18.896  23.059  1.00  0.00     0.044 C 
ATOM     19  C   UNL A   1      32.527  17.572  25.171  1.00  0.00     0.039 C 
ATOM     20  O   UNL A   1      34.040  17.405  23.366  1.00  0.00    -0.373 OA
ATOM     21  C   UNL A   1      33.603  16.590  25.562  1.00  0.00     0.031 C 
ATOM     22  C   UNL A   1      34.246  16.274  24.228  1.00  0.00     0.161 C 
ENDBRANCH  16  17
ENDBRANCH   7  16
ENDBRANCH   5   6
ENDBRANCH   3   5
ENDBRANCH   2   3
ENDBRANCH   1   2
BRANCH   1  23
ATOM     23  C   UNL A   1      31.633  30.152  25.476  1.00  0.00     0.275 C 
BRANCH  23  24
ATOM     24  O   UNL A   1      32.936  30.149  26.086  1.00  0.00    -0.458 OA
BRANCH  24  25
ATOM     25  C   UNL A   1      33.203  31.184  26.916  1.00  0.00     0.338 C 
ATOM     26  O   UNL A   1      32.518  32.166  27.136  1.00  0.00    -0.246 OA
BRANCH  25  27
ATOM     27  C   UNL A   1      34.453  30.892  27.631  1.00  0.00     0.060 A 
ATOM     28  C   UNL A   1      35.327  31.942  27.917  1.00  0.00     0.016 A 
ATOM     29  C   UNL A   1      34.765  29.581  27.996  1.00  0.00     0.016 A 
ATOM     30  C   UNL A   1      36.517  31.690  28.598  1.00  0.00     0.010 A 
ATOM     31  C   UNL A   1      35.955  29.331  28.683  1.00  0.00     0.010 A 
ATOM     32  C   UNL A   1      36.832  30.383  28.995  1.00  0.00    -0.014 A 
BRANCH  32  33
ATOM     33  C   UNL A   1      38.070  30.106  29.762  1.00  0.00     0.031 A 
ATOM     34  C   UNL A   1      39.106  29.174  29.210  1.00  0.00     0.074 A 
ATOM     35  C   UNL A   1      38.235  30.664  30.975  1.00  0.00     0.049 A 
ATOM     36  N   UNL A   1      40.174  28.688  29.788  1.00  0.00    -0.248 NA
ATOM     37  C   UNL A   1      38.912  28.727  27.823  1.00  0.00     0.031 C 
ATOM     38  C   UNL A   1      37.313  31.613  31.597  1.00  0.00     0.029 A 
ATOM     39  N   UNL A   1      39.226  30.495  31.910  1.00  0.00    -0.354 N 
ATOM     40  C   UNL A   1      40.773  27.866  28.843  1.00  0.00     0.074 A 
ATOM     41  C   UNL A   1      39.942  27.908  27.658  1.00  0.00     0.031 C 
ATOM     42  C   UNL A   1      37.774  31.934  32.817  1.00  0.00     0.029 A 
ATOM     43  C   UNL A   1      38.991  31.171  33.081  1.00  0.00     0.049 A 
ATOM     44  H   UNL A   1      40.027  29.944  31.754  1.00  0.00     0.167 HD
ATOM     45  C   UNL A   1      41.915  27.147  28.961  1.00  0.00     0.037 A 
ATOM     46  C   UNL A   1      39.656  31.141  34.252  1.00  0.00     0.037 A 
ATOM     47  C   UNL A   1      42.737  27.117  30.142  1.00  0.00     0.049 A 
ATOM     48  C   UNL A   1      40.867  30.259  34.386  1.00  0.00     0.074 A 
ATOM     49  C   UNL A   1      43.934  26.452  30.346  1.00  0.00     0.029 A 
ATOM     50  N   UNL A   1      42.442  27.777  31.326  1.00  0.00    -0.354 N 
ATOM     51  N   UNL A   1      41.437  29.495  33.486  1.00  0.00    -0.248 NA
ATOM     52  C   UNL A   1      41.517  30.223  35.704  1.00  0.00     0.031 C 
ATOM     53  C   UNL A   1      44.336  26.667  31.668  1.00  0.00     0.029 A 
ATOM     54  C   UNL A   1      43.413  27.502  32.276  1.00  0.00     0.049 A 
ATOM     55  H   UNL A   1      41.658  28.355  31.470  1.00  0.00     0.167 HD
ATOM     56  C   UNL A   1      42.515  28.895  34.122  1.00  0.00     0.074 A 
ATOM     57  C   UNL A   1      42.532  29.400  35.480  1.00  0.00     0.031 C 
ATOM     58  C   UNL A   1      43.406  28.003  33.627  1.00  0.00     0.037 A 
BRANCH  45  59
ATOM     59  C   UNL A   1      42.331  26.307  27.790  1.00  0.00     0.064 A 
ATOM     60  C   UNL A   1      43.294  26.748  26.871  1.00  0.00     0.173 A 
ATOM     61  C   UNL A   1      41.789  25.025  27.610  1.00  0.00     0.173 A 
ATOM     62  F   UNL A   1      43.832  27.971  26.991  1.00  0.00    -0.203 F 
ATOM     63  C   UNL A   1      43.685  25.943  25.803  1.00  0.00     0.198 A 
ATOM     64  C   UNL A   1      42.199  24.214  26.556  1.00  0.00     0.198 A 
ATOM     65  F   UNL A   1      40.867  24.555  28.464  1.00  0.00    -0.203 F 
ATOM     66  F   UNL A   1      44.579  26.399  24.914  1.00  0.00    -0.200 F 
ATOM     67  C   UNL A   1      43.143  24.675  25.651  1.00  0.00     0.200 A 
ATOM     68  F   UNL A   1      41.682  22.986  26.416  1.00  0.00    -0.200 F 
ATOM     69  F   UNL A   1      43.525  23.900  24.626  1.00  0.00    -0.200 F 
ENDBRANCH  45  59
BRANCH  46  70
ATOM     70  C   UNL A   1      39.160  31.938  35.403  1.00  0.00     0.064 A 
ATOM     71  C   UNL A   1      38.338  31.361  36.378  1.00  0.00     0.173 A 
ATOM     72  C   UNL A   1      39.499  33.292  35.551  1.00  0.00     0.173 A 
ATOM     73  F   UNL A   1      37.963  30.078  36.264  1.00  0.00    -0.203 F 
ATOM     74  C   UNL A   1      37.865  32.110  37.455  1.00  0.00     0.198 A 
ATOM     75  C   UNL A   1      39.050  34.032  36.642  1.00  0.00     0.198 A 
ATOM     76  F   UNL A   1      40.280  33.892  34.640  1.00  0.00    -0.203 F 
ATOM     77  F   UNL A   1      37.049  31.544  38.354  1.00  0.00    -0.200 F 
ATOM     78  C   UNL A   1      38.228  33.441  37.590  1.00  0.00     0.200 A 
ATOM     79  F   UNL A   1      39.410  35.316  36.773  1.00  0.00    -0.200 F 
ATOM     80  F   UNL A   1      37.779  34.159  38.629  1.00  0.00    -0.200 F 
ENDBRANCH  46  70
BRANCH  58  81
ATOM     81  C   UNL A   1      44.476  27.516  34.558  1.00  0.00     0.064 A 
ATOM     82  C   UNL A   1      45.676  28.224  34.723  1.00  0.00     0.173 A 
ATOM     83  C   UNL A   1      44.284  26.358  35.327  1.00  0.00     0.173 A 
ATOM     84  F   UNL A   1      45.914  29.326  33.996  1.00  0.00    -0.203 F 
ATOM     85  C   UNL A   1      46.651  27.782  35.613  1.00  0.00     0.198 A 
ATOM     86  C   UNL A   1      45.250  25.933  36.234  1.00  0.00     0.198 A 
ATOM     87  F   UNL A   1      43.151  25.649  35.208  1.00  0.00    -0.203 F 
ATOM     88  F   UNL A   1      47.805  28.452  35.727  1.00  0.00    -0.200 F 
ATOM     89  C   UNL A   1      46.433  26.641  36.373  1.00  0.00     0.200 A 
ATOM     90  F   UNL A   1      45.033  24.838  36.975  1.00  0.00    -0.200 F 
ATOM     91  F   UNL A   1      47.369  26.222  37.236  1.00  0.00    -0.200 F 
ENDBRANCH  58  81
ENDBRANCH  32  33
ENDBRANCH  25  27
ENDBRANCH  24  25
ENDBRANCH  23  24
ENDBRANCH   1  23
TORSDOF 14
ENDMDL
MODEL 2
REMARK VINA RESULT:     -12.4      0.703      2.145
REMARK SMILES C[C@@]1(CNC(=O)N2CCC(CC(=O)OCCOC(=O)c3ccc(-c4c5nc(c(-c6c(F)c(F)c(F)c(F)c6F)c6ccc([nH]6)c(-c6c(F)c(F)c(F)c(F)c6F)c6nc(c(-c7c(F)c(F)c(F)c(F)c7F)c7ccc4[nH]7)C=C6)C=C5)cc3)CC2)CCCO1
REMARK SMILES IDX 15 1 14 2 12 3 13 4 11 5 10 6 4 7 5 8 6 10 7 11 8 12 84 13
REMARK SMILES IDX 9 14 83 15 3 16 2 17 1 18 85 19 88 20 86 21 87 22 16 23
REMARK SMILES IDX 17 24 18 25 19 26 20 27 21 28 82 29 22 30 81 31 23 32 24 33
REMARK SMILES IDX 25 34 75 35 26 36 80 37 74 38 76 39 27 40 79 41 73 42 72 43
REMARK SMILES IDX 28 45 60 46 40 47 59 48 41 49 44 50 58 51 77 52 42 53 43 54
REMARK SMILES IDX 57 56 78 57 45 58 29 59 30 60 38 61 31 62 32 63 36 64 39 65
REMARK SMILES IDX 33 66 34 67 37 68 35 69 61 70 62 71 70 72 63 73 64 74 68 75
REMARK SMILES IDX 71 76 65 77 66 78 69 79 67 80 46 81 47 82 55 83 48 84 49 85
REMARK SMILES IDX 53 86 56 87 50 88 51 89 54 90 52 91
REMARK H PARENT 4 9 76 44 44 55
REMARK Flexibility Score: inf
ROOT
ATOM      1  C   UNL A   1      31.738  28.951  24.344  1.00  0.00     0.274 C 
ENDROOT
BRANCH   1   2
ATOM      2  O   UNL A   1      33.062  28.635  23.874  1.00  0.00    -0.462 OA
BRANCH   2   3
ATOM      3  C   UNL A   1      33.263  27.384  23.397  1.00  0.00     0.306 C 
ATOM      4  O   UNL A   1      33.617  27.115  22.254  1.00  0.00    -0.252 OA
BRANCH   3   5
ATOM      5  C   UNL A   1      32.953  26.315  24.425  1.00  0.00     0.126 C 
BRANCH   5   6
ATOM      6  C   UNL A   1      33.807  25.040  24.331  1.00  0.00     0.003 C 
ATOM      7  N   UNL A   1      33.867  20.164  25.831  1.00  0.00    -0.335 N 
ATOM      8  C   UNL A   1      34.153  21.438  26.205  1.00  0.00     0.317 C 
ATOM      9  H   UNL A   1      33.300  19.649  26.448  1.00  0.00     0.165 HD
ATOM     10  O   UNL A   1      34.194  21.704  27.405  1.00  0.00    -0.249 OA
ATOM     11  N   UNL A   1      34.457  22.351  25.229  1.00  0.00    -0.325 N 
ATOM     12  C   UNL A   1      35.345  23.455  25.554  1.00  0.00     0.121 C 
ATOM     13  C   UNL A   1      33.684  22.510  24.001  1.00  0.00     0.121 C 
ATOM     14  C   UNL A   1      34.580  24.769  25.634  1.00  0.00     0.026 C 
ATOM     15  C   UNL A   1      32.909  23.829  24.004  1.00  0.00     0.026 C 
BRANCH   7  16
ATOM     16  C   UNL A   1      34.298  19.467  24.626  1.00  0.00     0.152 C 
BRANCH  16  17
ATOM     17  C   UNL A   1      33.217  18.518  24.039  1.00  0.00     0.083 C 
ATOM     18  C   UNL A   1      32.192  19.253  23.176  1.00  0.00     0.044 C 
ATOM     19  C   UNL A   1      32.529  17.732  25.159  1.00  0.00     0.039 C 
ATOM     20  O   UNL A   1      33.883  17.516  23.236  1.00  0.00    -0.373 OA
ATOM     21  C   UNL A   1      33.489  16.596  25.399  1.00  0.00     0.031 C 
ATOM     22  C   UNL A   1      33.995  16.305  24.001  1.00  0.00     0.161 C 
ENDBRANCH  16  17
ENDBRANCH   7  16
ENDBRANCH   5   6
ENDBRANCH   3   5
ENDBRANCH   2   3
ENDBRANCH   1   2
BRANCH   1  23
ATOM     23  C   UNL A   1      31.789  30.008  25.447  1.00  0.00     0.275 C 
BRANCH  23  24
ATOM     24  O   UNL A   1      33.126  30.153  25.959  1.00  0.00    -0.458 OA
BRANCH  24  25
ATOM     25  C   UNL A   1      33.299  31.112  26.897  1.00  0.00     0.338 C 
ATOM     26  O   UNL A   1      32.546  32.023  27.189  1.00  0.00    -0.246 OA
BRANCH  25  27
ATOM     27  C   UNL A   1      34.543  30.826  27.626  1.00  0.00     0.060 A 
ATOM     28  C   UNL A   1      35.438  31.870  27.869  1.00  0.00     0.016 A 
ATOM     29  C   UNL A   1      34.830  29.525  28.044  1.00  0.00     0.016 A 
ATOM     30  C   UNL A   1      36.622  31.623  28.562  1.00  0.00     0.010 A 
ATOM     31  C   UNL A   1      36.014  29.281  28.742  1.00  0.00     0.010 A 
ATOM     32  C   UNL A   1      36.912  30.328  29.012  1.00  0.00    -0.014 A 
BRANCH  32  33
ATOM     33  C   UNL A   1      38.144  30.059  29.791  1.00  0.00     0.031 A 
ATOM     34  C   UNL A   1      39.185  29.123  29.256  1.00  0.00     0.074 A 
ATOM     35  C   UNL A   1      38.299  30.628  31.000  1.00  0.00     0.049 A 
ATOM     36  N   UNL A   1      40.249  28.643  29.846  1.00  0.00    -0.248 NA
ATOM     37  C   UNL A   1      39.002  28.662  27.871  1.00  0.00     0.031 C 
ATOM     38  C   UNL A   1      37.372  31.583  31.606  1.00  0.00     0.029 A 
ATOM     39  N   UNL A   1      39.283  30.470  31.944  1.00  0.00    -0.354 N 
ATOM     40  C   UNL A   1      40.856  27.812  28.914  1.00  0.00     0.074 A 
ATOM     41  C   UNL A   1      40.034  27.843  27.722  1.00  0.00     0.031 C 
ATOM     42  C   UNL A   1      37.823  31.916  32.826  1.00  0.00     0.029 A 
ATOM     43  C   UNL A   1      39.038  31.156  33.107  1.00  0.00     0.049 A 
ATOM     44  H   UNL A   1      40.086  29.918  31.800  1.00  0.00     0.167 HD
ATOM     45  C   UNL A   1      41.998  27.096  29.047  1.00  0.00     0.037 A 
ATOM     46  C   UNL A   1      39.694  31.138  34.283  1.00  0.00     0.037 A 
ATOM     47  C   UNL A   1      42.810  27.078  30.235  1.00  0.00     0.049 A 
ATOM     48  C   UNL A   1      40.905  30.258  34.435  1.00  0.00     0.074 A 
ATOM     49  C   UNL A   1      44.006  26.415  30.455  1.00  0.00     0.029 A 
ATOM     50  N   UNL A   1      42.505  27.748  31.411  1.00  0.00    -0.354 N 
ATOM     51  N   UNL A   1      41.482  29.486  33.547  1.00  0.00    -0.248 NA
ATOM     52  C   UNL A   1      41.544  30.234  35.758  1.00  0.00     0.031 C 
ATOM     53  C   UNL A   1      44.397  26.644  31.778  1.00  0.00     0.029 A 
ATOM     54  C   UNL A   1      43.469  27.483  32.371  1.00  0.00     0.049 A 
ATOM     55  H   UNL A   1      41.719  28.327  31.543  1.00  0.00     0.167 HD
ATOM     56  C   UNL A   1      42.555  28.892  34.197  1.00  0.00     0.074 A 
ATOM     57  C   UNL A   1      42.562  29.410  35.550  1.00  0.00     0.031 C 
ATOM     58  C   UNL A   1      43.451  27.996  33.717  1.00  0.00     0.037 A 
BRANCH  45  59
ATOM     59  C   UNL A   1      42.423  26.245  27.888  1.00  0.00     0.064 A 
ATOM     60  C   UNL A   1      41.879  24.971  27.670  1.00  0.00     0.173 A 
ATOM     61  C   UNL A   1      43.354  26.732  26.957  1.00  0.00     0.173 A 
ATOM     62  F   UNL A   1      40.995  24.456  28.537  1.00  0.00    -0.203 F 
ATOM     63  C   UNL A   1      42.269  24.207  26.572  1.00  0.00     0.198 A 
ATOM     64  C   UNL A   1      43.723  25.975  25.849  1.00  0.00     0.198 A 
ATOM     65  F   UNL A   1      43.900  27.947  27.119  1.00  0.00    -0.203 F 
ATOM     66  F   UNL A   1      41.766  22.975  26.403  1.00  0.00    -0.200 F 
ATOM     67  C   UNL A   1      43.184  24.711  25.660  1.00  0.00     0.200 A 
ATOM     68  F   UNL A   1      44.599  26.467  24.964  1.00  0.00    -0.200 F 
ATOM     69  F   UNL A   1      43.553  23.975  24.602  1.00  0.00    -0.200 F 
ENDBRANCH  45  59
BRANCH  46  70
ATOM     70  C   UNL A   1      39.189  31.944  35.423  1.00  0.00     0.064 A 
ATOM     71  C   UNL A   1      39.518  33.300  35.549  1.00  0.00     0.173 A 
ATOM     72  C   UNL A   1      38.368  31.377  36.410  1.00  0.00     0.173 A 
ATOM     73  F   UNL A   1      40.324  33.880  34.647  1.00  0.00    -0.203 F 
ATOM     74  C   UNL A   1      39.051  34.056  36.623  1.00  0.00     0.198 A 
ATOM     75  C   UNL A   1      37.878  32.140  37.467  1.00  0.00     0.198 A 
ATOM     76  F   UNL A   1      38.029  30.081  36.337  1.00  0.00    -0.203 F 
ATOM     77  F   UNL A   1      39.411  35.341  36.741  1.00  0.00    -0.200 F 
ATOM     78  C   UNL A   1      38.226  33.478  37.576  1.00  0.00     0.200 A 
ATOM     79  F   UNL A   1      37.075  31.579  38.381  1.00  0.00    -0.200 F 
ATOM     80  F   UNL A   1      37.773  34.207  38.605  1.00  0.00    -0.200 F 
ENDBRANCH  46  70
BRANCH  58  81
ATOM     81  C   UNL A   1      44.514  27.519  34.661  1.00  0.00     0.064 A 
ATOM     82  C   UNL A   1      44.348  26.348  35.414  1.00  0.00     0.173 A 
ATOM     83  C   UNL A   1      45.729  28.213  34.780  1.00  0.00     0.173 A 
ATOM     84  F   UNL A   1      43.198  25.661  35.348  1.00  0.00    -0.203 F 
ATOM     85  C   UNL A   1      45.354  25.896  36.264  1.00  0.00     0.198 A 
ATOM     86  C   UNL A   1      46.741  27.744  35.612  1.00  0.00     0.198 A 
ATOM     87  F   UNL A   1      45.937  29.337  34.078  1.00  0.00    -0.203 F 
ATOM     88  F   UNL A   1      45.160  24.795  37.003  1.00  0.00    -0.200 F 
ATOM     89  C   UNL A   1      46.552  26.590  36.356  1.00  0.00     0.200 A 
ATOM     90  F   UNL A   1      47.902  28.409  35.691  1.00  0.00    -0.200 F 
ATOM     91  F   UNL A   1      47.522  26.148  37.168  1.00  0.00    -0.200 F 
ENDBRANCH  58  81
ENDBRANCH  32  33
ENDBRANCH  25  27
ENDBRANCH  24  25
ENDBRANCH  23  24
ENDBRANCH   1  23
TORSDOF 14
ENDMDL
MODEL 3
REMARK VINA RESULT:     -12.4      4.415     10.176
REMARK SMILES C[C@@]1(CNC(=O)N2CCC(CC(=O)OCCOC(=O)c3ccc(-c4c5nc(c(-c6c(F)c(F)c(F)c(F)c6F)c6ccc([nH]6)c(-c6c(F)c(F)c(F)c(F)c6F)c6nc(c(-c7c(F)c(F)c(F)c(F)c7F)c7ccc4[nH]7)C=C6)C=C5)cc3)CC2)CCCO1
REMARK SMILES IDX 15 1 14 2 12 3 13 4 11 5 10 6 4 7 5 8 6 10 7 11 8 12 84 13
REMARK SMILES IDX 9 14 83 15 3 16 2 17 1 18 85 19 88 20 86 21 87 22 16 23
REMARK SMILES IDX 17 24 18 25 19 26 20 27 21 28 82 29 22 30 81 31 23 32 24 33
REMARK SMILES IDX 25 34 75 35 26 36 80 37 74 38 76 39 27 40 79 41 73 42 72 43
REMARK SMILES IDX 28 45 60 46 40 47 59 48 41 49 44 50 58 51 77 52 42 53 43 54
REMARK SMILES IDX 57 56 78 57 45 58 29 59 30 60 38 61 31 62 32 63 36 64 39 65
REMARK SMILES IDX 33 66 34 67 37 68 35 69 61 70 62 71 70 72 63 73 64 74 68 75
REMARK SMILES IDX 71 76 65 77 66 78 69 79 67 80 46 81 47 82 55 83 48 84 49 85
REMARK SMILES IDX 53 86 56 87 50 88 51 89 54 90 52 91
REMARK H PARENT 4 9 76 44 44 55
REMARK Flexibility Score: inf
ROOT
ATOM      1  C   UNL A   1      35.427  20.721  25.437  1.00  0.00     0.274 C 
ENDROOT
BRANCH   1   2
ATOM      2  O   UNL A   1      34.627  19.847  24.619  1.00  0.00    -0.462 OA
BRANCH   2   3
ATOM      3  C   UNL A   1      33.282  19.985  24.702  1.00  0.00     0.306 C 
ATOM      4  O   UNL A   1      32.575  19.479  25.567  1.00  0.00    -0.252 OA
BRANCH   3   5
ATOM      5  C   UNL A   1      32.713  20.806  23.564  1.00  0.00     0.126 C 
BRANCH   5   6
ATOM      6  C   UNL A   1      32.670  22.325  23.802  1.00  0.00     0.003 C 
ATOM      7  N   UNL A   1      31.374  26.686  21.495  1.00  0.00    -0.335 N 
ATOM      8  C   UNL A   1      32.358  25.761  21.632  1.00  0.00     0.317 C 
ATOM      9  H   UNL A   1      31.107  26.899  20.572  1.00  0.00     0.165 HD
ATOM     10  O   UNL A   1      33.192  25.650  20.736  1.00  0.00    -0.249 OA
ATOM     11  N   UNL A   1      32.419  25.043  22.799  1.00  0.00    -0.325 N 
ATOM     12  C   UNL A   1      33.710  24.561  23.258  1.00  0.00     0.121 C 
ATOM     13  C   UNL A   1      31.258  24.420  23.427  1.00  0.00     0.121 C 
ATOM     14  C   UNL A   1      33.824  23.051  23.087  1.00  0.00     0.026 C 
ATOM     15  C   UNL A   1      31.323  22.895  23.315  1.00  0.00     0.026 C 
BRANCH   7  16
ATOM     16  C   UNL A   1      30.666  27.404  22.546  1.00  0.00     0.152 C 
BRANCH  16  17
ATOM     17  C   UNL A   1      31.096  28.890  22.681  1.00  0.00     0.083 C 
ATOM     18  C   UNL A   1      32.611  29.059  22.790  1.00  0.00     0.044 C 
ATOM     19  C   UNL A   1      30.385  29.548  23.868  1.00  0.00     0.039 C 
ATOM     20  O   UNL A   1      30.621  29.606  21.519  1.00  0.00    -0.373 OA
ATOM     21  C   UNL A   1      29.047  29.921  23.280  1.00  0.00     0.031 C 
ATOM     22  C   UNL A   1      29.418  30.312  21.865  1.00  0.00     0.161 C 
ENDBRANCH  16  17
ENDBRANCH   7  16
ENDBRANCH   5   6
ENDBRANCH   3   5
ENDBRANCH   2   3
ENDBRANCH   1   2
BRANCH   1  23
ATOM     23  C   UNL A   1      36.901  20.645  25.037  1.00  0.00     0.275 C 
BRANCH  23  24
ATOM     24  O   UNL A   1      37.658  21.693  25.669  1.00  0.00    -0.458 OA
BRANCH  24  25
ATOM     25  C   UNL A   1      38.901  21.355  26.085  1.00  0.00     0.338 C 
ATOM     26  O   UNL A   1      39.433  20.261  26.052  1.00  0.00    -0.246 OA
BRANCH  25  27
ATOM     27  C   UNL A   1      39.594  22.579  26.511  1.00  0.00     0.060 A 
ATOM     28  C   UNL A   1      40.701  22.468  27.355  1.00  0.00     0.016 A 
ATOM     29  C   UNL A   1      39.134  23.829  26.094  1.00  0.00     0.016 A 
ATOM     30  C   UNL A   1      41.377  23.615  27.769  1.00  0.00     0.010 A 
ATOM     31  C   UNL A   1      39.815  24.976  26.506  1.00  0.00     0.010 A 
ATOM     32  C   UNL A   1      40.944  24.876  27.338  1.00  0.00    -0.014 A 
BRANCH  32  33
ATOM     33  C   UNL A   1      41.679  26.101  27.730  1.00  0.00     0.031 A 
ATOM     34  C   UNL A   1      40.990  27.175  28.515  1.00  0.00     0.074 A 
ATOM     35  C   UNL A   1      42.958  26.258  27.339  1.00  0.00     0.049 A 
ATOM     36  N   UNL A   1      41.411  28.376  28.821  1.00  0.00    -0.248 NA
ATOM     37  C   UNL A   1      39.647  26.858  29.022  1.00  0.00     0.031 C 
ATOM     38  C   UNL A   1      43.741  25.266  26.604  1.00  0.00     0.029 A 
ATOM     39  N   UNL A   1      43.814  27.321  27.486  1.00  0.00    -0.354 N 
ATOM     40  C   UNL A   1      40.381  28.964  29.542  1.00  0.00     0.074 A 
ATOM     41  C   UNL A   1      39.309  27.993  29.617  1.00  0.00     0.031 C 
ATOM     42  C   UNL A   1      44.960  25.770  26.352  1.00  0.00     0.029 A 
ATOM     43  C   UNL A   1      45.021  27.139  26.858  1.00  0.00     0.049 A 
ATOM     44  H   UNL A   1      43.584  28.133  27.993  1.00  0.00     0.167 HD
ATOM     45  C   UNL A   1      40.342  30.202  30.091  1.00  0.00     0.037 A 
ATOM     46  C   UNL A   1      46.043  27.996  26.671  1.00  0.00     0.037 A 
ATOM     47  C   UNL A   1      41.416  31.157  30.016  1.00  0.00     0.049 A 
ATOM     48  C   UNL A   1      45.933  29.397  27.209  1.00  0.00     0.074 A 
ATOM     49  C   UNL A   1      41.488  32.422  30.574  1.00  0.00     0.029 A 
ATOM     50  N   UNL A   1      42.605  30.956  29.330  1.00  0.00    -0.354 N 
ATOM     51  N   UNL A   1      44.964  29.944  27.901  1.00  0.00    -0.248 NA
ATOM     52  C   UNL A   1      47.054  30.305  26.924  1.00  0.00     0.031 C 
ATOM     53  C   UNL A   1      42.699  33.004  30.183  1.00  0.00     0.029 A 
ATOM     54  C   UNL A   1      43.400  32.087  29.418  1.00  0.00     0.049 A 
ATOM     55  H   UNL A   1      42.848  30.130  28.851  1.00  0.00     0.167 HD
ATOM     56  C   UNL A   1      45.358  31.252  28.143  1.00  0.00     0.074 A 
ATOM     57  C   UNL A   1      46.665  31.413  27.540  1.00  0.00     0.031 C 
ATOM     58  C   UNL A   1      44.693  32.233  28.800  1.00  0.00     0.037 A 
BRANCH  45  59
ATOM     59  C   UNL A   1      39.084  30.608  30.799  1.00  0.00     0.064 A 
ATOM     60  C   UNL A   1      37.983  31.131  30.105  1.00  0.00     0.173 A 
ATOM     61  C   UNL A   1      38.963  30.429  32.186  1.00  0.00     0.173 A 
ATOM     62  F   UNL A   1      38.053  31.333  28.781  1.00  0.00    -0.203 F 
ATOM     63  C   UNL A   1      36.814  31.479  30.778  1.00  0.00     0.198 A 
ATOM     64  C   UNL A   1      37.784  30.756  32.851  1.00  0.00     0.198 A 
ATOM     65  F   UNL A   1      39.986  29.929  32.895  1.00  0.00    -0.203 F 
ATOM     66  F   UNL A   1      35.787  32.013  30.101  1.00  0.00    -0.200 F 
ATOM     67  C   UNL A   1      36.713  31.285  32.147  1.00  0.00     0.200 A 
ATOM     68  F   UNL A   1      37.685  30.559  34.172  1.00  0.00    -0.200 F 
ATOM     69  F   UNL A   1      35.584  31.615  32.791  1.00  0.00    -0.200 F 
ENDBRANCH  45  59
BRANCH  46  70
ATOM     70  C   UNL A   1      47.236  27.565  25.901  1.00  0.00     0.064 A 
ATOM     71  C   UNL A   1      48.357  27.030  26.547  1.00  0.00     0.173 A 
ATOM     72  C   UNL A   1      47.281  27.681  24.503  1.00  0.00     0.173 A 
ATOM     73  F   UNL A   1      48.373  26.927  27.884  1.00  0.00    -0.203 F 
ATOM     74  C   UNL A   1      49.482  26.632  25.825  1.00  0.00     0.198 A 
ATOM     75  C   UNL A   1      48.393  27.258  23.780  1.00  0.00     0.198 A 
ATOM     76  F   UNL A   1      46.235  28.194  23.837  1.00  0.00    -0.203 F 
ATOM     77  F   UNL A   1      50.556  26.159  26.470  1.00  0.00    -0.200 F 
ATOM     78  C   UNL A   1      49.496  26.740  24.443  1.00  0.00     0.200 A 
ATOM     79  F   UNL A   1      48.399  27.355  22.443  1.00  0.00    -0.200 F 
ATOM     80  F   UNL A   1      50.575  26.352  23.749  1.00  0.00    -0.200 F 
ENDBRANCH  46  70
BRANCH  58  81
ATOM     81  C   UNL A   1      45.371  33.567  28.904  1.00  0.00     0.064 A 
ATOM     82  C   UNL A   1      45.133  34.580  27.963  1.00  0.00     0.173 A 
ATOM     83  C   UNL A   1      46.228  33.853  29.978  1.00  0.00     0.173 A 
ATOM     84  F   UNL A   1      44.336  34.349  26.910  1.00  0.00    -0.203 F 
ATOM     85  C   UNL A   1      45.743  35.826  28.085  1.00  0.00     0.198 A 
ATOM     86  C   UNL A   1      46.815  35.107  30.110  1.00  0.00     0.198 A 
ATOM     87  F   UNL A   1      46.484  32.918  30.906  1.00  0.00    -0.203 F 
ATOM     88  F   UNL A   1      45.532  36.766  27.155  1.00  0.00    -0.200 F 
ATOM     89  C   UNL A   1      46.576  36.090  29.162  1.00  0.00     0.200 A 
ATOM     90  F   UNL A   1      47.612  35.365  31.157  1.00  0.00    -0.200 F 
ATOM     91  F   UNL A   1      47.155  37.294  29.283  1.00  0.00    -0.200 F 
ENDBRANCH  58  81
ENDBRANCH  32  33
ENDBRANCH  25  27
ENDBRANCH  24  25
ENDBRANCH  23  24
ENDBRANCH   1  23
TORSDOF 14
ENDMDL
