MODEL 1
REMARK VINA RESULT:     -11.0      0.000      0.000
REMARK SMILES C=CC[C@@](CC)(C(=O)OCCOC(=O)c1ccc(-c2c3nc(c(-c4c(F)c(F)c(F)c(F)c4F)c4ccc([nH]4)c(-c4c(F)c(F)c(F)c(F)c4F)c4nc(c(-c5c(F)c(F)c(F)c(F)c5F)c5ccc2[nH]5)C=C4)C=C3)cc1)c1ccccc1
REMARK SMILES IDX 10 1 9 2 7 3 8 4 4 5 3 6 2 7 1 8 5 9 6 10 78 11 79 12 83 13
REMARK SMILES IDX 80 14 82 15 81 16 11 17 12 18 13 19 14 20 15 21 16 22 77 23
REMARK SMILES IDX 17 24 76 25 18 26 19 27 20 28 70 29 21 30 75 31 69 32 71 33
REMARK SMILES IDX 22 34 74 35 68 36 67 37 23 39 55 40 35 41 54 42 36 43 39 44
REMARK SMILES IDX 53 45 72 46 37 47 38 48 52 50 73 51 40 52 24 53 25 54 33 55
REMARK SMILES IDX 26 56 27 57 31 58 34 59 28 60 29 61 32 62 30 63 56 64 57 65
REMARK SMILES IDX 65 66 58 67 59 68 63 69 66 70 60 71 61 72 64 73 62 74 41 75
REMARK SMILES IDX 42 76 50 77 43 78 44 79 48 80 51 81 45 82 46 83 49 84 47 85
REMARK H PARENT 71 38 39 49
REMARK Flexibility Score: inf
ROOT
ATOM      1  C   UNL A   1      31.559  28.141  25.734  1.00  0.00     0.274 C 
ENDROOT
BRANCH   1   2
ATOM      2  O   UNL A   1      32.843  27.486  25.617  1.00  0.00    -0.461 OA
BRANCH   2   3
ATOM      3  C   UNL A   1      33.119  26.785  24.476  1.00  0.00     0.316 C 
ATOM      4  O   UNL A   1      33.356  27.325  23.400  1.00  0.00    -0.251 OA
BRANCH   3   5
ATOM      5  C   UNL A   1      32.956  25.242  24.680  1.00  0.00     0.096 C 
BRANCH   5   6
ATOM      6  C   UNL A   1      32.423  24.982  26.134  1.00  0.00     0.050 C 
BRANCH   6   7
ATOM      7  C   UNL A   1      32.150  23.557  26.548  1.00  0.00    -0.033 C 
ATOM      8  C   UNL A   1      30.930  23.092  26.846  1.00  0.00     0.004 C 
ENDBRANCH   6   7
ENDBRANCH   5   6
BRANCH   5   9
ATOM      9  C   UNL A   1      31.945  24.806  23.570  1.00  0.00     0.020 C 
ATOM     10  C   UNL A   1      30.494  25.236  23.772  1.00  0.00     0.005 C 
ENDBRANCH   5   9
BRANCH   5  11
ATOM     11  C   UNL A   1      34.292  24.454  24.475  1.00  0.00    -0.030 A 
ATOM     12  C   UNL A   1      35.326  24.447  25.422  1.00  0.00     0.005 A 
ATOM     13  C   UNL A   1      34.512  23.685  23.312  1.00  0.00     0.005 A 
ATOM     14  C   UNL A   1      36.501  23.706  25.236  1.00  0.00     0.000 A 
ATOM     15  C   UNL A   1      35.684  22.943  23.121  1.00  0.00     0.000 A 
ATOM     16  C   UNL A   1      36.678  22.948  24.088  1.00  0.00     0.000 A 
ENDBRANCH   5  11
ENDBRANCH   3   5
ENDBRANCH   2   3
ENDBRANCH   1   2
BRANCH   1  17
ATOM     17  C   UNL A   1      31.692  29.609  25.327  1.00  0.00     0.275 C 
BRANCH  17  18
ATOM     18  O   UNL A   1      33.009  30.033  25.703  1.00  0.00    -0.458 OA
BRANCH  18  19
ATOM     19  C   UNL A   1      33.113  30.903  26.735  1.00  0.00     0.338 C 
ATOM     20  O   UNL A   1      32.265  31.682  27.126  1.00  0.00    -0.246 OA
BRANCH  19  21
ATOM     21  C   UNL A   1      34.439  30.706  27.373  1.00  0.00     0.060 A 
ATOM     22  C   UNL A   1      34.901  29.415  27.618  1.00  0.00     0.016 A 
ATOM     23  C   UNL A   1      35.192  31.794  27.816  1.00  0.00     0.016 A 
ATOM     24  C   UNL A   1      36.059  29.207  28.365  1.00  0.00     0.010 A 
ATOM     25  C   UNL A   1      36.408  31.577  28.489  1.00  0.00     0.010 A 
ATOM     26  C   UNL A   1      36.844  30.277  28.806  1.00  0.00    -0.014 A 
BRANCH  26  27
ATOM     27  C   UNL A   1      38.050  30.029  29.662  1.00  0.00     0.031 A 
ATOM     28  C   UNL A   1      39.222  29.259  29.103  1.00  0.00     0.074 A 
ATOM     29  C   UNL A   1      38.167  30.536  30.908  1.00  0.00     0.049 A 
ATOM     30  N   UNL A   1      40.234  28.713  29.731  1.00  0.00    -0.248 NA
ATOM     31  C   UNL A   1      39.254  29.071  27.645  1.00  0.00     0.031 C 
ATOM     32  C   UNL A   1      37.189  31.391  31.581  1.00  0.00     0.029 A 
ATOM     33  N   UNL A   1      39.188  30.429  31.828  1.00  0.00    -0.354 N 
ATOM     34  C   UNL A   1      40.964  28.038  28.761  1.00  0.00     0.074 A 
ATOM     35  C   UNL A   1      40.299  28.270  27.496  1.00  0.00     0.031 C 
ATOM     36  C   UNL A   1      37.689  31.796  32.758  1.00  0.00     0.029 A 
ATOM     37  C   UNL A   1      38.963  31.124  32.991  1.00  0.00     0.049 A 
ATOM     38  H   UNL A   1      40.003  29.902  31.666  1.00  0.00     0.167 HD
ATOM     39  C   UNL A   1      42.078  27.283  28.915  1.00  0.00     0.037 A 
ATOM     40  C   UNL A   1      39.664  31.175  34.142  1.00  0.00     0.037 A 
ATOM     41  C   UNL A   1      42.798  27.130  30.152  1.00  0.00     0.049 A 
ATOM     42  C   UNL A   1      40.883  30.311  34.305  1.00  0.00     0.074 A 
ATOM     43  C   UNL A   1      43.915  26.355  30.415  1.00  0.00     0.029 A 
ATOM     44  N   UNL A   1      42.497  27.805  31.324  1.00  0.00    -0.354 N 
ATOM     45  N   UNL A   1      41.470  29.532  33.429  1.00  0.00    -0.248 NA
ATOM     46  C   UNL A   1      41.510  30.293  35.636  1.00  0.00     0.031 C 
ATOM     47  C   UNL A   1      44.280  26.547  31.752  1.00  0.00     0.029 A 
ATOM     48  C   UNL A   1      43.409  27.467  32.312  1.00  0.00     0.049 A 
ATOM     49  H   UNL A   1      41.746  28.431  31.440  1.00  0.00     0.167 HD
ATOM     50  C   UNL A   1      42.523  28.927  34.102  1.00  0.00     0.074 A 
ATOM     51  C   UNL A   1      42.520  29.454  35.450  1.00  0.00     0.031 C 
ATOM     52  C   UNL A   1      43.401  28.000  33.647  1.00  0.00     0.037 A 
BRANCH  39  53
ATOM     53  C   UNL A   1      42.559  26.509  27.725  1.00  0.00     0.064 A 
ATOM     54  C   UNL A   1      43.566  26.988  26.877  1.00  0.00     0.173 A 
ATOM     55  C   UNL A   1      42.020  25.241  27.457  1.00  0.00     0.173 A 
ATOM     56  F   UNL A   1      44.100  28.201  27.082  1.00  0.00    -0.203 F 
ATOM     57  C   UNL A   1      44.003  26.232  25.791  1.00  0.00     0.198 A 
ATOM     58  C   UNL A   1      42.476  24.478  26.387  1.00  0.00     0.198 A 
ATOM     59  F   UNL A   1      41.056  24.735  28.243  1.00  0.00    -0.203 F 
ATOM     60  F   UNL A   1      44.941  26.724  24.969  1.00  0.00    -0.200 F 
ATOM     61  C   UNL A   1      43.464  24.977  25.551  1.00  0.00     0.200 A 
ATOM     62  F   UNL A   1      41.962  23.260  26.164  1.00  0.00    -0.200 F 
ATOM     63  F   UNL A   1      43.893  24.249  24.511  1.00  0.00    -0.200 F 
ENDBRANCH  39  53
BRANCH  40  64
ATOM     64  C   UNL A   1      39.185  32.017  35.272  1.00  0.00     0.064 A 
ATOM     65  C   UNL A   1      39.525  33.375  35.354  1.00  0.00     0.173 A 
ATOM     66  C   UNL A   1      38.394  31.481  36.300  1.00  0.00     0.173 A 
ATOM     67  F   UNL A   1      40.312  33.925  34.419  1.00  0.00    -0.203 F 
ATOM     68  C   UNL A   1      39.094  34.161  36.421  1.00  0.00     0.198 A 
ATOM     69  C   UNL A   1      37.933  32.277  37.346  1.00  0.00     0.198 A 
ATOM     70  F   UNL A   1      38.053  30.185  36.278  1.00  0.00    -0.203 F 
ATOM     71  F   UNL A   1      39.470  35.445  36.499  1.00  0.00    -0.200 F 
ATOM     72  C   UNL A   1      38.289  33.615  37.409  1.00  0.00     0.200 A 
ATOM     73  F   UNL A   1      37.147  31.746  38.292  1.00  0.00    -0.200 F 
ATOM     74  F   UNL A   1      37.865  34.374  38.429  1.00  0.00    -0.200 F 
ENDBRANCH  40  64
BRANCH  52  75
ATOM     75  C   UNL A   1      44.440  27.510  34.609  1.00  0.00     0.064 A 
ATOM     76  C   UNL A   1      44.213  26.388  35.419  1.00  0.00     0.173 A 
ATOM     77  C   UNL A   1      45.687  28.145  34.698  1.00  0.00     0.173 A 
ATOM     78  F   UNL A   1      43.029  25.757  35.380  1.00  0.00    -0.203 F 
ATOM     79  C   UNL A   1      45.191  25.931  36.297  1.00  0.00     0.198 A 
ATOM     80  C   UNL A   1      46.670  27.673  35.562  1.00  0.00     0.198 A 
ATOM     81  F   UNL A   1      45.953  29.221  33.941  1.00  0.00    -0.203 F 
ATOM     82  F   UNL A   1      44.939  24.879  37.089  1.00  0.00    -0.200 F 
ATOM     83  C   UNL A   1      46.420  26.569  36.365  1.00  0.00     0.200 A 
ATOM     84  F   UNL A   1      47.860  28.288  35.622  1.00  0.00    -0.200 F 
ATOM     85  F   UNL A   1      47.361  26.127  37.209  1.00  0.00    -0.200 F 
ENDBRANCH  52  75
ENDBRANCH  26  27
ENDBRANCH  19  21
ENDBRANCH  18  19
ENDBRANCH  17  18
ENDBRANCH   1  17
TORSDOF 15
ENDMDL
MODEL 2
REMARK VINA RESULT:     -10.9      0.733      1.616
REMARK SMILES C=CC[C@@](CC)(C(=O)OCCOC(=O)c1ccc(-c2c3nc(c(-c4c(F)c(F)c(F)c(F)c4F)c4ccc([nH]4)c(-c4c(F)c(F)c(F)c(F)c4F)c4nc(c(-c5c(F)c(F)c(F)c(F)c5F)c5ccc2[nH]5)C=C4)C=C3)cc1)c1ccccc1
REMARK SMILES IDX 10 1 9 2 7 3 8 4 4 5 3 6 2 7 1 8 5 9 6 10 78 11 79 12 83 13
REMARK SMILES IDX 80 14 82 15 81 16 11 17 12 18 13 19 14 20 15 21 16 22 77 23
REMARK SMILES IDX 17 24 76 25 18 26 19 27 20 28 70 29 21 30 75 31 69 32 71 33
REMARK SMILES IDX 22 34 74 35 68 36 67 37 23 39 55 40 35 41 54 42 36 43 39 44
REMARK SMILES IDX 53 45 72 46 37 47 38 48 52 50 73 51 40 52 24 53 25 54 33 55
REMARK SMILES IDX 26 56 27 57 31 58 34 59 28 60 29 61 32 62 30 63 56 64 57 65
REMARK SMILES IDX 65 66 58 67 59 68 63 69 66 70 60 71 61 72 64 73 62 74 41 75
REMARK SMILES IDX 42 76 50 77 43 78 44 79 48 80 51 81 45 82 46 83 49 84 47 85
REMARK H PARENT 71 38 39 49
REMARK Flexibility Score: inf
ROOT
ATOM      1  C   UNL A   1      31.771  28.271  27.045  1.00  0.00     0.274 C 
ENDROOT
BRANCH   1   2
ATOM      2  O   UNL A   1      32.370  27.088  26.466  1.00  0.00    -0.461 OA
BRANCH   2   3
ATOM      3  C   UNL A   1      31.549  26.081  26.037  1.00  0.00     0.316 C 
ATOM      4  O   UNL A   1      30.478  25.818  26.573  1.00  0.00    -0.251 OA
BRANCH   3   5
ATOM      5  C   UNL A   1      32.203  25.238  24.892  1.00  0.00     0.096 C 
BRANCH   5   6
ATOM      6  C   UNL A   1      31.160  24.176  24.393  1.00  0.00     0.050 C 
BRANCH   6   7
ATOM      7  C   UNL A   1      31.546  23.288  23.236  1.00  0.00    -0.033 C 
ATOM      8  C   UNL A   1      32.011  22.041  23.380  1.00  0.00     0.004 C 
ENDBRANCH   6   7
ENDBRANCH   5   6
BRANCH   5   9
ATOM      9  C   UNL A   1      32.576  26.291  23.797  1.00  0.00     0.020 C 
ATOM     10  C   UNL A   1      31.408  26.922  23.043  1.00  0.00     0.005 C 
ENDBRANCH   5   9
BRANCH   5  11
ATOM     11  C   UNL A   1      33.509  24.503  25.343  1.00  0.00    -0.030 A 
ATOM     12  C   UNL A   1      34.743  24.681  24.702  1.00  0.00     0.005 A 
ATOM     13  C   UNL A   1      33.505  23.627  26.449  1.00  0.00     0.005 A 
ATOM     14  C   UNL A   1      35.909  24.041  25.143  1.00  0.00     0.000 A 
ATOM     15  C   UNL A   1      34.667  22.986  26.893  1.00  0.00     0.000 A 
ATOM     16  C   UNL A   1      35.874  23.198  26.243  1.00  0.00     0.000 A 
ENDBRANCH   5  11
ENDBRANCH   3   5
ENDBRANCH   2   3
ENDBRANCH   1   2
BRANCH   1  17
ATOM     17  C   UNL A   1      31.710  29.381  25.996  1.00  0.00     0.275 C 
BRANCH  17  18
ATOM     18  O   UNL A   1      33.003  30.000  25.962  1.00  0.00    -0.458 OA
BRANCH  18  19
ATOM     19  C   UNL A   1      33.229  31.018  26.825  1.00  0.00     0.338 C 
ATOM     20  O   UNL A   1      32.474  31.933  27.096  1.00  0.00    -0.246 OA
BRANCH  19  21
ATOM     21  C   UNL A   1      34.555  30.803  27.457  1.00  0.00     0.060 A 
ATOM     22  C   UNL A   1      34.982  29.507  27.738  1.00  0.00     0.016 A 
ATOM     23  C   UNL A   1      35.344  31.881  27.858  1.00  0.00     0.016 A 
ATOM     24  C   UNL A   1      36.141  29.289  28.480  1.00  0.00     0.010 A 
ATOM     25  C   UNL A   1      36.560  31.650  28.526  1.00  0.00     0.010 A 
ATOM     26  C   UNL A   1      36.962  30.348  28.880  1.00  0.00    -0.014 A 
BRANCH  26  27
ATOM     27  C   UNL A   1      38.169  30.092  29.732  1.00  0.00     0.031 A 
ATOM     28  C   UNL A   1      39.332  29.313  29.170  1.00  0.00     0.074 A 
ATOM     29  C   UNL A   1      38.294  30.599  30.977  1.00  0.00     0.049 A 
ATOM     30  N   UNL A   1      40.342  28.760  29.795  1.00  0.00    -0.248 NA
ATOM     31  C   UNL A   1      39.358  29.124  27.711  1.00  0.00     0.031 C 
ATOM     32  C   UNL A   1      37.324  31.462  31.653  1.00  0.00     0.029 A 
ATOM     33  N   UNL A   1      39.316  30.485  31.894  1.00  0.00    -0.354 N 
ATOM     34  C   UNL A   1      41.064  28.079  28.822  1.00  0.00     0.074 A 
ATOM     35  C   UNL A   1      40.397  28.315  27.560  1.00  0.00     0.031 C 
ATOM     36  C   UNL A   1      37.831  31.864  32.828  1.00  0.00     0.029 A 
ATOM     37  C   UNL A   1      39.101  31.183  33.057  1.00  0.00     0.049 A 
ATOM     38  H   UNL A   1      40.127  29.952  31.729  1.00  0.00     0.167 HD
ATOM     39  C   UNL A   1      42.173  27.316  28.973  1.00  0.00     0.037 A 
ATOM     40  C   UNL A   1      39.806  31.229  34.205  1.00  0.00     0.037 A 
ATOM     41  C   UNL A   1      42.896  27.158  30.208  1.00  0.00     0.049 A 
ATOM     42  C   UNL A   1      41.020  30.356  34.365  1.00  0.00     0.074 A 
ATOM     43  C   UNL A   1      44.008  26.375  30.467  1.00  0.00     0.029 A 
ATOM     44  N   UNL A   1      42.604  27.836  31.380  1.00  0.00    -0.354 N 
ATOM     45  N   UNL A   1      41.597  29.572  33.488  1.00  0.00    -0.248 NA
ATOM     46  C   UNL A   1      41.651  30.335  35.693  1.00  0.00     0.031 C 
ATOM     47  C   UNL A   1      44.379  26.566  31.802  1.00  0.00     0.029 A 
ATOM     48  C   UNL A   1      43.517  27.492  32.365  1.00  0.00     0.049 A 
ATOM     49  H   UNL A   1      41.859  28.468  31.498  1.00  0.00     0.167 HD
ATOM     50  C   UNL A   1      42.648  28.960  34.157  1.00  0.00     0.074 A 
ATOM     51  C   UNL A   1      42.654  29.488  35.505  1.00  0.00     0.031 C 
ATOM     52  C   UNL A   1      43.518  28.027  33.700  1.00  0.00     0.037 A 
BRANCH  39  53
ATOM     53  C   UNL A   1      42.645  26.538  27.782  1.00  0.00     0.064 A 
ATOM     54  C   UNL A   1      42.125  25.279  27.454  1.00  0.00     0.173 A 
ATOM     55  C   UNL A   1      43.614  27.092  26.930  1.00  0.00     0.173 A 
ATOM     56  F   UNL A   1      41.209  24.701  28.247  1.00  0.00    -0.203 F 
ATOM     57  C   UNL A   1      42.573  24.594  26.328  1.00  0.00     0.198 A 
ATOM     58  C   UNL A   1      44.041  26.416  25.792  1.00  0.00     0.198 A 
ATOM     59  F   UNL A   1      44.140  28.298  27.197  1.00  0.00    -0.203 F 
ATOM     60  F   UNL A   1      42.091  23.373  26.053  1.00  0.00    -0.200 F 
ATOM     61  C   UNL A   1      43.524  25.164  25.494  1.00  0.00     0.200 A 
ATOM     62  F   UNL A   1      44.952  26.974  24.982  1.00  0.00    -0.200 F 
ATOM     63  F   UNL A   1      43.946  24.506  24.406  1.00  0.00    -0.200 F 
ENDBRANCH  39  53
BRANCH  40  64
ATOM     64  C   UNL A   1      39.337  32.075  35.337  1.00  0.00     0.064 A 
ATOM     65  C   UNL A   1      39.715  33.422  35.434  1.00  0.00     0.173 A 
ATOM     66  C   UNL A   1      38.519  31.554  36.350  1.00  0.00     0.173 A 
ATOM     67  F   UNL A   1      40.529  33.958  34.513  1.00  0.00    -0.203 F 
ATOM     68  C   UNL A   1      39.293  34.212  36.502  1.00  0.00     0.198 A 
ATOM     69  C   UNL A   1      38.068  32.354  37.397  1.00  0.00     0.198 A 
ATOM     70  F   UNL A   1      38.141  30.268  36.313  1.00  0.00    -0.203 F 
ATOM     71  F   UNL A   1      39.705  35.484  36.596  1.00  0.00    -0.200 F 
ATOM     72  C   UNL A   1      38.461  33.681  37.476  1.00  0.00     0.200 A 
ATOM     73  F   UNL A   1      37.255  31.838  38.329  1.00  0.00    -0.200 F 
ATOM     74  F   UNL A   1      38.046  34.444  38.497  1.00  0.00    -0.200 F 
ENDBRANCH  40  64
BRANCH  52  75
ATOM     75  C   UNL A   1      44.557  27.529  34.658  1.00  0.00     0.064 A 
ATOM     76  C   UNL A   1      44.335  26.392  35.448  1.00  0.00     0.173 A 
ATOM     77  C   UNL A   1      45.798  28.174  34.764  1.00  0.00     0.173 A 
ATOM     78  F   UNL A   1      43.157  25.752  35.394  1.00  0.00    -0.203 F 
ATOM     79  C   UNL A   1      45.313  25.929  36.324  1.00  0.00     0.198 A 
ATOM     80  C   UNL A   1      46.781  27.695  35.625  1.00  0.00     0.198 A 
ATOM     81  F   UNL A   1      46.057  29.264  34.026  1.00  0.00    -0.203 F 
ATOM     82  F   UNL A   1      45.067  24.861  37.097  1.00  0.00    -0.200 F 
ATOM     83  C   UNL A   1      46.536  26.576  36.408  1.00  0.00     0.200 A 
ATOM     84  F   UNL A   1      47.965  28.319  35.701  1.00  0.00    -0.200 F 
ATOM     85  F   UNL A   1      47.477  26.128  37.249  1.00  0.00    -0.200 F 
ENDBRANCH  52  75
ENDBRANCH  26  27
ENDBRANCH  19  21
ENDBRANCH  18  19
ENDBRANCH  17  18
ENDBRANCH   1  17
TORSDOF 15
ENDMDL
MODEL 3
REMARK VINA RESULT:     -10.9      0.750      2.324
REMARK SMILES C=CC[C@@](CC)(C(=O)OCCOC(=O)c1ccc(-c2c3nc(c(-c4c(F)c(F)c(F)c(F)c4F)c4ccc([nH]4)c(-c4c(F)c(F)c(F)c(F)c4F)c4nc(c(-c5c(F)c(F)c(F)c(F)c5F)c5ccc2[nH]5)C=C4)C=C3)cc1)c1ccccc1
REMARK SMILES IDX 10 1 9 2 7 3 8 4 4 5 3 6 2 7 1 8 5 9 6 10 78 11 79 12 83 13
REMARK SMILES IDX 80 14 82 15 81 16 11 17 12 18 13 19 14 20 15 21 16 22 77 23
REMARK SMILES IDX 17 24 76 25 18 26 19 27 20 28 70 29 21 30 75 31 69 32 71 33
REMARK SMILES IDX 22 34 74 35 68 36 67 37 23 39 55 40 35 41 54 42 36 43 39 44
REMARK SMILES IDX 53 45 72 46 37 47 38 48 52 50 73 51 40 52 24 53 25 54 33 55
REMARK SMILES IDX 26 56 27 57 31 58 34 59 28 60 29 61 32 62 30 63 56 64 57 65
REMARK SMILES IDX 65 66 58 67 59 68 63 69 66 70 60 71 61 72 64 73 62 74 41 75
REMARK SMILES IDX 42 76 50 77 43 78 44 79 48 80 51 81 45 82 46 83 49 84 47 85
REMARK H PARENT 71 38 39 49
REMARK Flexibility Score: inf
ROOT
ATOM      1  C   UNL A   1      31.773  28.348  27.060  1.00  0.00     0.274 C 
ENDROOT
BRANCH   1   2
ATOM      2  O   UNL A   1      32.266  27.124  26.468  1.00  0.00    -0.461 OA
BRANCH   2   3
ATOM      3  C   UNL A   1      31.361  26.175  26.079  1.00  0.00     0.316 C 
ATOM      4  O   UNL A   1      30.273  26.025  26.625  1.00  0.00    -0.251 OA
BRANCH   3   5
ATOM      5  C   UNL A   1      31.937  25.234  24.968  1.00  0.00     0.096 C 
BRANCH   5   6
ATOM      6  C   UNL A   1      30.863  24.141  24.630  1.00  0.00     0.050 C 
BRANCH   6   7
ATOM      7  C   UNL A   1      31.019  23.363  23.346  1.00  0.00    -0.033 C 
ATOM      8  C   UNL A   1      32.049  22.546  23.094  1.00  0.00     0.004 C 
ENDBRANCH   6   7
ENDBRANCH   5   6
BRANCH   5   9
ATOM      9  C   UNL A   1      32.239  26.189  23.767  1.00  0.00     0.020 C 
ATOM     10  C   UNL A   1      31.050  26.965  23.206  1.00  0.00     0.005 C 
ENDBRANCH   5   9
BRANCH   5  11
ATOM     11  C   UNL A   1      33.269  24.531  25.393  1.00  0.00    -0.030 A 
ATOM     12  C   UNL A   1      34.497  24.780  24.764  1.00  0.00     0.005 A 
ATOM     13  C   UNL A   1      33.296  23.611  26.463  1.00  0.00     0.005 A 
ATOM     14  C   UNL A   1      35.686  24.167  25.183  1.00  0.00     0.000 A 
ATOM     15  C   UNL A   1      34.481  22.996  26.885  1.00  0.00     0.000 A 
ATOM     16  C   UNL A   1      35.680  23.279  26.247  1.00  0.00     0.000 A 
ENDBRANCH   5  11
ENDBRANCH   3   5
ENDBRANCH   2   3
ENDBRANCH   1   2
BRANCH   1  17
ATOM     17  C   UNL A   1      31.740  29.452  26.004  1.00  0.00     0.275 C 
BRANCH  17  18
ATOM     18  O   UNL A   1      33.039  30.060  25.989  1.00  0.00    -0.458 OA
BRANCH  18  19
ATOM     19  C   UNL A   1      33.265  31.069  26.863  1.00  0.00     0.338 C 
ATOM     20  O   UNL A   1      32.511  31.981  27.143  1.00  0.00    -0.246 OA
BRANCH  19  21
ATOM     21  C   UNL A   1      34.592  30.846  27.492  1.00  0.00     0.060 A 
ATOM     22  C   UNL A   1      35.018  29.547  27.759  1.00  0.00     0.016 A 
ATOM     23  C   UNL A   1      35.381  31.919  27.906  1.00  0.00     0.016 A 
ATOM     24  C   UNL A   1      36.177  29.320  28.498  1.00  0.00     0.010 A 
ATOM     25  C   UNL A   1      36.596  31.680  28.571  1.00  0.00     0.010 A 
ATOM     26  C   UNL A   1      36.998  30.375  28.910  1.00  0.00    -0.014 A 
BRANCH  26  27
ATOM     27  C   UNL A   1      38.205  30.108  29.760  1.00  0.00     0.031 A 
ATOM     28  C   UNL A   1      39.359  29.316  29.196  1.00  0.00     0.074 A 
ATOM     29  C   UNL A   1      38.338  30.617  31.003  1.00  0.00     0.049 A 
ATOM     30  N   UNL A   1      40.365  28.754  29.819  1.00  0.00    -0.248 NA
ATOM     31  C   UNL A   1      39.378  29.123  27.738  1.00  0.00     0.031 C 
ATOM     32  C   UNL A   1      37.380  31.492  31.679  1.00  0.00     0.029 A 
ATOM     33  N   UNL A   1      39.362  30.495  31.917  1.00  0.00    -0.354 N 
ATOM     34  C   UNL A   1      41.077  28.064  28.847  1.00  0.00     0.074 A 
ATOM     35  C   UNL A   1      40.408  28.303  27.586  1.00  0.00     0.031 C 
ATOM     36  C   UNL A   1      37.894  31.892  32.852  1.00  0.00     0.029 A 
ATOM     37  C   UNL A   1      39.157  31.198  33.079  1.00  0.00     0.049 A 
ATOM     38  H   UNL A   1      40.167  29.953  31.751  1.00  0.00     0.167 HD
ATOM     39  C   UNL A   1      42.178  27.290  28.997  1.00  0.00     0.037 A 
ATOM     40  C   UNL A   1      39.866  31.240  34.225  1.00  0.00     0.037 A 
ATOM     41  C   UNL A   1      42.904  27.128  30.229  1.00  0.00     0.049 A 
ATOM     42  C   UNL A   1      41.071  30.355  34.383  1.00  0.00     0.074 A 
ATOM     43  C   UNL A   1      44.008  26.334  30.488  1.00  0.00     0.029 A 
ATOM     44  N   UNL A   1      42.622  27.811  31.401  1.00  0.00    -0.354 N 
ATOM     45  N   UNL A   1      41.639  29.563  33.507  1.00  0.00    -0.248 NA
ATOM     46  C   UNL A   1      41.706  30.331  35.710  1.00  0.00     0.031 C 
ATOM     47  C   UNL A   1      44.385  26.524  31.822  1.00  0.00     0.029 A 
ATOM     48  C   UNL A   1      43.534  27.461  32.385  1.00  0.00     0.049 A 
ATOM     49  H   UNL A   1      41.883  28.451  31.519  1.00  0.00     0.167 HD
ATOM     50  C   UNL A   1      42.685  28.942  34.175  1.00  0.00     0.074 A 
ATOM     51  C   UNL A   1      42.700  29.474  35.521  1.00  0.00     0.031 C 
ATOM     52  C   UNL A   1      43.544  27.999  33.718  1.00  0.00     0.037 A 
BRANCH  39  53
ATOM     53  C   UNL A   1      42.638  26.503  27.806  1.00  0.00     0.064 A 
ATOM     54  C   UNL A   1      42.128  25.235  27.502  1.00  0.00     0.173 A 
ATOM     55  C   UNL A   1      43.587  27.059  26.932  1.00  0.00     0.173 A 
ATOM     56  F   UNL A   1      41.233  24.656  28.316  1.00  0.00    -0.203 F 
ATOM     57  C   UNL A   1      42.564  24.542  26.375  1.00  0.00     0.198 A 
ATOM     58  C   UNL A   1      44.002  26.375  25.793  1.00  0.00     0.198 A 
ATOM     59  F   UNL A   1      44.102  28.274  27.176  1.00  0.00    -0.203 F 
ATOM     60  F   UNL A   1      42.092  23.313  26.123  1.00  0.00    -0.200 F 
ATOM     61  C   UNL A   1      43.494  25.114  25.519  1.00  0.00     0.200 A 
ATOM     62  F   UNL A   1      44.891  26.935  24.962  1.00  0.00    -0.200 F 
ATOM     63  F   UNL A   1      43.906  24.448  24.431  1.00  0.00    -0.200 F 
ENDBRANCH  39  53
BRANCH  40  64
ATOM     64  C   UNL A   1      39.409  32.094  35.355  1.00  0.00     0.064 A 
ATOM     65  C   UNL A   1      38.546  31.589  36.338  1.00  0.00     0.173 A 
ATOM     66  C   UNL A   1      39.811  33.434  35.469  1.00  0.00     0.173 A 
ATOM     67  F   UNL A   1      38.101  30.327  36.254  1.00  0.00    -0.203 F 
ATOM     68  C   UNL A   1      38.102  32.392  37.387  1.00  0.00     0.198 A 
ATOM     69  C   UNL A   1      39.395  34.224  36.537  1.00  0.00     0.198 A 
ATOM     70  F   UNL A   1      40.623  33.971  34.547  1.00  0.00    -0.203 F 
ATOM     71  F   UNL A   1      37.241  31.898  38.288  1.00  0.00    -0.200 F 
ATOM     72  C   UNL A   1      38.536  33.705  37.493  1.00  0.00     0.200 A 
ATOM     73  F   UNL A   1      39.827  35.488  36.639  1.00  0.00    -0.200 F 
ATOM     74  F   UNL A   1      38.117  34.473  38.507  1.00  0.00    -0.200 F 
ENDBRANCH  40  64
BRANCH  52  75
ATOM     75  C   UNL A   1      44.580  27.493  34.674  1.00  0.00     0.064 A 
ATOM     76  C   UNL A   1      45.817  28.140  34.819  1.00  0.00     0.173 A 
ATOM     77  C   UNL A   1      44.323  26.374  35.479  1.00  0.00     0.173 A 
ATOM     78  F   UNL A   1      46.113  29.204  34.059  1.00  0.00    -0.203 F 
ATOM     79  C   UNL A   1      46.766  27.671  35.722  1.00  0.00     0.198 A 
ATOM     80  C   UNL A   1      45.267  25.921  36.396  1.00  0.00     0.198 A 
ATOM     81  F   UNL A   1      43.154  25.724  35.379  1.00  0.00    -0.203 F 
ATOM     82  F   UNL A   1      47.956  28.281  35.818  1.00  0.00    -0.200 F 
ATOM     83  C   UNL A   1      46.490  26.567  36.513  1.00  0.00     0.200 A 
ATOM     84  F   UNL A   1      44.996  24.856  37.164  1.00  0.00    -0.200 F 
ATOM     85  F   UNL A   1      47.404  26.118  37.384  1.00  0.00    -0.200 F 
ENDBRANCH  52  75
ENDBRANCH  26  27
ENDBRANCH  19  21
ENDBRANCH  18  19
ENDBRANCH  17  18
ENDBRANCH   1  17
TORSDOF 15
ENDMDL
