MODEL 1
REMARK VINA RESULT:      -9.9      0.000      0.000
REMARK SMILES COc1cccc(-c2ccc(Nc3cccc(C(=O)OCCOC(=O)c4ccc(-c5c6nc(c(-c7c(F)c(F)c(F)c(F)c7F)c7ccc([nH]7)c(-c7c(F)c(F)c(F)c(F)c7F)c7nc(c(-c8c(F)c(F)c(F)c(F)c8F)c8ccc5[nH]8)C=C7)C=C6)cc4)c3)nn2)c1
REMARK SMILES IDX 21 1 20 2 18 3 19 4 17 5 13 6 14 7 89 8 15 9 16 10 12 11
REMARK SMILES IDX 11 13 8 14 9 15 91 16 10 17 90 18 7 19 3 20 4 21 92 22 5 23
REMARK SMILES IDX 6 24 2 25 1 26 22 27 23 28 24 29 25 30 26 31 27 32 88 33
REMARK SMILES IDX 28 34 87 35 29 36 30 37 31 38 81 39 32 40 86 41 80 42 82 43
REMARK SMILES IDX 33 44 85 45 79 46 78 47 34 49 66 50 46 51 65 52 47 53 50 54
REMARK SMILES IDX 64 55 83 56 48 57 49 58 63 60 84 61 51 62 35 63 36 64 44 65
REMARK SMILES IDX 37 66 38 67 42 68 45 69 39 70 40 71 43 72 41 73 67 74 68 75
REMARK SMILES IDX 76 76 69 77 70 78 74 79 77 80 71 81 72 82 75 83 73 84 52 85
REMARK SMILES IDX 53 86 61 87 54 88 55 89 59 90 62 91 56 92 57 93 60 94 58 95
REMARK H PARENT 12 12 82 48 50 59
REMARK Flexibility Score: inf
ROOT
ATOM      1  C   UNL A   1      34.670  33.297  29.704  1.00  0.00     0.275 C 
ENDROOT
BRANCH   1   2
ATOM      2  O   UNL A   1      35.875  34.068  29.519  1.00  0.00    -0.458 OA
BRANCH   2   3
ATOM      3  C   UNL A   1      37.045  33.428  29.769  1.00  0.00     0.338 C 
ATOM      4  O   UNL A   1      37.858  33.051  28.942  1.00  0.00    -0.246 OA
BRANCH   3   5
ATOM      5  C   UNL A   1      37.290  33.360  31.231  1.00  0.00     0.062 A 
ATOM      6  C   UNL A   1      37.398  32.124  33.323  1.00  0.00     0.040 A 
ATOM      7  C   UNL A   1      37.721  33.308  33.994  1.00  0.00     0.026 A 
ATOM      8  C   UNL A   1      37.148  32.169  31.942  1.00  0.00     0.041 A 
ATOM      9  C   UNL A   1      37.875  34.501  33.289  1.00  0.00     0.003 A 
ATOM     10  C   UNL A   1      37.698  34.517  31.907  1.00  0.00     0.016 A 
BRANCH   6  11
ATOM     11  N   UNL A   1      37.501  30.888  33.991  1.00  0.00    -0.339 N 
ATOM     12  H   UNL A   1      36.721  30.573  34.502  1.00  0.00     0.168 HD
BRANCH  11  13
ATOM     13  C   UNL A   1      38.652  30.079  33.972  1.00  0.00     0.153 A 
ATOM     14  C   UNL A   1      40.838  28.412  34.011  1.00  0.00     0.093 A 
ATOM     15  C   UNL A   1      40.877  29.598  34.732  1.00  0.00     0.035 A 
ATOM     16  N   UNL A   1      39.752  28.089  33.285  1.00  0.00    -0.148 NA
ATOM     17  C   UNL A   1      39.767  30.443  34.711  1.00  0.00     0.051 A 
ATOM     18  N   UNL A   1      38.662  28.920  33.278  1.00  0.00    -0.132 NA
BRANCH  14  19
ATOM     19  C   UNL A   1      41.919  27.425  34.010  1.00  0.00     0.006 A 
ATOM     20  C   UNL A   1      42.951  25.413  34.921  1.00  0.00     0.119 A 
ATOM     21  C   UNL A   1      43.982  25.517  33.989  1.00  0.00     0.046 A 
ATOM     22  C   UNL A   1      41.939  26.375  34.946  1.00  0.00     0.056 A 
ATOM     23  C   UNL A   1      43.975  26.541  33.046  1.00  0.00     0.005 A 
ATOM     24  C   UNL A   1      42.943  27.482  33.049  1.00  0.00     0.011 A 
BRANCH  20  25
ATOM     25  O   UNL A   1      43.034  24.361  35.792  1.00  0.00    -0.497 OA
ATOM     26  C   UNL A   1      43.761  23.240  35.297  1.00  0.00     0.278 C 
ENDBRANCH  20  25
ENDBRANCH  14  19
ENDBRANCH  11  13
ENDBRANCH   6  11
ENDBRANCH   3   5
ENDBRANCH   2   3
ENDBRANCH   1   2
BRANCH   1  27
ATOM     27  C   UNL A   1      34.028  32.989  28.352  1.00  0.00     0.275 C 
BRANCH  27  28
ATOM     28  O   UNL A   1      34.876  32.084  27.623  1.00  0.00    -0.458 OA
BRANCH  28  29
ATOM     29  C   UNL A   1      34.708  30.769  27.873  1.00  0.00     0.338 C 
ATOM     30  O   UNL A   1      33.667  30.129  27.876  1.00  0.00    -0.246 OA
BRANCH  29  31
ATOM     31  C   UNL A   1      36.021  30.170  28.149  1.00  0.00     0.060 A 
ATOM     32  C   UNL A   1      36.268  29.623  29.406  1.00  0.00     0.016 A 
ATOM     33  C   UNL A   1      37.039  30.234  27.200  1.00  0.00     0.016 A 
ATOM     34  C   UNL A   1      37.543  29.182  29.749  1.00  0.00     0.010 A 
ATOM     35  C   UNL A   1      38.305  29.732  27.519  1.00  0.00     0.010 A 
ATOM     36  C   UNL A   1      38.578  29.229  28.807  1.00  0.00    -0.014 A 
BRANCH  36  37
ATOM     37  C   UNL A   1      39.959  28.824  29.182  1.00  0.00     0.031 A 
ATOM     38  C   UNL A   1      40.781  29.724  30.063  1.00  0.00     0.074 A 
ATOM     39  C   UNL A   1      40.479  27.657  28.758  1.00  0.00     0.049 A 
ATOM     40  N   UNL A   1      42.056  29.667  30.352  1.00  0.00    -0.248 NA
ATOM     41  C   UNL A   1      40.072  30.849  30.696  1.00  0.00     0.031 C 
ATOM     42  C   UNL A   1      39.776  26.658  27.953  1.00  0.00     0.029 A 
ATOM     43  N   UNL A   1      41.726  27.114  28.948  1.00  0.00    -0.354 N 
ATOM     44  C   UNL A   1      42.314  30.777  31.146  1.00  0.00     0.074 A 
ATOM     45  C   UNL A   1      41.063  31.486  31.303  1.00  0.00     0.031 C 
ATOM     46  C   UNL A   1      40.594  25.614  27.738  1.00  0.00     0.029 A 
ATOM     47  C   UNL A   1      41.899  25.902  28.325  1.00  0.00     0.049 A 
ATOM     48  H   UNL A   1      42.430  27.551  29.481  1.00  0.00     0.167 HD
ATOM     49  C   UNL A   1      43.491  31.170  31.687  1.00  0.00     0.037 A 
ATOM     50  C   UNL A   1      42.996  25.130  28.205  1.00  0.00     0.037 A 
ATOM     51  C   UNL A   1      44.722  30.431  31.583  1.00  0.00     0.049 A 
ATOM     52  C   UNL A   1      44.294  25.592  28.805  1.00  0.00     0.074 A 
ATOM     53  C   UNL A   1      45.966  30.746  32.101  1.00  0.00     0.029 A 
ATOM     54  N   UNL A   1      44.856  29.215  30.930  1.00  0.00    -0.354 N 
ATOM     55  N   UNL A   1      44.548  26.680  29.491  1.00  0.00    -0.248 NA
ATOM     56  C   UNL A   1      45.466  24.729  28.597  1.00  0.00     0.031 C 
ATOM     57  C   UNL A   1      46.860  29.730  31.743  1.00  0.00     0.029 A 
ATOM     58  C   UNL A   1      46.163  28.767  31.030  1.00  0.00     0.049 A 
ATOM     59  H   UNL A   1      44.130  28.740  30.463  1.00  0.00     0.167 HD
ATOM     60  C   UNL A   1      45.900  26.630  29.802  1.00  0.00     0.074 A 
ATOM     61  C   UNL A   1      46.411  25.393  29.248  1.00  0.00     0.031 C 
ATOM     62  C   UNL A   1      46.651  27.531  30.478  1.00  0.00     0.037 A 
BRANCH  49  63
ATOM     63  C   UNL A   1      43.514  32.480  32.415  1.00  0.00     0.064 A 
ATOM     64  C   UNL A   1      43.458  32.554  33.813  1.00  0.00     0.173 A 
ATOM     65  C   UNL A   1      43.626  33.679  31.695  1.00  0.00     0.173 A 
ATOM     66  F   UNL A   1      43.334  31.436  34.543  1.00  0.00    -0.203 F 
ATOM     67  C   UNL A   1      43.492  33.785  34.465  1.00  0.00     0.198 A 
ATOM     68  C   UNL A   1      43.684  34.906  32.350  1.00  0.00     0.198 A 
ATOM     69  F   UNL A   1      43.687  33.661  30.355  1.00  0.00    -0.203 F 
ATOM     70  F   UNL A   1      43.397  33.836  35.801  1.00  0.00    -0.200 F 
ATOM     71  C   UNL A   1      43.611  34.958  33.734  1.00  0.00     0.200 A 
ATOM     72  F   UNL A   1      43.809  36.037  31.643  1.00  0.00    -0.200 F 
ATOM     73  F   UNL A   1      43.650  36.141  34.363  1.00  0.00    -0.200 F 
ENDBRANCH  49  63
BRANCH  50  74
ATOM     74  C   UNL A   1      42.920  23.852  27.452  1.00  0.00     0.064 A 
ATOM     75  C   UNL A   1      43.265  23.795  26.095  1.00  0.00     0.173 A 
ATOM     76  C   UNL A   1      42.506  22.665  28.072  1.00  0.00     0.173 A 
ATOM     77  F   UNL A   1      43.638  24.910  25.451  1.00  0.00    -0.203 F 
ATOM     78  C   UNL A   1      43.192  22.597  25.386  1.00  0.00     0.198 A 
ATOM     79  C   UNL A   1      42.459  21.464  27.369  1.00  0.00     0.198 A 
ATOM     80  F   UNL A   1      42.161  22.670  29.369  1.00  0.00    -0.203 F 
ATOM     81  F   UNL A   1      43.490  22.576  24.079  1.00  0.00    -0.200 F 
ATOM     82  C   UNL A   1      42.796  21.432  26.025  1.00  0.00     0.200 A 
ATOM     83  F   UNL A   1      42.085  20.339  27.994  1.00  0.00    -0.200 F 
ATOM     84  F   UNL A   1      42.732  20.279  25.344  1.00  0.00    -0.200 F 
ENDBRANCH  50  74
BRANCH  62  85
ATOM     85  C   UNL A   1      48.100  27.202  30.679  1.00  0.00     0.064 A 
ATOM     86  C   UNL A   1      49.085  27.679  29.804  1.00  0.00     0.173 A 
ATOM     87  C   UNL A   1      48.508  26.435  31.781  1.00  0.00     0.173 A 
ATOM     88  F   UNL A   1      48.740  28.404  28.729  1.00  0.00    -0.203 F 
ATOM     89  C   UNL A   1      50.429  27.387  30.015  1.00  0.00     0.198 A 
ATOM     90  C   UNL A   1      49.854  26.161  32.000  1.00  0.00     0.198 A 
ATOM     91  F   UNL A   1      47.601  25.959  32.647  1.00  0.00    -0.203 F 
ATOM     92  F   UNL A   1      51.353  27.823  29.148  1.00  0.00    -0.200 F 
ATOM     93  C   UNL A   1      50.813  26.633  31.115  1.00  0.00     0.200 A 
ATOM     94  F   UNL A   1      50.225  25.440  33.066  1.00  0.00    -0.200 F 
ATOM     95  F   UNL A   1      52.108  26.355  31.320  1.00  0.00    -0.200 F 
ENDBRANCH  62  85
ENDBRANCH  36  37
ENDBRANCH  29  31
ENDBRANCH  28  29
ENDBRANCH  27  28
ENDBRANCH   1  27
TORSDOF 15
ENDMDL
MODEL 2
REMARK VINA RESULT:      -9.9      5.021      9.169
REMARK SMILES COc1cccc(-c2ccc(Nc3cccc(C(=O)OCCOC(=O)c4ccc(-c5c6nc(c(-c7c(F)c(F)c(F)c(F)c7F)c7ccc([nH]7)c(-c7c(F)c(F)c(F)c(F)c7F)c7nc(c(-c8c(F)c(F)c(F)c(F)c8F)c8ccc5[nH]8)C=C7)C=C6)cc4)c3)nn2)c1
REMARK SMILES IDX 21 1 20 2 18 3 19 4 17 5 13 6 14 7 89 8 15 9 16 10 12 11
REMARK SMILES IDX 11 13 8 14 9 15 91 16 10 17 90 18 7 19 3 20 4 21 92 22 5 23
REMARK SMILES IDX 6 24 2 25 1 26 22 27 23 28 24 29 25 30 26 31 27 32 88 33
REMARK SMILES IDX 28 34 87 35 29 36 30 37 31 38 81 39 32 40 86 41 80 42 82 43
REMARK SMILES IDX 33 44 85 45 79 46 78 47 34 49 66 50 46 51 65 52 47 53 50 54
REMARK SMILES IDX 64 55 83 56 48 57 49 58 63 60 84 61 51 62 35 63 36 64 44 65
REMARK SMILES IDX 37 66 38 67 42 68 45 69 39 70 40 71 43 72 41 73 67 74 68 75
REMARK SMILES IDX 76 76 69 77 70 78 74 79 77 80 71 81 72 82 75 83 73 84 52 85
REMARK SMILES IDX 53 86 61 87 54 88 55 89 59 90 62 91 56 92 57 93 60 94 58 95
REMARK H PARENT 12 12 82 48 50 59
REMARK Flexibility Score: inf
ROOT
ATOM      1  C   UNL A   1      35.944  20.362  25.018  1.00  0.00     0.275 C 
ENDROOT
BRANCH   1   2
ATOM      2  O   UNL A   1      34.878  21.121  25.625  1.00  0.00    -0.458 OA
BRANCH   2   3
ATOM      3  C   UNL A   1      33.621  20.639  25.453  1.00  0.00     0.338 C 
ATOM      4  O   UNL A   1      33.208  19.545  25.800  1.00  0.00    -0.246 OA
BRANCH   3   5
ATOM      5  C   UNL A   1      32.739  21.694  24.892  1.00  0.00     0.062 A 
ATOM      6  C   UNL A   1      31.287  23.626  25.158  1.00  0.00     0.040 A 
ATOM      7  C   UNL A   1      31.052  23.627  23.779  1.00  0.00     0.026 A 
ATOM      8  C   UNL A   1      32.106  22.629  25.711  1.00  0.00     0.041 A 
ATOM      9  C   UNL A   1      31.690  22.702  22.953  1.00  0.00     0.003 A 
ATOM     10  C   UNL A   1      32.560  21.764  23.505  1.00  0.00     0.016 A 
BRANCH   6  11
ATOM     11  N   UNL A   1      30.853  24.712  25.944  1.00  0.00    -0.339 N 
ATOM     12  H   UNL A   1      29.927  24.701  26.276  1.00  0.00     0.168 HD
BRANCH  11  13
ATOM     13  C   UNL A   1      31.665  25.811  26.281  1.00  0.00     0.153 A 
ATOM     14  C   UNL A   1      33.176  28.033  26.865  1.00  0.00     0.093 A 
ATOM     15  C   UNL A   1      33.698  27.059  26.024  1.00  0.00     0.035 A 
ATOM     16  N   UNL A   1      31.952  27.884  27.405  1.00  0.00    -0.148 NA
ATOM     17  C   UNL A   1      32.931  25.931  25.729  1.00  0.00     0.051 A 
ATOM     18  N   UNL A   1      31.200  26.778  27.102  1.00  0.00    -0.132 NA
BRANCH  14  19
ATOM     19  C   UNL A   1      33.867  29.280  27.193  1.00  0.00     0.006 A 
ATOM     20  C   UNL A   1      33.818  31.678  27.632  1.00  0.00     0.119 A 
ATOM     21  C   UNL A   1      35.194  31.669  27.849  1.00  0.00     0.046 A 
ATOM     22  C   UNL A   1      33.163  30.494  27.283  1.00  0.00     0.056 A 
ATOM     23  C   UNL A   1      35.909  30.476  27.777  1.00  0.00     0.005 A 
ATOM     24  C   UNL A   1      35.247  29.287  27.463  1.00  0.00     0.011 A 
BRANCH  20  25
ATOM     25  O   UNL A   1      33.200  32.893  27.745  1.00  0.00    -0.497 OA
ATOM     26  C   UNL A   1      33.978  33.892  28.400  1.00  0.00     0.278 C 
ENDBRANCH  20  25
ENDBRANCH  14  19
ENDBRANCH  11  13
ENDBRANCH   6  11
ENDBRANCH   3   5
ENDBRANCH   2   3
ENDBRANCH   1   2
BRANCH   1  27
ATOM     27  C   UNL A   1      37.087  21.290  24.614  1.00  0.00     0.275 C 
BRANCH  27  28
ATOM     28  O   UNL A   1      37.629  21.913  25.793  1.00  0.00    -0.458 OA
BRANCH  28  29
ATOM     29  C   UNL A   1      38.906  21.606  26.102  1.00  0.00     0.338 C 
ATOM     30  O   UNL A   1      39.476  20.533  25.973  1.00  0.00    -0.246 OA
BRANCH  29  31
ATOM     31  C   UNL A   1      39.562  22.807  26.637  1.00  0.00     0.060 A 
ATOM     32  C   UNL A   1      39.179  24.059  26.161  1.00  0.00     0.016 A 
ATOM     33  C   UNL A   1      40.621  22.692  27.534  1.00  0.00     0.016 A 
ATOM     34  C   UNL A   1      39.878  25.203  26.534  1.00  0.00     0.010 A 
ATOM     35  C   UNL A   1      41.284  23.847  27.962  1.00  0.00     0.010 A 
ATOM     36  C   UNL A   1      40.939  25.111  27.444  1.00  0.00    -0.014 A 
BRANCH  36  37
ATOM     37  C   UNL A   1      41.736  26.315  27.797  1.00  0.00     0.031 A 
ATOM     38  C   UNL A   1      41.141  27.359  28.701  1.00  0.00     0.074 A 
ATOM     39  C   UNL A   1      42.990  26.478  27.334  1.00  0.00     0.049 A 
ATOM     40  N   UNL A   1      41.573  28.562  28.981  1.00  0.00    -0.248 NA
ATOM     41  C   UNL A   1      39.881  27.003  29.374  1.00  0.00     0.031 C 
ATOM     42  C   UNL A   1      43.717  25.519  26.501  1.00  0.00     0.029 A 
ATOM     43  N   UNL A   1      43.876  27.515  27.499  1.00  0.00    -0.354 N 
ATOM     44  C   UNL A   1      40.611  29.127  29.808  1.00  0.00     0.074 A 
ATOM     45  C   UNL A   1      39.576  28.134  29.995  1.00  0.00     0.031 C 
ATOM     46  C   UNL A   1      44.945  26.001  26.248  1.00  0.00     0.029 A 
ATOM     47  C   UNL A   1      45.065  27.332  26.836  1.00  0.00     0.049 A 
ATOM     48  H   UNL A   1      43.678  28.312  28.041  1.00  0.00     0.167 HD
ATOM     49  C   UNL A   1      40.593  30.366  30.355  1.00  0.00     0.037 A 
ATOM     50  C   UNL A   1      46.116  28.160  26.685  1.00  0.00     0.037 A 
ATOM     51  C   UNL A   1      41.651  31.331  30.219  1.00  0.00     0.049 A 
ATOM     52  C   UNL A   1      46.068  29.535  27.292  1.00  0.00     0.074 A 
ATOM     53  C   UNL A   1      41.726  32.612  30.739  1.00  0.00     0.029 A 
ATOM     54  N   UNL A   1      42.832  31.111  29.527  1.00  0.00    -0.354 N 
ATOM     55  N   UNL A   1      45.123  30.089  28.010  1.00  0.00    -0.248 NA
ATOM     56  C   UNL A   1      47.226  30.408  27.049  1.00  0.00     0.031 C 
ATOM     57  C   UNL A   1      42.944  33.175  30.344  1.00  0.00     0.029 A 
ATOM     58  C   UNL A   1      43.641  32.233  29.605  1.00  0.00     0.049 A 
ATOM     59  H   UNL A   1      43.062  30.280  29.050  1.00  0.00     0.167 HD
ATOM     60  C   UNL A   1      45.571  31.368  28.311  1.00  0.00     0.074 A 
ATOM     61  C   UNL A   1      46.884  31.502  27.714  1.00  0.00     0.031 C 
ATOM     62  C   UNL A   1      44.947  32.345  29.011  1.00  0.00     0.037 A 
BRANCH  49  63
ATOM     63  C   UNL A   1      39.368  30.764  31.123  1.00  0.00     0.064 A 
ATOM     64  C   UNL A   1      38.319  31.477  30.529  1.00  0.00     0.173 A 
ATOM     65  C   UNL A   1      39.236  30.393  32.470  1.00  0.00     0.173 A 
ATOM     66  F   UNL A   1      38.408  31.868  29.249  1.00  0.00    -0.203 F 
ATOM     67  C   UNL A   1      37.187  31.825  31.263  1.00  0.00     0.198 A 
ATOM     68  C   UNL A   1      38.093  30.722  33.193  1.00  0.00     0.198 A 
ATOM     69  F   UNL A   1      40.212  29.707  33.082  1.00  0.00    -0.203 F 
ATOM     70  F   UNL A   1      36.212  32.542  30.688  1.00  0.00    -0.200 F 
ATOM     71  C   UNL A   1      37.072  31.442  32.592  1.00  0.00     0.200 A 
ATOM     72  F   UNL A   1      37.980  30.342  34.474  1.00  0.00    -0.200 F 
ATOM     73  F   UNL A   1      35.980  31.772  33.294  1.00  0.00    -0.200 F 
ENDBRANCH  49  63
BRANCH  50  74
ATOM     74  C   UNL A   1      47.293  27.721  25.892  1.00  0.00     0.064 A 
ATOM     75  C   UNL A   1      47.277  27.771  24.492  1.00  0.00     0.173 A 
ATOM     76  C   UNL A   1      48.456  27.248  26.516  1.00  0.00     0.173 A 
ATOM     77  F   UNL A   1      46.177  28.188  23.849  1.00  0.00    -0.203 F 
ATOM     78  C   UNL A   1      48.379  27.357  23.746  1.00  0.00     0.198 A 
ATOM     79  C   UNL A   1      49.566  26.859  25.771  1.00  0.00     0.198 A 
ATOM     80  F   UNL A   1      48.518  27.177  27.854  1.00  0.00    -0.203 F 
ATOM     81  F   UNL A   1      48.325  27.378  22.407  1.00  0.00    -0.200 F 
ATOM     82  C   UNL A   1      49.525  26.908  24.386  1.00  0.00     0.200 A 
ATOM     83  F   UNL A   1      50.674  26.435  26.394  1.00  0.00    -0.200 F 
ATOM     84  F   UNL A   1      50.587  26.517  23.668  1.00  0.00    -0.200 F 
ENDBRANCH  50  74
BRANCH  62  85
ATOM     85  C   UNL A   1      45.687  33.636  29.192  1.00  0.00     0.064 A 
ATOM     86  C   UNL A   1      46.563  33.831  30.268  1.00  0.00     0.173 A 
ATOM     87  C   UNL A   1      45.548  34.672  28.256  1.00  0.00     0.173 A 
ATOM     88  F   UNL A   1      46.716  32.874  31.196  1.00  0.00    -0.203 F 
ATOM     89  C   UNL A   1      47.262  35.025  30.412  1.00  0.00     0.198 A 
ATOM     90  C   UNL A   1      46.265  35.857  28.391  1.00  0.00     0.198 A 
ATOM     91  F   UNL A   1      44.724  34.529  27.207  1.00  0.00    -0.203 F 
ATOM     92  F   UNL A   1      48.069  35.206  31.467  1.00  0.00    -0.200 F 
ATOM     93  C   UNL A   1      47.117  36.035  29.471  1.00  0.00     0.200 A 
ATOM     94  F   UNL A   1      46.130  36.828  27.478  1.00  0.00    -0.200 F 
ATOM     95  F   UNL A   1      47.795  37.183  29.608  1.00  0.00    -0.200 F 
ENDBRANCH  62  85
ENDBRANCH  36  37
ENDBRANCH  29  31
ENDBRANCH  28  29
ENDBRANCH  27  28
ENDBRANCH   1  27
TORSDOF 15
ENDMDL
MODEL 3
REMARK VINA RESULT:      -9.9      0.362      2.016
REMARK SMILES COc1cccc(-c2ccc(Nc3cccc(C(=O)OCCOC(=O)c4ccc(-c5c6nc(c(-c7c(F)c(F)c(F)c(F)c7F)c7ccc([nH]7)c(-c7c(F)c(F)c(F)c(F)c7F)c7nc(c(-c8c(F)c(F)c(F)c(F)c8F)c8ccc5[nH]8)C=C7)C=C6)cc4)c3)nn2)c1
REMARK SMILES IDX 21 1 20 2 18 3 19 4 17 5 13 6 14 7 89 8 15 9 16 10 12 11
REMARK SMILES IDX 11 13 8 14 9 15 91 16 10 17 90 18 7 19 3 20 4 21 92 22 5 23
REMARK SMILES IDX 6 24 2 25 1 26 22 27 23 28 24 29 25 30 26 31 27 32 88 33
REMARK SMILES IDX 28 34 87 35 29 36 30 37 31 38 81 39 32 40 86 41 80 42 82 43
REMARK SMILES IDX 33 44 85 45 79 46 78 47 34 49 66 50 46 51 65 52 47 53 50 54
REMARK SMILES IDX 64 55 83 56 48 57 49 58 63 60 84 61 51 62 35 63 36 64 44 65
REMARK SMILES IDX 37 66 38 67 42 68 45 69 39 70 40 71 43 72 41 73 67 74 68 75
REMARK SMILES IDX 76 76 69 77 70 78 74 79 77 80 71 81 72 82 75 83 73 84 52 85
REMARK SMILES IDX 53 86 61 87 54 88 55 89 59 90 62 91 56 92 57 93 60 94 58 95
REMARK H PARENT 12 12 82 48 50 59
REMARK Flexibility Score: inf
ROOT
ATOM      1  C   UNL A   1      34.988  33.470  28.266  1.00  0.00     0.275 C 
ENDROOT
BRANCH   1   2
ATOM      2  O   UNL A   1      35.547  33.513  29.594  1.00  0.00    -0.458 OA
BRANCH   2   3
ATOM      3  C   UNL A   1      36.872  33.240  29.701  1.00  0.00     0.338 C 
ATOM      4  O   UNL A   1      37.667  33.132  28.783  1.00  0.00    -0.246 OA
BRANCH   3   5
ATOM      5  C   UNL A   1      37.279  33.222  31.128  1.00  0.00     0.062 A 
ATOM      6  C   UNL A   1      37.562  32.075  33.253  1.00  0.00     0.040 A 
ATOM      7  C   UNL A   1      38.020  33.266  33.825  1.00  0.00     0.026 A 
ATOM      8  C   UNL A   1      37.159  32.073  31.908  1.00  0.00     0.041 A 
ATOM      9  C   UNL A   1      38.154  34.417  33.048  1.00  0.00     0.003 A 
ATOM     10  C   UNL A   1      37.820  34.383  31.695  1.00  0.00     0.016 A 
BRANCH   6  11
ATOM     11  N   UNL A   1      37.677  30.866  33.967  1.00  0.00    -0.339 N 
ATOM     12  H   UNL A   1      36.908  30.572  34.506  1.00  0.00     0.168 HD
BRANCH  11  13
ATOM     13  C   UNL A   1      38.827  30.053  33.954  1.00  0.00     0.153 A 
ATOM     14  C   UNL A   1      41.008  28.381  34.007  1.00  0.00     0.093 A 
ATOM     15  C   UNL A   1      41.051  29.574  34.715  1.00  0.00     0.035 A 
ATOM     16  N   UNL A   1      39.920  28.053  33.286  1.00  0.00    -0.148 NA
ATOM     17  C   UNL A   1      39.943  30.422  34.687  1.00  0.00     0.051 A 
ATOM     18  N   UNL A   1      38.832  28.887  33.272  1.00  0.00    -0.132 NA
BRANCH  14  19
ATOM     19  C   UNL A   1      42.087  27.391  34.014  1.00  0.00     0.006 A 
ATOM     20  C   UNL A   1      43.013  25.274  34.790  1.00  0.00     0.119 A 
ATOM     21  C   UNL A   1      44.147  25.480  34.007  1.00  0.00     0.046 A 
ATOM     22  C   UNL A   1      42.000  26.235  34.811  1.00  0.00     0.056 A 
ATOM     23  C   UNL A   1      44.247  26.611  33.201  1.00  0.00     0.005 A 
ATOM     24  C   UNL A   1      43.217  27.554  33.196  1.00  0.00     0.011 A 
BRANCH  20  25
ATOM     25  O   UNL A   1      42.997  24.123  35.531  1.00  0.00    -0.497 OA
ATOM     26  C   UNL A   1      43.538  22.985  34.865  1.00  0.00     0.278 C 
ENDBRANCH  20  25
ENDBRANCH  14  19
ENDBRANCH  11  13
ENDBRANCH   6  11
ENDBRANCH   3   5
ENDBRANCH   2   3
ENDBRANCH   1   2
BRANCH   1  27
ATOM     27  C   UNL A   1      34.012  32.302  28.142  1.00  0.00     0.275 C 
BRANCH  27  28
ATOM     28  O   UNL A   1      34.566  31.316  27.253  1.00  0.00    -0.458 OA
BRANCH  28  29
ATOM     29  C   UNL A   1      34.670  30.061  27.738  1.00  0.00     0.338 C 
ATOM     30  O   UNL A   1      33.798  29.210  27.818  1.00  0.00    -0.246 OA
BRANCH  29  31
ATOM     31  C   UNL A   1      36.056  29.838  28.173  1.00  0.00     0.060 A 
ATOM     32  C   UNL A   1      37.094  30.049  27.268  1.00  0.00     0.016 A 
ATOM     33  C   UNL A   1      36.324  29.328  29.441  1.00  0.00     0.016 A 
ATOM     34  C   UNL A   1      38.402  29.706  27.599  1.00  0.00     0.010 A 
ATOM     35  C   UNL A   1      37.646  29.044  29.800  1.00  0.00     0.010 A 
ATOM     36  C   UNL A   1      38.694  29.202  28.872  1.00  0.00    -0.014 A 
BRANCH  36  37
ATOM     37  C   UNL A   1      40.075  28.770  29.214  1.00  0.00     0.031 A 
ATOM     38  C   UNL A   1      40.940  29.656  30.067  1.00  0.00     0.074 A 
ATOM     39  C   UNL A   1      40.558  27.589  28.784  1.00  0.00     0.049 A 
ATOM     40  N   UNL A   1      42.220  29.571  30.324  1.00  0.00    -0.248 NA
ATOM     41  C   UNL A   1      40.273  30.799  30.712  1.00  0.00     0.031 C 
ATOM     42  C   UNL A   1      39.812  26.601  28.003  1.00  0.00     0.029 A 
ATOM     43  N   UNL A   1      41.798  27.019  28.944  1.00  0.00    -0.354 N 
ATOM     44  C   UNL A   1      42.524  30.680  31.104  1.00  0.00     0.074 A 
ATOM     45  C   UNL A   1      41.293  31.418  31.289  1.00  0.00     0.031 C 
ATOM     46  C   UNL A   1      40.601  25.538  27.773  1.00  0.00     0.029 A 
ATOM     47  C   UNL A   1      41.927  25.801  28.324  1.00  0.00     0.049 A 
ATOM     48  H   UNL A   1      42.524  27.443  29.456  1.00  0.00     0.167 HD
ATOM     49  C   UNL A   1      43.723  31.049  31.612  1.00  0.00     0.037 A 
ATOM     50  C   UNL A   1      43.003  25.004  28.180  1.00  0.00     0.037 A 
ATOM     51  C   UNL A   1      44.934  30.283  31.480  1.00  0.00     0.049 A 
ATOM     52  C   UNL A   1      44.327  25.440  28.743  1.00  0.00     0.074 A 
ATOM     53  C   UNL A   1      46.198  30.573  31.962  1.00  0.00     0.029 A 
ATOM     54  N   UNL A   1      45.024  29.061  30.830  1.00  0.00    -0.354 N 
ATOM     55  N   UNL A   1      44.622  26.525  29.416  1.00  0.00    -0.248 NA
ATOM     56  C   UNL A   1      45.474  24.550  28.509  1.00  0.00     0.031 C 
ATOM     57  C   UNL A   1      47.059  29.535  31.588  1.00  0.00     0.029 A 
ATOM     58  C   UNL A   1      46.323  28.585  30.899  1.00  0.00     0.049 A 
ATOM     59  H   UNL A   1      44.276  28.600  30.386  1.00  0.00     0.167 HD
ATOM     60  C   UNL A   1      45.980  26.447  29.691  1.00  0.00     0.074 A 
ATOM     61  C   UNL A   1      46.450  25.197  29.131  1.00  0.00     0.031 C 
ATOM     62  C   UNL A   1      46.769  27.335  30.342  1.00  0.00     0.037 A 
BRANCH  49  63
ATOM     63  C   UNL A   1      43.794  32.363  32.330  1.00  0.00     0.064 A 
ATOM     64  C   UNL A   1      43.871  33.582  31.643  1.00  0.00     0.173 A 
ATOM     65  C   UNL A   1      43.751  32.398  33.732  1.00  0.00     0.173 A 
ATOM     66  F   UNL A   1      43.931  33.598  30.303  1.00  0.00    -0.203 F 
ATOM     67  C   UNL A   1      43.925  34.790  32.335  1.00  0.00     0.198 A 
ATOM     68  C   UNL A   1      43.781  33.608  34.420  1.00  0.00     0.198 A 
ATOM     69  F   UNL A   1      43.674  31.258  34.436  1.00  0.00    -0.203 F 
ATOM     70  F   UNL A   1      44.038  35.942  31.660  1.00  0.00    -0.200 F 
ATOM     71  C   UNL A   1      43.873  34.802  33.721  1.00  0.00     0.200 A 
ATOM     72  F   UNL A   1      43.722  33.618  35.759  1.00  0.00    -0.200 F 
ATOM     73  F   UNL A   1      43.918  35.965  34.385  1.00  0.00    -0.200 F 
ENDBRANCH  49  63
BRANCH  50  74
ATOM     74  C   UNL A   1      42.880  23.724  27.437  1.00  0.00     0.064 A 
ATOM     75  C   UNL A   1      42.400  22.569  28.067  1.00  0.00     0.173 A 
ATOM     76  C   UNL A   1      43.236  23.630  26.083  1.00  0.00     0.173 A 
ATOM     77  F   UNL A   1      42.075  22.601  29.368  1.00  0.00    -0.203 F 
ATOM     78  C   UNL A   1      42.287  21.365  27.373  1.00  0.00     0.198 A 
ATOM     79  C   UNL A   1      43.098  22.434  25.384  1.00  0.00     0.198 A 
ATOM     80  F   UNL A   1      43.706  24.707  25.437  1.00  0.00    -0.203 F 
ATOM     81  F   UNL A   1      41.861  20.265  28.009  1.00  0.00    -0.200 F 
ATOM     82  C   UNL A   1      42.629  21.301  26.030  1.00  0.00     0.200 A 
ATOM     83  F   UNL A   1      43.421  22.379  24.085  1.00  0.00    -0.200 F 
ATOM     84  F   UNL A   1      42.513  20.145  25.362  1.00  0.00    -0.200 F 
ENDBRANCH  50  74
BRANCH  62  85
ATOM     85  C   UNL A   1      48.215  26.975  30.507  1.00  0.00     0.064 A 
ATOM     86  C   UNL A   1      48.647  26.149  31.553  1.00  0.00     0.173 A 
ATOM     87  C   UNL A   1      49.169  27.427  29.584  1.00  0.00     0.173 A 
ATOM     88  F   UNL A   1      47.772  25.704  32.467  1.00  0.00    -0.203 F 
ATOM     89  C   UNL A   1      49.988  25.801  31.681  1.00  0.00     0.198 A 
ATOM     90  C   UNL A   1      50.507  27.062  29.703  1.00  0.00     0.198 A 
ATOM     91  F   UNL A   1      48.802  28.217  28.564  1.00  0.00    -0.203 F 
ATOM     92  F   UNL A   1      50.388  25.038  32.708  1.00  0.00    -0.200 F 
ATOM     93  C   UNL A   1      50.916  26.253  30.753  1.00  0.00     0.200 A 
ATOM     94  F   UNL A   1      51.401  27.492  28.802  1.00  0.00    -0.200 F 
ATOM     95  F   UNL A   1      52.207  25.915  30.875  1.00  0.00    -0.200 F 
ENDBRANCH  62  85
ENDBRANCH  36  37
ENDBRANCH  29  31
ENDBRANCH  28  29
ENDBRANCH  27  28
ENDBRANCH   1  27
TORSDOF 15
ENDMDL
