MODEL 1
REMARK VINA RESULT:     -11.4      0.000      0.000
REMARK SMILES O=C(OCCOC(=O)[C@@]1(Cl)C[C@@H]2CC[C@H]1C2)c1ccc(-c2c3nc(c(-c4c(F)c(F)c(F)c(F)c4F)c4ccc([nH]4)c(-c4c(F)c(F)c(F)c(F)c4F)c4nc(c(-c5c(F)c(F)c(F)c(F)c5F)c5ccc2[nH]5)C=C4)C=C3)cc1
REMARK SMILES IDX 4 1 3 2 2 3 1 4 17 5 18 6 79 7 19 8 78 9 20 10 21 11 22 12
REMARK SMILES IDX 72 13 23 14 77 15 71 16 73 17 24 18 76 19 70 20 69 21 25 23
REMARK SMILES IDX 57 24 37 25 56 26 38 27 41 28 55 29 74 30 39 31 40 32 54 34
REMARK SMILES IDX 75 35 42 36 26 37 27 38 35 39 28 40 29 41 33 42 36 43 30 44
REMARK SMILES IDX 31 45 34 46 32 47 58 48 59 49 67 50 60 51 61 52 65 53 68 54
REMARK SMILES IDX 62 55 63 56 66 57 64 58 43 59 44 60 52 61 45 62 46 63 50 64
REMARK SMILES IDX 53 65 47 66 48 67 51 68 49 69 5 70 6 71 7 72 8 73 9 74 11 75
REMARK SMILES IDX 15 76 10 77 12 78 14 79 16 80 13 81
REMARK H PARENT 73 22 41 33
REMARK Flexibility Score: inf
ROOT
ATOM      1  C   UNL A   1      42.078  19.353  27.473  1.00  0.00     0.275 C 
ENDROOT
BRANCH   1   2
ATOM      2  O   UNL A   1      40.770  19.948  27.538  1.00  0.00    -0.458 OA
BRANCH   2   3
ATOM      3  C   UNL A   1      40.290  21.071  26.944  1.00  0.00     0.338 C 
ATOM      4  O   UNL A   1      39.607  20.968  25.939  1.00  0.00    -0.246 OA
BRANCH   3   5
ATOM      5  C   UNL A   1      40.692  22.448  27.370  1.00  0.00     0.060 A 
ATOM      6  C   UNL A   1      41.506  22.771  28.457  1.00  0.00     0.016 A 
ATOM      7  C   UNL A   1      40.200  23.501  26.578  1.00  0.00     0.016 A 
ATOM      8  C   UNL A   1      41.930  24.091  28.674  1.00  0.00     0.010 A 
ATOM      9  C   UNL A   1      40.646  24.814  26.773  1.00  0.00     0.010 A 
ATOM     10  C   UNL A   1      41.534  25.120  27.814  1.00  0.00    -0.014 A 
BRANCH  10  11
ATOM     11  C   UNL A   1      41.971  26.522  28.042  1.00  0.00     0.031 A 
ATOM     12  C   UNL A   1      43.387  26.900  27.721  1.00  0.00     0.074 A 
ATOM     13  C   UNL A   1      41.132  27.446  28.555  1.00  0.00     0.049 A 
ATOM     14  N   UNL A   1      43.964  28.071  27.797  1.00  0.00    -0.248 NA
ATOM     15  C   UNL A   1      44.268  25.825  27.235  1.00  0.00     0.031 C 
ATOM     16  C   UNL A   1      39.730  27.226  28.902  1.00  0.00     0.029 A 
ATOM     17  N   UNL A   1      41.353  28.752  28.925  1.00  0.00    -0.354 N 
ATOM     18  C   UNL A   1      45.236  27.887  27.280  1.00  0.00     0.074 A 
ATOM     19  C   UNL A   1      45.407  26.470  27.050  1.00  0.00     0.031 C 
ATOM     20  C   UNL A   1      39.250  28.308  29.539  1.00  0.00     0.029 A 
ATOM     21  C   UNL A   1      40.293  29.325  29.590  1.00  0.00     0.049 A 
ATOM     22  H   UNL A   1      42.191  29.232  28.733  1.00  0.00     0.167 HD
ATOM     23  C   UNL A   1      46.144  28.825  26.927  1.00  0.00     0.037 A 
ATOM     24  C   UNL A   1      40.178  30.538  30.164  1.00  0.00     0.037 A 
ATOM     25  C   UNL A   1      45.993  30.226  27.195  1.00  0.00     0.049 A 
ATOM     26  C   UNL A   1      41.277  31.542  29.938  1.00  0.00     0.074 A 
ATOM     27  C   UNL A   1      46.842  31.270  26.877  1.00  0.00     0.029 A 
ATOM     28  N   UNL A   1      44.916  30.776  27.877  1.00  0.00    -0.354 N 
ATOM     29  N   UNL A   1      42.417  31.388  29.310  1.00  0.00    -0.248 NA
ATOM     30  C   UNL A   1      41.041  32.906  30.427  1.00  0.00     0.031 C 
ATOM     31  C   UNL A   1      46.295  32.447  27.401  1.00  0.00     0.029 A 
ATOM     32  C   UNL A   1      45.086  32.143  28.009  1.00  0.00     0.049 A 
ATOM     33  H   UNL A   1      44.143  30.268  28.216  1.00  0.00     0.167 HD
ATOM     34  C   UNL A   1      42.997  32.648  29.255  1.00  0.00     0.074 A 
ATOM     35  C   UNL A   1      42.090  33.551  29.935  1.00  0.00     0.031 C 
ATOM     36  C   UNL A   1      44.160  33.027  28.670  1.00  0.00     0.037 A 
BRANCH  23  37
ATOM     37  C   UNL A   1      47.331  28.335  26.154  1.00  0.00     0.064 A 
ATOM     38  C   UNL A   1      47.204  28.008  24.792  1.00  0.00     0.173 A 
ATOM     39  C   UNL A   1      48.572  28.134  26.767  1.00  0.00     0.173 A 
ATOM     40  F   UNL A   1      46.027  28.163  24.166  1.00  0.00    -0.203 F 
ATOM     41  C   UNL A   1      48.267  27.456  24.086  1.00  0.00     0.198 A 
ATOM     42  C   UNL A   1      49.643  27.606  26.049  1.00  0.00     0.198 A 
ATOM     43  F   UNL A   1      48.741  28.426  28.064  1.00  0.00    -0.203 F 
ATOM     44  F   UNL A   1      48.100  27.085  22.808  1.00  0.00    -0.200 F 
ATOM     45  C   UNL A   1      49.486  27.254  24.714  1.00  0.00     0.200 A 
ATOM     46  F   UNL A   1      50.822  27.411  26.654  1.00  0.00    -0.200 F 
ATOM     47  F   UNL A   1      50.505  26.706  24.039  1.00  0.00    -0.200 F 
ENDBRANCH  23  37
BRANCH  24  48
ATOM     48  C   UNL A   1      38.967  30.900  30.949  1.00  0.00     0.064 A 
ATOM     49  C   UNL A   1      37.868  31.533  30.351  1.00  0.00     0.173 A 
ATOM     50  C   UNL A   1      38.911  30.673  32.333  1.00  0.00     0.173 A 
ATOM     51  F   UNL A   1      37.880  31.788  29.034  1.00  0.00    -0.203 F 
ATOM     52  C   UNL A   1      36.780  31.961  31.109  1.00  0.00     0.198 A 
ATOM     53  C   UNL A   1      37.812  31.083  33.088  1.00  0.00     0.198 A 
ATOM     54  F   UNL A   1      39.931  30.065  32.956  1.00  0.00    -0.203 F 
ATOM     55  F   UNL A   1      35.770  32.616  30.519  1.00  0.00    -0.200 F 
ATOM     56  C   UNL A   1      36.753  31.738  32.478  1.00  0.00     0.200 A 
ATOM     57  F   UNL A   1      37.787  30.860  34.410  1.00  0.00    -0.200 F 
ATOM     58  F   UNL A   1      35.713  32.164  33.208  1.00  0.00    -0.200 F 
ENDBRANCH  24  48
BRANCH  36  59
ATOM     59  C   UNL A   1      44.482  34.492  28.675  1.00  0.00     0.064 A 
ATOM     60  C   UNL A   1      45.299  35.067  29.658  1.00  0.00     0.173 A 
ATOM     61  C   UNL A   1      43.985  35.324  27.661  1.00  0.00     0.173 A 
ATOM     62  F   UNL A   1      45.781  34.316  30.659  1.00  0.00    -0.203 F 
ATOM     63  C   UNL A   1      45.586  36.429  29.639  1.00  0.00     0.198 A 
ATOM     64  C   UNL A   1      44.301  36.678  27.627  1.00  0.00     0.198 A 
ATOM     65  F   UNL A   1      43.199  34.821  26.696  1.00  0.00    -0.203 F 
ATOM     66  F   UNL A   1      46.324  36.968  30.619  1.00  0.00    -0.200 F 
ATOM     67  C   UNL A   1      45.094  37.231  28.620  1.00  0.00     0.200 A 
ATOM     68  F   UNL A   1      43.835  37.449  26.633  1.00  0.00    -0.200 F 
ATOM     69  F   UNL A   1      45.378  38.541  28.601  1.00  0.00    -0.200 F 
ENDBRANCH  36  59
ENDBRANCH  10  11
ENDBRANCH   3   5
ENDBRANCH   2   3
ENDBRANCH   1   2
BRANCH   1  70
ATOM     70  C   UNL A   1      42.444  18.727  26.127  1.00  0.00     0.274 C 
BRANCH  70  71
ATOM     71  O   UNL A   1      43.067  19.658  25.230  1.00  0.00    -0.461 OA
BRANCH  71  72
ATOM     72  C   UNL A   1      44.392  19.459  24.960  1.00  0.00     0.327 C 
ATOM     73  O   UNL A   1      44.931  18.359  24.998  1.00  0.00    -0.250 OA
BRANCH  72  74
ATOM     74  C   UNL A   1      45.158  20.771  24.661  1.00  0.00     0.145 C 
ATOM     75  C   UNL A   1      44.575  21.657  23.550  1.00  0.00     0.039 C 
ATOM     76  C   UNL A   1      45.072  21.723  25.889  1.00  0.00     0.022 C 
ATOM     77  Cl  UNL A   1      46.832  20.282  24.257  1.00  0.00    -0.106 Cl
ATOM     78  C   UNL A   1      44.172  22.951  24.269  1.00  0.00    -0.008 C 
ATOM     79  C   UNL A   1      46.027  22.931  25.768  1.00  0.00     0.006 C 
ATOM     80  C   UNL A   1      43.730  22.421  25.630  1.00  0.00     0.009 C 
ATOM     81  C   UNL A   1      45.428  23.748  24.617  1.00  0.00     0.004 C 
ENDBRANCH  72  74
ENDBRANCH  71  72
ENDBRANCH  70  71
ENDBRANCH   1  70
TORSDOF 11
ENDMDL
MODEL 2
REMARK VINA RESULT:     -11.2      6.445     13.014
REMARK SMILES O=C(OCCOC(=O)[C@@]1(Cl)C[C@@H]2CC[C@H]1C2)c1ccc(-c2c3nc(c(-c4c(F)c(F)c(F)c(F)c4F)c4ccc([nH]4)c(-c4c(F)c(F)c(F)c(F)c4F)c4nc(c(-c5c(F)c(F)c(F)c(F)c5F)c5ccc2[nH]5)C=C4)C=C3)cc1
REMARK SMILES IDX 4 1 3 2 2 3 1 4 17 5 18 6 79 7 19 8 78 9 20 10 21 11 22 12
REMARK SMILES IDX 72 13 23 14 77 15 71 16 73 17 24 18 76 19 70 20 69 21 25 23
REMARK SMILES IDX 57 24 37 25 56 26 38 27 41 28 55 29 74 30 39 31 40 32 54 34
REMARK SMILES IDX 75 35 42 36 26 37 27 38 35 39 28 40 29 41 33 42 36 43 30 44
REMARK SMILES IDX 31 45 34 46 32 47 58 48 59 49 67 50 60 51 61 52 65 53 68 54
REMARK SMILES IDX 62 55 63 56 66 57 64 58 43 59 44 60 52 61 45 62 46 63 50 64
REMARK SMILES IDX 53 65 47 66 48 67 51 68 49 69 5 70 6 71 7 72 8 73 9 74 11 75
REMARK SMILES IDX 15 76 10 77 12 78 14 79 16 80 13 81
REMARK H PARENT 73 22 41 33
REMARK Flexibility Score: inf
ROOT
ATOM      1  C   UNL A   1      34.062  36.046  28.136  1.00  0.00     0.275 C 
ENDROOT
BRANCH   1   2
ATOM      2  O   UNL A   1      33.374  34.798  28.323  1.00  0.00    -0.458 OA
BRANCH   2   3
ATOM      3  C   UNL A   1      33.729  33.540  27.957  1.00  0.00     0.338 C 
ATOM      4  O   UNL A   1      32.941  32.858  27.324  1.00  0.00    -0.246 OA
BRANCH   3   5
ATOM      5  C   UNL A   1      34.988  32.883  28.430  1.00  0.00     0.060 A 
ATOM      6  C   UNL A   1      36.284  33.380  28.281  1.00  0.00     0.016 A 
ATOM      7  C   UNL A   1      34.824  31.655  29.095  1.00  0.00     0.016 A 
ATOM      8  C   UNL A   1      37.375  32.744  28.892  1.00  0.00     0.010 A 
ATOM      9  C   UNL A   1      35.906  31.035  29.733  1.00  0.00     0.010 A 
ATOM     10  C   UNL A   1      37.193  31.586  29.654  1.00  0.00    -0.014 A 
BRANCH  10  11
ATOM     11  C   UNL A   1      38.344  30.899  30.296  1.00  0.00     0.031 A 
ATOM     12  C   UNL A   1      38.791  31.356  31.654  1.00  0.00     0.074 A 
ATOM     13  C   UNL A   1      39.007  29.903  29.674  1.00  0.00     0.049 A 
ATOM     14  N   UNL A   1      39.738  30.870  32.416  1.00  0.00    -0.248 NA
ATOM     15  C   UNL A   1      38.071  32.497  32.243  1.00  0.00     0.031 C 
ATOM     16  C   UNL A   1      38.679  29.350  28.362  1.00  0.00     0.029 A 
ATOM     17  N   UNL A   1      40.135  29.207  30.042  1.00  0.00    -0.354 N 
ATOM     18  C   UNL A   1      39.656  31.582  33.600  1.00  0.00     0.074 A 
ATOM     19  C   UNL A   1      38.689  32.639  33.403  1.00  0.00     0.031 C 
ATOM     20  C   UNL A   1      39.642  28.492  27.983  1.00  0.00     0.029 A 
ATOM     21  C   UNL A   1      40.626  28.387  29.053  1.00  0.00     0.049 A 
ATOM     22  H   UNL A   1      40.552  29.289  30.931  1.00  0.00     0.167 HD
ATOM     23  C   UNL A   1      40.254  31.317  34.784  1.00  0.00     0.037 A 
ATOM     24  C   UNL A   1      41.740  27.630  29.022  1.00  0.00     0.037 A 
ATOM     25  C   UNL A   1      41.246  30.297  34.969  1.00  0.00     0.049 A 
ATOM     26  C   UNL A   1      42.531  27.473  30.293  1.00  0.00     0.074 A 
ATOM     27  C   UNL A   1      41.915  29.932  36.122  1.00  0.00     0.029 A 
ATOM     28  N   UNL A   1      41.731  29.489  33.949  1.00  0.00    -0.354 N 
ATOM     29  N   UNL A   1      42.345  28.048  31.456  1.00  0.00    -0.248 NA
ATOM     30  C   UNL A   1      43.635  26.505  30.273  1.00  0.00     0.031 C 
ATOM     31  C   UNL A   1      42.831  28.927  35.791  1.00  0.00     0.029 A 
ATOM     32  C   UNL A   1      42.705  28.639  34.440  1.00  0.00     0.049 A 
ATOM     33  H   UNL A   1      41.425  29.517  33.013  1.00  0.00     0.167 HD
ATOM     34  C   UNL A   1      43.250  27.454  32.325  1.00  0.00     0.074 A 
ATOM     35  C   UNL A   1      44.000  26.489  31.547  1.00  0.00     0.031 C 
ATOM     36  C   UNL A   1      43.423  27.669  33.653  1.00  0.00     0.037 A 
BRANCH  23  37
ATOM     37  C   UNL A   1      39.775  32.116  35.958  1.00  0.00     0.064 A 
ATOM     38  C   UNL A   1      38.657  31.689  36.697  1.00  0.00     0.173 A 
ATOM     39  C   UNL A   1      40.379  33.325  36.318  1.00  0.00     0.173 A 
ATOM     40  F   UNL A   1      38.029  30.547  36.375  1.00  0.00    -0.203 F 
ATOM     41  C   UNL A   1      38.136  32.469  37.724  1.00  0.00     0.198 A 
ATOM     42  C   UNL A   1      39.871  34.090  37.365  1.00  0.00     0.198 A 
ATOM     43  F   UNL A   1      41.445  33.777  35.641  1.00  0.00    -0.203 F 
ATOM     44  F   UNL A   1      37.026  32.076  38.364  1.00  0.00    -0.200 F 
ATOM     45  C   UNL A   1      38.743  33.670  38.058  1.00  0.00     0.200 A 
ATOM     46  F   UNL A   1      40.457  35.251  37.691  1.00  0.00    -0.200 F 
ATOM     47  F   UNL A   1      38.231  34.429  39.035  1.00  0.00    -0.200 F 
ENDBRANCH  23  37
BRANCH  24  48
ATOM     48  C   UNL A   1      42.143  26.914  27.781  1.00  0.00     0.064 A 
ATOM     49  C   UNL A   1      41.683  25.621  27.499  1.00  0.00     0.173 A 
ATOM     50  C   UNL A   1      43.051  27.491  26.880  1.00  0.00     0.173 A 
ATOM     51  F   UNL A   1      40.827  25.018  28.338  1.00  0.00    -0.203 F 
ATOM     52  C   UNL A   1      42.143  24.916  26.388  1.00  0.00     0.198 A 
ATOM     53  C   UNL A   1      43.495  26.793  25.757  1.00  0.00     0.198 A 
ATOM     54  F   UNL A   1      43.519  28.730  27.098  1.00  0.00    -0.203 F 
ATOM     55  F   UNL A   1      41.730  23.659  26.175  1.00  0.00    -0.200 F 
ATOM     56  C   UNL A   1      43.051  25.502  25.518  1.00  0.00     0.200 A 
ATOM     57  F   UNL A   1      44.368  27.366  24.915  1.00  0.00    -0.200 F 
ATOM     58  F   UNL A   1      43.505  24.818  24.459  1.00  0.00    -0.200 F 
ENDBRANCH  24  48
BRANCH  36  59
ATOM     59  C   UNL A   1      44.413  26.794  34.363  1.00  0.00     0.064 A 
ATOM     60  C   UNL A   1      45.751  27.175  34.533  1.00  0.00     0.173 A 
ATOM     61  C   UNL A   1      44.003  25.567  34.906  1.00  0.00     0.173 A 
ATOM     62  F   UNL A   1      46.195  28.329  34.013  1.00  0.00    -0.203 F 
ATOM     63  C   UNL A   1      46.649  26.346  35.198  1.00  0.00     0.198 A 
ATOM     64  C   UNL A   1      44.896  24.757  35.600  1.00  0.00     0.198 A 
ATOM     65  F   UNL A   1      42.731  25.158  34.772  1.00  0.00    -0.203 F 
ATOM     66  F   UNL A   1      47.936  26.705  35.302  1.00  0.00    -0.200 F 
ATOM     67  C   UNL A   1      46.220  25.143  35.738  1.00  0.00     0.200 A 
ATOM     68  F   UNL A   1      44.475  23.601  36.133  1.00  0.00    -0.200 F 
ATOM     69  F   UNL A   1      47.086  24.351  36.386  1.00  0.00    -0.200 F 
ENDBRANCH  36  59
ENDBRANCH  10  11
ENDBRANCH   3   5
ENDBRANCH   2   3
ENDBRANCH   1   2
BRANCH   1  70
ATOM     70  C   UNL A   1      33.632  37.177  29.073  1.00  0.00     0.274 C 
BRANCH  70  71
ATOM     71  O   UNL A   1      32.719  36.739  30.090  1.00  0.00    -0.461 OA
BRANCH  71  72
ATOM     72  C   UNL A   1      33.054  37.028  31.383  1.00  0.00     0.327 C 
ATOM     73  O   UNL A   1      33.254  38.167  31.790  1.00  0.00    -0.250 OA
BRANCH  72  74
ATOM     74  C   UNL A   1      33.217  35.769  32.268  1.00  0.00     0.145 C 
ATOM     75  C   UNL A   1      33.485  34.450  31.526  1.00  0.00     0.039 C 
ATOM     76  C   UNL A   1      34.501  35.897  33.137  1.00  0.00     0.022 C 
ATOM     77  Cl  UNL A   1      31.715  35.647  33.234  1.00  0.00    -0.106 Cl
ATOM     78  C   UNL A   1      34.884  34.028  31.995  1.00  0.00    -0.008 C 
ATOM     79  C   UNL A   1      34.588  34.807  34.229  1.00  0.00     0.006 C 
ATOM     80  C   UNL A   1      35.571  35.381  32.165  1.00  0.00     0.009 C 
ATOM     81  C   UNL A   1      34.802  33.517  33.431  1.00  0.00     0.004 C 
ENDBRANCH  72  74
ENDBRANCH  71  72
ENDBRANCH  70  71
ENDBRANCH   1  70
TORSDOF 11
ENDMDL
MODEL 3
REMARK VINA RESULT:     -11.2      6.220     12.681
REMARK SMILES O=C(OCCOC(=O)[C@@]1(Cl)C[C@@H]2CC[C@H]1C2)c1ccc(-c2c3nc(c(-c4c(F)c(F)c(F)c(F)c4F)c4ccc([nH]4)c(-c4c(F)c(F)c(F)c(F)c4F)c4nc(c(-c5c(F)c(F)c(F)c(F)c5F)c5ccc2[nH]5)C=C4)C=C3)cc1
REMARK SMILES IDX 4 1 3 2 2 3 1 4 17 5 18 6 79 7 19 8 78 9 20 10 21 11 22 12
REMARK SMILES IDX 72 13 23 14 77 15 71 16 73 17 24 18 76 19 70 20 69 21 25 23
REMARK SMILES IDX 57 24 37 25 56 26 38 27 41 28 55 29 74 30 39 31 40 32 54 34
REMARK SMILES IDX 75 35 42 36 26 37 27 38 35 39 28 40 29 41 33 42 36 43 30 44
REMARK SMILES IDX 31 45 34 46 32 47 58 48 59 49 67 50 60 51 61 52 65 53 68 54
REMARK SMILES IDX 62 55 63 56 66 57 64 58 43 59 44 60 52 61 45 62 46 63 50 64
REMARK SMILES IDX 53 65 47 66 48 67 51 68 49 69 5 70 6 71 7 72 8 73 9 74 11 75
REMARK SMILES IDX 15 76 10 77 12 78 14 79 16 80 13 81
REMARK H PARENT 73 22 41 33
REMARK Flexibility Score: inf
ROOT
ATOM      1  C   UNL A   1      33.939  34.388  28.154  1.00  0.00     0.275 C 
ENDROOT
BRANCH   1   2
ATOM      2  O   UNL A   1      33.304  33.124  27.896  1.00  0.00    -0.458 OA
BRANCH   2   3
ATOM      3  C   UNL A   1      33.846  31.927  27.553  1.00  0.00     0.338 C 
ATOM      4  O   UNL A   1      33.195  31.150  26.877  1.00  0.00    -0.246 OA
BRANCH   3   5
ATOM      5  C   UNL A   1      35.152  31.443  28.100  1.00  0.00     0.060 A 
ATOM      6  C   UNL A   1      36.361  32.141  28.088  1.00  0.00     0.016 A 
ATOM      7  C   UNL A   1      35.133  30.165  28.686  1.00  0.00     0.016 A 
ATOM      8  C   UNL A   1      37.488  31.643  28.759  1.00  0.00     0.010 A 
ATOM      9  C   UNL A   1      36.247  29.679  29.383  1.00  0.00     0.010 A 
ATOM     10  C   UNL A   1      37.433  30.425  29.443  1.00  0.00    -0.014 A 
BRANCH  10  11
ATOM     11  C   UNL A   1      38.625  29.884  30.148  1.00  0.00     0.031 A 
ATOM     12  C   UNL A   1      39.020  30.485  31.465  1.00  0.00     0.074 A 
ATOM     13  C   UNL A   1      39.368  28.892  29.615  1.00  0.00     0.049 A 
ATOM     14  N   UNL A   1      39.991  30.138  32.270  1.00  0.00    -0.248 NA
ATOM     15  C   UNL A   1      38.209  31.613  31.951  1.00  0.00     0.031 C 
ATOM     16  C   UNL A   1      39.098  28.208  28.353  1.00  0.00     0.029 A 
ATOM     17  N   UNL A   1      40.540  28.318  30.047  1.00  0.00    -0.354 N 
ATOM     18  C   UNL A   1      39.841  30.939  33.390  1.00  0.00     0.074 A 
ATOM     19  C   UNL A   1      38.801  31.898  33.099  1.00  0.00     0.031 C 
ATOM     20  C   UNL A   1      40.127  27.397  28.052  1.00  0.00     0.029 A 
ATOM     21  C   UNL A   1      41.104  27.457  29.133  1.00  0.00     0.049 A 
ATOM     22  H   UNL A   1      40.940  28.505  30.928  1.00  0.00     0.167 HD
ATOM     23  C   UNL A   1      40.444  30.820  34.595  1.00  0.00     0.037 A 
ATOM     24  C   UNL A   1      42.272  26.787  29.172  1.00  0.00     0.037 A 
ATOM     25  C   UNL A   1      41.508  29.897  34.871  1.00  0.00     0.049 A 
ATOM     26  C   UNL A   1      43.057  26.798  30.456  1.00  0.00     0.074 A 
ATOM     27  C   UNL A   1      42.188  29.681  36.054  1.00  0.00     0.029 A 
ATOM     28  N   UNL A   1      42.064  29.046  33.925  1.00  0.00    -0.354 N 
ATOM     29  N   UNL A   1      42.815  27.452  31.566  1.00  0.00    -0.248 NA
ATOM     30  C   UNL A   1      44.232  25.918  30.524  1.00  0.00     0.031 C 
ATOM     31  C   UNL A   1      43.181  28.725  35.814  1.00  0.00     0.029 A 
ATOM     32  C   UNL A   1      43.093  28.316  34.492  1.00  0.00     0.049 A 
ATOM     33  H   UNL A   1      41.768  28.972  32.989  1.00  0.00     0.167 HD
ATOM     34  C   UNL A   1      43.751  27.004  32.487  1.00  0.00     0.074 A 
ATOM     35  C   UNL A   1      44.581  26.036  31.798  1.00  0.00     0.031 C 
ATOM     36  C   UNL A   1      43.892  27.341  33.793  1.00  0.00     0.037 A 
BRANCH  23  37
ATOM     37  C   UNL A   1      39.892  31.675  35.695  1.00  0.00     0.064 A 
ATOM     38  C   UNL A   1      38.753  31.262  36.410  1.00  0.00     0.173 A 
ATOM     39  C   UNL A   1      40.448  32.921  36.004  1.00  0.00     0.173 A 
ATOM     40  F   UNL A   1      38.171  30.085  36.134  1.00  0.00    -0.203 F 
ATOM     41  C   UNL A   1      38.166  32.088  37.362  1.00  0.00     0.198 A 
ATOM     42  C   UNL A   1      39.873  33.734  36.978  1.00  0.00     0.198 A 
ATOM     43  F   UNL A   1      41.530  33.361  35.347  1.00  0.00    -0.203 F 
ATOM     44  F   UNL A   1      37.040  31.704  37.978  1.00  0.00    -0.200 F 
ATOM     45  C   UNL A   1      38.726  33.324  37.646  1.00  0.00     0.200 A 
ATOM     46  F   UNL A   1      40.413  34.929  37.255  1.00  0.00    -0.200 F 
ATOM     47  F   UNL A   1      38.152  34.128  38.551  1.00  0.00    -0.200 F 
ENDBRANCH  23  37
BRANCH  24  48
ATOM     48  C   UNL A   1      42.743  26.003  27.999  1.00  0.00     0.064 A 
ATOM     49  C   UNL A   1      43.577  26.570  27.025  1.00  0.00     0.173 A 
ATOM     50  C   UNL A   1      42.314  24.682  27.796  1.00  0.00     0.173 A 
ATOM     51  F   UNL A   1      44.000  27.836  27.164  1.00  0.00    -0.203 F 
ATOM     52  C   UNL A   1      43.932  25.864  25.878  1.00  0.00     0.198 A 
ATOM     53  C   UNL A   1      42.687  23.969  26.657  1.00  0.00     0.198 A 
ATOM     54  F   UNL A   1      41.520  24.088  28.699  1.00  0.00    -0.203 F 
ATOM     55  F   UNL A   1      44.684  26.453  24.936  1.00  0.00    -0.200 F 
ATOM     56  C   UNL A   1      43.486  24.564  25.692  1.00  0.00     0.200 A 
ATOM     57  F   UNL A   1      42.258  22.710  26.485  1.00  0.00    -0.200 F 
ATOM     58  F   UNL A   1      43.814  23.892  24.581  1.00  0.00    -0.200 F 
ENDBRANCH  24  48
BRANCH  36  59
ATOM     59  C   UNL A   1      44.936  26.606  34.580  1.00  0.00     0.064 A 
ATOM     60  C   UNL A   1      46.247  27.088  34.703  1.00  0.00     0.173 A 
ATOM     61  C   UNL A   1      44.606  25.415  35.244  1.00  0.00     0.173 A 
ATOM     62  F   UNL A   1      46.616  28.211  34.069  1.00  0.00    -0.203 F 
ATOM     63  C   UNL A   1      47.197  26.389  35.441  1.00  0.00     0.198 A 
ATOM     64  C   UNL A   1      45.549  24.737  36.009  1.00  0.00     0.198 A 
ATOM     65  F   UNL A   1      43.364  24.914  35.160  1.00  0.00    -0.203 F 
ATOM     66  F   UNL A   1      48.458  26.838  35.500  1.00  0.00    -0.200 F 
ATOM     67  C   UNL A   1      46.846  25.219  36.100  1.00  0.00     0.200 A 
ATOM     68  F   UNL A   1      45.204  23.615  36.656  1.00  0.00    -0.200 F 
ATOM     69  F   UNL A   1      47.761  24.553  36.817  1.00  0.00    -0.200 F 
ENDBRANCH  36  59
ENDBRANCH  10  11
ENDBRANCH   3   5
ENDBRANCH   2   3
ENDBRANCH   1   2
BRANCH   1  70
ATOM     70  C   UNL A   1      33.078  35.412  28.896  1.00  0.00     0.274 C 
BRANCH  70  71
ATOM     71  O   UNL A   1      32.871  35.070  30.275  1.00  0.00    -0.461 OA
BRANCH  71  72
ATOM     72  C   UNL A   1      33.175  36.030  31.199  1.00  0.00     0.327 C 
ATOM     73  O   UNL A   1      32.920  37.219  31.047  1.00  0.00    -0.250 OA
BRANCH  72  74
ATOM     74  C   UNL A   1      33.932  35.474  32.429  1.00  0.00     0.145 C 
ATOM     75  C   UNL A   1      33.332  34.220  33.085  1.00  0.00     0.039 C 
ATOM     76  C   UNL A   1      35.333  34.951  31.996  1.00  0.00     0.022 C 
ATOM     77  Cl  UNL A   1      34.010  36.818  33.609  1.00  0.00    -0.106 Cl
ATOM     78  C   UNL A   1      34.404  33.140  32.891  1.00  0.00    -0.008 C 
ATOM     79  C   UNL A   1      36.242  34.628  33.202  1.00  0.00     0.006 C 
ATOM     80  C   UNL A   1      34.989  33.528  31.535  1.00  0.00     0.009 C 
ATOM     81  C   UNL A   1      35.569  33.408  33.842  1.00  0.00     0.004 C 
ENDBRANCH  72  74
ENDBRANCH  71  72
ENDBRANCH  70  71
ENDBRANCH   1  70
TORSDOF 11
ENDMDL
