MODEL 1
REMARK VINA RESULT:     -11.9      0.000      0.000
REMARK SMILES O=C(OCCOC(=O)[C@H]1C=C[C@@H](NS(=O)(=O)c2ccc(Br)cc2)C1)c1ccc(-c2c3nc(c(-c4c(F)c(F)c(F)c(F)c4F)c4ccc([nH]4)c(-c4c(F)c(F)c(F)c(F)c4F)c4nc(c(-c5c(F)c(F)c(F)c(F)c5F)c5ccc2[nH]5)C=C4)C=C3)cc1
REMARK SMILES IDX 5 1 4 2 3 3 2 4 1 5 25 6 26 7 87 8 27 9 86 10 28 11 29 12
REMARK SMILES IDX 30 13 80 14 31 15 85 16 79 17 81 18 32 19 84 20 78 21 77 22
REMARK SMILES IDX 33 24 65 25 45 26 64 27 46 28 49 29 63 30 82 31 47 32 48 33
REMARK SMILES IDX 62 35 83 36 50 37 34 38 35 39 43 40 36 41 37 42 41 43 44 44
REMARK SMILES IDX 38 45 39 46 42 47 40 48 66 49 67 50 75 51 68 52 69 53 73 54
REMARK SMILES IDX 76 55 70 56 71 57 74 58 72 59 51 60 52 61 60 62 53 63 54 64
REMARK SMILES IDX 58 65 61 66 55 67 56 68 59 69 57 70 6 71 7 72 8 73 9 74
REMARK SMILES IDX 10 75 24 76 11 77 12 78 13 79 14 81 15 82 16 83 17 84 18 85
REMARK SMILES IDX 23 86 19 87 22 88 20 89 21 90
REMARK H PARENT 81 23 49 34 13 80
REMARK Flexibility Score: inf
ROOT
ATOM      1  C   UNL A   1      41.926  19.196  26.001  1.00  0.00     0.274 C 
ENDROOT
BRANCH   1   2
ATOM      2  C   UNL A   1      43.299  18.524  26.000  1.00  0.00     0.275 C 
BRANCH   2   3
ATOM      3  O   UNL A   1      44.003  18.600  24.750  1.00  0.00    -0.458 OA
BRANCH   3   4
ATOM      4  C   UNL A   1      45.017  19.421  24.387  1.00  0.00     0.338 C 
ATOM      5  O   UNL A   1      46.028  18.931  23.886  1.00  0.00    -0.246 OA
BRANCH   4   6
ATOM      6  C   UNL A   1      45.053  20.881  24.712  1.00  0.00     0.060 A 
ATOM      7  C   UNL A   1      44.928  21.934  23.804  1.00  0.00     0.016 A 
ATOM      8  C   UNL A   1      45.256  21.204  26.068  1.00  0.00     0.016 A 
ATOM      9  C   UNL A   1      44.923  23.268  24.241  1.00  0.00     0.010 A 
ATOM     10  C   UNL A   1      45.215  22.531  26.512  1.00  0.00     0.010 A 
ATOM     11  C   UNL A   1      45.052  23.579  25.597  1.00  0.00    -0.014 A 
BRANCH  11  12
ATOM     12  C   UNL A   1      45.157  24.991  26.046  1.00  0.00     0.031 A 
ATOM     13  C   UNL A   1      46.519  25.617  26.166  1.00  0.00     0.074 A 
ATOM     14  C   UNL A   1      44.065  25.726  26.334  1.00  0.00     0.049 A 
ATOM     15  N   UNL A   1      46.847  26.826  26.545  1.00  0.00    -0.248 NA
ATOM     16  C   UNL A   1      47.666  24.771  25.797  1.00  0.00     0.031 C 
ATOM     17  C   UNL A   1      42.680  25.273  26.236  1.00  0.00     0.029 A 
ATOM     18  N   UNL A   1      43.961  27.009  26.822  1.00  0.00    -0.354 N 
ATOM     19  C   UNL A   1      48.221  26.904  26.385  1.00  0.00     0.074 A 
ATOM     20  C   UNL A   1      48.685  25.587  26.013  1.00  0.00     0.031 C 
ATOM     21  C   UNL A   1      41.870  26.232  26.722  1.00  0.00     0.029 A 
ATOM     22  C   UNL A   1      42.682  27.343  27.200  1.00  0.00     0.049 A 
ATOM     23  H   UNL A   1      44.725  27.625  26.894  1.00  0.00     0.167 HD
ATOM     24  C   UNL A   1      49.019  27.996  26.455  1.00  0.00     0.037 A 
ATOM     25  C   UNL A   1      42.234  28.399  27.904  1.00  0.00     0.037 A 
ATOM     26  C   UNL A   1      48.569  29.303  26.841  1.00  0.00     0.049 A 
ATOM     27  C   UNL A   1      43.176  29.525  28.218  1.00  0.00     0.074 A 
ATOM     28  C   UNL A   1      49.276  30.492  26.877  1.00  0.00     0.029 A 
ATOM     29  N   UNL A   1      47.287  29.584  27.287  1.00  0.00    -0.354 N 
ATOM     30  N   UNL A   1      44.456  29.628  27.966  1.00  0.00    -0.248 NA
ATOM     31  C   UNL A   1      42.588  30.716  28.849  1.00  0.00     0.031 C 
ATOM     32  C   UNL A   1      48.428  31.487  27.379  1.00  0.00     0.029 A 
ATOM     33  C   UNL A   1      47.186  30.924  27.625  1.00  0.00     0.049 A 
ATOM     34  H   UNL A   1      46.555  28.929  27.354  1.00  0.00     0.167 HD
ATOM     35  C   UNL A   1      44.808  30.922  28.318  1.00  0.00     0.074 A 
ATOM     36  C   UNL A   1      43.621  31.548  28.865  1.00  0.00     0.031 C 
ATOM     37  C   UNL A   1      45.997  31.547  28.144  1.00  0.00     0.037 A 
BRANCH  24  38
ATOM     38  C   UNL A   1      50.444  27.801  26.038  1.00  0.00     0.064 A 
ATOM     39  C   UNL A   1      50.795  27.787  24.677  1.00  0.00     0.173 A 
ATOM     40  C   UNL A   1      51.452  27.576  26.982  1.00  0.00     0.173 A 
ATOM     41  F   UNL A   1      49.858  27.978  23.736  1.00  0.00    -0.203 F 
ATOM     42  C   UNL A   1      52.097  27.507  24.277  1.00  0.00     0.198 A 
ATOM     43  C   UNL A   1      52.760  27.321  26.578  1.00  0.00     0.198 A 
ATOM     44  F   UNL A   1      51.166  27.578  28.293  1.00  0.00    -0.203 F 
ATOM     45  F   UNL A   1      52.393  27.429  22.972  1.00  0.00    -0.200 F 
ATOM     46  C   UNL A   1      53.079  27.274  25.227  1.00  0.00     0.200 A 
ATOM     47  F   UNL A   1      53.712  27.097  27.495  1.00  0.00    -0.200 F 
ATOM     48  F   UNL A   1      54.330  26.986  24.841  1.00  0.00    -0.200 F 
ENDBRANCH  24  38
BRANCH  25  49
ATOM     49  C   UNL A   1      40.829  28.466  28.374  1.00  0.00     0.064 A 
ATOM     50  C   UNL A   1      39.807  28.951  27.551  1.00  0.00     0.173 A 
ATOM     51  C   UNL A   1      40.507  28.136  29.699  1.00  0.00     0.173 A 
ATOM     52  F   UNL A   1      40.081  29.330  26.295  1.00  0.00    -0.203 F 
ATOM     53  C   UNL A   1      38.509  29.105  28.037  1.00  0.00     0.198 A 
ATOM     54  C   UNL A   1      39.208  28.285  30.182  1.00  0.00     0.198 A 
ATOM     55  F   UNL A   1      41.462  27.710  30.539  1.00  0.00    -0.203 F 
ATOM     56  F   UNL A   1      37.557  29.619  27.245  1.00  0.00    -0.200 F 
ATOM     57  C   UNL A   1      38.210  28.772  29.351  1.00  0.00     0.200 A 
ATOM     58  F   UNL A   1      38.929  27.989  31.459  1.00  0.00    -0.200 F 
ATOM     59  F   UNL A   1      36.969  28.953  29.825  1.00  0.00    -0.200 F 
ENDBRANCH  25  49
BRANCH  37  60
ATOM     60  C   UNL A   1      46.043  33.016  28.430  1.00  0.00     0.064 A 
ATOM     61  C   UNL A   1      46.417  33.524  29.680  1.00  0.00     0.173 A 
ATOM     62  C   UNL A   1      45.720  33.929  27.412  1.00  0.00     0.173 A 
ATOM     63  F   UNL A   1      46.706  32.689  30.688  1.00  0.00    -0.203 F 
ATOM     64  C   UNL A   1      46.451  34.897  29.907  1.00  0.00     0.198 A 
ATOM     65  C   UNL A   1      45.781  35.299  27.635  1.00  0.00     0.198 A 
ATOM     66  F   UNL A   1      45.353  33.488  26.200  1.00  0.00    -0.203 F 
ATOM     67  F   UNL A   1      46.772  35.365  31.121  1.00  0.00    -0.200 F 
ATOM     68  C   UNL A   1      46.142  35.784  28.884  1.00  0.00     0.200 A 
ATOM     69  F   UNL A   1      45.488  36.153  26.644  1.00  0.00    -0.200 F 
ATOM     70  F   UNL A   1      46.182  37.104  29.104  1.00  0.00    -0.200 F 
ENDBRANCH  37  60
ENDBRANCH  11  12
ENDBRANCH   4   6
ENDBRANCH   3   4
ENDBRANCH   2   3
ENDBRANCH   1   2
BRANCH   1  71
ATOM     71  O   UNL A   1      41.889  20.368  26.828  1.00  0.00    -0.462 OA
BRANCH  71  72
ATOM     72  C   UNL A   1      41.364  21.494  26.261  1.00  0.00     0.312 C 
ATOM     73  O   UNL A   1      41.909  22.149  25.379  1.00  0.00    -0.252 OA
BRANCH  72  74
ATOM     74  C   UNL A   1      39.993  21.870  26.824  1.00  0.00     0.123 C 
ATOM     75  C   UNL A   1      39.851  23.291  27.238  1.00  0.00    -0.015 C 
ATOM     76  C   UNL A   1      38.887  21.752  25.765  1.00  0.00     0.043 C 
ATOM     77  C   UNL A   1      38.740  23.866  26.783  1.00  0.00    -0.011 C 
ATOM     78  C   UNL A   1      37.898  22.914  26.014  1.00  0.00     0.093 C 
BRANCH  78  79
ATOM     79  N   UNL A   1      37.427  23.454  24.755  1.00  0.00    -0.204 NA
ATOM     80  H   UNL A   1      38.215  23.370  24.114  1.00  0.00     0.142 HD
BRANCH  79  81
ATOM     81  S   UNL A   1      36.107  22.908  23.902  1.00  0.00     0.241 S 
ATOM     82  O   UNL A   1      36.410  22.951  22.485  1.00  0.00    -0.207 OA
ATOM     83  O   UNL A   1      35.737  21.663  24.522  1.00  0.00    -0.207 OA
BRANCH  81  84
ATOM     84  C   UNL A   1      34.807  24.084  24.148  1.00  0.00     0.082 A 
ATOM     85  C   UNL A   1      34.756  24.777  25.365  1.00  0.00     0.023 A 
ATOM     86  C   UNL A   1      34.026  24.497  23.067  1.00  0.00     0.023 A 
ATOM     87  C   UNL A   1      33.915  25.879  25.508  1.00  0.00     0.017 A 
ATOM     88  C   UNL A   1      33.190  25.609  23.210  1.00  0.00     0.017 A 
ATOM     89  C   UNL A   1      33.144  26.296  24.425  1.00  0.00     0.018 A 
ATOM     90  Br  UNL A   1      32.068  27.842  24.591  1.00  0.00    -0.051 Br
ENDBRANCH  81  84
ENDBRANCH  79  81
ENDBRANCH  78  79
ENDBRANCH  72  74
ENDBRANCH  71  72
ENDBRANCH   1  71
TORSDOF 14
ENDMDL
MODEL 2
REMARK VINA RESULT:     -11.6      1.499      2.115
REMARK SMILES O=C(OCCOC(=O)[C@H]1C=C[C@@H](NS(=O)(=O)c2ccc(Br)cc2)C1)c1ccc(-c2c3nc(c(-c4c(F)c(F)c(F)c(F)c4F)c4ccc([nH]4)c(-c4c(F)c(F)c(F)c(F)c4F)c4nc(c(-c5c(F)c(F)c(F)c(F)c5F)c5ccc2[nH]5)C=C4)C=C3)cc1
REMARK SMILES IDX 5 1 4 2 3 3 2 4 1 5 25 6 26 7 87 8 27 9 86 10 28 11 29 12
REMARK SMILES IDX 30 13 80 14 31 15 85 16 79 17 81 18 32 19 84 20 78 21 77 22
REMARK SMILES IDX 33 24 65 25 45 26 64 27 46 28 49 29 63 30 82 31 47 32 48 33
REMARK SMILES IDX 62 35 83 36 50 37 34 38 35 39 43 40 36 41 37 42 41 43 44 44
REMARK SMILES IDX 38 45 39 46 42 47 40 48 66 49 67 50 75 51 68 52 69 53 73 54
REMARK SMILES IDX 76 55 70 56 71 57 74 58 72 59 51 60 52 61 60 62 53 63 54 64
REMARK SMILES IDX 58 65 61 66 55 67 56 68 59 69 57 70 6 71 7 72 8 73 9 74
REMARK SMILES IDX 10 75 24 76 11 77 12 78 13 79 14 81 15 82 16 83 17 84 18 85
REMARK SMILES IDX 23 86 19 87 22 88 20 89 21 90
REMARK H PARENT 81 23 49 34 13 80
REMARK Flexibility Score: inf
ROOT
ATOM      1  C   UNL A   1      42.125  19.025  26.169  1.00  0.00     0.274 C 
ENDROOT
BRANCH   1   2
ATOM      2  C   UNL A   1      43.520  18.425  25.991  1.00  0.00     0.275 C 
BRANCH   2   3
ATOM      3  O   UNL A   1      44.114  18.661  24.704  1.00  0.00    -0.458 OA
BRANCH   3   4
ATOM      4  C   UNL A   1      45.135  19.487  24.371  1.00  0.00     0.338 C 
ATOM      5  O   UNL A   1      46.157  19.002  23.887  1.00  0.00    -0.246 OA
BRANCH   4   6
ATOM      6  C   UNL A   1      45.163  20.943  24.711  1.00  0.00     0.060 A 
ATOM      7  C   UNL A   1      45.052  22.005  23.812  1.00  0.00     0.016 A 
ATOM      8  C   UNL A   1      45.341  21.252  26.073  1.00  0.00     0.016 A 
ATOM      9  C   UNL A   1      45.038  23.334  24.262  1.00  0.00     0.010 A 
ATOM     10  C   UNL A   1      45.291  22.575  26.530  1.00  0.00     0.010 A 
ATOM     11  C   UNL A   1      45.143  23.632  25.623  1.00  0.00    -0.014 A 
BRANCH  11  12
ATOM     12  C   UNL A   1      45.237  25.040  26.087  1.00  0.00     0.031 A 
ATOM     13  C   UNL A   1      46.595  25.666  26.238  1.00  0.00     0.074 A 
ATOM     14  C   UNL A   1      44.139  25.770  26.363  1.00  0.00     0.049 A 
ATOM     15  N   UNL A   1      46.915  26.871  26.635  1.00  0.00    -0.248 NA
ATOM     16  C   UNL A   1      47.750  24.825  25.882  1.00  0.00     0.031 C 
ATOM     17  C   UNL A   1      42.756  25.316  26.235  1.00  0.00     0.029 A 
ATOM     18  N   UNL A   1      44.024  27.048  26.861  1.00  0.00    -0.354 N 
ATOM     19  C   UNL A   1      48.292  26.953  26.501  1.00  0.00     0.074 A 
ATOM     20  C   UNL A   1      48.764  25.640  26.125  1.00  0.00     0.031 C 
ATOM     21  C   UNL A   1      41.937  26.269  26.715  1.00  0.00     0.029 A 
ATOM     22  C   UNL A   1      42.738  27.377  27.220  1.00  0.00     0.049 A 
ATOM     23  H   UNL A   1      44.786  27.664  26.953  1.00  0.00     0.167 HD
ATOM     24  C   UNL A   1      49.086  28.045  26.597  1.00  0.00     0.037 A 
ATOM     25  C   UNL A   1      42.276  28.425  27.926  1.00  0.00     0.037 A 
ATOM     26  C   UNL A   1      48.628  29.348  26.988  1.00  0.00     0.049 A 
ATOM     27  C   UNL A   1      43.210  29.549  28.267  1.00  0.00     0.074 A 
ATOM     28  C   UNL A   1      49.333  30.537  27.048  1.00  0.00     0.029 A 
ATOM     29  N   UNL A   1      47.338  29.623  27.413  1.00  0.00    -0.354 N 
ATOM     30  N   UNL A   1      44.494  29.656  28.041  1.00  0.00    -0.248 NA
ATOM     31  C   UNL A   1      42.609  30.733  28.899  1.00  0.00     0.031 C 
ATOM     32  C   UNL A   1      48.474  31.526  27.545  1.00  0.00     0.029 A 
ATOM     33  C   UNL A   1      47.229  30.959  27.762  1.00  0.00     0.049 A 
ATOM     34  H   UNL A   1      46.605  28.966  27.459  1.00  0.00     0.167 HD
ATOM     35  C   UNL A   1      44.838  30.948  28.411  1.00  0.00     0.074 A 
ATOM     36  C   UNL A   1      43.641  31.566  28.942  1.00  0.00     0.031 C 
ATOM     37  C   UNL A   1      46.029  31.576  28.265  1.00  0.00     0.037 A 
BRANCH  24  38
ATOM     38  C   UNL A   1      50.519  27.855  26.205  1.00  0.00     0.064 A 
ATOM     39  C   UNL A   1      50.896  27.863  24.850  1.00  0.00     0.173 A 
ATOM     40  C   UNL A   1      51.509  27.615  27.164  1.00  0.00     0.173 A 
ATOM     41  F   UNL A   1      49.977  28.070  23.895  1.00  0.00    -0.203 F 
ATOM     42  C   UNL A   1      52.205  27.589  24.470  1.00  0.00     0.198 A 
ATOM     43  C   UNL A   1      52.824  27.366  26.781  1.00  0.00     0.198 A 
ATOM     44  F   UNL A   1      51.198  27.596  28.469  1.00  0.00    -0.203 F 
ATOM     45  F   UNL A   1      52.527  27.532  23.171  1.00  0.00    -0.200 F 
ATOM     46  C   UNL A   1      53.169  27.340  25.436  1.00  0.00     0.200 A 
ATOM     47  F   UNL A   1      53.758  27.127  27.712  1.00  0.00    -0.200 F 
ATOM     48  F   UNL A   1      54.427  27.058  25.069  1.00  0.00    -0.200 F 
ENDBRANCH  24  38
BRANCH  25  49
ATOM     49  C   UNL A   1      40.862  28.486  28.370  1.00  0.00     0.064 A 
ATOM     50  C   UNL A   1      39.863  29.027  27.554  1.00  0.00     0.173 A 
ATOM     51  C   UNL A   1      40.509  28.090  29.669  1.00  0.00     0.173 A 
ATOM     52  F   UNL A   1      40.168  29.469  26.325  1.00  0.00    -0.203 F 
ATOM     53  C   UNL A   1      38.557  29.173  28.022  1.00  0.00     0.198 A 
ATOM     54  C   UNL A   1      39.202  28.231  30.133  1.00  0.00     0.198 A 
ATOM     55  F   UNL A   1      41.442  27.609  30.504  1.00  0.00    -0.203 F 
ATOM     56  F   UNL A   1      37.628  29.740  27.240  1.00  0.00    -0.200 F 
ATOM     57  C   UNL A   1      38.228  28.774  29.310  1.00  0.00     0.200 A 
ATOM     58  F   UNL A   1      38.894  27.871  31.387  1.00  0.00    -0.200 F 
ATOM     59  F   UNL A   1      36.980  28.947  29.768  1.00  0.00    -0.200 F 
ENDBRANCH  25  49
BRANCH  37  60
ATOM     60  C   UNL A   1      46.068  33.041  28.566  1.00  0.00     0.064 A 
ATOM     61  C   UNL A   1      45.754  34.012  27.607  1.00  0.00     0.173 A 
ATOM     62  C   UNL A   1      46.411  33.473  29.858  1.00  0.00     0.173 A 
ATOM     63  F   UNL A   1      45.447  33.646  26.353  1.00  0.00    -0.203 F 
ATOM     64  C   UNL A   1      45.797  35.366  27.926  1.00  0.00     0.198 A 
ATOM     65  C   UNL A   1      46.427  34.825  30.179  1.00  0.00     0.198 A 
ATOM     66  F   UNL A   1      46.723  32.580  30.809  1.00  0.00    -0.203 F 
ATOM     67  F   UNL A   1      45.533  36.283  26.984  1.00  0.00    -0.200 F 
ATOM     68  C   UNL A   1      46.126  35.772  29.213  1.00  0.00     0.200 A 
ATOM     69  F   UNL A   1      46.739  35.214  31.424  1.00  0.00    -0.200 F 
ATOM     70  F   UNL A   1      46.161  37.076  29.517  1.00  0.00    -0.200 F 
ENDBRANCH  37  60
ENDBRANCH  11  12
ENDBRANCH   4   6
ENDBRANCH   3   4
ENDBRANCH   2   3
ENDBRANCH   1   2
BRANCH   1  71
ATOM     71  O   UNL A   1      42.154  20.291  26.844  1.00  0.00    -0.462 OA
BRANCH  71  72
ATOM     72  C   UNL A   1      41.557  21.336  26.199  1.00  0.00     0.312 C 
ATOM     73  O   UNL A   1      42.042  21.932  25.243  1.00  0.00    -0.252 OA
BRANCH  72  74
ATOM     74  C   UNL A   1      40.188  21.699  26.776  1.00  0.00     0.123 C 
ATOM     75  C   UNL A   1      39.980  23.148  27.036  1.00  0.00    -0.015 C 
ATOM     76  C   UNL A   1      39.053  21.404  25.784  1.00  0.00     0.043 C 
ATOM     77  C   UNL A   1      38.821  23.608  26.569  1.00  0.00    -0.011 C 
ATOM     78  C   UNL A   1      38.008  22.532  25.946  1.00  0.00     0.093 C 
BRANCH  78  79
ATOM     79  N   UNL A   1      37.460  22.901  24.656  1.00  0.00    -0.204 NA
ATOM     80  H   UNL A   1      37.647  22.105  24.047  1.00  0.00     0.142 HD
BRANCH  79  81
ATOM     81  S   UNL A   1      35.878  23.319  24.362  1.00  0.00     0.241 S 
ATOM     82  O   UNL A   1      35.443  24.264  25.372  1.00  0.00    -0.207 OA
ATOM     83  O   UNL A   1      35.827  23.677  22.969  1.00  0.00    -0.207 OA
BRANCH  81  84
ATOM     84  C   UNL A   1      34.901  21.865  24.619  1.00  0.00     0.082 A 
ATOM     85  C   UNL A   1      33.555  21.887  24.226  1.00  0.00     0.023 A 
ATOM     86  C   UNL A   1      35.519  20.658  24.951  1.00  0.00     0.023 A 
ATOM     87  C   UNL A   1      32.822  20.703  24.176  1.00  0.00     0.017 A 
ATOM     88  C   UNL A   1      34.783  19.470  24.891  1.00  0.00     0.017 A 
ATOM     89  C   UNL A   1      33.443  19.498  24.498  1.00  0.00     0.018 A 
ATOM     90  Br  UNL A   1      32.474  17.883  24.346  1.00  0.00    -0.051 Br
ENDBRANCH  81  84
ENDBRANCH  79  81
ENDBRANCH  78  79
ENDBRANCH  72  74
ENDBRANCH  71  72
ENDBRANCH   1  71
TORSDOF 14
ENDMDL
MODEL 3
REMARK VINA RESULT:     -11.5      6.175     11.304
REMARK SMILES O=C(OCCOC(=O)[C@H]1C=C[C@@H](NS(=O)(=O)c2ccc(Br)cc2)C1)c1ccc(-c2c3nc(c(-c4c(F)c(F)c(F)c(F)c4F)c4ccc([nH]4)c(-c4c(F)c(F)c(F)c(F)c4F)c4nc(c(-c5c(F)c(F)c(F)c(F)c5F)c5ccc2[nH]5)C=C4)C=C3)cc1
REMARK SMILES IDX 5 1 4 2 3 3 2 4 1 5 25 6 26 7 87 8 27 9 86 10 28 11 29 12
REMARK SMILES IDX 30 13 80 14 31 15 85 16 79 17 81 18 32 19 84 20 78 21 77 22
REMARK SMILES IDX 33 24 65 25 45 26 64 27 46 28 49 29 63 30 82 31 47 32 48 33
REMARK SMILES IDX 62 35 83 36 50 37 34 38 35 39 43 40 36 41 37 42 41 43 44 44
REMARK SMILES IDX 38 45 39 46 42 47 40 48 66 49 67 50 75 51 68 52 69 53 73 54
REMARK SMILES IDX 76 55 70 56 71 57 74 58 72 59 51 60 52 61 60 62 53 63 54 64
REMARK SMILES IDX 58 65 61 66 55 67 56 68 59 69 57 70 6 71 7 72 8 73 9 74
REMARK SMILES IDX 10 75 24 76 11 77 12 78 13 79 14 81 15 82 16 83 17 84 18 85
REMARK SMILES IDX 23 86 19 87 22 88 20 89 21 90
REMARK H PARENT 81 23 49 34 13 80
REMARK Flexibility Score: inf
ROOT
ATOM      1  C   UNL A   1      33.883  34.418  28.956  1.00  0.00     0.274 C 
ENDROOT
BRANCH   1   2
ATOM      2  C   UNL A   1      34.689  33.121  28.880  1.00  0.00     0.275 C 
BRANCH   2   3
ATOM      3  O   UNL A   1      33.995  32.019  28.274  1.00  0.00    -0.458 OA
BRANCH   3   4
ATOM      4  C   UNL A   1      34.445  30.771  28.000  1.00  0.00     0.338 C 
ATOM      5  O   UNL A   1      33.665  29.950  27.519  1.00  0.00    -0.246 OA
BRANCH   4   6
ATOM      6  C   UNL A   1      35.798  30.275  28.403  1.00  0.00     0.060 A 
ATOM      7  C   UNL A   1      36.157  29.774  29.655  1.00  0.00     0.016 A 
ATOM      8  C   UNL A   1      36.798  30.352  27.415  1.00  0.00     0.016 A 
ATOM      9  C   UNL A   1      37.451  29.287  29.894  1.00  0.00     0.010 A 
ATOM     10  C   UNL A   1      38.080  29.834  27.638  1.00  0.00     0.010 A 
ATOM     11  C   UNL A   1      38.420  29.299  28.887  1.00  0.00    -0.014 A 
BRANCH  11  12
ATOM     12  C   UNL A   1      39.818  28.886  29.173  1.00  0.00     0.031 A 
ATOM     13  C   UNL A   1      40.770  29.894  29.752  1.00  0.00     0.074 A 
ATOM     14  C   UNL A   1      40.247  27.630  28.938  1.00  0.00     0.049 A 
ATOM     15  N   UNL A   1      42.032  29.758  30.071  1.00  0.00    -0.248 NA
ATOM     16  C   UNL A   1      40.225  31.235  30.021  1.00  0.00     0.031 C 
ATOM     17  C   UNL A   1      39.438  26.535  28.411  1.00  0.00     0.029 A 
ATOM     18  N   UNL A   1      41.502  27.082  29.072  1.00  0.00    -0.354 N 
ATOM     19  C   UNL A   1      42.402  30.964  30.644  1.00  0.00     0.074 A 
ATOM     20  C   UNL A   1      41.283  31.867  30.504  1.00  0.00     0.031 C 
ATOM     21  C   UNL A   1      40.232  25.470  28.194  1.00  0.00     0.029 A 
ATOM     22  C   UNL A   1      41.605  25.824  28.527  1.00  0.00     0.049 A 
ATOM     23  H   UNL A   1      42.252  27.544  29.512  1.00  0.00     0.167 HD
ATOM     24  C   UNL A   1      43.542  31.268  31.309  1.00  0.00     0.037 A 
ATOM     25  C   UNL A   1      42.694  25.075  28.274  1.00  0.00     0.037 A 
ATOM     26  C   UNL A   1      44.665  30.384  31.437  1.00  0.00     0.049 A 
ATOM     27  C   UNL A   1      44.030  25.523  28.792  1.00  0.00     0.074 A 
ATOM     28  C   UNL A   1      45.838  30.564  32.148  1.00  0.00     0.029 A 
ATOM     29  N   UNL A   1      44.759  29.151  30.811  1.00  0.00    -0.354 N 
ATOM     30  N   UNL A   1      44.345  26.623  29.426  1.00  0.00    -0.248 NA
ATOM     31  C   UNL A   1      45.149  24.585  28.621  1.00  0.00     0.031 C 
ATOM     32  C   UNL A   1      46.659  29.451  31.921  1.00  0.00     0.029 A 
ATOM     33  C   UNL A   1      45.982  28.567  31.097  1.00  0.00     0.049 A 
ATOM     34  H   UNL A   1      44.060  28.749  30.246  1.00  0.00     0.167 HD
ATOM     35  C   UNL A   1      45.668  26.472  29.813  1.00  0.00     0.074 A 
ATOM     36  C   UNL A   1      46.118  25.201  29.283  1.00  0.00     0.031 C 
ATOM     37  C   UNL A   1      46.416  27.291  30.589  1.00  0.00     0.037 A 
BRANCH  24  38
ATOM     38  C   UNL A   1      43.572  32.601  31.991  1.00  0.00     0.064 A 
ATOM     39  C   UNL A   1      43.315  32.704  33.370  1.00  0.00     0.173 A 
ATOM     40  C   UNL A   1      43.803  33.779  31.273  1.00  0.00     0.173 A 
ATOM     41  F   UNL A   1      43.068  31.602  34.095  1.00  0.00    -0.203 F 
ATOM     42  C   UNL A   1      43.243  33.945  33.993  1.00  0.00     0.198 A 
ATOM     43  C   UNL A   1      43.754  35.018  31.906  1.00  0.00     0.198 A 
ATOM     44  F   UNL A   1      44.051  33.732  29.956  1.00  0.00    -0.203 F 
ATOM     45  F   UNL A   1      42.926  34.022  35.293  1.00  0.00    -0.200 F 
ATOM     46  C   UNL A   1      43.461  35.101  33.261  1.00  0.00     0.200 A 
ATOM     47  F   UNL A   1      43.967  36.139  31.202  1.00  0.00    -0.200 F 
ATOM     48  F   UNL A   1      43.373  36.298  33.858  1.00  0.00    -0.200 F 
ENDBRANCH  24  38
BRANCH  25  49
ATOM     49  C   UNL A   1      42.594  23.816  27.495  1.00  0.00     0.064 A 
ATOM     50  C   UNL A   1      42.239  22.607  28.103  1.00  0.00     0.173 A 
ATOM     51  C   UNL A   1      42.955  23.790  26.140  1.00  0.00     0.173 A 
ATOM     52  F   UNL A   1      41.940  22.577  29.410  1.00  0.00    -0.203 F 
ATOM     53  C   UNL A   1      42.248  21.413  27.383  1.00  0.00     0.198 A 
ATOM     54  C   UNL A   1      42.958  22.597  25.419  1.00  0.00     0.198 A 
ATOM     55  F   UNL A   1      43.348  24.916  25.525  1.00  0.00    -0.203 F 
ATOM     56  F   UNL A   1      41.952  20.260  27.999  1.00  0.00    -0.200 F 
ATOM     57  C   UNL A   1      42.606  21.409  26.042  1.00  0.00     0.200 A 
ATOM     58  F   UNL A   1      43.333  22.592  24.132  1.00  0.00    -0.200 F 
ATOM     59  F   UNL A   1      42.647  20.255  25.361  1.00  0.00    -0.200 F 
ENDBRANCH  25  49
BRANCH  37  60
ATOM     60  C   UNL A   1      47.757  26.784  31.020  1.00  0.00     0.064 A 
ATOM     61  C   UNL A   1      48.934  27.105  30.334  1.00  0.00     0.173 A 
ATOM     62  C   UNL A   1      47.855  25.974  32.162  1.00  0.00     0.173 A 
ATOM     63  F   UNL A   1      48.885  27.854  29.222  1.00  0.00    -0.203 F 
ATOM     64  C   UNL A   1      50.165  26.618  30.767  1.00  0.00     0.198 A 
ATOM     65  C   UNL A   1      49.088  25.511  32.607  1.00  0.00     0.198 A 
ATOM     66  F   UNL A   1      46.754  25.637  32.850  1.00  0.00    -0.203 F 
ATOM     67  F   UNL A   1      51.277  26.902  30.075  1.00  0.00    -0.200 F 
ATOM     68  C   UNL A   1      50.242  25.828  31.907  1.00  0.00     0.200 A 
ATOM     69  F   UNL A   1      49.161  24.753  33.711  1.00  0.00    -0.200 F 
ATOM     70  F   UNL A   1      51.428  25.366  32.324  1.00  0.00    -0.200 F 
ENDBRANCH  37  60
ENDBRANCH  11  12
ENDBRANCH   4   6
ENDBRANCH   3   4
ENDBRANCH   2   3
ENDBRANCH   1   2
BRANCH   1  71
ATOM     71  O   UNL A   1      33.073  34.492  30.139  1.00  0.00    -0.462 OA
BRANCH  71  72
ATOM     72  C   UNL A   1      33.178  35.638  30.874  1.00  0.00     0.312 C 
ATOM     73  O   UNL A   1      33.123  36.772  30.409  1.00  0.00    -0.252 OA
BRANCH  72  74
ATOM     74  C   UNL A   1      33.360  35.380  32.370  1.00  0.00     0.123 C 
ATOM     75  C   UNL A   1      33.399  33.946  32.762  1.00  0.00    -0.015 C 
ATOM     76  C   UNL A   1      34.728  35.867  32.873  1.00  0.00     0.043 C 
ATOM     77  C   UNL A   1      34.406  33.648  33.579  1.00  0.00    -0.011 C 
ATOM     78  C   UNL A   1      35.209  34.848  33.931  1.00  0.00     0.093 C 
BRANCH  78  79
ATOM     79  N   UNL A   1      36.638  34.636  33.814  1.00  0.00    -0.204 NA
ATOM     80  H   UNL A   1      37.042  35.568  33.729  1.00  0.00     0.142 HD
BRANCH  79  81
ATOM     81  S   UNL A   1      37.591  33.843  34.922  1.00  0.00     0.241 S 
ATOM     82  O   UNL A   1      38.744  34.666  35.228  1.00  0.00    -0.207 OA
ATOM     83  O   UNL A   1      36.698  33.433  35.974  1.00  0.00    -0.207 OA
BRANCH  81  84
ATOM     84  C   UNL A   1      38.234  32.403  34.118  1.00  0.00     0.082 A 
ATOM     85  C   UNL A   1      39.595  32.104  34.273  1.00  0.00     0.023 A 
ATOM     86  C   UNL A   1      37.361  31.458  33.575  1.00  0.00     0.023 A 
ATOM     87  C   UNL A   1      40.088  30.863  33.874  1.00  0.00     0.017 A 
ATOM     88  C   UNL A   1      37.858  30.210  33.184  1.00  0.00     0.017 A 
ATOM     89  C   UNL A   1      39.214  29.918  33.342  1.00  0.00     0.018 A 
ATOM     90  Br  UNL A   1      39.866  28.204  32.882  1.00  0.00    -0.051 Br
ENDBRANCH  81  84
ENDBRANCH  79  81
ENDBRANCH  78  79
ENDBRANCH  72  74
ENDBRANCH  71  72
ENDBRANCH   1  71
TORSDOF 14
ENDMDL
