MODEL 1
REMARK VINA RESULT:     -10.6      0.000      0.000
REMARK SMILES CCN(Cc1ccccn1)C(=O)[C@H]([NH3+])CCC(=O)OCCOC(=O)c1ccc(-c2c3nc(c(-c4c(F)c(F)c(F)c(F)c4F)c4ccc([nH]4)c(-c4c(F)c(F)c(F)c(F)c4F)c4nc(c(-c5c(F)c(F)c(F)c(F)c5F)c5ccc2[nH]5)C=C4)C=C3)cc1
REMARK SMILES IDX 17 1 18 2 16 3 15 4 13 5 11 6 12 7 3 8 2 9 1 10 4 11 5 12
REMARK SMILES IDX 6 13 10 14 7 15 9 16 8 17 14 18 19 22 20 23 21 24 22 25
REMARK SMILES IDX 23 26 24 27 25 28 26 29 87 30 27 31 86 32 28 33 29 34 30 35
REMARK SMILES IDX 80 36 31 37 85 38 79 39 81 40 32 41 84 42 78 43 77 44 33 46
REMARK SMILES IDX 65 47 45 48 64 49 46 50 49 51 63 52 82 53 47 54 48 55 62 57
REMARK SMILES IDX 83 58 50 59 34 60 35 61 43 62 36 63 37 64 41 65 44 66 38 67
REMARK SMILES IDX 39 68 42 69 40 70 66 71 67 72 75 73 68 74 69 75 73 76 76 77
REMARK SMILES IDX 70 78 71 79 74 80 72 81 51 82 52 83 60 84 53 85 54 86 58 87
REMARK SMILES IDX 61 88 55 89 56 90 59 91 57 92
REMARK H PARENT 14 19 14 20 14 21 81 45 49 56
REMARK Flexibility Score: inf
ROOT
ATOM      1  C   UNL A   1      31.875  27.067  26.551  1.00  0.00     0.306 C 
ATOM      2  O   UNL A   1      31.265  27.466  27.537  1.00  0.00    -0.252 OA
ENDROOT
BRANCH   1   3
ATOM      3  C   UNL A   1      32.250  25.613  26.371  1.00  0.00     0.129 C 
BRANCH   3   4
ATOM      4  C   UNL A   1      31.094  24.646  26.083  1.00  0.00     0.087 C 
BRANCH   4   5
ATOM      5  C   UNL A   1      31.091  23.336  26.879  1.00  0.00     0.271 C 
BRANCH   5   6
ATOM      6  C   UNL A   1      32.360  22.431  26.699  1.00  0.00     0.281 C 
ATOM      7  O   UNL A   1      33.106  22.250  27.674  1.00  0.00    -0.268 OA
BRANCH   6   8
ATOM      8  N   UNL A   1      32.712  21.946  25.448  1.00  0.00    -0.332 N 
BRANCH   8   9
ATOM      9  C   UNL A   1      32.183  20.644  25.040  1.00  0.00     0.116 C 
ATOM     10  C   UNL A   1      32.525  20.349  23.584  1.00  0.00     0.027 C 
ENDBRANCH   8   9
BRANCH   8  11
ATOM     11  C   UNL A   1      33.563  22.649  24.482  1.00  0.00     0.175 C 
BRANCH  11  12
ATOM     12  C   UNL A   1      35.036  22.698  24.860  1.00  0.00     0.060 A 
ATOM     13  C   UNL A   1      35.606  23.801  25.497  1.00  0.00     0.026 A 
ATOM     14  N   UNL A   1      35.763  21.580  24.598  1.00  0.00    -0.259 NA
ATOM     15  C   UNL A   1      36.930  23.730  25.929  1.00  0.00     0.004 A 
ATOM     16  C   UNL A   1      37.045  21.543  25.023  1.00  0.00     0.111 A 
ATOM     17  C   UNL A   1      37.663  22.575  25.700  1.00  0.00     0.020 A 
ENDBRANCH  11  12
ENDBRANCH   8  11
ENDBRANCH   6   8
ENDBRANCH   5   6
BRANCH   5  18
ATOM     18  N   UNL A   1      29.908  22.532  26.466  1.00  0.00    -0.347 N 
ATOM     19  H   UNL A   1      30.001  22.270  25.484  1.00  0.00     0.345 HD
ATOM     20  H   UNL A   1      29.060  23.085  26.591  1.00  0.00     0.345 HD
ATOM     21  H   UNL A   1      29.853  21.690  27.038  1.00  0.00     0.345 HD
ENDBRANCH   5  18
ENDBRANCH   4   5
ENDBRANCH   3   4
ENDBRANCH   1   3
BRANCH   1  22
ATOM     22  O   UNL A   1      32.324  27.864  25.550  1.00  0.00    -0.462 OA
BRANCH  22  23
ATOM     23  C   UNL A   1      31.376  28.790  24.987  1.00  0.00     0.274 C 
BRANCH  23  24
ATOM     24  C   UNL A   1      31.635  30.216  25.467  1.00  0.00     0.275 C 
BRANCH  24  25
ATOM     25  O   UNL A   1      32.962  30.337  26.010  1.00  0.00    -0.458 OA
BRANCH  25  26
ATOM     26  C   UNL A   1      33.132  31.361  26.877  1.00  0.00     0.338 C 
ATOM     27  O   UNL A   1      32.416  32.336  27.013  1.00  0.00    -0.246 OA
BRANCH  26  28
ATOM     28  C   UNL A   1      34.359  31.135  27.652  1.00  0.00     0.060 A 
ATOM     29  C   UNL A   1      35.236  32.194  27.900  1.00  0.00     0.016 A 
ATOM     30  C   UNL A   1      34.666  29.842  28.071  1.00  0.00     0.016 A 
ATOM     31  C   UNL A   1      36.438  31.954  28.569  1.00  0.00     0.010 A 
ATOM     32  C   UNL A   1      35.855  29.610  28.764  1.00  0.00     0.010 A 
ATOM     33  C   UNL A   1      36.755  30.661  29.011  1.00  0.00    -0.014 A 
BRANCH  33  34
ATOM     34  C   UNL A   1      38.014  30.379  29.747  1.00  0.00     0.031 A 
ATOM     35  C   UNL A   1      39.018  29.413  29.189  1.00  0.00     0.074 A 
ATOM     36  C   UNL A   1      38.214  30.931  30.958  1.00  0.00     0.049 A 
ATOM     37  N   UNL A   1      40.070  28.887  29.761  1.00  0.00    -0.248 NA
ATOM     38  C   UNL A   1      38.802  28.972  27.803  1.00  0.00     0.031 C 
ATOM     39  C   UNL A   1      37.322  31.894  31.602  1.00  0.00     0.029 A 
ATOM     40  N   UNL A   1      39.214  30.730  31.877  1.00  0.00    -0.354 N 
ATOM     41  C   UNL A   1      40.624  28.028  28.822  1.00  0.00     0.074 A 
ATOM     42  C   UNL A   1      39.792  28.105  27.639  1.00  0.00     0.031 C 
ATOM     43  C   UNL A   1      37.800  32.182  32.823  1.00  0.00     0.029 A 
ATOM     44  C   UNL A   1      38.995  31.380  33.066  1.00  0.00     0.049 A 
ATOM     45  H   UNL A   1      40.008  30.175  31.701  1.00  0.00     0.167 HD
ATOM     46  C   UNL A   1      41.721  27.243  28.942  1.00  0.00     0.037 A 
ATOM     47  C   UNL A   1      39.650  31.301  34.240  1.00  0.00     0.037 A 
ATOM     48  C   UNL A   1      42.553  27.181  30.117  1.00  0.00     0.049 A 
ATOM     49  C   UNL A   1      40.843  30.397  34.364  1.00  0.00     0.074 A 
ATOM     50  C   UNL A   1      43.717  26.457  30.314  1.00  0.00     0.029 A 
ATOM     51  N   UNL A   1      42.303  27.864  31.298  1.00  0.00    -0.354 N 
ATOM     52  N   UNL A   1      41.370  29.601  33.467  1.00  0.00    -0.248 NA
ATOM     53  C   UNL A   1      41.526  30.374  35.665  1.00  0.00     0.031 C 
ATOM     54  C   UNL A   1      44.145  26.666  31.630  1.00  0.00     0.029 A 
ATOM     55  C   UNL A   1      43.275  27.556  32.238  1.00  0.00     0.049 A 
ATOM     56  H   UNL A   1      41.547  28.476  31.447  1.00  0.00     0.167 HD
ATOM     57  C   UNL A   1      42.454  28.993  34.086  1.00  0.00     0.074 A 
ATOM     58  C   UNL A   1      42.514  29.518  35.434  1.00  0.00     0.031 C 
ATOM     59  C   UNL A   1      43.319  28.082  33.579  1.00  0.00     0.037 A 
BRANCH  46  60
ATOM     60  C   UNL A   1      42.068  26.354  27.784  1.00  0.00     0.064 A 
ATOM     61  C   UNL A   1      43.067  26.696  26.862  1.00  0.00     0.173 A 
ATOM     62  C   UNL A   1      41.411  25.125  27.618  1.00  0.00     0.173 A 
ATOM     63  F   UNL A   1      43.716  27.865  26.971  1.00  0.00    -0.203 F 
ATOM     64  C   UNL A   1      43.378  25.851  25.799  1.00  0.00     0.198 A 
ATOM     65  C   UNL A   1      41.742  24.272  26.568  1.00  0.00     0.198 A 
ATOM     66  F   UNL A   1      40.452  24.749  28.476  1.00  0.00    -0.203 F 
ATOM     67  F   UNL A   1      44.306  26.217  24.904  1.00  0.00    -0.200 F 
ATOM     68  C   UNL A   1      42.720  24.638  25.656  1.00  0.00     0.200 A 
ATOM     69  F   UNL A   1      41.112  23.096  26.438  1.00  0.00    -0.200 F 
ATOM     70  F   UNL A   1      43.023  23.826  24.634  1.00  0.00    -0.200 F 
ENDBRANCH  46  60
BRANCH  47  71
ATOM     71  C   UNL A   1      39.149  32.083  35.398  1.00  0.00     0.064 A 
ATOM     72  C   UNL A   1      38.339  31.489  36.373  1.00  0.00     0.173 A 
ATOM     73  C   UNL A   1      39.516  33.425  35.576  1.00  0.00     0.173 A 
ATOM     74  F   UNL A   1      37.945  30.216  36.232  1.00  0.00    -0.203 F 
ATOM     75  C   UNL A   1      37.917  32.209  37.489  1.00  0.00     0.198 A 
ATOM     76  C   UNL A   1      39.114  34.137  36.704  1.00  0.00     0.198 A 
ATOM     77  F   UNL A   1      40.291  34.035  34.667  1.00  0.00    -0.203 F 
ATOM     78  F   UNL A   1      37.126  31.627  38.400  1.00  0.00    -0.200 F 
ATOM     79  C   UNL A   1      38.314  33.529  37.658  1.00  0.00     0.200 A 
ATOM     80  F   UNL A   1      39.510  35.406  36.869  1.00  0.00    -0.200 F 
ATOM     81  F   UNL A   1      37.923  34.213  38.741  1.00  0.00    -0.200 F 
ENDBRANCH  47  71
BRANCH  59  82
ATOM     82  C   UNL A   1      44.424  27.608  34.475  1.00  0.00     0.064 A 
ATOM     83  C   UNL A   1      45.632  28.311  34.581  1.00  0.00     0.173 A 
ATOM     84  C   UNL A   1      44.249  26.469  35.275  1.00  0.00     0.173 A 
ATOM     85  F   UNL A   1      45.851  29.397  33.825  1.00  0.00    -0.203 F 
ATOM     86  C   UNL A   1      46.633  27.882  35.450  1.00  0.00     0.198 A 
ATOM     87  C   UNL A   1      45.243  26.056  36.157  1.00  0.00     0.198 A 
ATOM     88  F   UNL A   1      43.108  25.766  35.211  1.00  0.00    -0.203 F 
ATOM     89  F   UNL A   1      47.793  28.549  35.515  1.00  0.00    -0.200 F 
ATOM     90  C   UNL A   1      46.435  26.760  36.241  1.00  0.00     0.200 A 
ATOM     91  F   UNL A   1      45.047  24.977  36.928  1.00  0.00    -0.200 F 
ATOM     92  F   UNL A   1      47.395  26.354  37.083  1.00  0.00    -0.200 F 
ENDBRANCH  59  82
ENDBRANCH  33  34
ENDBRANCH  26  28
ENDBRANCH  25  26
ENDBRANCH  24  25
ENDBRANCH  23  24
ENDBRANCH  22  23
ENDBRANCH   1  22
TORSDOF 19
ENDMDL
MODEL 2
REMARK VINA RESULT:     -10.4      1.229      2.006
REMARK SMILES CCN(Cc1ccccn1)C(=O)[C@H]([NH3+])CCC(=O)OCCOC(=O)c1ccc(-c2c3nc(c(-c4c(F)c(F)c(F)c(F)c4F)c4ccc([nH]4)c(-c4c(F)c(F)c(F)c(F)c4F)c4nc(c(-c5c(F)c(F)c(F)c(F)c5F)c5ccc2[nH]5)C=C4)C=C3)cc1
REMARK SMILES IDX 17 1 18 2 16 3 15 4 13 5 11 6 12 7 3 8 2 9 1 10 4 11 5 12
REMARK SMILES IDX 6 13 10 14 7 15 9 16 8 17 14 18 19 22 20 23 21 24 22 25
REMARK SMILES IDX 23 26 24 27 25 28 26 29 87 30 27 31 86 32 28 33 29 34 30 35
REMARK SMILES IDX 80 36 31 37 85 38 79 39 81 40 32 41 84 42 78 43 77 44 33 46
REMARK SMILES IDX 65 47 45 48 64 49 46 50 49 51 63 52 82 53 47 54 48 55 62 57
REMARK SMILES IDX 83 58 50 59 34 60 35 61 43 62 36 63 37 64 41 65 44 66 38 67
REMARK SMILES IDX 39 68 42 69 40 70 66 71 67 72 75 73 68 74 69 75 73 76 76 77
REMARK SMILES IDX 70 78 71 79 74 80 72 81 51 82 52 83 60 84 53 85 54 86 58 87
REMARK SMILES IDX 61 88 55 89 56 90 59 91 57 92
REMARK H PARENT 14 19 14 20 14 21 81 45 49 56
REMARK Flexibility Score: inf
ROOT
ATOM      1  C   UNL A   1      29.793  28.364  23.137  1.00  0.00     0.306 C 
ATOM      2  O   UNL A   1      30.048  28.264  21.942  1.00  0.00    -0.252 OA
ENDROOT
BRANCH   1   3
ATOM      3  C   UNL A   1      28.946  27.346  23.867  1.00  0.00     0.129 C 
BRANCH   3   4
ATOM      4  C   UNL A   1      29.444  25.895  23.823  1.00  0.00     0.087 C 
BRANCH   4   5
ATOM      5  C   UNL A   1      30.489  25.504  24.873  1.00  0.00     0.271 C 
BRANCH   5   6
ATOM      6  C   UNL A   1      31.388  24.271  24.508  1.00  0.00     0.281 C 
ATOM      7  O   UNL A   1      31.111  23.166  24.998  1.00  0.00    -0.268 OA
BRANCH   6   8
ATOM      8  N   UNL A   1      32.542  24.435  23.755  1.00  0.00    -0.332 N 
BRANCH   8   9
ATOM      9  C   UNL A   1      33.232  25.724  23.822  1.00  0.00     0.116 C 
ATOM     10  C   UNL A   1      33.166  26.447  22.481  1.00  0.00     0.027 C 
ENDBRANCH   8   9
BRANCH   8  11
ATOM     11  C   UNL A   1      33.146  23.402  22.907  1.00  0.00     0.175 C 
BRANCH  11  12
ATOM     12  C   UNL A   1      34.329  22.682  23.538  1.00  0.00     0.060 A 
ATOM     13  C   UNL A   1      35.641  23.133  23.390  1.00  0.00     0.026 A 
ATOM     14  N   UNL A   1      34.036  21.602  24.309  1.00  0.00    -0.259 NA
ATOM     15  C   UNL A   1      36.663  22.501  24.098  1.00  0.00     0.004 A 
ATOM     16  C   UNL A   1      35.047  21.007  24.978  1.00  0.00     0.111 A 
ATOM     17  C   UNL A   1      36.361  21.424  24.918  1.00  0.00     0.020 A 
ENDBRANCH  11  12
ENDBRANCH   8  11
ENDBRANCH   6   8
ENDBRANCH   5   6
BRANCH   5  18
ATOM     18  N   UNL A   1      29.787  25.183  26.146  1.00  0.00    -0.347 N 
ATOM     19  H   UNL A   1      29.713  24.171  26.248  1.00  0.00     0.345 HD
ATOM     20  H   UNL A   1      28.854  25.594  26.133  1.00  0.00     0.345 HD
ATOM     21  H   UNL A   1      30.315  25.565  26.931  1.00  0.00     0.345 HD
ENDBRANCH   5  18
ENDBRANCH   4   5
ENDBRANCH   3   4
ENDBRANCH   1   3
BRANCH   1  22
ATOM     22  O   UNL A   1      30.184  29.398  23.923  1.00  0.00    -0.462 OA
BRANCH  22  23
ATOM     23  C   UNL A   1      31.581  29.456  24.267  1.00  0.00     0.274 C 
BRANCH  23  24
ATOM     24  C   UNL A   1      31.779  29.721  25.757  1.00  0.00     0.275 C 
BRANCH  24  25
ATOM     25  O   UNL A   1      33.140  30.100  26.029  1.00  0.00    -0.458 OA
BRANCH  25  26
ATOM     26  C   UNL A   1      33.283  31.132  26.892  1.00  0.00     0.338 C 
ATOM     27  O   UNL A   1      32.539  32.085  27.026  1.00  0.00    -0.246 OA
BRANCH  26  28
ATOM     28  C   UNL A   1      34.520  30.948  27.661  1.00  0.00     0.060 A 
ATOM     29  C   UNL A   1      35.368  32.033  27.895  1.00  0.00     0.016 A 
ATOM     30  C   UNL A   1      34.865  29.666  28.089  1.00  0.00     0.016 A 
ATOM     31  C   UNL A   1      36.581  31.831  28.560  1.00  0.00     0.010 A 
ATOM     32  C   UNL A   1      36.063  29.474  28.778  1.00  0.00     0.010 A 
ATOM     33  C   UNL A   1      36.936  30.552  29.010  1.00  0.00    -0.014 A 
BRANCH  33  34
ATOM     34  C   UNL A   1      38.205  30.311  29.742  1.00  0.00     0.031 A 
ATOM     35  C   UNL A   1      39.231  29.366  29.189  1.00  0.00     0.074 A 
ATOM     36  C   UNL A   1      38.398  30.881  30.945  1.00  0.00     0.049 A 
ATOM     37  N   UNL A   1      40.301  28.874  29.760  1.00  0.00    -0.248 NA
ATOM     38  C   UNL A   1      39.020  28.905  27.808  1.00  0.00     0.031 C 
ATOM     39  C   UNL A   1      37.484  31.827  31.585  1.00  0.00     0.029 A 
ATOM     40  N   UNL A   1      39.408  30.717  31.861  1.00  0.00    -0.354 N 
ATOM     41  C   UNL A   1      40.872  28.020  28.826  1.00  0.00     0.074 A 
ATOM     42  C   UNL A   1      40.031  28.062  27.648  1.00  0.00     0.031 C 
ATOM     43  C   UNL A   1      37.961  32.140  32.800  1.00  0.00     0.029 A 
ATOM     44  C   UNL A   1      39.179  31.373  33.044  1.00  0.00     0.049 A 
ATOM     45  H   UNL A   1      40.215  30.181  31.686  1.00  0.00     0.167 HD
ATOM     46  C   UNL A   1      41.990  27.266  28.948  1.00  0.00     0.037 A 
ATOM     47  C   UNL A   1      39.843  31.324  34.215  1.00  0.00     0.037 A 
ATOM     48  C   UNL A   1      42.831  27.238  30.118  1.00  0.00     0.049 A 
ATOM     49  C   UNL A   1      41.060  30.454  34.342  1.00  0.00     0.074 A 
ATOM     50  C   UNL A   1      44.014  26.547  30.316  1.00  0.00     0.029 A 
ATOM     51  N   UNL A   1      42.569  27.927  31.294  1.00  0.00    -0.354 N 
ATOM     52  N   UNL A   1      41.603  29.662  33.449  1.00  0.00    -0.248 NA
ATOM     53  C   UNL A   1      41.751  30.462  35.639  1.00  0.00     0.031 C 
ATOM     54  C   UNL A   1      44.444  26.782  31.626  1.00  0.00     0.029 A 
ATOM     55  C   UNL A   1      43.554  27.655  32.230  1.00  0.00     0.049 A 
ATOM     56  H   UNL A   1      41.798  28.521  31.440  1.00  0.00     0.167 HD
ATOM     57  C   UNL A   1      42.706  29.089  34.068  1.00  0.00     0.074 A 
ATOM     58  C   UNL A   1      42.759  29.630  35.410  1.00  0.00     0.031 C 
ATOM     59  C   UNL A   1      43.592  28.197  33.565  1.00  0.00     0.037 A 
BRANCH  46  60
ATOM     60  C   UNL A   1      42.354  26.374  27.797  1.00  0.00     0.064 A 
ATOM     61  C   UNL A   1      43.312  26.749  26.844  1.00  0.00     0.173 A 
ATOM     62  C   UNL A   1      41.757  25.111  27.668  1.00  0.00     0.173 A 
ATOM     63  F   UNL A   1      43.903  27.951  26.917  1.00  0.00    -0.203 F 
ATOM     64  C   UNL A   1      43.640  25.901  25.789  1.00  0.00     0.198 A 
ATOM     65  C   UNL A   1      42.105  24.256  26.626  1.00  0.00     0.198 A 
ATOM     66  F   UNL A   1      40.838  24.703  28.557  1.00  0.00    -0.203 F 
ATOM     67  F   UNL A   1      44.527  26.297  24.865  1.00  0.00    -0.200 F 
ATOM     68  C   UNL A   1      43.041  24.654  25.684  1.00  0.00     0.200 A 
ATOM     69  F   UNL A   1      41.533  23.048  26.532  1.00  0.00    -0.200 F 
ATOM     70  F   UNL A   1      43.361  23.839  24.669  1.00  0.00    -0.200 F 
ENDBRANCH  46  60
BRANCH  47  71
ATOM     71  C   UNL A   1      39.328  32.105  35.368  1.00  0.00     0.064 A 
ATOM     72  C   UNL A   1      38.476  31.520  36.312  1.00  0.00     0.173 A 
ATOM     73  C   UNL A   1      39.722  33.435  35.573  1.00  0.00     0.173 A 
ATOM     74  F   UNL A   1      38.054  30.259  36.143  1.00  0.00    -0.203 F 
ATOM     75  C   UNL A   1      38.039  32.237  37.424  1.00  0.00     0.198 A 
ATOM     76  C   UNL A   1      39.306  34.143  36.697  1.00  0.00     0.198 A 
ATOM     77  F   UNL A   1      40.538  34.036  34.695  1.00  0.00    -0.203 F 
ATOM     78  F   UNL A   1      37.208  31.664  38.304  1.00  0.00    -0.200 F 
ATOM     79  C   UNL A   1      38.463  33.544  37.621  1.00  0.00     0.200 A 
ATOM     80  F   UNL A   1      39.728  35.400  36.889  1.00  0.00    -0.200 F 
ATOM     81  F   UNL A   1      38.058  34.226  38.700  1.00  0.00    -0.200 F 
ENDBRANCH  47  71
BRANCH  59  82
ATOM     82  C   UNL A   1      44.714  27.761  34.460  1.00  0.00     0.064 A 
ATOM     83  C   UNL A   1      44.613  26.607  35.251  1.00  0.00     0.173 A 
ATOM     84  C   UNL A   1      45.920  28.476  34.486  1.00  0.00     0.173 A 
ATOM     85  F   UNL A   1      43.474  25.900  35.271  1.00  0.00    -0.203 F 
ATOM     86  C   UNL A   1      45.679  26.192  36.045  1.00  0.00     0.198 A 
ATOM     87  C   UNL A   1      46.990  28.046  35.264  1.00  0.00     0.198 A 
ATOM     88  F   UNL A   1      46.065  29.584  33.743  1.00  0.00    -0.203 F 
ATOM     89  F   UNL A   1      45.553  25.104  36.817  1.00  0.00    -0.200 F 
ATOM     90  C   UNL A   1      46.868  26.907  36.046  1.00  0.00     0.200 A 
ATOM     91  F   UNL A   1      48.141  28.732  35.257  1.00  0.00    -0.200 F 
ATOM     92  F   UNL A   1      47.896  26.500  36.804  1.00  0.00    -0.200 F 
ENDBRANCH  59  82
ENDBRANCH  33  34
ENDBRANCH  26  28
ENDBRANCH  25  26
ENDBRANCH  24  25
ENDBRANCH  23  24
ENDBRANCH  22  23
ENDBRANCH   1  22
TORSDOF 19
ENDMDL
MODEL 3
REMARK VINA RESULT:     -10.4      1.204      2.595
REMARK SMILES CCN(Cc1ccccn1)C(=O)[C@H]([NH3+])CCC(=O)OCCOC(=O)c1ccc(-c2c3nc(c(-c4c(F)c(F)c(F)c(F)c4F)c4ccc([nH]4)c(-c4c(F)c(F)c(F)c(F)c4F)c4nc(c(-c5c(F)c(F)c(F)c(F)c5F)c5ccc2[nH]5)C=C4)C=C3)cc1
REMARK SMILES IDX 17 1 18 2 16 3 15 4 13 5 11 6 12 7 3 8 2 9 1 10 4 11 5 12
REMARK SMILES IDX 6 13 10 14 7 15 9 16 8 17 14 18 19 22 20 23 21 24 22 25
REMARK SMILES IDX 23 26 24 27 25 28 26 29 87 30 27 31 86 32 28 33 29 34 30 35
REMARK SMILES IDX 80 36 31 37 85 38 79 39 81 40 32 41 84 42 78 43 77 44 33 46
REMARK SMILES IDX 65 47 45 48 64 49 46 50 49 51 63 52 82 53 47 54 48 55 62 57
REMARK SMILES IDX 83 58 50 59 34 60 35 61 43 62 36 63 37 64 41 65 44 66 38 67
REMARK SMILES IDX 39 68 42 69 40 70 66 71 67 72 75 73 68 74 69 75 73 76 76 77
REMARK SMILES IDX 70 78 71 79 74 80 72 81 51 82 52 83 60 84 53 85 54 86 58 87
REMARK SMILES IDX 61 88 55 89 56 90 59 91 57 92
REMARK H PARENT 14 19 14 20 14 21 81 45 49 56
REMARK Flexibility Score: inf
ROOT
ATOM      1  C   UNL A   1      33.090  25.890  25.815  1.00  0.00     0.306 C 
ATOM      2  O   UNL A   1      34.184  25.614  25.333  1.00  0.00    -0.252 OA
ENDROOT
BRANCH   1   3
ATOM      3  C   UNL A   1      31.988  24.863  25.950  1.00  0.00     0.129 C 
BRANCH   3   4
ATOM      4  C   UNL A   1      32.221  23.752  26.982  1.00  0.00     0.087 C 
BRANCH   4   5
ATOM      5  C   UNL A   1      32.951  22.501  26.480  1.00  0.00     0.271 C 
BRANCH   5   6
ATOM      6  C   UNL A   1      32.226  21.705  25.339  1.00  0.00     0.281 C 
ATOM      7  O   UNL A   1      31.009  21.487  25.444  1.00  0.00    -0.268 OA
BRANCH   6   8
ATOM      8  N   UNL A   1      32.950  21.147  24.296  1.00  0.00    -0.332 N 
BRANCH   8   9
ATOM      9  C   UNL A   1      34.255  21.726  23.975  1.00  0.00     0.116 C 
ATOM     10  C   UNL A   1      34.103  22.943  23.068  1.00  0.00     0.027 C 
ENDBRANCH   8   9
BRANCH   8  11
ATOM     11  C   UNL A   1      32.520  19.996  23.495  1.00  0.00     0.175 C 
BRANCH  11  12
ATOM     12  C   UNL A   1      32.899  18.644  24.081  1.00  0.00     0.060 A 
ATOM     13  C   UNL A   1      33.991  17.910  23.617  1.00  0.00     0.026 A 
ATOM     14  N   UNL A   1      32.151  18.210  25.130  1.00  0.00    -0.259 NA
ATOM     15  C   UNL A   1      34.359  16.741  24.282  1.00  0.00     0.004 A 
ATOM     16  C   UNL A   1      32.528  17.071  25.750  1.00  0.00     0.111 A 
ATOM     17  C   UNL A   1      33.622  16.316  25.377  1.00  0.00     0.020 A 
ENDBRANCH  11  12
ENDBRANCH   8  11
ENDBRANCH   6   8
ENDBRANCH   5   6
BRANCH   5  18
ATOM     18  N   UNL A   1      33.138  21.568  27.626  1.00  0.00    -0.347 N 
ATOM     19  H   UNL A   1      32.230  21.346  28.035  1.00  0.00     0.345 HD
ATOM     20  H   UNL A   1      33.730  22.009  28.330  1.00  0.00     0.345 HD
ATOM     21  H   UNL A   1      33.580  20.711  27.297  1.00  0.00     0.345 HD
ENDBRANCH   5  18
ENDBRANCH   4   5
ENDBRANCH   3   4
ENDBRANCH   1   3
BRANCH   1  22
ATOM     22  O   UNL A   1      32.722  27.128  26.229  1.00  0.00    -0.462 OA
BRANCH  22  23
ATOM     23  C   UNL A   1      31.969  27.923  25.295  1.00  0.00     0.274 C 
BRANCH  23  24
ATOM     24  C   UNL A   1      31.829  29.366  25.774  1.00  0.00     0.275 C 
BRANCH  24  25
ATOM     25  O   UNL A   1      33.113  30.012  25.823  1.00  0.00    -0.458 OA
BRANCH  25  26
ATOM     26  C   UNL A   1      33.254  30.926  26.811  1.00  0.00     0.338 C 
ATOM     27  O   UNL A   1      32.480  31.819  27.103  1.00  0.00    -0.246 OA
BRANCH  26  28
ATOM     28  C   UNL A   1      34.530  30.694  27.501  1.00  0.00     0.060 A 
ATOM     29  C   UNL A   1      34.841  29.424  27.992  1.00  0.00     0.016 A 
ATOM     30  C   UNL A   1      35.387  31.773  27.716  1.00  0.00     0.016 A 
ATOM     31  C   UNL A   1      36.021  29.232  28.715  1.00  0.00     0.010 A 
ATOM     32  C   UNL A   1      36.579  31.572  28.414  1.00  0.00     0.010 A 
ATOM     33  C   UNL A   1      36.901  30.303  28.928  1.00  0.00    -0.014 A 
BRANCH  33  34
ATOM     34  C   UNL A   1      38.175  30.124  29.670  1.00  0.00     0.031 A 
ATOM     35  C   UNL A   1      39.244  29.218  29.134  1.00  0.00     0.074 A 
ATOM     36  C   UNL A   1      38.334  30.714  30.869  1.00  0.00     0.049 A 
ATOM     37  N   UNL A   1      40.330  28.779  29.718  1.00  0.00    -0.248 NA
ATOM     38  C   UNL A   1      39.063  28.734  27.757  1.00  0.00     0.031 C 
ATOM     39  C   UNL A   1      37.376  31.627  31.492  1.00  0.00     0.029 A 
ATOM     40  N   UNL A   1      39.344  30.603  31.793  1.00  0.00    -0.354 N 
ATOM     41  C   UNL A   1      40.944  27.941  28.797  1.00  0.00     0.074 A 
ATOM     42  C   UNL A   1      40.111  27.934  27.613  1.00  0.00     0.031 C 
ATOM     43  C   UNL A   1      37.830  31.972  32.707  1.00  0.00     0.029 A 
ATOM     44  C   UNL A   1      39.078  31.260  32.968  1.00  0.00     0.049 A 
ATOM     45  H   UNL A   1      40.174  30.100  31.629  1.00  0.00     0.167 HD
ATOM     46  C   UNL A   1      42.092  27.236  28.935  1.00  0.00     0.037 A 
ATOM     47  C   UNL A   1      39.734  31.252  34.144  1.00  0.00     0.037 A 
ATOM     48  C   UNL A   1      42.925  27.256  30.111  1.00  0.00     0.049 A 
ATOM     49  C   UNL A   1      40.987  30.436  34.288  1.00  0.00     0.074 A 
ATOM     50  C   UNL A   1      44.135  26.619  30.324  1.00  0.00     0.029 A 
ATOM     51  N   UNL A   1      42.625  27.946  31.277  1.00  0.00    -0.354 N 
ATOM     52  N   UNL A   1      41.570  29.660  33.408  1.00  0.00    -0.248 NA
ATOM     53  C   UNL A   1      41.667  30.487  35.590  1.00  0.00     0.031 C 
ATOM     54  C   UNL A   1      44.544  26.885  31.635  1.00  0.00     0.029 A 
ATOM     55  C   UNL A   1      43.614  27.725  32.224  1.00  0.00     0.049 A 
ATOM     56  H   UNL A   1      41.828  28.507  31.413  1.00  0.00     0.167 HD
ATOM     57  C   UNL A   1      42.691  29.141  34.040  1.00  0.00     0.074 A 
ATOM     58  C   UNL A   1      42.712  29.697  35.377  1.00  0.00     0.031 C 
ATOM     59  C   UNL A   1      43.619  28.282  33.553  1.00  0.00     0.037 A 
BRANCH  46  60
ATOM     60  C   UNL A   1      42.503  26.349  27.796  1.00  0.00     0.064 A 
ATOM     61  C   UNL A   1      41.948  25.074  27.614  1.00  0.00     0.173 A 
ATOM     62  C   UNL A   1      43.441  26.800  26.855  1.00  0.00     0.173 A 
ATOM     63  F   UNL A   1      41.056  24.593  28.492  1.00  0.00    -0.203 F 
ATOM     64  C   UNL A   1      42.339  24.272  26.544  1.00  0.00     0.198 A 
ATOM     65  C   UNL A   1      43.810  26.005  25.773  1.00  0.00     0.198 A 
ATOM     66  F   UNL A   1      43.997  28.014  26.981  1.00  0.00    -0.203 F 
ATOM     67  F   UNL A   1      41.828  23.039  26.413  1.00  0.00    -0.200 F 
ATOM     68  C   UNL A   1      43.264  24.739  25.623  1.00  0.00     0.200 A 
ATOM     69  F   UNL A   1      44.697  26.461  24.879  1.00  0.00    -0.200 F 
ATOM     70  F   UNL A   1      43.636  23.966  24.593  1.00  0.00    -0.200 F 
ENDBRANCH  46  60
BRANCH  47  71
ATOM     71  C   UNL A   1      39.178  32.022  35.285  1.00  0.00     0.064 A 
ATOM     72  C   UNL A   1      38.423  31.391  36.281  1.00  0.00     0.173 A 
ATOM     73  C   UNL A   1      39.436  33.393  35.425  1.00  0.00     0.173 A 
ATOM     74  F   UNL A   1      38.132  30.087  36.175  1.00  0.00    -0.203 F 
ATOM     75  C   UNL A   1      37.950  32.104  37.381  1.00  0.00     0.198 A 
ATOM     76  C   UNL A   1      38.984  34.100  36.537  1.00  0.00     0.198 A 
ATOM     77  F   UNL A   1      40.155  34.039  34.495  1.00  0.00    -0.203 F 
ATOM     78  F   UNL A   1      37.213  31.484  38.312  1.00  0.00    -0.200 F 
ATOM     79  C   UNL A   1      38.240  33.455  37.512  1.00  0.00     0.200 A 
ATOM     80  F   UNL A   1      39.278  35.401  36.666  1.00  0.00    -0.200 F 
ATOM     81  F   UNL A   1      37.801  34.135  38.580  1.00  0.00    -0.200 F 
ENDBRANCH  47  71
BRANCH  59  82
ATOM     82  C   UNL A   1      44.751  27.904  34.460  1.00  0.00     0.064 A 
ATOM     83  C   UNL A   1      44.684  26.769  35.281  1.00  0.00     0.173 A 
ATOM     84  C   UNL A   1      45.936  28.656  34.468  1.00  0.00     0.173 A 
ATOM     85  F   UNL A   1      43.567  26.028  35.319  1.00  0.00    -0.203 F 
ATOM     86  C   UNL A   1      45.760  26.407  36.087  1.00  0.00     0.198 A 
ATOM     87  C   UNL A   1      47.017  28.279  35.259  1.00  0.00     0.198 A 
ATOM     88  F   UNL A   1      46.048  29.748  33.697  1.00  0.00    -0.203 F 
ATOM     89  F   UNL A   1      45.666  25.337  36.887  1.00  0.00    -0.200 F 
ATOM     90  C   UNL A   1      46.927  27.157  36.070  1.00  0.00     0.200 A 
ATOM     91  F   UNL A   1      48.147  28.999  35.235  1.00  0.00    -0.200 F 
ATOM     92  F   UNL A   1      47.966  26.802  36.840  1.00  0.00    -0.200 F 
ENDBRANCH  59  82
ENDBRANCH  33  34
ENDBRANCH  26  28
ENDBRANCH  25  26
ENDBRANCH  24  25
ENDBRANCH  23  24
ENDBRANCH  22  23
ENDBRANCH   1  22
TORSDOF 19
ENDMDL
