MODEL 1
REMARK VINA RESULT:     -13.5      0.000      0.000
REMARK SMILES Cc1ccc(C(=O)N[C@@H]2C=C[C@H](C(=O)OCCOC(=O)c3ccc(-c4c5nc(c(-c6c(F)c(F)c(F)c(F)c6F)c6ccc([nH]6)c(-c6c(F)c(F)c(F)c(F)c6F)c6nc(c(-c7c(F)c(F)c(F)c(F)c7F)c7ccc4[nH]7)C=C6)C=C5)cc3)C2)c(F)c1
REMARK SMILES IDX 16 1 15 2 13 3 14 4 12 5 9 6 10 7 84 8 11 9 8 10 6 11 7 12
REMARK SMILES IDX 5 14 1 15 2 16 3 17 87 18 4 19 85 20 86 21 17 22 18 23 19 24
REMARK SMILES IDX 20 25 21 26 22 27 83 28 23 29 82 30 24 31 25 32 26 33 76 34
REMARK SMILES IDX 27 35 81 36 75 37 77 38 28 39 80 40 74 41 73 42 29 44 61 45
REMARK SMILES IDX 41 46 60 47 42 48 45 49 59 50 78 51 43 52 44 53 58 55 79 56
REMARK SMILES IDX 46 57 30 58 31 59 39 60 32 61 33 62 37 63 40 64 34 65 35 66
REMARK SMILES IDX 38 67 36 68 62 69 63 70 71 71 64 72 65 73 69 74 72 75 66 76
REMARK SMILES IDX 67 77 70 78 68 79 47 80 48 81 56 82 49 83 50 84 54 85 57 86
REMARK SMILES IDX 51 87 52 88 55 89 53 90
REMARK H PARENT 8 13 77 43 45 54
REMARK Flexibility Score: inf
ROOT
ATOM      1  C   UNL A   1      32.855  30.276  27.253  1.00  0.00     0.274 C 
ENDROOT
BRANCH   1   2
ATOM      2  O   UNL A   1      32.349  30.458  25.911  1.00  0.00    -0.462 OA
BRANCH   2   3
ATOM      3  C   UNL A   1      32.535  29.420  25.033  1.00  0.00     0.312 C 
ATOM      4  O   UNL A   1      33.595  29.175  24.466  1.00  0.00    -0.252 OA
BRANCH   3   5
ATOM      5  C   UNL A   1      31.213  28.692  24.740  1.00  0.00     0.124 C 
ATOM      6  C   UNL A   1      30.939  27.148  22.817  1.00  0.00     0.106 C 
ATOM      7  C   UNL A   1      30.343  28.481  22.547  1.00  0.00    -0.006 C 
ATOM      8  C   UNL A   1      31.393  27.258  24.273  1.00  0.00     0.048 C 
ATOM      9  C   UNL A   1      30.451  29.299  23.600  1.00  0.00    -0.014 C 
BRANCH   6  10
ATOM     10  N   UNL A   1      31.950  26.867  21.845  1.00  0.00    -0.346 N 
ATOM     11  C   UNL A   1      32.562  25.672  21.630  1.00  0.00     0.254 C 
ATOM     12  O   UNL A   1      33.010  25.428  20.510  1.00  0.00    -0.269 OA
ATOM     13  H   UNL A   1      32.232  27.617  21.272  1.00  0.00     0.164 HD
BRANCH  11  14
ATOM     14  C   UNL A   1      32.746  24.667  22.698  1.00  0.00     0.075 A 
ATOM     15  C   UNL A   1      34.098  20.511  25.359  1.00  0.00     0.044 C 
ATOM     16  C   UNL A   1      34.128  21.752  24.389  1.00  0.00    -0.048 A 
ATOM     17  C   UNL A   1      32.513  21.663  23.544  1.00  0.00     0.004 A 
ATOM     18  C   UNL A   1      35.019  23.569  24.319  1.00  0.00     0.043 A 
ATOM     19  C   UNL A   1      31.888  23.108  22.727  1.00  0.00     0.017 A 
ATOM     20  C   UNL A   1      34.246  24.916  23.490  1.00  0.00     0.136 A 
ATOM     21  F   UNL A   1      34.402  26.040  24.187  1.00  0.00    -0.206 F 
ENDBRANCH  11  14
ENDBRANCH   6  10
ENDBRANCH   3   5
ENDBRANCH   2   3
ENDBRANCH   1   2
BRANCH   1  22
ATOM     22  C   UNL A   1      34.273  30.824  27.454  1.00  0.00     0.275 C 
BRANCH  22  23
ATOM     23  O   UNL A   1      34.409  32.245  27.257  1.00  0.00    -0.458 OA
BRANCH  23  24
ATOM     24  C   UNL A   1      33.899  33.004  28.253  1.00  0.00     0.338 C 
ATOM     25  O   UNL A   1      32.849  33.624  28.216  1.00  0.00    -0.246 OA
BRANCH  24  26
ATOM     26  C   UNL A   1      34.910  33.320  29.286  1.00  0.00     0.060 A 
ATOM     27  C   UNL A   1      36.077  33.888  28.759  1.00  0.00     0.016 A 
ATOM     28  C   UNL A   1      34.950  32.530  30.443  1.00  0.00     0.016 A 
ATOM     29  C   UNL A   1      37.289  33.346  29.140  1.00  0.00     0.010 A 
ATOM     30  C   UNL A   1      36.171  32.035  30.860  1.00  0.00     0.010 A 
ATOM     31  C   UNL A   1      37.311  32.334  30.112  1.00  0.00    -0.014 A 
BRANCH  31  32
ATOM     32  C   UNL A   1      38.570  31.734  30.521  1.00  0.00     0.031 A 
ATOM     33  C   UNL A   1      38.673  30.328  30.046  1.00  0.00     0.074 A 
ATOM     34  C   UNL A   1      39.513  32.447  31.199  1.00  0.00     0.049 A 
ATOM     35  N   UNL A   1      39.234  29.347  30.671  1.00  0.00    -0.248 NA
ATOM     36  C   UNL A   1      37.869  29.846  28.886  1.00  0.00     0.031 C 
ATOM     37  C   UNL A   1      40.950  32.265  31.161  1.00  0.00     0.029 A 
ATOM     38  N   UNL A   1      39.382  33.566  32.049  1.00  0.00    -0.354 N 
ATOM     39  C   UNL A   1      39.308  28.355  29.710  1.00  0.00     0.074 A 
ATOM     40  C   UNL A   1      38.149  28.544  28.901  1.00  0.00     0.031 C 
ATOM     41  C   UNL A   1      41.546  33.035  32.097  1.00  0.00     0.029 A 
ATOM     42  C   UNL A   1      40.513  33.681  32.906  1.00  0.00     0.049 A 
ATOM     43  H   UNL A   1      38.614  34.183  32.049  1.00  0.00     0.167 HD
ATOM     44  C   UNL A   1      40.546  27.877  29.385  1.00  0.00     0.037 A 
ATOM     45  C   UNL A   1      40.516  33.688  34.290  1.00  0.00     0.037 A 
ATOM     46  C   UNL A   1      41.521  28.390  30.353  1.00  0.00     0.049 A 
ATOM     47  C   UNL A   1      41.061  32.288  34.738  1.00  0.00     0.074 A 
ATOM     48  C   UNL A   1      42.505  29.359  30.253  1.00  0.00     0.029 A 
ATOM     49  N   UNL A   1      41.301  28.191  31.712  1.00  0.00    -0.354 N 
ATOM     50  N   UNL A   1      41.125  31.252  33.935  1.00  0.00    -0.248 NA
ATOM     51  C   UNL A   1      41.552  31.949  36.076  1.00  0.00     0.031 C 
ATOM     52  C   UNL A   1      42.851  29.764  31.570  1.00  0.00     0.029 A 
ATOM     53  C   UNL A   1      42.053  29.072  32.464  1.00  0.00     0.049 A 
ATOM     54  H   UNL A   1      40.693  27.514  32.088  1.00  0.00     0.167 HD
ATOM     55  C   UNL A   1      41.708  30.185  34.565  1.00  0.00     0.074 A 
ATOM     56  C   UNL A   1      41.918  30.660  35.920  1.00  0.00     0.031 C 
ATOM     57  C   UNL A   1      42.014  29.017  33.916  1.00  0.00     0.037 A 
BRANCH  44  58
ATOM     58  C   UNL A   1      40.957  27.297  28.033  1.00  0.00     0.064 A 
ATOM     59  C   UNL A   1      40.877  25.899  27.839  1.00  0.00     0.173 A 
ATOM     60  C   UNL A   1      41.482  27.997  26.922  1.00  0.00     0.173 A 
ATOM     61  F   UNL A   1      40.342  25.096  28.770  1.00  0.00    -0.203 F 
ATOM     62  C   UNL A   1      41.333  25.260  26.682  1.00  0.00     0.198 A 
ATOM     63  C   UNL A   1      41.930  27.358  25.759  1.00  0.00     0.198 A 
ATOM     64  F   UNL A   1      41.586  29.326  26.882  1.00  0.00    -0.203 F 
ATOM     65  F   UNL A   1      41.255  23.926  26.588  1.00  0.00    -0.200 F 
ATOM     66  C   UNL A   1      41.863  25.990  25.640  1.00  0.00     0.200 A 
ATOM     67  F   UNL A   1      42.429  28.090  24.751  1.00  0.00    -0.200 F 
ATOM     68  F   UNL A   1      42.290  25.381  24.528  1.00  0.00    -0.200 F 
ENDBRANCH  44  58
BRANCH  45  69
ATOM     69  C   UNL A   1      39.362  34.414  35.099  1.00  0.00     0.064 A 
ATOM     70  C   UNL A   1      38.137  33.375  35.907  1.00  0.00     0.173 A 
ATOM     71  C   UNL A   1      40.068  35.771  35.904  1.00  0.00     0.173 A 
ATOM     72  F   UNL A   1      37.715  32.284  35.246  1.00  0.00    -0.203 F 
ATOM     73  C   UNL A   1      37.714  33.497  37.656  1.00  0.00     0.198 A 
ATOM     74  C   UNL A   1      39.797  36.023  37.627  1.00  0.00     0.198 A 
ATOM     75  F   UNL A   1      40.964  36.554  35.289  1.00  0.00    -0.203 F 
ATOM     76  F   UNL A   1      36.961  32.555  38.243  1.00  0.00    -0.200 F 
ATOM     77  C   UNL A   1      38.529  34.797  38.639  1.00  0.00     0.200 A 
ATOM     78  F   UNL A   1      40.580  37.069  38.029  1.00  0.00    -0.200 F 
ATOM     79  F   UNL A   1      38.230  34.713  39.957  1.00  0.00    -0.200 F 
ENDBRANCH  45  69
BRANCH  57  80
ATOM     80  C   UNL A   1      42.496  27.740  34.562  1.00  0.00     0.064 A 
ATOM     81  C   UNL A   1      41.671  26.637  34.807  1.00  0.00     0.173 A 
ATOM     82  C   UNL A   1      43.869  27.558  34.876  1.00  0.00     0.173 A 
ATOM     83  F   UNL A   1      40.403  26.607  34.376  1.00  0.00    -0.203 F 
ATOM     84  C   UNL A   1      42.146  25.505  35.474  1.00  0.00     0.198 A 
ATOM     85  C   UNL A   1      44.355  26.395  35.461  1.00  0.00     0.198 A 
ATOM     86  F   UNL A   1      44.795  28.494  34.618  1.00  0.00    -0.203 F 
ATOM     87  F   UNL A   1      41.294  24.521  35.790  1.00  0.00    -0.200 F 
ATOM     88  C   UNL A   1      43.483  25.388  35.805  1.00  0.00     0.200 A 
ATOM     89  F   UNL A   1      45.669  26.265  35.689  1.00  0.00    -0.200 F 
ATOM     90  F   UNL A   1      43.933  24.301  36.444  1.00  0.00    -0.200 F 
ENDBRANCH  57  80
ENDBRANCH  31  32
ENDBRANCH  24  26
ENDBRANCH  23  24
ENDBRANCH  22  23
ENDBRANCH   1  22
TORSDOF 13
ENDMDL
MODEL 2
REMARK VINA RESULT:     -13.2      1.119      1.841
REMARK SMILES Cc1ccc(C(=O)N[C@@H]2C=C[C@H](C(=O)OCCOC(=O)c3ccc(-c4c5nc(c(-c6c(F)c(F)c(F)c(F)c6F)c6ccc([nH]6)c(-c6c(F)c(F)c(F)c(F)c6F)c6nc(c(-c7c(F)c(F)c(F)c(F)c7F)c7ccc4[nH]7)C=C6)C=C5)cc3)C2)c(F)c1
REMARK SMILES IDX 16 1 15 2 13 3 14 4 12 5 9 6 10 7 84 8 11 9 8 10 6 11 7 12
REMARK SMILES IDX 5 14 1 15 2 16 3 17 87 18 4 19 85 20 86 21 17 22 18 23 19 24
REMARK SMILES IDX 20 25 21 26 22 27 83 28 23 29 82 30 24 31 25 32 26 33 76 34
REMARK SMILES IDX 27 35 81 36 75 37 77 38 28 39 80 40 74 41 73 42 29 44 61 45
REMARK SMILES IDX 41 46 60 47 42 48 45 49 59 50 78 51 43 52 44 53 58 55 79 56
REMARK SMILES IDX 46 57 30 58 31 59 39 60 32 61 33 62 37 63 40 64 34 65 35 66
REMARK SMILES IDX 38 67 36 68 62 69 63 70 71 71 64 72 65 73 69 74 72 75 66 76
REMARK SMILES IDX 67 77 70 78 68 79 47 80 48 81 56 82 49 83 50 84 54 85 57 86
REMARK SMILES IDX 51 87 52 88 55 89 53 90
REMARK H PARENT 8 13 77 43 45 54
REMARK Flexibility Score: inf
ROOT
ATOM      1  C   UNL A   1      33.016  29.272  27.182  1.00  0.00     0.274 C 
ENDROOT
BRANCH   1   2
ATOM      2  O   UNL A   1      32.984  28.515  25.950  1.00  0.00    -0.462 OA
BRANCH   2   3
ATOM      3  C   UNL A   1      31.748  28.251  25.418  1.00  0.00     0.312 C 
ATOM      4  O   UNL A   1      31.096  29.049  24.753  1.00  0.00    -0.252 OA
BRANCH   3   5
ATOM      5  C   UNL A   1      31.220  26.883  25.882  1.00  0.00     0.124 C 
ATOM      6  C   UNL A   1      32.030  24.745  24.918  1.00  0.00     0.106 C 
ATOM      7  C   UNL A   1      30.712  25.140  24.360  1.00  0.00    -0.006 C 
ATOM      8  C   UNL A   1      32.293  25.812  25.981  1.00  0.00     0.048 C 
ATOM      9  C   UNL A   1      30.255  26.269  24.912  1.00  0.00    -0.014 C 
BRANCH   6  10
ATOM     10  N   UNL A   1      32.988  24.636  23.861  1.00  0.00    -0.346 N 
ATOM     11  C   UNL A   1      33.360  23.499  23.215  1.00  0.00     0.254 C 
ATOM     12  O   UNL A   1      33.776  23.584  22.060  1.00  0.00    -0.269 OA
ATOM     13  H   UNL A   1      33.422  25.471  23.573  1.00  0.00     0.164 HD
BRANCH  11  14
ATOM     14  C   UNL A   1      33.322  22.169  23.856  1.00  0.00     0.075 A 
ATOM     15  C   UNL A   1      33.839  17.178  24.862  1.00  0.00     0.044 C 
ATOM     16  C   UNL A   1      34.122  18.656  24.394  1.00  0.00    -0.048 A 
ATOM     17  C   UNL A   1      32.560  19.145  23.585  1.00  0.00     0.004 A 
ATOM     18  C   UNL A   1      35.298  20.202  24.964  1.00  0.00     0.043 A 
ATOM     19  C   UNL A   1      32.222  20.869  23.339  1.00  0.00     0.017 A 
ATOM     20  C   UNL A   1      34.799  21.865  24.672  1.00  0.00     0.136 A 
ATOM     21  F   UNL A   1      35.098  22.629  25.720  1.00  0.00    -0.206 F 
ENDBRANCH  11  14
ENDBRANCH   6  10
ENDBRANCH   3   5
ENDBRANCH   2   3
ENDBRANCH   1   2
BRANCH   1  22
ATOM     22  C   UNL A   1      33.291  30.767  26.977  1.00  0.00     0.275 C 
BRANCH  22  23
ATOM     23  O   UNL A   1      34.348  31.307  27.795  1.00  0.00    -0.458 OA
BRANCH  23  24
ATOM     24  C   UNL A   1      34.092  32.528  28.314  1.00  0.00     0.338 C 
ATOM     25  O   UNL A   1      33.307  33.348  27.866  1.00  0.00    -0.246 OA
BRANCH  24  26
ATOM     26  C   UNL A   1      35.123  32.947  29.288  1.00  0.00     0.060 A 
ATOM     27  C   UNL A   1      36.270  33.477  28.683  1.00  0.00     0.016 A 
ATOM     28  C   UNL A   1      35.200  32.267  30.511  1.00  0.00     0.016 A 
ATOM     29  C   UNL A   1      37.497  32.984  29.082  1.00  0.00     0.010 A 
ATOM     30  C   UNL A   1      36.437  31.824  30.941  1.00  0.00     0.010 A 
ATOM     31  C   UNL A   1      37.555  32.065  30.141  1.00  0.00    -0.014 A 
BRANCH  31  32
ATOM     32  C   UNL A   1      38.831  31.518  30.570  1.00  0.00     0.031 A 
ATOM     33  C   UNL A   1      39.011  30.126  30.076  1.00  0.00     0.074 A 
ATOM     34  C   UNL A   1      39.723  32.263  31.281  1.00  0.00     0.049 A 
ATOM     35  N   UNL A   1      39.602  29.163  30.700  1.00  0.00    -0.248 NA
ATOM     36  C   UNL A   1      38.257  29.627  28.890  1.00  0.00     0.031 C 
ATOM     37  C   UNL A   1      41.168  32.148  31.276  1.00  0.00     0.029 A 
ATOM     38  N   UNL A   1      39.520  33.361  32.146  1.00  0.00    -0.354 N 
ATOM     39  C   UNL A   1      39.745  28.191  29.726  1.00  0.00     0.074 A 
ATOM     40  C   UNL A   1      38.598  28.339  28.892  1.00  0.00     0.031 C 
ATOM     41  C   UNL A   1      41.705  32.930  32.237  1.00  0.00     0.029 A 
ATOM     42  C   UNL A   1      40.624  33.514  33.031  1.00  0.00     0.049 A 
ATOM     43  H   UNL A   1      38.725  33.940  32.136  1.00  0.00     0.167 HD
ATOM     44  C   UNL A   1      41.012  27.776  29.423  1.00  0.00     0.037 A 
ATOM     45  C   UNL A   1      40.594  33.498  34.415  1.00  0.00     0.037 A 
ATOM     46  C   UNL A   1      41.938  28.318  30.422  1.00  0.00     0.049 A 
ATOM     47  C   UNL A   1      41.195  32.118  34.854  1.00  0.00     0.074 A 
ATOM     48  C   UNL A   1      42.878  29.333  30.361  1.00  0.00     0.029 A 
ATOM     49  N   UNL A   1      41.696  28.087  31.772  1.00  0.00    -0.354 N 
ATOM     50  N   UNL A   1      41.325  31.099  34.037  1.00  0.00    -0.248 NA
ATOM     51  C   UNL A   1      41.669  31.780  36.198  1.00  0.00     0.031 C 
ATOM     52  C   UNL A   1      43.173  29.732  31.692  1.00  0.00     0.029 A 
ATOM     53  C   UNL A   1      42.389  28.989  32.555  1.00  0.00     0.049 A 
ATOM     54  H   UNL A   1      41.112  27.376  32.123  1.00  0.00     0.167 HD
ATOM     55  C   UNL A   1      41.942  30.051  34.664  1.00  0.00     0.074 A 
ATOM     56  C   UNL A   1      42.099  30.512  36.031  1.00  0.00     0.031 C 
ATOM     57  C   UNL A   1      42.318  28.909  34.005  1.00  0.00     0.037 A 
BRANCH  44  58
ATOM     58  C   UNL A   1      41.481  27.238  28.073  1.00  0.00     0.064 A 
ATOM     59  C   UNL A   1      41.922  25.898  27.990  1.00  0.00     0.173 A 
ATOM     60  C   UNL A   1      41.589  27.950  26.856  1.00  0.00     0.173 A 
ATOM     61  F   UNL A   1      41.827  25.066  29.037  1.00  0.00    -0.203 F 
ATOM     62  C   UNL A   1      42.473  25.345  26.830  1.00  0.00     0.198 A 
ATOM     63  C   UNL A   1      42.133  27.393  25.691  1.00  0.00     0.198 A 
ATOM     64  F   UNL A   1      41.173  29.208  26.708  1.00  0.00    -0.203 F 
ATOM     65  F   UNL A   1      42.902  24.076  26.840  1.00  0.00    -0.200 F 
ATOM     66  C   UNL A   1      42.582  26.093  25.679  1.00  0.00     0.200 A 
ATOM     67  F   UNL A   1      42.214  28.137  24.577  1.00  0.00    -0.200 F 
ATOM     68  F   UNL A   1      43.100  25.562  24.564  1.00  0.00    -0.200 F 
ENDBRANCH  44  58
BRANCH  45  69
ATOM     69  C   UNL A   1      39.389  34.157  35.206  1.00  0.00     0.064 A 
ATOM     70  C   UNL A   1      38.259  33.051  36.062  1.00  0.00     0.173 A 
ATOM     71  C   UNL A   1      39.986  35.595  35.956  1.00  0.00     0.173 A 
ATOM     72  F   UNL A   1      37.924  31.905  35.444  1.00  0.00    -0.203 F 
ATOM     73  C   UNL A   1      37.836  33.201  37.808  1.00  0.00     0.198 A 
ATOM     74  C   UNL A   1      39.705  35.887  37.670  1.00  0.00     0.198 A 
ATOM     75  F   UNL A   1      40.811  36.426  35.305  1.00  0.00    -0.203 F 
ATOM     76  F   UNL A   1      37.167  32.223  38.435  1.00  0.00    -0.200 F 
ATOM     77  C   UNL A   1      38.547  34.599  38.737  1.00  0.00     0.200 A 
ATOM     78  F   UNL A   1      40.401  37.007  38.028  1.00  0.00    -0.200 F 
ATOM     79  F   UNL A   1      38.264  34.539  40.060  1.00  0.00    -0.200 F 
ENDBRANCH  45  69
BRANCH  57  80
ATOM     80  C   UNL A   1      42.844  27.645  34.643  1.00  0.00     0.064 A 
ATOM     81  C   UNL A   1      44.151  27.506  35.123  1.00  0.00     0.173 A 
ATOM     82  C   UNL A   1      41.987  26.537  34.877  1.00  0.00     0.173 A 
ATOM     83  F   UNL A   1      44.998  28.543  35.145  1.00  0.00    -0.203 F 
ATOM     84  C   UNL A   1      44.613  26.293  35.640  1.00  0.00     0.198 A 
ATOM     85  C   UNL A   1      42.428  25.361  35.470  1.00  0.00     0.198 A 
ATOM     86  F   UNL A   1      40.686  26.556  34.550  1.00  0.00    -0.203 F 
ATOM     87  F   UNL A   1      45.902  26.171  35.982  1.00  0.00    -0.200 F 
ATOM     88  C   UNL A   1      43.755  25.222  35.806  1.00  0.00     0.200 A 
ATOM     89  F   UNL A   1      41.559  24.369  35.706  1.00  0.00    -0.200 F 
ATOM     90  F   UNL A   1      44.203  24.061  36.301  1.00  0.00    -0.200 F 
ENDBRANCH  57  80
ENDBRANCH  31  32
ENDBRANCH  24  26
ENDBRANCH  23  24
ENDBRANCH  22  23
ENDBRANCH   1  22
TORSDOF 13
ENDMDL
MODEL 3
REMARK VINA RESULT:     -13.1      1.262      1.666
REMARK SMILES Cc1ccc(C(=O)N[C@@H]2C=C[C@H](C(=O)OCCOC(=O)c3ccc(-c4c5nc(c(-c6c(F)c(F)c(F)c(F)c6F)c6ccc([nH]6)c(-c6c(F)c(F)c(F)c(F)c6F)c6nc(c(-c7c(F)c(F)c(F)c(F)c7F)c7ccc4[nH]7)C=C6)C=C5)cc3)C2)c(F)c1
REMARK SMILES IDX 16 1 15 2 13 3 14 4 12 5 9 6 10 7 84 8 11 9 8 10 6 11 7 12
REMARK SMILES IDX 5 14 1 15 2 16 3 17 87 18 4 19 85 20 86 21 17 22 18 23 19 24
REMARK SMILES IDX 20 25 21 26 22 27 83 28 23 29 82 30 24 31 25 32 26 33 76 34
REMARK SMILES IDX 27 35 81 36 75 37 77 38 28 39 80 40 74 41 73 42 29 44 61 45
REMARK SMILES IDX 41 46 60 47 42 48 45 49 59 50 78 51 43 52 44 53 58 55 79 56
REMARK SMILES IDX 46 57 30 58 31 59 39 60 32 61 33 62 37 63 40 64 34 65 35 66
REMARK SMILES IDX 38 67 36 68 62 69 63 70 71 71 64 72 65 73 69 74 72 75 66 76
REMARK SMILES IDX 67 77 70 78 68 79 47 80 48 81 56 82 49 83 50 84 54 85 57 86
REMARK SMILES IDX 51 87 52 88 55 89 53 90
REMARK H PARENT 8 13 77 43 45 54
REMARK Flexibility Score: inf
ROOT
ATOM      1  C   UNL A   1      33.864  29.960  26.516  1.00  0.00     0.274 C 
ENDROOT
BRANCH   1   2
ATOM      2  O   UNL A   1      32.877  29.571  25.533  1.00  0.00    -0.462 OA
BRANCH   2   3
ATOM      3  C   UNL A   1      33.121  28.415  24.836  1.00  0.00     0.312 C 
ATOM      4  O   UNL A   1      33.010  28.305  23.619  1.00  0.00    -0.252 OA
BRANCH   3   5
ATOM      5  C   UNL A   1      33.409  27.240  25.784  1.00  0.00     0.124 C 
ATOM      6  C   UNL A   1      32.806  24.898  25.225  1.00  0.00     0.106 C 
ATOM      7  C   UNL A   1      31.836  25.510  26.170  1.00  0.00    -0.006 C 
ATOM      8  C   UNL A   1      33.876  25.980  25.075  1.00  0.00     0.048 C 
ATOM      9  C   UNL A   1      32.186  26.757  26.505  1.00  0.00    -0.014 C 
BRANCH   6  10
ATOM     10  N   UNL A   1      32.126  24.492  24.034  1.00  0.00    -0.346 N 
ATOM     11  C   UNL A   1      32.207  23.278  23.426  1.00  0.00     0.254 C 
ATOM     12  O   UNL A   1      31.255  22.890  22.751  1.00  0.00    -0.269 OA
ATOM     13  H   UNL A   1      31.541  25.160  23.611  1.00  0.00     0.164 HD
BRANCH  11  14
ATOM     14  C   UNL A   1      33.407  22.421  23.513  1.00  0.00     0.075 A 
ATOM     15  C   UNL A   1      37.779  20.217  25.001  1.00  0.00     0.044 C 
ATOM     16  C   UNL A   1      36.340  20.859  25.006  1.00  0.00    -0.048 A 
ATOM     17  C   UNL A   1      36.512  22.281  23.873  1.00  0.00     0.004 A 
ATOM     18  C   UNL A   1      34.434  20.247  25.308  1.00  0.00     0.043 A 
ATOM     19  C   UNL A   1      35.052  23.010  23.180  1.00  0.00     0.017 A 
ATOM     20  C   UNL A   1      33.092  21.065  24.515  1.00  0.00     0.136 A 
ATOM     21  F   UNL A   1      32.192  20.178  24.095  1.00  0.00    -0.206 F 
ENDBRANCH  11  14
ENDBRANCH   6  10
ENDBRANCH   3   5
ENDBRANCH   2   3
ENDBRANCH   1   2
BRANCH   1  22
ATOM     22  C   UNL A   1      33.407  31.108  27.424  1.00  0.00     0.275 C 
BRANCH  22  23
ATOM     23  O   UNL A   1      34.384  32.149  27.625  1.00  0.00    -0.458 OA
BRANCH  23  24
ATOM     24  C   UNL A   1      33.986  33.146  28.446  1.00  0.00     0.338 C 
ATOM     25  O   UNL A   1      33.094  33.948  28.221  1.00  0.00    -0.246 OA
BRANCH  24  26
ATOM     26  C   UNL A   1      34.977  33.420  29.510  1.00  0.00     0.060 A 
ATOM     27  C   UNL A   1      36.153  34.009  29.029  1.00  0.00     0.016 A 
ATOM     28  C   UNL A   1      34.995  32.584  30.635  1.00  0.00     0.016 A 
ATOM     29  C   UNL A   1      37.358  33.453  29.411  1.00  0.00     0.010 A 
ATOM     30  C   UNL A   1      36.209  32.073  31.055  1.00  0.00     0.010 A 
ATOM     31  C   UNL A   1      37.363  32.402  30.341  1.00  0.00    -0.014 A 
BRANCH  31  32
ATOM     32  C   UNL A   1      38.615  31.786  30.749  1.00  0.00     0.031 A 
ATOM     33  C   UNL A   1      38.719  30.394  30.236  1.00  0.00     0.074 A 
ATOM     34  C   UNL A   1      39.550  32.477  31.460  1.00  0.00     0.049 A 
ATOM     35  N   UNL A   1      39.269  29.394  30.841  1.00  0.00    -0.248 NA
ATOM     36  C   UNL A   1      37.929  29.949  29.052  1.00  0.00     0.031 C 
ATOM     37  C   UNL A   1      40.987  32.291  31.436  1.00  0.00     0.029 A 
ATOM     38  N   UNL A   1      39.411  33.572  32.340  1.00  0.00    -0.354 N 
ATOM     39  C   UNL A   1      39.352  28.430  29.853  1.00  0.00     0.074 A 
ATOM     40  C   UNL A   1      38.205  28.645  29.034  1.00  0.00     0.031 C 
ATOM     41  C   UNL A   1      41.573  33.032  32.400  1.00  0.00     0.029 A 
ATOM     42  C   UNL A   1      40.531  33.659  33.214  1.00  0.00     0.049 A 
ATOM     43  H   UNL A   1      38.646  34.191  32.347  1.00  0.00     0.167 HD
ATOM     44  C   UNL A   1      40.594  27.957  29.530  1.00  0.00     0.037 A 
ATOM     45  C   UNL A   1      40.516  33.626  34.598  1.00  0.00     0.037 A 
ATOM     46  C   UNL A   1      41.557  28.439  30.525  1.00  0.00     0.049 A 
ATOM     47  C   UNL A   1      41.051  32.212  35.013  1.00  0.00     0.074 A 
ATOM     48  C   UNL A   1      42.545  29.407  30.466  1.00  0.00     0.029 A 
ATOM     49  N   UNL A   1      41.318  28.202  31.875  1.00  0.00    -0.354 N 
ATOM     50  N   UNL A   1      41.122  31.199  34.182  1.00  0.00    -0.248 NA
ATOM     51  C   UNL A   1      41.523  31.833  36.347  1.00  0.00     0.031 C 
ATOM     52  C   UNL A   1      42.874  29.773  31.798  1.00  0.00     0.029 A 
ATOM     53  C   UNL A   1      42.063  29.058  32.661  1.00  0.00     0.049 A 
ATOM     54  H   UNL A   1      40.703  27.517  32.223  1.00  0.00     0.167 HD
ATOM     55  C   UNL A   1      41.693  30.113  34.789  1.00  0.00     0.074 A 
ATOM     56  C   UNL A   1      41.887  30.548  36.160  1.00  0.00     0.031 C 
ATOM     57  C   UNL A   1      42.005  28.963  34.111  1.00  0.00     0.037 A 
BRANCH  44  58
ATOM     58  C   UNL A   1      41.020  27.414  28.168  1.00  0.00     0.064 A 
ATOM     59  C   UNL A   1      41.227  26.023  28.023  1.00  0.00     0.173 A 
ATOM     60  C   UNL A   1      41.302  28.156  26.998  1.00  0.00     0.173 A 
ATOM     61  F   UNL A   1      40.946  25.169  29.018  1.00  0.00    -0.203 F 
ATOM     62  C   UNL A   1      41.725  25.441  26.853  1.00  0.00     0.198 A 
ATOM     63  C   UNL A   1      41.791  27.573  25.822  1.00  0.00     0.198 A 
ATOM     64  F   UNL A   1      41.116  29.474  26.909  1.00  0.00    -0.203 F 
ATOM     65  F   UNL A   1      41.928  24.118  26.806  1.00  0.00    -0.200 F 
ATOM     66  C   UNL A   1      42.010  26.217  25.751  1.00  0.00     0.200 A 
ATOM     67  F   UNL A   1      42.047  28.346  24.756  1.00  0.00    -0.200 F 
ATOM     68  F   UNL A   1      42.476  25.661  24.626  1.00  0.00    -0.200 F 
ENDBRANCH  44  58
BRANCH  45  69
ATOM     69  C   UNL A   1      39.354  34.333  35.412  1.00  0.00     0.064 A 
ATOM     70  C   UNL A   1      38.149  33.273  36.225  1.00  0.00     0.173 A 
ATOM     71  C   UNL A   1      40.041  35.701  36.214  1.00  0.00     0.173 A 
ATOM     72  F   UNL A   1      37.743  32.176  35.565  1.00  0.00    -0.203 F 
ATOM     73  C   UNL A   1      37.731  33.388  37.975  1.00  0.00     0.198 A 
ATOM     74  C   UNL A   1      39.773  35.947  37.938  1.00  0.00     0.198 A 
ATOM     75  F   UNL A   1      40.921  36.499  35.596  1.00  0.00    -0.203 F 
ATOM     76  F   UNL A   1      36.997  32.433  38.565  1.00  0.00    -0.200 F 
ATOM     77  C   UNL A   1      38.529  34.701  38.955  1.00  0.00     0.200 A 
ATOM     78  F   UNL A   1      40.540  37.006  38.338  1.00  0.00    -0.200 F 
ATOM     79  F   UNL A   1      38.238  34.611  40.274  1.00  0.00    -0.200 F 
ENDBRANCH  45  69
BRANCH  57  80
ATOM     80  C   UNL A   1      42.474  27.666  34.727  1.00  0.00     0.064 A 
ATOM     81  C   UNL A   1      41.652  26.546  34.894  1.00  0.00     0.173 A 
ATOM     82  C   UNL A   1      43.835  27.485  35.091  1.00  0.00     0.173 A 
ATOM     83  F   UNL A   1      40.405  26.520  34.409  1.00  0.00    -0.203 F 
ATOM     84  C   UNL A   1      42.112  25.393  35.535  1.00  0.00     0.198 A 
ATOM     85  C   UNL A   1      44.309  26.306  35.650  1.00  0.00     0.198 A 
ATOM     86  F   UNL A   1      44.759  28.440  34.909  1.00  0.00    -0.203 F 
ATOM     87  F   UNL A   1      41.260  24.389  35.776  1.00  0.00    -0.200 F 
ATOM     88  C   UNL A   1      43.436  25.276  35.918  1.00  0.00     0.200 A 
ATOM     89  F   UNL A   1      45.614  26.179  35.929  1.00  0.00    -0.200 F 
ATOM     90  F   UNL A   1      43.872  24.170  36.533  1.00  0.00    -0.200 F 
ENDBRANCH  57  80
ENDBRANCH  31  32
ENDBRANCH  24  26
ENDBRANCH  23  24
ENDBRANCH  22  23
ENDBRANCH   1  22
TORSDOF 13
ENDMDL
