MODEL 1
REMARK VINA RESULT:     -12.3      0.000      0.000
REMARK SMILES O=C(OCCOC(=O)[C@@H]1C[C@@H]2CC[C@H]1N2C(=O)C[C@H]1CCCCO1)c1ccc(-c2c3nc(c(-c4c(F)c(F)c(F)c(F)c4F)c4ccc([nH]4)c(-c4c(F)c(F)c(F)c(F)c4F)c4nc(c(-c5c(F)c(F)c(F)c(F)c5F)c5ccc2[nH]5)C=C4)C=C3)cc1
REMARK SMILES IDX 5 1 4 2 3 3 2 4 1 5 25 6 26 7 87 8 27 9 86 10 28 11 29 12
REMARK SMILES IDX 30 13 80 14 31 15 85 16 79 17 81 18 32 19 84 20 78 21 77 22
REMARK SMILES IDX 33 24 65 25 45 26 64 27 46 28 49 29 63 30 82 31 47 32 48 33
REMARK SMILES IDX 62 35 83 36 50 37 34 38 35 39 43 40 36 41 37 42 41 43 44 44
REMARK SMILES IDX 38 45 39 46 42 47 40 48 66 49 67 50 75 51 68 52 69 53 73 54
REMARK SMILES IDX 76 55 70 56 71 57 74 58 72 59 51 60 52 61 60 62 53 63 54 64
REMARK SMILES IDX 58 65 61 66 55 67 56 68 59 69 57 70 6 71 7 72 8 73 9 74
REMARK SMILES IDX 10 75 14 76 11 77 13 78 15 79 12 80 16 81 17 82 18 83 19 84
REMARK SMILES IDX 20 85 24 86 21 87 23 88 22 89
REMARK H PARENT 81 23 49 34
REMARK Flexibility Score: inf
ROOT
ATOM      1  C   UNL A   1      31.583  31.363  26.497  1.00  0.00     0.274 C 
ENDROOT
BRANCH   1   2
ATOM      2  C   UNL A   1      31.705  32.890  26.470  1.00  0.00     0.275 C 
BRANCH   2   3
ATOM      3  O   UNL A   1      31.876  33.467  27.772  1.00  0.00    -0.458 OA
BRANCH   3   4
ATOM      4  C   UNL A   1      32.929  34.171  28.244  1.00  0.00     0.338 C 
ATOM      5  O   UNL A   1      32.779  35.387  28.373  1.00  0.00    -0.246 OA
BRANCH   4   6
ATOM      6  C   UNL A   1      34.280  33.599  28.623  1.00  0.00     0.060 A 
ATOM      7  C   UNL A   1      35.528  34.231  28.681  1.00  0.00     0.016 A 
ATOM      8  C   UNL A   1      34.237  32.284  29.105  1.00  0.00     0.016 A 
ATOM      9  C   UNL A   1      36.642  33.621  29.317  1.00  0.00     0.010 A 
ATOM     10  C   UNL A   1      35.332  31.686  29.743  1.00  0.00     0.010 A 
ATOM     11  C   UNL A   1      36.542  32.361  29.913  1.00  0.00    -0.014 A 
BRANCH  11  12
ATOM     12  C   UNL A   1      37.679  31.708  30.654  1.00  0.00     0.031 A 
ATOM     13  C   UNL A   1      38.515  30.709  29.937  1.00  0.00     0.074 A 
ATOM     14  C   UNL A   1      37.893  31.850  31.983  1.00  0.00     0.049 A 
ATOM     15  N   UNL A   1      39.511  30.008  30.403  1.00  0.00    -0.248 NA
ATOM     16  C   UNL A   1      38.136  30.394  28.552  1.00  0.00     0.031 C 
ATOM     17  C   UNL A   1      36.953  32.506  32.848  1.00  0.00     0.029 A 
ATOM     18  N   UNL A   1      38.855  31.432  32.878  1.00  0.00    -0.354 N 
ATOM     19  C   UNL A   1      39.859  29.151  29.381  1.00  0.00     0.074 A 
ATOM     20  C   UNL A   1      38.932  29.370  28.294  1.00  0.00     0.031 C 
ATOM     21  C   UNL A   1      37.368  32.539  34.117  1.00  0.00     0.029 A 
ATOM     22  C   UNL A   1      38.636  31.856  34.183  1.00  0.00     0.049 A 
ATOM     23  H   UNL A   1      39.628  30.882  32.615  1.00  0.00     0.167 HD
ATOM     24  C   UNL A   1      40.887  28.278  29.354  1.00  0.00     0.037 A 
ATOM     25  C   UNL A   1      39.342  31.700  35.321  1.00  0.00     0.037 A 
ATOM     26  C   UNL A   1      41.781  28.060  30.455  1.00  0.00     0.049 A 
ATOM     27  C   UNL A   1      40.546  30.818  35.229  1.00  0.00     0.074 A 
ATOM     28  C   UNL A   1      42.918  27.278  30.493  1.00  0.00     0.029 A 
ATOM     29  N   UNL A   1      41.624  28.609  31.724  1.00  0.00    -0.354 N 
ATOM     30  N   UNL A   1      40.977  30.154  34.187  1.00  0.00    -0.248 NA
ATOM     31  C   UNL A   1      41.336  30.620  36.449  1.00  0.00     0.031 C 
ATOM     32  C   UNL A   1      43.431  27.322  31.794  1.00  0.00     0.029 A 
ATOM     33  C   UNL A   1      42.643  28.171  32.557  1.00  0.00     0.049 A 
ATOM     34  H   UNL A   1      40.897  29.217  31.992  1.00  0.00     0.167 HD
ATOM     35  C   UNL A   1      42.071  29.438  34.623  1.00  0.00     0.074 A 
ATOM     36  C   UNL A   1      42.280  29.798  36.013  1.00  0.00     0.031 C 
ATOM     37  C   UNL A   1      42.815  28.540  33.939  1.00  0.00     0.037 A 
BRANCH  24  38
ATOM     38  C   UNL A   1      41.076  27.531  28.074  1.00  0.00     0.064 A 
ATOM     39  C   UNL A   1      40.505  26.262  27.886  1.00  0.00     0.173 A 
ATOM     40  C   UNL A   1      41.877  28.055  27.052  1.00  0.00     0.173 A 
ATOM     41  F   UNL A   1      39.763  25.703  28.855  1.00  0.00    -0.203 F 
ATOM     42  C   UNL A   1      40.764  25.527  26.734  1.00  0.00     0.198 A 
ATOM     43  C   UNL A   1      42.107  27.330  25.889  1.00  0.00     0.198 A 
ATOM     44  F   UNL A   1      42.458  29.256  27.196  1.00  0.00    -0.203 F 
ATOM     45  F   UNL A   1      40.272  24.287  26.611  1.00  0.00    -0.200 F 
ATOM     46  C   UNL A   1      41.559  26.064  25.734  1.00  0.00     0.200 A 
ATOM     47  F   UNL A   1      42.878  27.846  24.922  1.00  0.00    -0.200 F 
ATOM     48  F   UNL A   1      41.814  25.352  24.628  1.00  0.00    -0.200 F 
ENDBRANCH  24  38
BRANCH  25  49
ATOM     49  C   UNL A   1      38.960  32.356  36.614  1.00  0.00     0.064 A 
ATOM     50  C   UNL A   1      38.076  31.720  37.504  1.00  0.00     0.173 A 
ATOM     51  C   UNL A   1      39.420  33.630  36.983  1.00  0.00     0.173 A 
ATOM     52  F   UNL A   1      37.583  30.509  37.205  1.00  0.00    -0.203 F 
ATOM     53  C   UNL A   1      37.645  32.340  38.679  1.00  0.00     0.198 A 
ATOM     54  C   UNL A   1      39.021  34.233  38.180  1.00  0.00     0.198 A 
ATOM     55  F   UNL A   1      40.264  34.296  36.184  1.00  0.00    -0.203 F 
ATOM     56  F   UNL A   1      36.747  31.731  39.467  1.00  0.00    -0.200 F 
ATOM     57  C   UNL A   1      38.122  33.595  39.020  1.00  0.00     0.200 A 
ATOM     58  F   UNL A   1      39.500  35.438  38.515  1.00  0.00    -0.200 F 
ATOM     59  F   UNL A   1      37.709  34.190  40.148  1.00  0.00    -0.200 F 
ENDBRANCH  25  49
BRANCH  37  60
ATOM     60  C   UNL A   1      43.932  27.904  34.700  1.00  0.00     0.064 A 
ATOM     61  C   UNL A   1      45.189  28.517  34.802  1.00  0.00     0.173 A 
ATOM     62  C   UNL A   1      43.733  26.674  35.340  1.00  0.00     0.173 A 
ATOM     63  F   UNL A   1      45.429  29.679  34.175  1.00  0.00    -0.203 F 
ATOM     64  C   UNL A   1      46.218  27.907  35.508  1.00  0.00     0.198 A 
ATOM     65  C   UNL A   1      44.755  26.085  36.073  1.00  0.00     0.198 A 
ATOM     66  F   UNL A   1      42.548  26.052  35.257  1.00  0.00    -0.203 F 
ATOM     67  F   UNL A   1      47.429  28.479  35.553  1.00  0.00    -0.200 F 
ATOM     68  C   UNL A   1      45.998  26.697  36.151  1.00  0.00     0.200 A 
ATOM     69  F   UNL A   1      44.539  24.920  36.700  1.00  0.00    -0.200 F 
ATOM     70  F   UNL A   1      46.988  26.115  36.840  1.00  0.00    -0.200 F 
ENDBRANCH  37  60
ENDBRANCH  11  12
ENDBRANCH   4   6
ENDBRANCH   3   4
ENDBRANCH   2   3
ENDBRANCH   1   2
BRANCH   1  71
ATOM     71  O   UNL A   1      32.843  30.764  26.844  1.00  0.00    -0.462 OA
BRANCH  71  72
ATOM     72  C   UNL A   1      32.898  29.406  26.970  1.00  0.00     0.311 C 
ATOM     73  O   UNL A   1      33.694  28.807  27.663  1.00  0.00    -0.252 OA
BRANCH  72  74
ATOM     74  C   UNL A   1      31.826  28.741  26.116  1.00  0.00     0.124 C 
ATOM     75  C   UNL A   1      31.403  27.331  26.630  1.00  0.00     0.042 C 
ATOM     76  C   UNL A   1      32.275  28.406  24.680  1.00  0.00     0.099 C 
ATOM     77  C   UNL A   1      31.587  26.436  25.388  1.00  0.00     0.086 C 
ATOM     78  C   UNL A   1      33.603  27.599  24.784  1.00  0.00     0.028 C 
ATOM     79  N   UNL A   1      31.305  27.372  24.322  1.00  0.00    -0.336 N 
ATOM     80  C   UNL A   1      33.104  26.210  25.209  1.00  0.00     0.027 C 
BRANCH  79  81
ATOM     81  C   UNL A   1      30.118  27.447  23.603  1.00  0.00     0.225 C 
ATOM     82  O   UNL A   1      29.252  26.577  23.700  1.00  0.00    -0.275 OA
BRANCH  81  83
ATOM     83  C   UNL A   1      30.012  28.521  22.518  1.00  0.00     0.132 C 
BRANCH  83  84
ATOM     84  C   UNL A   1      28.887  29.569  22.522  1.00  0.00     0.127 C 
ATOM     85  C   UNL A   1      29.126  30.668  23.559  1.00  0.00     0.033 C 
ATOM     86  O   UNL A   1      28.893  30.107  21.178  1.00  0.00    -0.378 OA
ATOM     87  C   UNL A   1      28.341  31.953  23.293  1.00  0.00     0.005 C 
ATOM     88  C   UNL A   1      28.030  31.213  20.941  1.00  0.00     0.160 C 
ATOM     89  C   UNL A   1      28.401  32.381  21.834  1.00  0.00     0.029 C 
ENDBRANCH  83  84
ENDBRANCH  81  83
ENDBRANCH  79  81
ENDBRANCH  72  74
ENDBRANCH  71  72
ENDBRANCH   1  71
TORSDOF 14
ENDMDL
MODEL 2
REMARK VINA RESULT:     -12.1      1.059      7.382
REMARK SMILES O=C(OCCOC(=O)[C@@H]1C[C@@H]2CC[C@H]1N2C(=O)C[C@H]1CCCCO1)c1ccc(-c2c3nc(c(-c4c(F)c(F)c(F)c(F)c4F)c4ccc([nH]4)c(-c4c(F)c(F)c(F)c(F)c4F)c4nc(c(-c5c(F)c(F)c(F)c(F)c5F)c5ccc2[nH]5)C=C4)C=C3)cc1
REMARK SMILES IDX 5 1 4 2 3 3 2 4 1 5 25 6 26 7 87 8 27 9 86 10 28 11 29 12
REMARK SMILES IDX 30 13 80 14 31 15 85 16 79 17 81 18 32 19 84 20 78 21 77 22
REMARK SMILES IDX 33 24 65 25 45 26 64 27 46 28 49 29 63 30 82 31 47 32 48 33
REMARK SMILES IDX 62 35 83 36 50 37 34 38 35 39 43 40 36 41 37 42 41 43 44 44
REMARK SMILES IDX 38 45 39 46 42 47 40 48 66 49 67 50 75 51 68 52 69 53 73 54
REMARK SMILES IDX 76 55 70 56 71 57 74 58 72 59 51 60 52 61 60 62 53 63 54 64
REMARK SMILES IDX 58 65 61 66 55 67 56 68 59 69 57 70 6 71 7 72 8 73 9 74
REMARK SMILES IDX 10 75 14 76 11 77 13 78 15 79 12 80 16 81 17 82 18 83 19 84
REMARK SMILES IDX 20 85 24 86 21 87 23 88 22 89
REMARK H PARENT 81 23 49 34
REMARK Flexibility Score: inf
ROOT
ATOM      1  C   UNL A   1      31.905  30.741  26.277  1.00  0.00     0.274 C 
ENDROOT
BRANCH   1   2
ATOM      2  C   UNL A   1      31.458  32.024  26.985  1.00  0.00     0.275 C 
BRANCH   2   3
ATOM      3  O   UNL A   1      32.434  33.073  26.924  1.00  0.00    -0.458 OA
BRANCH   3   4
ATOM      4  C   UNL A   1      33.270  33.497  27.897  1.00  0.00     0.338 C 
ATOM      5  O   UNL A   1      32.914  34.473  28.560  1.00  0.00    -0.246 OA
BRANCH   4   6
ATOM      6  C   UNL A   1      34.612  32.884  28.243  1.00  0.00     0.060 A 
ATOM      7  C   UNL A   1      35.889  33.455  28.197  1.00  0.00     0.016 A 
ATOM      8  C   UNL A   1      34.534  31.604  28.809  1.00  0.00     0.016 A 
ATOM      9  C   UNL A   1      37.007  32.831  28.813  1.00  0.00     0.010 A 
ATOM     10  C   UNL A   1      35.633  30.993  29.428  1.00  0.00     0.010 A 
ATOM     11  C   UNL A   1      36.881  31.616  29.493  1.00  0.00    -0.014 A 
BRANCH  11  12
ATOM     12  C   UNL A   1      38.024  30.955  30.215  1.00  0.00     0.031 A 
ATOM     13  C   UNL A   1      38.348  31.401  31.597  1.00  0.00     0.074 A 
ATOM     14  C   UNL A   1      38.886  30.088  29.631  1.00  0.00     0.049 A 
ATOM     15  N   UNL A   1      39.311  30.989  32.372  1.00  0.00    -0.248 NA
ATOM     16  C   UNL A   1      37.545  32.503  32.146  1.00  0.00     0.031 C 
ATOM     17  C   UNL A   1      38.891  29.846  28.215  1.00  0.00     0.029 A 
ATOM     18  N   UNL A   1      39.945  29.315  30.052  1.00  0.00    -0.354 N 
ATOM     19  C   UNL A   1      39.249  31.798  33.486  1.00  0.00     0.074 A 
ATOM     20  C   UNL A   1      38.199  32.766  33.264  1.00  0.00     0.031 C 
ATOM     21  C   UNL A   1      39.815  28.952  27.857  1.00  0.00     0.029 A 
ATOM     22  C   UNL A   1      40.527  28.556  29.046  1.00  0.00     0.049 A 
ATOM     23  H   UNL A   1      40.262  29.303  30.985  1.00  0.00     0.167 HD
ATOM     24  C   UNL A   1      39.994  31.712  34.608  1.00  0.00     0.037 A 
ATOM     25  C   UNL A   1      41.536  27.661  29.048  1.00  0.00     0.037 A 
ATOM     26  C   UNL A   1      41.049  30.757  34.797  1.00  0.00     0.049 A 
ATOM     27  C   UNL A   1      42.268  27.503  30.342  1.00  0.00     0.074 A 
ATOM     28  C   UNL A   1      41.791  30.517  35.934  1.00  0.00     0.029 A 
ATOM     29  N   UNL A   1      41.528  29.900  33.811  1.00  0.00    -0.354 N 
ATOM     30  N   UNL A   1      42.070  28.152  31.462  1.00  0.00    -0.248 NA
ATOM     31  C   UNL A   1      43.376  26.543  30.382  1.00  0.00     0.031 C 
ATOM     32  C   UNL A   1      42.745  29.539  35.631  1.00  0.00     0.029 A 
ATOM     33  C   UNL A   1      42.567  29.134  34.317  1.00  0.00     0.049 A 
ATOM     34  H   UNL A   1      41.181  29.846  32.891  1.00  0.00     0.167 HD
ATOM     35  C   UNL A   1      43.038  27.703  32.334  1.00  0.00     0.074 A 
ATOM     36  C   UNL A   1      43.787  26.676  31.634  1.00  0.00     0.031 C 
ATOM     37  C   UNL A   1      43.299  28.127  33.590  1.00  0.00     0.037 A 
BRANCH  24  38
ATOM     38  C   UNL A   1      39.651  32.678  35.695  1.00  0.00     0.064 A 
ATOM     39  C   UNL A   1      38.630  32.397  36.618  1.00  0.00     0.173 A 
ATOM     40  C   UNL A   1      40.301  33.915  35.782  1.00  0.00     0.173 A 
ATOM     41  F   UNL A   1      37.953  31.240  36.547  1.00  0.00    -0.203 F 
ATOM     42  C   UNL A   1      38.246  33.338  37.566  1.00  0.00     0.198 A 
ATOM     43  C   UNL A   1      39.935  34.841  36.753  1.00  0.00     0.198 A 
ATOM     44  F   UNL A   1      41.269  34.235  34.910  1.00  0.00    -0.203 F 
ATOM     45  F   UNL A   1      37.219  33.078  38.386  1.00  0.00    -0.200 F 
ATOM     46  C   UNL A   1      38.903  34.557  37.637  1.00  0.00     0.200 A 
ATOM     47  F   UNL A   1      40.566  36.021  36.821  1.00  0.00    -0.200 F 
ATOM     48  F   UNL A   1      38.527  35.467  38.546  1.00  0.00    -0.200 F 
ENDBRANCH  24  38
BRANCH  25  49
ATOM     49  C   UNL A   1      41.923  26.864  27.838  1.00  0.00     0.064 A 
ATOM     50  C   UNL A   1      41.309  25.629  27.570  1.00  0.00     0.173 A 
ATOM     51  C   UNL A   1      42.928  27.277  26.948  1.00  0.00     0.173 A 
ATOM     52  F   UNL A   1      40.354  25.165  28.390  1.00  0.00    -0.203 F 
ATOM     53  C   UNL A   1      41.702  24.831  26.492  1.00  0.00     0.198 A 
ATOM     54  C   UNL A   1      43.293  26.498  25.846  1.00  0.00     0.198 A 
ATOM     55  F   UNL A   1      43.558  28.443  27.141  1.00  0.00    -0.203 F 
ATOM     56  F   UNL A   1      41.140  23.628  26.309  1.00  0.00    -0.200 F 
ATOM     57  C   UNL A   1      42.691  25.269  25.627  1.00  0.00     0.200 A 
ATOM     58  F   UNL A   1      44.235  26.934  25.000  1.00  0.00    -0.200 F 
ATOM     59  F   UNL A   1      43.068  24.504  24.593  1.00  0.00    -0.200 F 
ENDBRANCH  25  49
BRANCH  37  60
ATOM     60  C   UNL A   1      44.442  27.458  34.280  1.00  0.00     0.064 A 
ATOM     61  C   UNL A   1      45.736  27.995  34.240  1.00  0.00     0.173 A 
ATOM     62  C   UNL A   1      44.232  26.272  34.995  1.00  0.00     0.173 A 
ATOM     63  F   UNL A   1      45.985  29.111  33.537  1.00  0.00    -0.203 F 
ATOM     64  C   UNL A   1      46.789  27.354  34.882  1.00  0.00     0.198 A 
ATOM     65  C   UNL A   1      45.280  25.653  35.664  1.00  0.00     0.198 A 
ATOM     66  F   UNL A   1      43.010  25.721  35.048  1.00  0.00    -0.203 F 
ATOM     67  F   UNL A   1      48.029  27.851  34.791  1.00  0.00    -0.200 F 
ATOM     68  C   UNL A   1      46.558  26.190  35.601  1.00  0.00     0.200 A 
ATOM     69  F   UNL A   1      45.055  24.532  36.364  1.00  0.00    -0.200 F 
ATOM     70  F   UNL A   1      47.572  25.578  36.228  1.00  0.00    -0.200 F 
ENDBRANCH  37  60
ENDBRANCH  11  12
ENDBRANCH   4   6
ENDBRANCH   3   4
ENDBRANCH   2   3
ENDBRANCH   1   2
BRANCH   1  71
ATOM     71  O   UNL A   1      32.354  29.769  27.235  1.00  0.00    -0.462 OA
BRANCH  71  72
ATOM     72  C   UNL A   1      31.778  28.532  27.218  1.00  0.00     0.311 C 
ATOM     73  O   UNL A   1      31.618  27.828  28.194  1.00  0.00    -0.252 OA
BRANCH  72  74
ATOM     74  C   UNL A   1      31.366  28.149  25.802  1.00  0.00     0.124 C 
ATOM     75  C   UNL A   1      30.654  26.765  25.710  1.00  0.00     0.042 C 
ATOM     76  C   UNL A   1      32.546  27.936  24.832  1.00  0.00     0.099 C 
ATOM     77  C   UNL A   1      31.478  26.018  24.642  1.00  0.00     0.086 C 
ATOM     78  C   UNL A   1      33.527  26.931  25.508  1.00  0.00     0.028 C 
ATOM     79  N   UNL A   1      31.912  27.114  23.803  1.00  0.00    -0.336 N 
ATOM     80  C   UNL A   1      32.806  25.591  25.305  1.00  0.00     0.027 C 
BRANCH  79  81
ATOM     81  C   UNL A   1      31.365  27.457  22.572  1.00  0.00     0.225 C 
ATOM     82  O   UNL A   1      31.324  26.653  21.641  1.00  0.00    -0.275 OA
BRANCH  81  83
ATOM     83  C   UNL A   1      31.024  28.930  22.334  1.00  0.00     0.132 C 
BRANCH  83  84
ATOM     84  C   UNL A   1      29.586  29.460  22.472  1.00  0.00     0.127 C 
ATOM     85  C   UNL A   1      29.451  30.469  23.614  1.00  0.00     0.033 C 
ATOM     86  O   UNL A   1      29.308  30.078  21.192  1.00  0.00    -0.378 OA
ATOM     87  C   UNL A   1      28.222  31.372  23.502  1.00  0.00     0.005 C 
ATOM     88  C   UNL A   1      28.077  30.784  21.092  1.00  0.00     0.160 C 
ATOM     89  C   UNL A   1      28.028  31.919  22.095  1.00  0.00     0.029 C 
ENDBRANCH  83  84
ENDBRANCH  81  83
ENDBRANCH  79  81
ENDBRANCH  72  74
ENDBRANCH  71  72
ENDBRANCH   1  71
TORSDOF 14
ENDMDL
MODEL 3
REMARK VINA RESULT:     -11.8      1.466      3.263
REMARK SMILES O=C(OCCOC(=O)[C@@H]1C[C@@H]2CC[C@H]1N2C(=O)C[C@H]1CCCCO1)c1ccc(-c2c3nc(c(-c4c(F)c(F)c(F)c(F)c4F)c4ccc([nH]4)c(-c4c(F)c(F)c(F)c(F)c4F)c4nc(c(-c5c(F)c(F)c(F)c(F)c5F)c5ccc2[nH]5)C=C4)C=C3)cc1
REMARK SMILES IDX 5 1 4 2 3 3 2 4 1 5 25 6 26 7 87 8 27 9 86 10 28 11 29 12
REMARK SMILES IDX 30 13 80 14 31 15 85 16 79 17 81 18 32 19 84 20 78 21 77 22
REMARK SMILES IDX 33 24 65 25 45 26 64 27 46 28 49 29 63 30 82 31 47 32 48 33
REMARK SMILES IDX 62 35 83 36 50 37 34 38 35 39 43 40 36 41 37 42 41 43 44 44
REMARK SMILES IDX 38 45 39 46 42 47 40 48 66 49 67 50 75 51 68 52 69 53 73 54
REMARK SMILES IDX 76 55 70 56 71 57 74 58 72 59 51 60 52 61 60 62 53 63 54 64
REMARK SMILES IDX 58 65 61 66 55 67 56 68 59 69 57 70 6 71 7 72 8 73 9 74
REMARK SMILES IDX 10 75 14 76 11 77 13 78 15 79 12 80 16 81 17 82 18 83 19 84
REMARK SMILES IDX 20 85 24 86 21 87 23 88 22 89
REMARK H PARENT 81 23 49 34
REMARK Flexibility Score: inf
ROOT
ATOM      1  C   UNL A   1      32.224  30.633  26.124  1.00  0.00     0.274 C 
ENDROOT
BRANCH   1   2
ATOM      2  C   UNL A   1      31.430  31.787  26.744  1.00  0.00     0.275 C 
BRANCH   2   3
ATOM      3  O   UNL A   1      32.137  33.035  26.724  1.00  0.00    -0.458 OA
BRANCH   3   4
ATOM      4  C   UNL A   1      32.917  33.571  27.689  1.00  0.00     0.338 C 
ATOM      5  O   UNL A   1      32.488  34.570  28.268  1.00  0.00    -0.246 OA
BRANCH   4   6
ATOM      6  C   UNL A   1      34.277  33.058  28.117  1.00  0.00     0.060 A 
ATOM      7  C   UNL A   1      35.508  33.723  28.152  1.00  0.00     0.016 A 
ATOM      8  C   UNL A   1      34.259  31.773  28.678  1.00  0.00     0.016 A 
ATOM      9  C   UNL A   1      36.628  33.181  28.837  1.00  0.00     0.010 A 
ATOM     10  C   UNL A   1      35.360  31.243  29.364  1.00  0.00     0.010 A 
ATOM     11  C   UNL A   1      36.551  31.957  29.507  1.00  0.00    -0.014 A 
BRANCH  11  12
ATOM     12  C   UNL A   1      37.693  31.379  30.299  1.00  0.00     0.031 A 
ATOM     13  C   UNL A   1      38.604  30.410  29.633  1.00  0.00     0.074 A 
ATOM     14  C   UNL A   1      37.854  31.558  31.632  1.00  0.00     0.049 A 
ATOM     15  N   UNL A   1      39.617  29.771  30.147  1.00  0.00    -0.248 NA
ATOM     16  C   UNL A   1      38.289  30.047  28.243  1.00  0.00     0.031 C 
ATOM     17  C   UNL A   1      36.853  32.182  32.450  1.00  0.00     0.029 A 
ATOM     18  N   UNL A   1      38.804  31.209  32.567  1.00  0.00    -0.354 N 
ATOM     19  C   UNL A   1      40.044  28.913  29.156  1.00  0.00     0.074 A 
ATOM     20  C   UNL A   1      39.145  29.062  28.034  1.00  0.00     0.031 C 
ATOM     21  C   UNL A   1      37.222  32.262  33.731  1.00  0.00     0.029 A 
ATOM     22  C   UNL A   1      38.519  31.647  33.854  1.00  0.00     0.049 A 
ATOM     23  H   UNL A   1      39.614  30.694  32.342  1.00  0.00     0.167 HD
ATOM     24  C   UNL A   1      41.115  28.094  29.182  1.00  0.00     0.037 A 
ATOM     25  C   UNL A   1      39.193  31.551  35.018  1.00  0.00     0.037 A 
ATOM     26  C   UNL A   1      41.981  27.944  30.317  1.00  0.00     0.049 A 
ATOM     27  C   UNL A   1      40.443  30.731  34.986  1.00  0.00     0.074 A 
ATOM     28  C   UNL A   1      43.154  27.224  30.410  1.00  0.00     0.029 A 
ATOM     29  N   UNL A   1      41.752  28.510  31.568  1.00  0.00    -0.354 N 
ATOM     30  N   UNL A   1      40.943  30.069  33.973  1.00  0.00    -0.248 NA
ATOM     31  C   UNL A   1      41.200  30.598  36.235  1.00  0.00     0.031 C 
ATOM     32  C   UNL A   1      43.619  27.320  31.726  1.00  0.00     0.029 A 
ATOM     33  C   UNL A   1      42.763  28.142  32.444  1.00  0.00     0.049 A 
ATOM     34  H   UNL A   1      40.986  29.085  31.798  1.00  0.00     0.167 HD
ATOM     35  C   UNL A   1      42.057  29.420  34.462  1.00  0.00     0.074 A 
ATOM     36  C   UNL A   1      42.199  29.818  35.849  1.00  0.00     0.031 C 
ATOM     37  C   UNL A   1      42.869  28.548  33.823  1.00  0.00     0.037 A 
BRANCH  24  38
ATOM     38  C   UNL A   1      41.386  27.332  27.926  1.00  0.00     0.064 A 
ATOM     39  C   UNL A   1      40.905  26.023  27.755  1.00  0.00     0.173 A 
ATOM     40  C   UNL A   1      42.177  27.885  26.912  1.00  0.00     0.173 A 
ATOM     41  F   UNL A   1      40.176  25.439  28.719  1.00  0.00    -0.203 F 
ATOM     42  C   UNL A   1      41.241  25.281  26.629  1.00  0.00     0.198 A 
ATOM     43  C   UNL A   1      42.484  27.150  25.772  1.00  0.00     0.198 A 
ATOM     44  F   UNL A   1      42.674  29.124  27.040  1.00  0.00    -0.203 F 
ATOM     45  F   UNL A   1      40.835  24.009  26.523  1.00  0.00    -0.200 F 
ATOM     46  C   UNL A   1      42.025  25.847  25.635  1.00  0.00     0.200 A 
ATOM     47  F   UNL A   1      43.244  27.694  24.812  1.00  0.00    -0.200 F 
ATOM     48  F   UNL A   1      42.355  25.129  24.553  1.00  0.00    -0.200 F 
ENDBRANCH  24  38
BRANCH  25  49
ATOM     49  C   UNL A   1      38.734  32.212  36.283  1.00  0.00     0.064 A 
ATOM     50  C   UNL A   1      39.089  33.544  36.562  1.00  0.00     0.173 A 
ATOM     51  C   UNL A   1      37.978  31.542  37.258  1.00  0.00     0.173 A 
ATOM     52  F   UNL A   1      39.828  34.237  35.683  1.00  0.00    -0.203 F 
ATOM     53  C   UNL A   1      38.739  34.161  37.766  1.00  0.00     0.198 A 
ATOM     54  C   UNL A   1      37.592  32.173  38.445  1.00  0.00     0.198 A 
ATOM     55  F   UNL A   1      37.604  30.271  37.061  1.00  0.00    -0.203 F 
ATOM     56  F   UNL A   1      39.155  35.409  38.025  1.00  0.00    -0.200 F 
ATOM     57  C   UNL A   1      37.985  33.476  38.705  1.00  0.00     0.200 A 
ATOM     58  F   UNL A   1      36.846  31.514  39.342  1.00  0.00    -0.200 F 
ATOM     59  F   UNL A   1      37.649  34.067  39.860  1.00  0.00    -0.200 F 
ENDBRANCH  25  49
BRANCH  37  60
ATOM     60  C   UNL A   1      43.990  27.986  34.634  1.00  0.00     0.064 A 
ATOM     61  C   UNL A   1      45.210  28.663  34.762  1.00  0.00     0.173 A 
ATOM     62  C   UNL A   1      43.832  26.761  35.295  1.00  0.00     0.173 A 
ATOM     63  F   UNL A   1      45.413  29.823  34.117  1.00  0.00    -0.203 F 
ATOM     64  C   UNL A   1      46.244  28.122  35.516  1.00  0.00     0.198 A 
ATOM     65  C   UNL A   1      44.856  26.241  36.075  1.00  0.00     0.198 A 
ATOM     66  F   UNL A   1      42.683  26.078  35.188  1.00  0.00    -0.203 F 
ATOM     67  F   UNL A   1      47.422  28.756  35.586  1.00  0.00    -0.200 F 
ATOM     68  C   UNL A   1      46.063  26.917  36.179  1.00  0.00     0.200 A 
ATOM     69  F   UNL A   1      44.678  25.080  36.720  1.00  0.00    -0.200 F 
ATOM     70  F   UNL A   1      47.058  26.401  36.913  1.00  0.00    -0.200 F 
ENDBRANCH  37  60
ENDBRANCH  11  12
ENDBRANCH   4   6
ENDBRANCH   3   4
ENDBRANCH   2   3
ENDBRANCH   1   2
BRANCH   1  71
ATOM     71  O   UNL A   1      31.411  29.452  26.039  1.00  0.00    -0.462 OA
BRANCH  71  72
ATOM     72  C   UNL A   1      31.097  28.971  24.801  1.00  0.00     0.311 C 
ATOM     73  O   UNL A   1      30.890  29.660  23.823  1.00  0.00    -0.252 OA
BRANCH  72  74
ATOM     74  C   UNL A   1      31.037  27.449  24.812  1.00  0.00     0.124 C 
ATOM     75  C   UNL A   1      31.299  26.822  26.215  1.00  0.00     0.042 C 
ATOM     76  C   UNL A   1      32.138  26.765  23.976  1.00  0.00     0.099 C 
ATOM     77  C   UNL A   1      32.437  25.818  25.943  1.00  0.00     0.086 C 
ATOM     78  C   UNL A   1      33.505  27.356  24.434  1.00  0.00     0.028 C 
ATOM     79  N   UNL A   1      32.153  25.433  24.578  1.00  0.00    -0.336 N 
ATOM     80  C   UNL A   1      33.736  26.635  25.770  1.00  0.00     0.027 C 
BRANCH  79  81
ATOM     81  C   UNL A   1      31.545  24.247  24.181  1.00  0.00     0.225 C 
ATOM     82  O   UNL A   1      30.498  24.248  23.533  1.00  0.00    -0.275 OA
BRANCH  81  83
ATOM     83  C   UNL A   1      32.089  22.942  24.765  1.00  0.00     0.132 C 
BRANCH  83  84
ATOM     84  C   UNL A   1      33.567  22.542  24.618  1.00  0.00     0.127 C 
ATOM     85  C   UNL A   1      34.233  23.227  23.423  1.00  0.00     0.033 C 
ATOM     86  O   UNL A   1      34.176  22.955  25.865  1.00  0.00    -0.378 OA
ATOM     87  C   UNL A   1      35.760  23.264  23.502  1.00  0.00     0.005 C 
ATOM     88  C   UNL A   1      35.591  22.830  25.943  1.00  0.00     0.160 C 
ATOM     89  C   UNL A   1      36.262  23.675  24.878  1.00  0.00     0.029 C 
ENDBRANCH  83  84
ENDBRANCH  81  83
ENDBRANCH  79  81
ENDBRANCH  72  74
ENDBRANCH  71  72
ENDBRANCH   1  71
TORSDOF 14
ENDMDL
