MODEL 1
REMARK VINA RESULT:     -12.0      0.000      0.000
REMARK SMILES C[C@@H]1[C@@H](C(=O)OCCOC(=O)c2ccc(-c3c4nc(c(-c5c(F)c(F)c(F)c(F)c5F)c5ccc([nH]5)c(-c5c(F)c(F)c(F)c(F)c5F)c5nc(c(-c6c(F)c(F)c(F)c(F)c6F)c6ccc3[nH]6)C=C5)C=C4)cc2)CCN1C(=O)CC[C@@H]1CCCC[NH2+]1
REMARK SMILES IDX 7 1 6 2 4 3 5 4 3 5 1 6 2 7 77 8 75 9 76 10 78 11 79 12
REMARK SMILES IDX 80 13 81 14 82 15 83 16 87 17 84 18 86 19 85 22 8 23 9 24
REMARK SMILES IDX 10 25 11 26 12 27 13 28 74 29 14 30 73 31 15 32 16 33 17 34
REMARK SMILES IDX 67 35 18 36 72 37 66 38 68 39 19 40 71 41 65 42 64 43 20 45
REMARK SMILES IDX 52 46 32 47 51 48 33 49 36 50 50 51 69 52 34 53 35 54 49 56
REMARK SMILES IDX 70 57 37 58 21 59 22 60 30 61 23 62 24 63 28 64 31 65 25 66
REMARK SMILES IDX 26 67 29 68 27 69 53 70 54 71 62 72 55 73 56 74 60 75 63 76
REMARK SMILES IDX 57 77 58 78 61 79 59 80 38 81 39 82 47 83 40 84 41 85 45 86
REMARK SMILES IDX 48 87 42 88 43 89 46 90 44 91
REMARK H PARENT 87 20 87 21 68 44 36 55
REMARK Flexibility Score: inf
ROOT
ATOM      1  C   UNL A   1      31.027  29.549  24.136  1.00  0.00     0.274 C 
ENDROOT
BRANCH   1   2
ATOM      2  O   UNL A   1      31.535  28.748  23.007  1.00  0.00    -0.462 OA
BRANCH   2   3
ATOM      3  C   UNL A   1      31.112  27.442  22.925  1.00  0.00     0.311 C 
ATOM      4  O   UNL A   1      29.963  27.111  23.196  1.00  0.00    -0.252 OA
BRANCH   3   5
ATOM      5  C   UNL A   1      32.213  26.432  22.424  1.00  0.00     0.123 C 
ATOM      6  C   UNL A   1      33.074  23.983  22.128  1.00  0.00     0.032 C 
ATOM      7  C   UNL A   1      32.151  24.935  22.894  1.00  0.00     0.096 C 
ATOM      8  N   UNL A   1      32.471  25.030  24.312  1.00  0.00    -0.339 N 
ATOM      9  C   UNL A   1      33.522  26.832  23.126  1.00  0.00     0.039 C 
ATOM     10  C   UNL A   1      33.426  26.125  24.493  1.00  0.00     0.121 C 
BRANCH   8  11
ATOM     11  C   UNL A   1      31.785  24.522  25.414  1.00  0.00     0.223 C 
ATOM     12  O   UNL A   1      30.936  25.211  25.992  1.00  0.00    -0.275 OA
BRANCH  11  13
ATOM     13  C   UNL A   1      32.122  23.148  26.023  1.00  0.00     0.106 C 
BRANCH  13  14
ATOM     14  C   UNL A   1      33.168  23.023  27.199  1.00  0.00     0.075 C 
BRANCH  14  15
ATOM     15  C   UNL A   1      34.499  22.463  26.660  1.00  0.00     0.182 C 
ATOM     16  C   UNL A   1      35.565  23.684  26.104  1.00  0.00     0.065 C 
ATOM     17  N   UNL A   1      34.658  20.908  25.810  1.00  0.00    -0.344 N 
ATOM     18  C   UNL A   1      37.397  23.330  25.718  1.00  0.00     0.012 C 
ATOM     19  C   UNL A   1      36.527  20.245  25.091  1.00  0.00     0.260 C 
ATOM     20  H   UNL A   1      34.037  20.957  25.001  1.00  0.00     0.346 HD
ATOM     21  H   UNL A   1      34.446  20.231  26.542  1.00  0.00     0.346 HD
ATOM     22  C   UNL A   1      37.954  21.604  25.130  1.00  0.00     0.062 C 
ENDBRANCH  14  15
ENDBRANCH  13  14
ENDBRANCH  11  13
ENDBRANCH   8  11
ENDBRANCH   3   5
ENDBRANCH   2   3
ENDBRANCH   1   2
BRANCH   1  23
ATOM     23  C   UNL A   1      31.763  29.309  25.500  1.00  0.00     0.275 C 
BRANCH  23  24
ATOM     24  O   UNL A   1      32.804  30.307  25.691  1.00  0.00    -0.458 OA
BRANCH  24  25
ATOM     25  C   UNL A   1      32.694  31.211  26.699  1.00  0.00     0.338 C 
ATOM     26  O   UNL A   1      31.680  31.869  26.890  1.00  0.00    -0.246 OA
BRANCH  25  27
ATOM     27  C   UNL A   1      33.991  31.378  27.625  1.00  0.00     0.060 A 
ATOM     28  C   UNL A   1      35.404  32.745  27.858  1.00  0.00     0.016 A 
ATOM     29  C   UNL A   1      34.391  29.700  28.075  1.00  0.00     0.016 A 
ATOM     30  C   UNL A   1      36.969  32.299  28.585  1.00  0.00     0.010 A 
ATOM     31  C   UNL A   1      35.997  29.371  28.709  1.00  0.00     0.010 A 
ATOM     32  C   UNL A   1      37.200  30.625  28.985  1.00  0.00    -0.014 A 
BRANCH  32  33
ATOM     33  C   UNL A   1      38.395  30.286  29.753  1.00  0.00     0.031 A 
ATOM     34  C   UNL A   1      39.367  29.328  29.176  1.00  0.00     0.074 A 
ATOM     35  C   UNL A   1      38.546  30.870  30.954  1.00  0.00     0.049 A 
ATOM     36  N   UNL A   1      40.437  28.818  29.716  1.00  0.00    -0.248 NA
ATOM     37  C   UNL A   1      39.113  28.884  27.797  1.00  0.00     0.031 C 
ATOM     38  C   UNL A   1      37.662  31.896  31.509  1.00  0.00     0.029 A 
ATOM     39  N   UNL A   1      39.471  30.671  31.940  1.00  0.00    -0.354 N 
ATOM     40  C   UNL A   1      40.991  28.005  28.742  1.00  0.00     0.074 A 
ATOM     41  C   UNL A   1      40.132  28.066  27.582  1.00  0.00     0.031 C 
ATOM     42  C   UNL A   1      38.039  32.186  32.762  1.00  0.00     0.029 A 
ATOM     43  C   UNL A   1      39.183  31.356  33.098  1.00  0.00     0.049 A 
ATOM     44  H   UNL A   1      40.262  30.097  31.831  1.00  0.00     0.167 HD
ATOM     45  C   UNL A   1      42.120  27.270  28.833  1.00  0.00     0.037 A 
ATOM     46  C   UNL A   1      39.774  31.279  34.302  1.00  0.00     0.037 A 
ATOM     47  C   UNL A   1      42.883  27.183  30.048  1.00  0.00     0.049 A 
ATOM     48  C   UNL A   1      40.960  30.363  34.412  1.00  0.00     0.074 A 
ATOM     49  C   UNL A   1      44.006  26.427  30.320  1.00  0.00     0.029 A 
ATOM     50  N   UNL A   1      42.567  27.876  31.215  1.00  0.00    -0.354 N 
ATOM     51  N   UNL A   1      41.489  29.591  33.491  1.00  0.00    -0.248 NA
ATOM     52  C   UNL A   1      41.640  30.313  35.708  1.00  0.00     0.031 C 
ATOM     53  C   UNL A   1      44.337  26.623  31.666  1.00  0.00     0.029 A 
ATOM     54  C   UNL A   1      43.460  27.550  32.217  1.00  0.00     0.049 A 
ATOM     55  H   UNL A   1      41.818  28.506  31.311  1.00  0.00     0.167 HD
ATOM     56  C   UNL A   1      42.582  28.983  34.080  1.00  0.00     0.074 A 
ATOM     57  C   UNL A   1      42.645  29.491  35.441  1.00  0.00     0.031 C 
ATOM     58  C   UNL A   1      43.460  28.091  33.556  1.00  0.00     0.037 A 
BRANCH  45  59
ATOM     59  C   UNL A   1      42.517  26.480  27.621  1.00  0.00     0.064 A 
ATOM     60  C   UNL A   1      41.984  25.206  27.365  1.00  0.00     0.173 A 
ATOM     61  C   UNL A   1      43.484  26.973  26.732  1.00  0.00     0.173 A 
ATOM     62  F   UNL A   1      41.083  24.670  28.203  1.00  0.00    -0.203 F 
ATOM     63  C   UNL A   1      42.425  24.446  26.283  1.00  0.00     0.198 A 
ATOM     64  C   UNL A   1      43.901  26.222  25.636  1.00  0.00     0.198 A 
ATOM     65  F   UNL A   1      44.042  28.175  26.938  1.00  0.00    -0.203 F 
ATOM     66  F   UNL A   1      41.948  23.207  26.097  1.00  0.00    -0.200 F 
ATOM     67  C   UNL A   1      43.379  24.957  25.417  1.00  0.00     0.200 A 
ATOM     68  F   UNL A   1      44.827  26.716  24.801  1.00  0.00    -0.200 F 
ATOM     69  F   UNL A   1      43.809  24.222  24.382  1.00  0.00    -0.200 F 
ENDBRANCH  45  59
BRANCH  46  70
ATOM     70  C   UNL A   1      39.262  32.078  35.447  1.00  0.00     0.064 A 
ATOM     71  C   UNL A   1      38.435  31.503  36.421  1.00  0.00     0.173 A 
ATOM     72  C   UNL A   1      39.615  33.428  35.615  1.00  0.00     0.173 A 
ATOM     73  F   UNL A   1      38.059  30.221  36.306  1.00  0.00    -0.203 F 
ATOM     74  C   UNL A   1      37.966  32.247  37.504  1.00  0.00     0.198 A 
ATOM     75  C   UNL A   1      39.168  34.162  36.713  1.00  0.00     0.198 A 
ATOM     76  F   UNL A   1      40.412  34.031  34.721  1.00  0.00    -0.203 F 
ATOM     77  F   UNL A   1      37.146  31.677  38.398  1.00  0.00    -0.200 F 
ATOM     78  C   UNL A   1      38.338  33.573  37.654  1.00  0.00     0.200 A 
ATOM     79  F   UNL A   1      39.544  35.441  36.860  1.00  0.00    -0.200 F 
ATOM     80  F   UNL A   1      37.893  34.284  38.699  1.00  0.00    -0.200 F 
ENDBRANCH  46  70
BRANCH  58  81
ATOM     81  C   UNL A   1      44.566  27.649  34.463  1.00  0.00     0.064 A 
ATOM     82  C   UNL A   1      45.772  28.356  34.546  1.00  0.00     0.173 A 
ATOM     83  C   UNL A   1      44.395  26.520  35.277  1.00  0.00     0.173 A 
ATOM     84  F   UNL A   1      45.983  29.430  33.770  1.00  0.00    -0.203 F 
ATOM     85  C   UNL A   1      46.786  27.928  35.396  1.00  0.00     0.198 A 
ATOM     86  C   UNL A   1      45.396  26.117  36.150  1.00  0.00     0.198 A 
ATOM     87  F   UNL A   1      43.251  25.819  35.232  1.00  0.00    -0.203 F 
ATOM     88  F   UNL A   1      47.955  28.583  35.422  1.00  0.00    -0.200 F 
ATOM     89  C   UNL A   1      46.594  26.816  36.203  1.00  0.00     0.200 A 
ATOM     90  F   UNL A   1      45.205  25.052  36.940  1.00  0.00    -0.200 F 
ATOM     91  F   UNL A   1      47.569  26.410  37.026  1.00  0.00    -0.200 F 
ENDBRANCH  58  81
ENDBRANCH  32  33
ENDBRANCH  25  27
ENDBRANCH  24  25
ENDBRANCH  23  24
ENDBRANCH   1  23
TORSDOF 15
ENDMDL
MODEL 2
REMARK VINA RESULT:     -11.9      7.814     15.196
REMARK SMILES C[C@@H]1[C@@H](C(=O)OCCOC(=O)c2ccc(-c3c4nc(c(-c5c(F)c(F)c(F)c(F)c5F)c5ccc([nH]5)c(-c5c(F)c(F)c(F)c(F)c5F)c5nc(c(-c6c(F)c(F)c(F)c(F)c6F)c6ccc3[nH]6)C=C5)C=C4)cc2)CCN1C(=O)CC[C@@H]1CCCC[NH2+]1
REMARK SMILES IDX 7 1 6 2 4 3 5 4 3 5 1 6 2 7 77 8 75 9 76 10 78 11 79 12
REMARK SMILES IDX 80 13 81 14 82 15 83 16 87 17 84 18 86 19 85 22 8 23 9 24
REMARK SMILES IDX 10 25 11 26 12 27 13 28 74 29 14 30 73 31 15 32 16 33 17 34
REMARK SMILES IDX 67 35 18 36 72 37 66 38 68 39 19 40 71 41 65 42 64 43 20 45
REMARK SMILES IDX 52 46 32 47 51 48 33 49 36 50 50 51 69 52 34 53 35 54 49 56
REMARK SMILES IDX 70 57 37 58 21 59 22 60 30 61 23 62 24 63 28 64 31 65 25 66
REMARK SMILES IDX 26 67 29 68 27 69 53 70 54 71 62 72 55 73 56 74 60 75 63 76
REMARK SMILES IDX 57 77 58 78 61 79 59 80 38 81 39 82 47 83 40 84 41 85 45 86
REMARK SMILES IDX 48 87 42 88 43 89 46 90 44 91
REMARK H PARENT 87 20 87 21 68 44 36 55
REMARK Flexibility Score: inf
ROOT
ATOM      1  C   UNL A   1      46.914  21.119  38.102  1.00  0.00     0.274 C 
ENDROOT
BRANCH   1   2
ATOM      2  O   UNL A   1      47.189  19.685  37.896  1.00  0.00    -0.462 OA
BRANCH   2   3
ATOM      3  C   UNL A   1      46.320  18.791  38.476  1.00  0.00     0.311 C 
ATOM      4  O   UNL A   1      45.254  18.486  37.953  1.00  0.00    -0.252 OA
BRANCH   3   5
ATOM      5  C   UNL A   1      46.831  18.176  39.834  1.00  0.00     0.123 C 
ATOM      6  C   UNL A   1      47.131  16.119  41.418  1.00  0.00     0.032 C 
ATOM      7  C   UNL A   1      46.357  16.737  40.248  1.00  0.00     0.096 C 
ATOM      8  N   UNL A   1      44.943  16.933  40.534  1.00  0.00    -0.339 N 
ATOM      9  C   UNL A   1      46.141  18.969  40.957  1.00  0.00     0.039 C 
ATOM     10  C   UNL A   1      44.772  18.273  41.099  1.00  0.00     0.121 C 
BRANCH   8  11
ATOM     11  C   UNL A   1      43.834  16.240  40.051  1.00  0.00     0.223 C 
ATOM     12  O   UNL A   1      43.702  16.043  38.838  1.00  0.00    -0.275 OA
BRANCH  11  13
ATOM     13  C   UNL A   1      42.685  15.792  40.975  1.00  0.00     0.106 C 
BRANCH  13  14
ATOM     14  C   UNL A   1      42.908  15.664  42.533  1.00  0.00     0.075 C 
BRANCH  14  15
ATOM     15  C   UNL A   1      42.945  14.177  42.937  1.00  0.00     0.182 C 
ATOM     16  C   UNL A   1      41.386  13.476  43.059  1.00  0.00     0.065 C 
ATOM     17  N   UNL A   1      44.155  13.469  44.033  1.00  0.00    -0.344 N 
ATOM     18  C   UNL A   1      41.130  11.592  43.192  1.00  0.00     0.012 C 
ATOM     19  C   UNL A   1      44.100  11.422  44.541  1.00  0.00     0.260 C 
ATOM     20  H   UNL A   1      44.088  13.987  44.910  1.00  0.00     0.346 HD
ATOM     21  H   UNL A   1      45.016  13.543  43.492  1.00  0.00     0.346 HD
ATOM     22  C   UNL A   1      42.453  10.483  44.000  1.00  0.00     0.062 C 
ENDBRANCH  14  15
ENDBRANCH  13  14
ENDBRANCH  11  13
ENDBRANCH   8  11
ENDBRANCH   3   5
ENDBRANCH   2   3
ENDBRANCH   1   2
BRANCH   1  23
ATOM     23  C   UNL A   1      45.999  21.780  37.012  1.00  0.00     0.275 C 
BRANCH  23  24
ATOM     24  O   UNL A   1      46.593  23.022  36.545  1.00  0.00    -0.458 OA
BRANCH  24  25
ATOM     25  C   UNL A   1      46.184  24.205  37.071  1.00  0.00     0.338 C 
ATOM     26  O   UNL A   1      46.240  24.452  38.267  1.00  0.00    -0.246 OA
BRANCH  25  27
ATOM     27  C   UNL A   1      45.603  25.267  36.021  1.00  0.00     0.060 A 
ATOM     28  C   UNL A   1      46.112  27.079  35.402  1.00  0.00     0.016 A 
ATOM     29  C   UNL A   1      43.887  24.803  35.875  1.00  0.00     0.016 A 
ATOM     30  C   UNL A   1      44.897  28.139  34.643  1.00  0.00     0.010 A 
ATOM     31  C   UNL A   1      42.769  25.967  35.180  1.00  0.00     0.010 A 
ATOM     32  C   UNL A   1      43.271  27.535  34.561  1.00  0.00    -0.014 A 
BRANCH  32  33
ATOM     33  C   UNL A   1      42.315  28.310  33.772  1.00  0.00     0.031 A 
ATOM     34  C   UNL A   1      41.415  29.257  34.471  1.00  0.00     0.074 A 
ATOM     35  C   UNL A   1      42.308  28.116  32.443  1.00  0.00     0.049 A 
ATOM     36  N   UNL A   1      40.438  29.970  33.987  1.00  0.00    -0.248 NA
ATOM     37  C   UNL A   1      41.645  29.441  35.912  1.00  0.00     0.031 C 
ATOM     38  C   UNL A   1      43.249  27.268  31.709  1.00  0.00     0.029 A 
ATOM     39  N   UNL A   1      41.471  28.586  31.471  1.00  0.00    -0.354 N 
ATOM     40  C   UNL A   1      39.946  30.697  35.059  1.00  0.00     0.074 A 
ATOM     41  C   UNL A   1      40.712  30.326  36.226  1.00  0.00     0.031 C 
ATOM     42  C   UNL A   1      42.897  27.217  30.417  1.00  0.00     0.029 A 
ATOM     43  C   UNL A   1      41.699  28.020  30.238  1.00  0.00     0.049 A 
ATOM     44  H   UNL A   1      40.775  29.263  31.637  1.00  0.00     0.167 HD
ATOM     45  C   UNL A   1      38.932  31.588  35.047  1.00  0.00     0.037 A 
ATOM     46  C   UNL A   1      40.983  28.125  29.106  1.00  0.00     0.037 A 
ATOM     47  C   UNL A   1      38.151  31.847  33.868  1.00  0.00     0.049 A 
ATOM     48  C   UNL A   1      39.787  29.033  29.149  1.00  0.00     0.074 A 
ATOM     49  C   UNL A   1      37.049  32.664  33.713  1.00  0.00     0.029 A 
ATOM     50  N   UNL A   1      38.392  31.252  32.631  1.00  0.00    -0.354 N 
ATOM     51  N   UNL A   1      39.317  29.725  30.162  1.00  0.00    -0.248 NA
ATOM     52  C   UNL A   1      39.031  29.192  27.905  1.00  0.00     0.031 C 
ATOM     53  C   UNL A   1      36.594  32.523  32.398  1.00  0.00     0.029 A 
ATOM     54  C   UNL A   1      37.448  31.667  31.712  1.00  0.00     0.049 A 
ATOM     55  H   UNL A   1      39.128  30.628  32.439  1.00  0.00     0.167 HD
ATOM     56  C   UNL A   1      38.229  30.426  29.677  1.00  0.00     0.074 A 
ATOM     57  C   UNL A   1      38.119  30.082  28.269  1.00  0.00     0.031 C 
ATOM     58  C   UNL A   1      37.394  31.279  30.322  1.00  0.00     0.037 A 
BRANCH  45  59
ATOM     59  C   UNL A   1      38.599  32.258  36.347  1.00  0.00     0.064 A 
ATOM     60  C   UNL A   1      39.024  33.567  36.630  1.00  0.00     0.173 A 
ATOM     61  C   UNL A   1      37.897  31.570  37.347  1.00  0.00     0.173 A 
ATOM     62  F   UNL A   1      39.731  34.259  35.723  1.00  0.00    -0.203 F 
ATOM     63  C   UNL A   1      38.783  34.148  37.874  1.00  0.00     0.198 A 
ATOM     64  C   UNL A   1      37.634  32.164  38.579  1.00  0.00     0.198 A 
ATOM     65  F   UNL A   1      37.485  30.310  37.139  1.00  0.00    -0.203 F 
ATOM     66  F   UNL A   1      39.255  35.374  38.142  1.00  0.00    -0.200 F 
ATOM     67  C   UNL A   1      38.084  33.448  38.845  1.00  0.00     0.200 A 
ATOM     68  F   UNL A   1      36.961  31.485  39.518  1.00  0.00    -0.200 F 
ATOM     69  F   UNL A   1      37.862  34.004  40.044  1.00  0.00    -0.200 F 
ENDBRANCH  45  59
BRANCH  46  70
ATOM     70  C   UNL A   1      41.384  27.375  27.886  1.00  0.00     0.064 A 
ATOM     71  C   UNL A   1      42.247  27.939  26.938  1.00  0.00     0.173 A 
ATOM     72  C   UNL A   1      40.939  26.062  27.654  1.00  0.00     0.173 A 
ATOM     73  F   UNL A   1      42.694  29.192  27.105  1.00  0.00    -0.203 F 
ATOM     74  C   UNL A   1      42.636  27.231  25.801  1.00  0.00     0.198 A 
ATOM     75  C   UNL A   1      41.351  25.345  26.531  1.00  0.00     0.198 A 
ATOM     76  F   UNL A   1      40.119  25.465  28.531  1.00  0.00    -0.203 F 
ATOM     77  F   UNL A   1      43.434  27.813  24.894  1.00  0.00    -0.200 F 
ATOM     78  C   UNL A   1      42.194  25.933  25.601  1.00  0.00     0.200 A 
ATOM     79  F   UNL A   1      40.932  24.085  26.351  1.00  0.00    -0.200 F 
ATOM     80  F   UNL A   1      42.575  25.252  24.511  1.00  0.00    -0.200 F 
ENDBRANCH  46  70
BRANCH  58  81
ATOM     81  C   UNL A   1      36.322  31.905  29.487  1.00  0.00     0.064 A 
ATOM     82  C   UNL A   1      35.246  31.156  28.993  1.00  0.00     0.173 A 
ATOM     83  C   UNL A   1      36.363  33.279  29.210  1.00  0.00     0.173 A 
ATOM     84  F   UNL A   1      35.180  29.836  29.220  1.00  0.00    -0.203 F 
ATOM     85  C   UNL A   1      34.260  31.760  28.221  1.00  0.00     0.198 A 
ATOM     86  C   UNL A   1      35.358  33.884  28.468  1.00  0.00     0.198 A 
ATOM     87  F   UNL A   1      37.374  34.033  29.671  1.00  0.00    -0.203 F 
ATOM     88  F   UNL A   1      33.268  31.018  27.708  1.00  0.00    -0.200 F 
ATOM     89  C   UNL A   1      34.312  33.123  27.967  1.00  0.00     0.200 A 
ATOM     90  F   UNL A   1      35.400  35.203  28.236  1.00  0.00    -0.200 F 
ATOM     91  F   UNL A   1      33.356  33.703  27.229  1.00  0.00    -0.200 F 
ENDBRANCH  58  81
ENDBRANCH  32  33
ENDBRANCH  25  27
ENDBRANCH  24  25
ENDBRANCH  23  24
ENDBRANCH   1  23
TORSDOF 15
ENDMDL
MODEL 3
REMARK VINA RESULT:     -11.8      7.359     14.789
REMARK SMILES C[C@@H]1[C@@H](C(=O)OCCOC(=O)c2ccc(-c3c4nc(c(-c5c(F)c(F)c(F)c(F)c5F)c5ccc([nH]5)c(-c5c(F)c(F)c(F)c(F)c5F)c5nc(c(-c6c(F)c(F)c(F)c(F)c6F)c6ccc3[nH]6)C=C5)C=C4)cc2)CCN1C(=O)CC[C@@H]1CCCC[NH2+]1
REMARK SMILES IDX 7 1 6 2 4 3 5 4 3 5 1 6 2 7 77 8 75 9 76 10 78 11 79 12
REMARK SMILES IDX 80 13 81 14 82 15 83 16 87 17 84 18 86 19 85 22 8 23 9 24
REMARK SMILES IDX 10 25 11 26 12 27 13 28 74 29 14 30 73 31 15 32 16 33 17 34
REMARK SMILES IDX 67 35 18 36 72 37 66 38 68 39 19 40 71 41 65 42 64 43 20 45
REMARK SMILES IDX 52 46 32 47 51 48 33 49 36 50 50 51 69 52 34 53 35 54 49 56
REMARK SMILES IDX 70 57 37 58 21 59 22 60 30 61 23 62 24 63 28 64 31 65 25 66
REMARK SMILES IDX 26 67 29 68 27 69 53 70 54 71 62 72 55 73 56 74 60 75 63 76
REMARK SMILES IDX 57 77 58 78 61 79 59 80 38 81 39 82 47 83 40 84 41 85 45 86
REMARK SMILES IDX 48 87 42 88 43 89 46 90 44 91
REMARK H PARENT 87 20 87 21 68 44 36 55
REMARK Flexibility Score: inf
ROOT
ATOM      1  C   UNL A   1      45.308  22.793  40.127  1.00  0.00     0.274 C 
ENDROOT
BRANCH   1   2
ATOM      2  O   UNL A   1      45.960  21.487  40.340  1.00  0.00    -0.462 OA
BRANCH   2   3
ATOM      3  C   UNL A   1      47.211  21.315  39.794  1.00  0.00     0.311 C 
ATOM      4  O   UNL A   1      48.226  21.715  40.353  1.00  0.00    -0.252 OA
BRANCH   3   5
ATOM      5  C   UNL A   1      47.221  20.535  38.425  1.00  0.00     0.123 C 
ATOM      6  C   UNL A   1      45.988  19.088  36.633  1.00  0.00     0.032 C 
ATOM      7  C   UNL A   1      46.036  19.562  38.089  1.00  0.00     0.096 C 
ATOM      8  N   UNL A   1      46.231  18.476  39.040  1.00  0.00    -0.339 N 
ATOM      9  C   UNL A   1      48.345  19.490  38.529  1.00  0.00     0.039 C 
ATOM     10  C   UNL A   1      47.671  18.308  39.253  1.00  0.00     0.121 C 
BRANCH   8  11
ATOM     11  C   UNL A   1      45.329  17.907  39.937  1.00  0.00     0.223 C 
ATOM     12  O   UNL A   1      45.132  18.431  41.040  1.00  0.00    -0.275 OA
BRANCH  11  13
ATOM     13  C   UNL A   1      44.630  16.565  39.652  1.00  0.00     0.106 C 
BRANCH  13  14
ATOM     14  C   UNL A   1      43.059  16.439  39.744  1.00  0.00     0.075 C 
BRANCH  14  15
ATOM     15  C   UNL A   1      42.678  15.406  40.822  1.00  0.00     0.182 C 
ATOM     16  C   UNL A   1      41.843  14.051  40.186  1.00  0.00     0.065 C 
ATOM     17  N   UNL A   1      42.233  15.822  42.494  1.00  0.00    -0.344 N 
ATOM     18  C   UNL A   1      41.561  12.465  41.206  1.00  0.00     0.012 C 
ATOM     19  C   UNL A   1      41.703  14.328  43.885  1.00  0.00     0.260 C 
ATOM     20  H   UNL A   1      41.435  16.456  42.430  1.00  0.00     0.346 HD
ATOM     21  H   UNL A   1      43.107  16.183  42.874  1.00  0.00     0.346 HD
ATOM     22  C   UNL A   1      41.413  12.541  43.105  1.00  0.00     0.062 C 
ENDBRANCH  14  15
ENDBRANCH  13  14
ENDBRANCH  11  13
ENDBRANCH   8  11
ENDBRANCH   3   5
ENDBRANCH   2   3
ENDBRANCH   1   2
BRANCH   1  23
ATOM     23  C   UNL A   1      46.077  23.767  39.168  1.00  0.00     0.275 C 
BRANCH  23  24
ATOM     24  O   UNL A   1      45.453  23.774  37.854  1.00  0.00    -0.458 OA
BRANCH  24  25
ATOM     25  C   UNL A   1      46.205  24.033  36.753  1.00  0.00     0.338 C 
ATOM     26  O   UNL A   1      47.265  23.467  36.527  1.00  0.00    -0.246 OA
BRANCH  25  27
ATOM     27  C   UNL A   1      45.620  25.148  35.761  1.00  0.00     0.060 A 
ATOM     28  C   UNL A   1      46.096  27.008  35.273  1.00  0.00     0.016 A 
ATOM     29  C   UNL A   1      43.919  24.654  35.547  1.00  0.00     0.016 A 
ATOM     30  C   UNL A   1      44.871  28.087  34.559  1.00  0.00     0.010 A 
ATOM     31  C   UNL A   1      42.787  25.835  34.906  1.00  0.00     0.010 A 
ATOM     32  C   UNL A   1      43.263  27.452  34.401  1.00  0.00    -0.014 A 
BRANCH  32  33
ATOM     33  C   UNL A   1      42.305  28.255  33.643  1.00  0.00     0.031 A 
ATOM     34  C   UNL A   1      41.425  29.195  34.376  1.00  0.00     0.074 A 
ATOM     35  C   UNL A   1      42.277  28.090  32.310  1.00  0.00     0.049 A 
ATOM     36  N   UNL A   1      40.450  29.929  33.922  1.00  0.00    -0.248 NA
ATOM     37  C   UNL A   1      41.677  29.345  35.817  1.00  0.00     0.031 C 
ATOM     38  C   UNL A   1      43.198  27.249  31.544  1.00  0.00     0.029 A 
ATOM     39  N   UNL A   1      41.432  28.592  31.361  1.00  0.00    -0.354 N 
ATOM     40  C   UNL A   1      39.980  30.637  35.017  1.00  0.00     0.074 A 
ATOM     41  C   UNL A   1      40.758  30.232  36.164  1.00  0.00     0.031 C 
ATOM     42  C   UNL A   1      42.828  27.232  30.257  1.00  0.00     0.029 A 
ATOM     43  C   UNL A   1      41.637  28.051  30.113  1.00  0.00     0.049 A 
ATOM     44  H   UNL A   1      40.746  29.272  31.552  1.00  0.00     0.167 HD
ATOM     45  C   UNL A   1      38.975  31.539  35.039  1.00  0.00     0.037 A 
ATOM     46  C   UNL A   1      40.906  28.189  28.994  1.00  0.00     0.037 A 
ATOM     47  C   UNL A   1      38.181  31.832  33.877  1.00  0.00     0.049 A 
ATOM     48  C   UNL A   1      39.721  29.108  29.074  1.00  0.00     0.074 A 
ATOM     49  C   UNL A   1      37.087  32.664  33.757  1.00  0.00     0.029 A 
ATOM     50  N   UNL A   1      38.399  31.263  32.624  1.00  0.00    -0.354 N 
ATOM     51  N   UNL A   1      39.272  29.782  30.108  1.00  0.00    -0.248 NA
ATOM     52  C   UNL A   1      38.950  29.304  27.844  1.00  0.00     0.031 C 
ATOM     53  C   UNL A   1      36.611  32.558  32.445  1.00  0.00     0.029 A 
ATOM     54  C   UNL A   1      37.446  31.709  31.728  1.00  0.00     0.049 A 
ATOM     55  H   UNL A   1      39.125  30.636  32.408  1.00  0.00     0.167 HD
ATOM     56  C   UNL A   1      38.185  30.506  29.655  1.00  0.00     0.074 A 
ATOM     57  C   UNL A   1      38.052  30.195  28.241  1.00  0.00     0.031 C 
ATOM     58  C   UNL A   1      37.369  31.352  30.331  1.00  0.00     0.037 A 
BRANCH  45  59
ATOM     59  C   UNL A   1      38.669  32.183  36.358  1.00  0.00     0.064 A 
ATOM     60  C   UNL A   1      37.948  31.508  37.357  1.00  0.00     0.173 A 
ATOM     61  C   UNL A   1      39.049  33.509  36.611  1.00  0.00     0.173 A 
ATOM     62  F   UNL A   1      37.527  30.250  37.154  1.00  0.00    -0.203 F 
ATOM     63  C   UNL A   1      37.594  32.147  38.545  1.00  0.00     0.198 A 
ATOM     64  C   UNL A   1      38.719  34.134  37.812  1.00  0.00     0.198 A 
ATOM     65  F   UNL A   1      39.723  34.208  35.686  1.00  0.00    -0.203 F 
ATOM     66  F   UNL A   1      36.850  31.503  39.455  1.00  0.00    -0.200 F 
ATOM     67  C   UNL A   1      37.985  33.457  38.773  1.00  0.00     0.200 A 
ATOM     68  F   UNL A   1      39.094  35.403  38.029  1.00  0.00    -0.200 F 
ATOM     69  F   UNL A   1      37.637  34.073  39.911  1.00  0.00    -0.200 F 
ENDBRANCH  45  59
BRANCH  46  70
ATOM     70  C   UNL A   1      41.281  27.462  27.752  1.00  0.00     0.064 A 
ATOM     71  C   UNL A   1      42.080  28.066  26.771  1.00  0.00     0.173 A 
ATOM     72  C   UNL A   1      40.878  26.135  27.529  1.00  0.00     0.173 A 
ATOM     73  F   UNL A   1      42.485  29.334  26.927  1.00  0.00    -0.203 F 
ATOM     74  C   UNL A   1      42.445  27.380  25.613  1.00  0.00     0.198 A 
ATOM     75  C   UNL A   1      41.267  25.441  26.384  1.00  0.00     0.198 A 
ATOM     76  F   UNL A   1      40.121  25.501  28.437  1.00  0.00    -0.203 F 
ATOM     77  F   UNL A   1      43.179  27.998  24.676  1.00  0.00    -0.200 F 
ATOM     78  C   UNL A   1      42.045  26.067  25.422  1.00  0.00     0.200 A 
ATOM     79  F   UNL A   1      40.891  24.166  26.213  1.00  0.00    -0.200 F 
ATOM     80  F   UNL A   1      42.404  25.408  24.312  1.00  0.00    -0.200 F 
ENDBRANCH  46  70
BRANCH  58  81
ATOM     81  C   UNL A   1      36.292  32.009  29.525  1.00  0.00     0.064 A 
ATOM     82  C   UNL A   1      36.324  33.381  29.240  1.00  0.00     0.173 A 
ATOM     83  C   UNL A   1      35.236  31.244  29.011  1.00  0.00     0.173 A 
ATOM     84  F   UNL A   1      37.307  34.151  29.729  1.00  0.00    -0.203 F 
ATOM     85  C   UNL A   1      35.314  33.970  28.488  1.00  0.00     0.198 A 
ATOM     86  C   UNL A   1      34.249  31.830  28.231  1.00  0.00     0.198 A 
ATOM     87  F   UNL A   1      35.173  29.926  29.256  1.00  0.00    -0.203 F 
ATOM     88  F   UNL A   1      35.330  35.293  28.272  1.00  0.00    -0.200 F 
ATOM     89  C   UNL A   1      34.283  33.194  27.978  1.00  0.00     0.200 A 
ATOM     90  F   UNL A   1      33.262  31.078  27.726  1.00  0.00    -0.200 F 
ATOM     91  F   UNL A   1      33.315  33.764  27.248  1.00  0.00    -0.200 F 
ENDBRANCH  58  81
ENDBRANCH  32  33
ENDBRANCH  25  27
ENDBRANCH  24  25
ENDBRANCH  23  24
ENDBRANCH   1  23
TORSDOF 15
ENDMDL
