MODEL 1
REMARK VINA RESULT:     -11.6      0.000      0.000
REMARK SMILES O=Cc1ccc2c(c1)C=C(C(=O)OCCOC(=O)c1ccc(-c3c4nc(c(-c5c(F)c(F)c(F)c(F)c5F)c5ccc([nH]5)c(-c5c(F)c(F)c(F)c(F)c5F)c5nc(c(-c6c(F)c(F)c(F)c(F)c6F)c6ccc3[nH]6)C=C5)C=C4)cc1)[C@H](C(F)(F)F)O2
REMARK SMILES IDX 15 1 14 2 13 3 11 4 12 5 10 6 3 7 4 8 8 9 5 10 7 11 6 12
REMARK SMILES IDX 9 13 87 14 82 15 2 16 1 17 83 18 84 19 85 20 86 21 16 22
REMARK SMILES IDX 17 23 18 24 19 25 20 26 81 27 21 28 80 29 22 30 23 31 24 32
REMARK SMILES IDX 74 33 25 34 79 35 73 36 75 37 26 38 78 39 72 40 71 41 27 43
REMARK SMILES IDX 59 44 39 45 58 46 40 47 43 48 57 49 76 50 41 51 42 52 56 54
REMARK SMILES IDX 77 55 44 56 28 57 29 58 37 59 30 60 31 61 35 62 38 63 32 64
REMARK SMILES IDX 33 65 36 66 34 67 60 68 61 69 69 70 62 71 63 72 67 73 70 74
REMARK SMILES IDX 64 75 65 76 68 77 66 78 45 79 46 80 54 81 47 82 48 83 52 84
REMARK SMILES IDX 55 85 49 86 50 87 53 88 51 89
REMARK H PARENT 75 42 43 53
REMARK Flexibility Score: inf
ROOT
ATOM      1  C   UNL A   1      35.042  33.101  28.006  1.00  0.00     0.275 C 
ENDROOT
BRANCH   1   2
ATOM      2  C   UNL A   1      34.219  34.385  28.141  1.00  0.00     0.275 C 
BRANCH   2   3
ATOM      3  O   UNL A   1      34.542  35.104  29.352  1.00  0.00    -0.459 OA
BRANCH   3   4
ATOM      4  C   UNL A   1      33.699  34.924  30.400  1.00  0.00     0.338 C 
ATOM      5  O   UNL A   1      32.484  34.992  30.346  1.00  0.00    -0.246 OA
BRANCH   4   6
ATOM      6  C   UNL A   1      34.433  34.577  31.642  1.00  0.00     0.087 C 
ATOM      7  C   UNL A   1      37.503  31.864  34.194  1.00  0.00     0.015 A 
ATOM      8  C   UNL A   1      37.326  32.702  35.299  1.00  0.00     0.015 A 
ATOM      9  C   UNL A   1      36.859  32.138  32.979  1.00  0.00     0.023 A 
ATOM     10  C   UNL A   1      36.524  33.835  35.183  1.00  0.00     0.048 A 
ATOM     11  C   UNL A   1      36.035  33.264  32.870  1.00  0.00     0.018 A 
ATOM     12  C   UNL A   1      35.885  34.109  33.973  1.00  0.00     0.128 A 
ATOM     13  C   UNL A   1      35.358  33.600  31.620  1.00  0.00     0.027 C 
ATOM     14  O   UNL A   1      35.177  35.274  33.909  1.00  0.00    -0.475 OA
ATOM     15  C   UNL A   1      34.102  35.319  32.928  1.00  0.00     0.316 C 
BRANCH   7  16
ATOM     16  C   UNL A   1      38.391  30.690  34.299  1.00  0.00     0.260 C 
ATOM     17  O   UNL A   1      38.549  30.086  35.353  1.00  0.00    -0.298 OA
ENDBRANCH   7  16
BRANCH  15  18
ATOM     18  C   UNL A   1      33.645  36.790  32.834  1.00  0.00     0.430 C 
ATOM     19  F   UNL A   1      32.299  36.901  32.770  1.00  0.00    -0.167 F 
ATOM     20  F   UNL A   1      34.006  37.466  33.959  1.00  0.00    -0.167 F 
ATOM     21  F   UNL A   1      34.194  37.445  31.790  1.00  0.00    -0.167 F 
ENDBRANCH  15  18
ENDBRANCH   4   6
ENDBRANCH   3   4
ENDBRANCH   2   3
ENDBRANCH   1   2
BRANCH   1  22
ATOM     22  O   UNL A   1      34.386  31.988  28.640  1.00  0.00    -0.458 OA
BRANCH  22  23
ATOM     23  C   UNL A   1      34.544  30.799  28.012  1.00  0.00     0.338 C 
ATOM     24  O   UNL A   1      33.774  30.282  27.219  1.00  0.00    -0.246 OA
BRANCH  23  25
ATOM     25  C   UNL A   1      35.892  30.259  28.279  1.00  0.00     0.060 A 
ATOM     26  C   UNL A   1      36.132  29.773  29.569  1.00  0.00     0.016 A 
ATOM     27  C   UNL A   1      36.908  30.236  27.320  1.00  0.00     0.016 A 
ATOM     28  C   UNL A   1      37.362  29.210  29.894  1.00  0.00     0.010 A 
ATOM     29  C   UNL A   1      38.164  29.721  27.663  1.00  0.00     0.010 A 
ATOM     30  C   UNL A   1      38.394  29.203  28.949  1.00  0.00    -0.014 A 
BRANCH  30  31
ATOM     31  C   UNL A   1      39.748  28.773  29.362  1.00  0.00     0.031 A 
ATOM     32  C   UNL A   1      40.532  29.647  30.295  1.00  0.00     0.074 A 
ATOM     33  C   UNL A   1      40.254  27.603  28.940  1.00  0.00     0.049 A 
ATOM     34  N   UNL A   1      41.747  29.492  30.756  1.00  0.00    -0.248 NA
ATOM     35  C   UNL A   1      39.849  30.853  30.788  1.00  0.00     0.031 C 
ATOM     36  C   UNL A   1      39.554  26.631  28.103  1.00  0.00     0.029 A 
ATOM     37  N   UNL A   1      41.486  27.036  29.158  1.00  0.00    -0.354 N 
ATOM     38  C   UNL A   1      41.969  30.571  31.598  1.00  0.00     0.074 A 
ATOM     39  C   UNL A   1      40.771  31.382  31.579  1.00  0.00     0.031 C 
ATOM     40  C   UNL A   1      40.376  25.596  27.857  1.00  0.00     0.029 A 
ATOM     41  C   UNL A   1      41.669  25.851  28.492  1.00  0.00     0.049 A 
ATOM     42  H   UNL A   1      42.171  27.441  29.738  1.00  0.00     0.167 HD
ATOM     43  C   UNL A   1      43.077  30.864  32.319  1.00  0.00     0.037 A 
ATOM     44  C   UNL A   1      42.770  25.079  28.384  1.00  0.00     0.037 A 
ATOM     45  C   UNL A   1      44.283  30.082  32.302  1.00  0.00     0.049 A 
ATOM     46  C   UNL A   1      44.032  25.493  29.097  1.00  0.00     0.074 A 
ATOM     47  C   UNL A   1      45.475  30.317  32.963  1.00  0.00     0.029 A 
ATOM     48  N   UNL A   1      44.453  28.915  31.570  1.00  0.00    -0.354 N 
ATOM     49  N   UNL A   1      44.240  26.517  29.889  1.00  0.00    -0.248 NA
ATOM     50  C   UNL A   1      45.217  24.645  28.897  1.00  0.00     0.031 C 
ATOM     51  C   UNL A   1      46.383  29.317  32.595  1.00  0.00     0.029 A 
ATOM     52  C   UNL A   1      45.739  28.433  31.745  1.00  0.00     0.049 A 
ATOM     53  H   UNL A   1      43.761  28.493  31.010  1.00  0.00     0.167 HD
ATOM     54  C   UNL A   1      45.562  26.420  30.305  1.00  0.00     0.074 A 
ATOM     55  C   UNL A   1      46.109  25.232  29.682  1.00  0.00     0.031 C 
ATOM     56  C   UNL A   1      46.260  27.239  31.130  1.00  0.00     0.037 A 
BRANCH  43  57
ATOM     57  C   UNL A   1      43.045  32.114  33.142  1.00  0.00     0.064 A 
ATOM     58  C   UNL A   1      42.616  32.104  34.477  1.00  0.00     0.173 A 
ATOM     59  C   UNL A   1      43.456  33.336  32.591  1.00  0.00     0.173 A 
ATOM     60  F   UNL A   1      42.193  30.963  35.041  1.00  0.00    -0.203 F 
ATOM     61  C   UNL A   1      42.578  33.278  35.224  1.00  0.00     0.198 A 
ATOM     62  C   UNL A   1      43.439  34.504  33.348  1.00  0.00     0.198 A 
ATOM     63  F   UNL A   1      43.872  33.398  31.317  1.00  0.00    -0.203 F 
ATOM     64  F   UNL A   1      42.123  33.255  36.485  1.00  0.00    -0.200 F 
ATOM     65  C   UNL A   1      42.994  34.476  34.661  1.00  0.00     0.200 A 
ATOM     66  F   UNL A   1      43.846  35.660  32.803  1.00  0.00    -0.200 F 
ATOM     67  F   UNL A   1      42.957  35.606  35.381  1.00  0.00    -0.200 F 
ENDBRANCH  43  57
BRANCH  44  68
ATOM     68  C   UNL A   1      42.745  23.855  27.541  1.00  0.00     0.064 A 
ATOM     69  C   UNL A   1      42.366  22.616  28.073  1.00  0.00     0.173 A 
ATOM     70  C   UNL A   1      43.138  23.896  26.195  1.00  0.00     0.173 A 
ATOM     71  F   UNL A   1      42.015  22.520  29.363  1.00  0.00    -0.203 F 
ATOM     72  C   UNL A   1      42.398  21.459  27.295  1.00  0.00     0.198 A 
ATOM     73  C   UNL A   1      43.143  22.744  25.411  1.00  0.00     0.198 A 
ATOM     74  F   UNL A   1      43.520  25.056  25.641  1.00  0.00    -0.203 F 
ATOM     75  F   UNL A   1      42.082  20.278  27.842  1.00  0.00    -0.200 F 
ATOM     76  C   UNL A   1      42.783  21.525  25.965  1.00  0.00     0.200 A 
ATOM     77  F   UNL A   1      43.512  22.814  24.124  1.00  0.00    -0.200 F 
ATOM     78  F   UNL A   1      42.819  20.412  25.219  1.00  0.00    -0.200 F 
ENDBRANCH  44  68
BRANCH  56  79
ATOM     79  C   UNL A   1      47.676  26.858  31.448  1.00  0.00     0.064 A 
ATOM     80  C   UNL A   1      47.984  25.966  32.485  1.00  0.00     0.173 A 
ATOM     81  C   UNL A   1      48.732  27.347  30.663  1.00  0.00     0.173 A 
ATOM     82  F   UNL A   1      47.011  25.483  33.270  1.00  0.00    -0.203 F 
ATOM     83  C   UNL A   1      49.301  25.589  32.735  1.00  0.00     0.198 A 
ATOM     84  C   UNL A   1      50.044  26.946  30.899  1.00  0.00     0.198 A 
ATOM     85  F   UNL A   1      48.489  28.197  29.655  1.00  0.00    -0.203 F 
ATOM     86  F   UNL A   1      49.578  24.761  33.752  1.00  0.00    -0.200 F 
ATOM     87  C   UNL A   1      50.328  26.072  31.937  1.00  0.00     0.200 A 
ATOM     88  F   UNL A   1      51.034  27.403  30.119  1.00  0.00    -0.200 F 
ATOM     89  F   UNL A   1      51.593  25.698  32.171  1.00  0.00    -0.200 F 
ENDBRANCH  56  79
ENDBRANCH  30  31
ENDBRANCH  23  25
ENDBRANCH  22  23
ENDBRANCH   1  22
TORSDOF 13
ENDMDL
MODEL 2
REMARK VINA RESULT:     -11.6      4.284      9.963
REMARK SMILES O=Cc1ccc2c(c1)C=C(C(=O)OCCOC(=O)c1ccc(-c3c4nc(c(-c5c(F)c(F)c(F)c(F)c5F)c5ccc([nH]5)c(-c5c(F)c(F)c(F)c(F)c5F)c5nc(c(-c6c(F)c(F)c(F)c(F)c6F)c6ccc3[nH]6)C=C5)C=C4)cc1)[C@H](C(F)(F)F)O2
REMARK SMILES IDX 15 1 14 2 13 3 11 4 12 5 10 6 3 7 4 8 8 9 5 10 7 11 6 12
REMARK SMILES IDX 9 13 87 14 82 15 2 16 1 17 83 18 84 19 85 20 86 21 16 22
REMARK SMILES IDX 17 23 18 24 19 25 20 26 81 27 21 28 80 29 22 30 23 31 24 32
REMARK SMILES IDX 74 33 25 34 79 35 73 36 75 37 26 38 78 39 72 40 71 41 27 43
REMARK SMILES IDX 59 44 39 45 58 46 40 47 43 48 57 49 76 50 41 51 42 52 56 54
REMARK SMILES IDX 77 55 44 56 28 57 29 58 37 59 30 60 31 61 35 62 38 63 32 64
REMARK SMILES IDX 33 65 36 66 34 67 60 68 61 69 69 70 62 71 63 72 67 73 70 74
REMARK SMILES IDX 64 75 65 76 68 77 66 78 45 79 46 80 54 81 47 82 48 83 52 84
REMARK SMILES IDX 55 85 49 86 50 87 53 88 51 89
REMARK H PARENT 75 42 43 53
REMARK Flexibility Score: inf
ROOT
ATOM      1  C   UNL A   1      31.732  30.296  25.663  1.00  0.00     0.275 C 
ENDROOT
BRANCH   1   2
ATOM      2  C   UNL A   1      31.470  29.079  24.770  1.00  0.00     0.275 C 
BRANCH   2   3
ATOM      3  O   UNL A   1      32.560  28.133  24.820  1.00  0.00    -0.459 OA
BRANCH   3   4
ATOM      4  C   UNL A   1      32.231  26.850  25.117  1.00  0.00     0.338 C 
ATOM      5  O   UNL A   1      31.227  26.502  25.712  1.00  0.00    -0.246 OA
BRANCH   4   6
ATOM      6  C   UNL A   1      33.224  25.889  24.579  1.00  0.00     0.087 C 
ATOM      7  C   UNL A   1      36.996  22.913  25.036  1.00  0.00     0.015 A 
ATOM      8  C   UNL A   1      36.889  22.568  23.685  1.00  0.00     0.015 A 
ATOM      9  C   UNL A   1      36.082  23.799  25.622  1.00  0.00     0.023 A 
ATOM     10  C   UNL A   1      35.848  23.091  22.922  1.00  0.00     0.048 A 
ATOM     11  C   UNL A   1      35.050  24.341  24.848  1.00  0.00     0.018 A 
ATOM     12  C   UNL A   1      34.937  23.971  23.505  1.00  0.00     0.128 A 
ATOM     13  C   UNL A   1      34.064  25.256  25.419  1.00  0.00     0.027 C 
ATOM     14  O   UNL A   1      33.901  24.385  22.719  1.00  0.00    -0.475 OA
ATOM     15  C   UNL A   1      33.290  25.657  23.077  1.00  0.00     0.316 C 
BRANCH   7  16
ATOM     16  C   UNL A   1      38.069  22.322  25.860  1.00  0.00     0.260 C 
ATOM     17  O   UNL A   1      38.852  23.012  26.501  1.00  0.00    -0.298 OA
ENDBRANCH   7  16
BRANCH  15  18
ATOM     18  C   UNL A   1      31.991  25.776  22.255  1.00  0.00     0.430 C 
ATOM     19  F   UNL A   1      31.595  27.061  22.110  1.00  0.00    -0.167 F 
ATOM     20  F   UNL A   1      32.194  25.321  20.987  1.00  0.00    -0.167 F 
ATOM     21  F   UNL A   1      30.974  25.055  22.771  1.00  0.00    -0.167 F 
ENDBRANCH  15  18
ENDBRANCH   4   6
ENDBRANCH   3   4
ENDBRANCH   2   3
ENDBRANCH   1   2
BRANCH   1  22
ATOM     22  O   UNL A   1      33.058  30.262  26.220  1.00  0.00    -0.458 OA
BRANCH  22  23
ATOM     23  C   UNL A   1      33.371  31.315  27.011  1.00  0.00     0.338 C 
ATOM     24  O   UNL A   1      32.674  32.289  27.246  1.00  0.00    -0.246 OA
BRANCH  23  25
ATOM     25  C   UNL A   1      34.638  31.055  27.723  1.00  0.00     0.060 A 
ATOM     26  C   UNL A   1      34.863  29.742  28.152  1.00  0.00     0.016 A 
ATOM     27  C   UNL A   1      35.582  32.051  27.989  1.00  0.00     0.016 A 
ATOM     28  C   UNL A   1      36.049  29.402  28.794  1.00  0.00     0.010 A 
ATOM     29  C   UNL A   1      36.751  31.721  28.685  1.00  0.00     0.010 A 
ATOM     30  C   UNL A   1      36.990  30.395  29.087  1.00  0.00    -0.014 A 
BRANCH  30  31
ATOM     31  C   UNL A   1      38.157  30.058  29.931  1.00  0.00     0.031 A 
ATOM     32  C   UNL A   1      39.195  29.120  29.390  1.00  0.00     0.074 A 
ATOM     33  C   UNL A   1      38.308  30.612  31.145  1.00  0.00     0.049 A 
ATOM     34  N   UNL A   1      40.275  28.654  29.965  1.00  0.00    -0.248 NA
ATOM     35  C   UNL A   1      38.997  28.653  28.009  1.00  0.00     0.031 C 
ATOM     36  C   UNL A   1      37.413  31.602  31.740  1.00  0.00     0.029 A 
ATOM     37  N   UNL A   1      39.274  30.412  32.100  1.00  0.00    -0.354 N 
ATOM     38  C   UNL A   1      40.889  27.852  29.014  1.00  0.00     0.074 A 
ATOM     39  C   UNL A   1      40.058  27.881  27.829  1.00  0.00     0.031 C 
ATOM     40  C   UNL A   1      37.858  31.907  32.972  1.00  0.00     0.029 A 
ATOM     41  C   UNL A   1      39.049  31.108  33.261  1.00  0.00     0.049 A 
ATOM     42  H   UNL A   1      40.054  29.827  31.964  1.00  0.00     0.167 HD
ATOM     43  C   UNL A   1      42.039  27.147  29.123  1.00  0.00     0.037 A 
ATOM     44  C   UNL A   1      39.715  31.076  34.433  1.00  0.00     0.037 A 
ATOM     45  C   UNL A   1      42.839  27.083  30.315  1.00  0.00     0.049 A 
ATOM     46  C   UNL A   1      40.924  30.185  34.569  1.00  0.00     0.074 A 
ATOM     47  C   UNL A   1      43.999  26.363  30.540  1.00  0.00     0.029 A 
ATOM     48  N   UNL A   1      42.550  27.757  31.493  1.00  0.00    -0.354 N 
ATOM     49  N   UNL A   1      41.499  29.423  33.670  1.00  0.00    -0.248 NA
ATOM     50  C   UNL A   1      41.575  30.146  35.887  1.00  0.00     0.031 C 
ATOM     51  C   UNL A   1      44.387  26.565  31.870  1.00  0.00     0.029 A 
ATOM     52  C   UNL A   1      43.496  27.450  32.456  1.00  0.00     0.049 A 
ATOM     53  H   UNL A   1      41.785  28.364  31.624  1.00  0.00     0.167 HD
ATOM     54  C   UNL A   1      42.591  28.842  34.301  1.00  0.00     0.074 A 
ATOM     55  C   UNL A   1      42.604  29.343  35.659  1.00  0.00     0.031 C 
ATOM     56  C   UNL A   1      43.503  27.973  33.799  1.00  0.00     0.037 A 
BRANCH  43  57
ATOM     57  C   UNL A   1      42.464  26.347  27.931  1.00  0.00     0.064 A 
ATOM     58  C   UNL A   1      41.980  25.050  27.705  1.00  0.00     0.173 A 
ATOM     59  C   UNL A   1      43.362  26.886  26.999  1.00  0.00     0.173 A 
ATOM     60  F   UNL A   1      41.137  24.483  28.580  1.00  0.00    -0.203 F 
ATOM     61  C   UNL A   1      42.398  24.314  26.599  1.00  0.00     0.198 A 
ATOM     62  C   UNL A   1      43.759  26.158  25.882  1.00  0.00     0.198 A 
ATOM     63  F   UNL A   1      43.856  28.122  27.173  1.00  0.00    -0.203 F 
ATOM     64  F   UNL A   1      41.957  23.060  26.425  1.00  0.00    -0.200 F 
ATOM     65  C   UNL A   1      43.282  24.870  25.686  1.00  0.00     0.200 A 
ATOM     66  F   UNL A   1      44.610  26.698  24.998  1.00  0.00    -0.200 F 
ATOM     67  F   UNL A   1      43.683  24.161  24.622  1.00  0.00    -0.200 F 
ENDBRANCH  43  57
BRANCH  44  68
ATOM     68  C   UNL A   1      39.237  31.882  35.587  1.00  0.00     0.064 A 
ATOM     69  C   UNL A   1      39.693  33.190  35.796  1.00  0.00     0.173 A 
ATOM     70  C   UNL A   1      38.342  31.345  36.524  1.00  0.00     0.173 A 
ATOM     71  F   UNL A   1      40.575  33.735  34.946  1.00  0.00    -0.203 F 
ATOM     72  C   UNL A   1      39.288  33.924  36.911  1.00  0.00     0.198 A 
ATOM     73  C   UNL A   1      37.916  32.088  37.622  1.00  0.00     0.198 A 
ATOM     74  F   UNL A   1      37.884  30.094  36.375  1.00  0.00    -0.203 F 
ATOM     75  F   UNL A   1      39.780  35.152  37.116  1.00  0.00    -0.200 F 
ATOM     76  C   UNL A   1      38.397  33.374  37.819  1.00  0.00     0.200 A 
ATOM     77  F   UNL A   1      37.051  31.554  38.496  1.00  0.00    -0.200 F 
ATOM     78  F   UNL A   1      38.012  34.077  38.893  1.00  0.00    -0.200 F 
ENDBRANCH  44  68
BRANCH  56  79
ATOM     79  C   UNL A   1      44.620  27.542  34.702  1.00  0.00     0.064 A 
ATOM     80  C   UNL A   1      44.530  26.383  35.486  1.00  0.00     0.173 A 
ATOM     81  C   UNL A   1      45.822  28.267  34.736  1.00  0.00     0.173 A 
ATOM     82  F   UNL A   1      43.398  25.664  35.498  1.00  0.00    -0.203 F 
ATOM     83  C   UNL A   1      45.596  25.974  36.283  1.00  0.00     0.198 A 
ATOM     84  C   UNL A   1      46.895  27.841  35.512  1.00  0.00     0.198 A 
ATOM     85  F   UNL A   1      45.961  29.380  33.998  1.00  0.00    -0.203 F 
ATOM     86  F   UNL A   1      45.477  24.882  37.050  1.00  0.00    -0.200 F 
ATOM     87  C   UNL A   1      46.780  26.698  36.288  1.00  0.00     0.200 A 
ATOM     88  F   UNL A   1      48.042  28.534  35.507  1.00  0.00    -0.200 F 
ATOM     89  F   UNL A   1      47.809  26.296  37.046  1.00  0.00    -0.200 F 
ENDBRANCH  56  79
ENDBRANCH  30  31
ENDBRANCH  23  25
ENDBRANCH  22  23
ENDBRANCH   1  22
TORSDOF 13
ENDMDL
MODEL 3
REMARK VINA RESULT:     -11.6      4.278     10.129
REMARK SMILES O=Cc1ccc2c(c1)C=C(C(=O)OCCOC(=O)c1ccc(-c3c4nc(c(-c5c(F)c(F)c(F)c(F)c5F)c5ccc([nH]5)c(-c5c(F)c(F)c(F)c(F)c5F)c5nc(c(-c6c(F)c(F)c(F)c(F)c6F)c6ccc3[nH]6)C=C5)C=C4)cc1)[C@H](C(F)(F)F)O2
REMARK SMILES IDX 15 1 14 2 13 3 11 4 12 5 10 6 3 7 4 8 8 9 5 10 7 11 6 12
REMARK SMILES IDX 9 13 87 14 82 15 2 16 1 17 83 18 84 19 85 20 86 21 16 22
REMARK SMILES IDX 17 23 18 24 19 25 20 26 81 27 21 28 80 29 22 30 23 31 24 32
REMARK SMILES IDX 74 33 25 34 79 35 73 36 75 37 26 38 78 39 72 40 71 41 27 43
REMARK SMILES IDX 59 44 39 45 58 46 40 47 43 48 57 49 76 50 41 51 42 52 56 54
REMARK SMILES IDX 77 55 44 56 28 57 29 58 37 59 30 60 31 61 35 62 38 63 32 64
REMARK SMILES IDX 33 65 36 66 34 67 60 68 61 69 69 70 62 71 63 72 67 73 70 74
REMARK SMILES IDX 64 75 65 76 68 77 66 78 45 79 46 80 54 81 47 82 48 83 52 84
REMARK SMILES IDX 55 85 49 86 50 87 53 88 51 89
REMARK H PARENT 75 42 43 53
REMARK Flexibility Score: inf
ROOT
ATOM      1  C   UNL A   1      31.732  30.021  25.765  1.00  0.00     0.275 C 
ENDROOT
BRANCH   1   2
ATOM      2  C   UNL A   1      31.569  29.068  24.578  1.00  0.00     0.275 C 
BRANCH   2   3
ATOM      3  O   UNL A   1      32.630  28.089  24.527  1.00  0.00    -0.459 OA
BRANCH   3   4
ATOM      4  C   UNL A   1      32.286  26.812  24.834  1.00  0.00     0.338 C 
ATOM      5  O   UNL A   1      31.241  26.473  25.361  1.00  0.00    -0.246 OA
BRANCH   4   6
ATOM      6  C   UNL A   1      33.323  25.844  24.402  1.00  0.00     0.087 C 
ATOM      7  C   UNL A   1      37.101  22.954  25.222  1.00  0.00     0.015 A 
ATOM      8  C   UNL A   1      37.081  22.547  23.884  1.00  0.00     0.015 A 
ATOM      9  C   UNL A   1      36.141  23.851  25.710  1.00  0.00     0.023 A 
ATOM     10  C   UNL A   1      36.082  23.018  23.036  1.00  0.00     0.048 A 
ATOM     11  C   UNL A   1      35.150  24.340  24.851  1.00  0.00     0.018 A 
ATOM     12  C   UNL A   1      35.125  23.909  23.522  1.00  0.00     0.128 A 
ATOM     13  C   UNL A   1      34.119  25.263  25.319  1.00  0.00     0.027 C 
ATOM     14  O   UNL A   1      34.133  24.269  22.657  1.00  0.00    -0.475 OA
ATOM     15  C   UNL A   1      33.484  25.546  22.919  1.00  0.00     0.316 C 
BRANCH   7  16
ATOM     16  C   UNL A   1      38.130  22.418  26.135  1.00  0.00     0.260 C 
ATOM     17  O   UNL A   1      38.956  21.591  25.771  1.00  0.00    -0.298 OA
ENDBRANCH   7  16
BRANCH  15  18
ATOM     18  C   UNL A   1      32.235  25.606  22.015  1.00  0.00     0.430 C 
ATOM     19  F   UNL A   1      32.478  25.115  20.779  1.00  0.00    -0.167 F 
ATOM     20  F   UNL A   1      31.248  24.819  22.524  1.00  0.00    -0.167 F 
ATOM     21  F   UNL A   1      31.726  26.851  21.905  1.00  0.00    -0.167 F 
ENDBRANCH  15  18
ENDBRANCH   4   6
ENDBRANCH   3   4
ENDBRANCH   2   3
ENDBRANCH   1   2
BRANCH   1  22
ATOM     22  O   UNL A   1      33.116  30.342  25.995  1.00  0.00    -0.458 OA
BRANCH  22  23
ATOM     23  C   UNL A   1      33.332  31.312  26.914  1.00  0.00     0.338 C 
ATOM     24  O   UNL A   1      32.554  32.191  27.248  1.00  0.00    -0.246 OA
BRANCH  23  25
ATOM     25  C   UNL A   1      34.608  31.070  27.616  1.00  0.00     0.060 A 
ATOM     26  C   UNL A   1      34.865  29.756  28.022  1.00  0.00     0.016 A 
ATOM     27  C   UNL A   1      35.528  32.084  27.896  1.00  0.00     0.016 A 
ATOM     28  C   UNL A   1      36.061  29.433  28.654  1.00  0.00     0.010 A 
ATOM     29  C   UNL A   1      36.707  31.770  28.583  1.00  0.00     0.010 A 
ATOM     30  C   UNL A   1      36.979  30.443  28.961  1.00  0.00    -0.014 A 
BRANCH  30  31
ATOM     31  C   UNL A   1      38.158  30.120  29.795  1.00  0.00     0.031 A 
ATOM     32  C   UNL A   1      39.179  29.157  29.264  1.00  0.00     0.074 A 
ATOM     33  C   UNL A   1      38.333  30.706  30.991  1.00  0.00     0.049 A 
ATOM     34  N   UNL A   1      40.264  28.698  29.834  1.00  0.00    -0.248 NA
ATOM     35  C   UNL A   1      38.954  28.654  27.900  1.00  0.00     0.031 C 
ATOM     36  C   UNL A   1      37.456  31.721  31.572  1.00  0.00     0.029 A 
ATOM     37  N   UNL A   1      39.313  30.525  31.935  1.00  0.00    -0.354 N 
ATOM     38  C   UNL A   1      40.855  27.864  28.897  1.00  0.00     0.074 A 
ATOM     39  C   UNL A   1      40.005  27.867  27.726  1.00  0.00     0.031 C 
ATOM     40  C   UNL A   1      37.924  32.056  32.787  1.00  0.00     0.029 A 
ATOM     41  C   UNL A   1      39.113  31.256  33.079  1.00  0.00     0.049 A 
ATOM     42  H   UNL A   1      40.086  29.929  31.803  1.00  0.00     0.167 HD
ATOM     43  C   UNL A   1      42.001  27.152  29.007  1.00  0.00     0.037 A 
ATOM     44  C   UNL A   1      39.798  31.250  34.241  1.00  0.00     0.037 A 
ATOM     45  C   UNL A   1      42.820  27.114  30.188  1.00  0.00     0.049 A 
ATOM     46  C   UNL A   1      41.001  30.353  34.382  1.00  0.00     0.074 A 
ATOM     47  C   UNL A   1      43.977  26.391  30.414  1.00  0.00     0.029 A 
ATOM     48  N   UNL A   1      42.556  27.824  31.350  1.00  0.00    -0.354 N 
ATOM     49  N   UNL A   1      41.555  29.561  33.496  1.00  0.00    -0.248 NA
ATOM     50  C   UNL A   1      41.674  30.345  35.690  1.00  0.00     0.031 C 
ATOM     51  C   UNL A   1      44.388  26.627  31.731  1.00  0.00     0.029 A 
ATOM     52  C   UNL A   1      43.515  27.536  32.306  1.00  0.00     0.049 A 
ATOM     53  H   UNL A   1      41.799  28.441  31.476  1.00  0.00     0.167 HD
ATOM     54  C   UNL A   1      42.652  28.988  34.125  1.00  0.00     0.074 A 
ATOM     55  C   UNL A   1      42.692  29.527  35.468  1.00  0.00     0.031 C 
ATOM     56  C   UNL A   1      43.548  28.096  33.633  1.00  0.00     0.037 A 
BRANCH  43  57
ATOM     57  C   UNL A   1      42.399  26.315  27.831  1.00  0.00     0.064 A 
ATOM     58  C   UNL A   1      43.318  26.778  26.877  1.00  0.00     0.173 A 
ATOM     59  C   UNL A   1      41.862  25.032  27.660  1.00  0.00     0.173 A 
ATOM     60  F   UNL A   1      43.842  28.008  26.987  1.00  0.00    -0.203 F 
ATOM     61  C   UNL A   1      43.666  25.993  25.782  1.00  0.00     0.198 A 
ATOM     62  C   UNL A   1      42.230  24.240  26.576  1.00  0.00     0.198 A 
ATOM     63  F   UNL A   1      40.977  24.545  28.543  1.00  0.00    -0.203 F 
ATOM     64  F   UNL A   1      44.512  26.472  24.858  1.00  0.00    -0.200 F 
ATOM     65  C   UNL A   1      43.127  24.724  25.634  1.00  0.00     0.200 A 
ATOM     66  F   UNL A   1      41.711  23.012  26.438  1.00  0.00    -0.200 F 
ATOM     67  F   UNL A   1      43.463  23.969  24.579  1.00  0.00    -0.200 F 
ENDBRANCH  43  57
BRANCH  44  68
ATOM     68  C   UNL A   1      39.346  32.093  35.379  1.00  0.00     0.064 A 
ATOM     69  C   UNL A   1      39.773  33.421  35.512  1.00  0.00     0.173 A 
ATOM     70  C   UNL A   1      38.508  31.573  36.376  1.00  0.00     0.173 A 
ATOM     71  F   UNL A   1      40.602  33.952  34.602  1.00  0.00    -0.203 F 
ATOM     72  C   UNL A   1      39.393  34.191  36.610  1.00  0.00     0.198 A 
ATOM     73  C   UNL A   1      38.107  32.353  37.459  1.00  0.00     0.198 A 
ATOM     74  F   UNL A   1      38.080  30.305  36.300  1.00  0.00    -0.203 F 
ATOM     75  F   UNL A   1      39.858  35.441  36.742  1.00  0.00    -0.200 F 
ATOM     76  C   UNL A   1      38.558  33.658  37.580  1.00  0.00     0.200 A 
ATOM     77  F   UNL A   1      37.296  31.834  38.392  1.00  0.00    -0.200 F 
ATOM     78  F   UNL A   1      38.199  34.397  38.638  1.00  0.00    -0.200 F 
ENDBRANCH  44  68
BRANCH  56  79
ATOM     79  C   UNL A   1      44.677  27.682  34.530  1.00  0.00     0.064 A 
ATOM     80  C   UNL A   1      45.869  28.416  34.604  1.00  0.00     0.173 A 
ATOM     81  C   UNL A   1      44.536  26.568  35.374  1.00  0.00     0.173 A 
ATOM     82  F   UNL A   1      46.055  29.480  33.809  1.00  0.00    -0.203 F 
ATOM     83  C   UNL A   1      46.886  28.042  35.479  1.00  0.00     0.198 A 
ATOM     84  C   UNL A   1      45.544  26.213  36.265  1.00  0.00     0.198 A 
ATOM     85  F   UNL A   1      43.412  25.837  35.347  1.00  0.00    -0.203 F 
ATOM     86  F   UNL A   1      48.031  28.738  35.509  1.00  0.00    -0.200 F 
ATOM     87  C   UNL A   1      46.719  26.946  36.314  1.00  0.00     0.200 A 
ATOM     88  F   UNL A   1      45.377  25.163  37.081  1.00  0.00    -0.200 F 
ATOM     89  F   UNL A   1      47.694  26.596  37.163  1.00  0.00    -0.200 F 
ENDBRANCH  56  79
ENDBRANCH  30  31
ENDBRANCH  23  25
ENDBRANCH  22  23
ENDBRANCH   1  22
TORSDOF 13
ENDMDL
