MODEL 1
REMARK VINA RESULT:     -12.0      0.000      0.000
REMARK SMILES Cc1ccc2c(c1C)O[C@@H](C(=O)OCCOC(=O)c1ccc(-c3c4nc(c(-c5c(F)c(F)c(F)c(F)c5F)c5ccc([nH]5)c(-c5c(F)c(F)c(F)c(F)c5F)c5nc(c(-c6c(F)c(F)c(F)c(F)c6F)c6ccc3[nH]6)C=C5)C=C4)cc1)CC2=O
REMARK SMILES IDX 15 1 14 2 13 3 11 4 12 5 10 6 1 7 2 8 3 9 7 10 4 11 6 12
REMARK SMILES IDX 8 13 5 14 9 15 83 16 82 17 84 18 16 19 17 20 18 21 19 22
REMARK SMILES IDX 20 23 81 24 21 25 80 26 22 27 23 28 24 29 74 30 25 31 79 32
REMARK SMILES IDX 73 33 75 34 26 35 78 36 72 37 71 38 27 40 59 41 39 42 58 43
REMARK SMILES IDX 40 44 43 45 57 46 76 47 41 48 42 49 56 51 77 52 44 53 28 54
REMARK SMILES IDX 29 55 37 56 30 57 31 58 35 59 38 60 32 61 33 62 36 63 34 64
REMARK SMILES IDX 60 65 61 66 69 67 62 68 63 69 67 70 70 71 64 72 65 73 68 74
REMARK SMILES IDX 66 75 45 76 46 77 54 78 47 79 48 80 52 81 55 82 49 83 50 84
REMARK SMILES IDX 53 85 51 86
REMARK H PARENT 75 39 43 50
REMARK Flexibility Score: inf
ROOT
ATOM      1  C   UNL A   1      37.760  20.181  25.084  1.00  0.00     0.275 C 
ENDROOT
BRANCH   1   2
ATOM      2  C   UNL A   1      36.291  20.588  24.970  1.00  0.00     0.274 C 
BRANCH   2   3
ATOM      3  O   UNL A   1      35.855  21.278  26.157  1.00  0.00    -0.459 OA
BRANCH   3   4
ATOM      4  C   UNL A   1      35.294  22.502  25.983  1.00  0.00     0.347 C 
ATOM      5  O   UNL A   1      35.869  23.468  25.492  1.00  0.00    -0.248 OA
BRANCH   4   6
ATOM      6  C   UNL A   1      33.850  22.573  26.504  1.00  0.00     0.290 C 
ATOM      7  C   UNL A   1      32.224  18.302  22.526  1.00  0.00     0.045 C 
ATOM      8  C   UNL A   1      32.319  19.678  23.130  1.00  0.00    -0.044 A 
ATOM      9  C   UNL A   1      32.042  20.788  22.310  1.00  0.00     0.005 A 
ATOM     10  C   UNL A   1      32.700  19.881  24.473  1.00  0.00    -0.005 A 
ATOM     11  C   UNL A   1      32.115  22.085  22.810  1.00  0.00     0.016 A 
ATOM     12  C   UNL A   1      32.778  21.198  24.961  1.00  0.00     0.134 A 
ATOM     13  C   UNL A   1      33.044  18.744  25.401  1.00  0.00     0.049 C 
ATOM     14  C   UNL A   1      32.478  22.285  24.138  1.00  0.00     0.060 A 
ATOM     15  O   UNL A   1      33.140  21.360  26.276  1.00  0.00    -0.477 OA
ATOM     16  C   UNL A   1      32.548  23.652  24.690  1.00  0.00     0.170 C 
ATOM     17  C   UNL A   1      33.041  23.793  26.101  1.00  0.00     0.138 C 
ATOM     18  O   UNL A   1      32.170  24.616  24.031  1.00  0.00    -0.294 OA
ENDBRANCH   4   6
ENDBRANCH   3   4
ENDBRANCH   2   3
ENDBRANCH   1   2
BRANCH   1  19
ATOM     19  O   UNL A   1      38.587  21.313  25.417  1.00  0.00    -0.458 OA
BRANCH  19  20
ATOM     20  C   UNL A   1      39.490  21.092  26.396  1.00  0.00     0.338 C 
ATOM     21  O   UNL A   1      39.910  20.025  26.803  1.00  0.00    -0.246 OA
BRANCH  20  22
ATOM     22  C   UNL A   1      40.023  22.373  26.867  1.00  0.00     0.060 A 
ATOM     23  C   UNL A   1      39.541  23.550  26.286  1.00  0.00     0.016 A 
ATOM     24  C   UNL A   1      41.075  22.402  27.782  1.00  0.00     0.016 A 
ATOM     25  C   UNL A   1      40.127  24.769  26.603  1.00  0.00     0.010 A 
ATOM     26  C   UNL A   1      41.654  23.630  28.111  1.00  0.00     0.010 A 
ATOM     27  C   UNL A   1      41.195  24.814  27.507  1.00  0.00    -0.014 A 
BRANCH  27  28
ATOM     28  C   UNL A   1      41.861  26.103  27.784  1.00  0.00     0.031 A 
ATOM     29  C   UNL A   1      41.141  27.157  28.570  1.00  0.00     0.074 A 
ATOM     30  C   UNL A   1      43.114  26.310  27.343  1.00  0.00     0.049 A 
ATOM     31  N   UNL A   1      41.521  28.375  28.857  1.00  0.00    -0.248 NA
ATOM     32  C   UNL A   1      39.821  26.794  29.107  1.00  0.00     0.031 C 
ATOM     33  C   UNL A   1      43.920  25.333  26.609  1.00  0.00     0.029 A 
ATOM     34  N   UNL A   1      43.925  27.409  27.442  1.00  0.00    -0.354 N 
ATOM     35  C   UNL A   1      40.486  28.926  29.598  1.00  0.00     0.074 A 
ATOM     36  C   UNL A   1      39.453  27.918  29.706  1.00  0.00     0.031 C 
ATOM     37  C   UNL A   1      45.109  25.883  26.315  1.00  0.00     0.029 A 
ATOM     38  C   UNL A   1      45.131  27.258  26.804  1.00  0.00     0.049 A 
ATOM     39  H   UNL A   1      43.667  28.229  27.923  1.00  0.00     0.167 HD
ATOM     40  C   UNL A   1      40.413  30.164  30.141  1.00  0.00     0.037 A 
ATOM     41  C   UNL A   1      46.127  28.143  26.613  1.00  0.00     0.037 A 
ATOM     42  C   UNL A   1      41.449  31.155  30.039  1.00  0.00     0.049 A 
ATOM     43  C   UNL A   1      45.989  29.533  27.171  1.00  0.00     0.074 A 
ATOM     44  C   UNL A   1      41.478  32.431  30.574  1.00  0.00     0.029 A 
ATOM     45  N   UNL A   1      42.642  30.980  29.353  1.00  0.00    -0.354 N 
ATOM     46  N   UNL A   1      45.008  30.047  27.871  1.00  0.00    -0.248 NA
ATOM     47  C   UNL A   1      47.092  30.468  26.905  1.00  0.00     0.031 C 
ATOM     48  C   UNL A   1      42.672  33.042  30.180  1.00  0.00     0.029 A 
ATOM     49  C   UNL A   1      43.403  32.134  29.430  1.00  0.00     0.049 A 
ATOM     50  H   UNL A   1      42.906  30.158  28.881  1.00  0.00     0.167 HD
ATOM     51  C   UNL A   1      45.377  31.357  28.140  1.00  0.00     0.074 A 
ATOM     52  C   UNL A   1      46.680  31.557  27.540  1.00  0.00     0.031 C 
ATOM     53  C   UNL A   1      44.695  32.310  28.820  1.00  0.00     0.037 A 
BRANCH  40  54
ATOM     54  C   UNL A   1      39.165  30.527  30.885  1.00  0.00     0.064 A 
ATOM     55  C   UNL A   1      39.058  30.338  32.270  1.00  0.00     0.173 A 
ATOM     56  C   UNL A   1      38.093  31.135  30.216  1.00  0.00     0.173 A 
ATOM     57  F   UNL A   1      40.052  29.749  32.950  1.00  0.00    -0.203 F 
ATOM     58  C   UNL A   1      37.917  30.744  32.959  1.00  0.00     0.198 A 
ATOM     59  C   UNL A   1      36.962  31.555  30.910  1.00  0.00     0.198 A 
ATOM     60  F   UNL A   1      38.152  31.338  28.891  1.00  0.00    -0.203 F 
ATOM     61  F   UNL A   1      37.826  30.538  34.280  1.00  0.00    -0.200 F 
ATOM     62  C   UNL A   1      36.875  31.358  32.280  1.00  0.00     0.200 A 
ATOM     63  F   UNL A   1      35.959  32.156  30.255  1.00  0.00    -0.200 F 
ATOM     64  F   UNL A   1      35.784  31.760  32.947  1.00  0.00    -0.200 F 
ENDBRANCH  40  54
BRANCH  41  65
ATOM     65  C   UNL A   1      47.325  27.742  25.837  1.00  0.00     0.064 A 
ATOM     66  C   UNL A   1      47.323  27.775  24.437  1.00  0.00     0.173 A 
ATOM     67  C   UNL A   1      48.502  27.332  26.481  1.00  0.00     0.173 A 
ATOM     68  F   UNL A   1      46.212  28.139  23.778  1.00  0.00    -0.203 F 
ATOM     69  C   UNL A   1      48.451  27.406  23.708  1.00  0.00     0.198 A 
ATOM     70  C   UNL A   1      49.637  26.985  25.752  1.00  0.00     0.198 A 
ATOM     71  F   UNL A   1      48.553  27.283  27.820  1.00  0.00    -0.203 F 
ATOM     72  F   UNL A   1      48.414  27.416  22.368  1.00  0.00    -0.200 F 
ATOM     73  C   UNL A   1      49.609  27.018  24.365  1.00  0.00     0.200 A 
ATOM     74  F   UNL A   1      50.756  26.621  26.392  1.00  0.00    -0.200 F 
ATOM     75  F   UNL A   1      50.696  26.669  23.663  1.00  0.00    -0.200 F 
ENDBRANCH  41  65
BRANCH  53  76
ATOM     76  C   UNL A   1      45.344  33.653  28.958  1.00  0.00     0.064 A 
ATOM     77  C   UNL A   1      46.239  33.923  30.003  1.00  0.00     0.173 A 
ATOM     78  C   UNL A   1      45.127  34.652  27.998  1.00  0.00     0.173 A 
ATOM     79  F   UNL A   1      46.465  33.002  30.951  1.00  0.00    -0.203 F 
ATOM     80  C   UNL A   1      46.888  35.150  30.086  1.00  0.00     0.198 A 
ATOM     81  C   UNL A   1      45.795  35.871  28.072  1.00  0.00     0.198 A 
ATOM     82  F   UNL A   1      44.285  34.436  26.976  1.00  0.00    -0.203 F 
ATOM     83  F   UNL A   1      47.721  35.398  31.107  1.00  0.00    -0.200 F 
ATOM     84  C   UNL A   1      46.673  36.119  29.117  1.00  0.00     0.200 A 
ATOM     85  F   UNL A   1      45.594  36.801  27.129  1.00  0.00    -0.200 F 
ATOM     86  F   UNL A   1      47.310  37.296  29.191  1.00  0.00    -0.200 F 
ENDBRANCH  53  76
ENDBRANCH  27  28
ENDBRANCH  20  22
ENDBRANCH  19  20
ENDBRANCH   1  19
TORSDOF 11
ENDMDL
MODEL 2
REMARK VINA RESULT:     -12.0      4.679      9.857
REMARK SMILES Cc1ccc2c(c1C)O[C@@H](C(=O)OCCOC(=O)c1ccc(-c3c4nc(c(-c5c(F)c(F)c(F)c(F)c5F)c5ccc([nH]5)c(-c5c(F)c(F)c(F)c(F)c5F)c5nc(c(-c6c(F)c(F)c(F)c(F)c6F)c6ccc3[nH]6)C=C5)C=C4)cc1)CC2=O
REMARK SMILES IDX 15 1 14 2 13 3 11 4 12 5 10 6 1 7 2 8 3 9 7 10 4 11 6 12
REMARK SMILES IDX 8 13 5 14 9 15 83 16 82 17 84 18 16 19 17 20 18 21 19 22
REMARK SMILES IDX 20 23 81 24 21 25 80 26 22 27 23 28 24 29 74 30 25 31 79 32
REMARK SMILES IDX 73 33 75 34 26 35 78 36 72 37 71 38 27 40 59 41 39 42 58 43
REMARK SMILES IDX 40 44 43 45 57 46 76 47 41 48 42 49 56 51 77 52 44 53 28 54
REMARK SMILES IDX 29 55 37 56 30 57 31 58 35 59 38 60 32 61 33 62 36 63 34 64
REMARK SMILES IDX 60 65 61 66 69 67 62 68 63 69 67 70 70 71 64 72 65 73 68 74
REMARK SMILES IDX 66 75 45 76 46 77 54 78 47 79 48 80 52 81 55 82 49 83 50 84
REMARK SMILES IDX 53 85 51 86
REMARK H PARENT 75 39 43 50
REMARK Flexibility Score: inf
ROOT
ATOM      1  C   UNL A   1      31.827  30.441  25.740  1.00  0.00     0.275 C 
ENDROOT
BRANCH   1   2
ATOM      2  C   UNL A   1      32.401  29.310  24.885  1.00  0.00     0.274 C 
BRANCH   2   3
ATOM      3  O   UNL A   1      31.346  28.501  24.329  1.00  0.00    -0.459 OA
BRANCH   3   4
ATOM      4  C   UNL A   1      31.074  27.331  24.963  1.00  0.00     0.347 C 
ATOM      5  O   UNL A   1      31.045  27.188  26.181  1.00  0.00    -0.248 OA
BRANCH   4   6
ATOM      6  C   UNL A   1      30.834  26.169  23.986  1.00  0.00     0.290 C 
ATOM      7  C   UNL A   1      34.231  22.563  27.473  1.00  0.00     0.045 C 
ATOM      8  C   UNL A   1      33.869  23.404  26.279  1.00  0.00    -0.044 A 
ATOM      9  C   UNL A   1      34.904  23.853  25.438  1.00  0.00     0.005 A 
ATOM     10  C   UNL A   1      32.535  23.773  26.000  1.00  0.00    -0.005 A 
ATOM     11  C   UNL A   1      34.633  24.637  24.320  1.00  0.00     0.016 A 
ATOM     12  C   UNL A   1      32.278  24.572  24.871  1.00  0.00     0.134 A 
ATOM     13  C   UNL A   1      31.378  23.359  26.871  1.00  0.00     0.049 C 
ATOM     14  C   UNL A   1      33.317  24.989  24.037  1.00  0.00     0.060 A 
ATOM     15  O   UNL A   1      30.969  24.902  24.621  1.00  0.00    -0.477 OA
ATOM     16  C   UNL A   1      33.008  25.807  22.849  1.00  0.00     0.170 C 
ATOM     17  C   UNL A   1      31.579  26.228  22.664  1.00  0.00     0.138 C 
ATOM     18  O   UNL A   1      33.881  26.082  22.031  1.00  0.00    -0.294 OA
ENDBRANCH   4   6
ENDBRANCH   3   4
ENDBRANCH   2   3
ENDBRANCH   1   2
BRANCH   1  19
ATOM     19  O   UNL A   1      32.475  30.499  27.025  1.00  0.00    -0.458 OA
BRANCH  19  20
ATOM     20  C   UNL A   1      33.180  31.627  27.258  1.00  0.00     0.338 C 
ATOM     21  O   UNL A   1      32.812  32.781  27.140  1.00  0.00    -0.246 OA
BRANCH  20  22
ATOM     22  C   UNL A   1      34.492  31.278  27.810  1.00  0.00     0.060 A 
ATOM     23  C   UNL A   1      34.722  29.954  28.196  1.00  0.00     0.016 A 
ATOM     24  C   UNL A   1      35.437  32.273  28.058  1.00  0.00     0.016 A 
ATOM     25  C   UNL A   1      35.897  29.620  28.857  1.00  0.00     0.010 A 
ATOM     26  C   UNL A   1      36.625  31.933  28.709  1.00  0.00     0.010 A 
ATOM     27  C   UNL A   1      36.849  30.610  29.128  1.00  0.00    -0.014 A 
BRANCH  27  28
ATOM     28  C   UNL A   1      38.063  30.262  29.895  1.00  0.00     0.031 A 
ATOM     29  C   UNL A   1      39.084  29.345  29.293  1.00  0.00     0.074 A 
ATOM     30  C   UNL A   1      38.247  30.788  31.118  1.00  0.00     0.049 A 
ATOM     31  N   UNL A   1      40.176  28.863  29.826  1.00  0.00    -0.248 NA
ATOM     32  C   UNL A   1      38.849  28.914  27.906  1.00  0.00     0.031 C 
ATOM     33  C   UNL A   1      37.337  31.726  31.776  1.00  0.00     0.029 A 
ATOM     34  N   UNL A   1      39.256  30.603  32.026  1.00  0.00    -0.354 N 
ATOM     35  C   UNL A   1      40.753  28.067  28.847  1.00  0.00     0.074 A 
ATOM     36  C   UNL A   1      39.885  28.115  27.690  1.00  0.00     0.031 C 
ATOM     37  C   UNL A   1      37.826  32.027  32.990  1.00  0.00     0.029 A 
ATOM     38  C   UNL A   1      39.058  31.274  33.207  1.00  0.00     0.049 A 
ATOM     39  H   UNL A   1      40.046  30.042  31.849  1.00  0.00     0.167 HD
ATOM     40  C   UNL A   1      41.907  27.364  28.914  1.00  0.00     0.037 A 
ATOM     41  C   UNL A   1      39.777  31.257  34.344  1.00  0.00     0.037 A 
ATOM     42  C   UNL A   1      42.770  27.330  30.064  1.00  0.00     0.049 A 
ATOM     43  C   UNL A   1      41.020  30.413  34.412  1.00  0.00     0.074 A 
ATOM     44  C   UNL A   1      43.973  26.665  30.221  1.00  0.00     0.029 A 
ATOM     45  N   UNL A   1      42.518  27.993  31.257  1.00  0.00    -0.354 N 
ATOM     46  N   UNL A   1      41.560  29.664  33.483  1.00  0.00    -0.248 NA
ATOM     47  C   UNL A   1      41.750  30.406  35.688  1.00  0.00     0.031 C 
ATOM     48  C   UNL A   1      44.431  26.894  31.522  1.00  0.00     0.029 A 
ATOM     49  C   UNL A   1      43.531  27.731  32.164  1.00  0.00     0.049 A 
ATOM     50  H   UNL A   1      41.735  28.563  31.432  1.00  0.00     0.167 HD
ATOM     51  C   UNL A   1      42.695  29.105  34.054  1.00  0.00     0.074 A 
ATOM     52  C   UNL A   1      42.775  29.614  35.408  1.00  0.00     0.031 C 
ATOM     53  C   UNL A   1      43.587  28.245  33.507  1.00  0.00     0.037 A 
BRANCH  40  54
ATOM     54  C   UNL A   1      42.304  26.557  27.717  1.00  0.00     0.064 A 
ATOM     55  C   UNL A   1      43.234  27.040  26.785  1.00  0.00     0.173 A 
ATOM     56  C   UNL A   1      41.802  25.260  27.538  1.00  0.00     0.173 A 
ATOM     57  F   UNL A   1      43.733  28.279  26.908  1.00  0.00    -0.203 F 
ATOM     58  C   UNL A   1      43.644  26.251  25.713  1.00  0.00     0.198 A 
ATOM     59  C   UNL A   1      42.227  24.469  26.475  1.00  0.00     0.198 A 
ATOM     60  F   UNL A   1      40.910  24.756  28.405  1.00  0.00    -0.203 F 
ATOM     61  F   UNL A   1      44.521  26.737  24.823  1.00  0.00    -0.200 F 
ATOM     62  C   UNL A   1      43.146  24.965  25.563  1.00  0.00     0.200 A 
ATOM     63  F   UNL A   1      41.752  23.223  26.336  1.00  0.00    -0.200 F 
ATOM     64  F   UNL A   1      43.554  24.203  24.539  1.00  0.00    -0.200 F 
ENDBRANCH  40  54
BRANCH  41  65
ATOM     65  C   UNL A   1      39.319  32.046  35.514  1.00  0.00     0.064 A 
ATOM     66  C   UNL A   1      39.723  33.375  35.691  1.00  0.00     0.173 A 
ATOM     67  C   UNL A   1      38.457  31.489  36.471  1.00  0.00     0.173 A 
ATOM     68  F   UNL A   1      40.565  33.941  34.814  1.00  0.00    -0.203 F 
ATOM     69  C   UNL A   1      39.287  34.118  36.786  1.00  0.00     0.198 A 
ATOM     70  C   UNL A   1      38.004  32.239  37.552  1.00  0.00     0.198 A 
ATOM     71  F   UNL A   1      38.045  30.220  36.344  1.00  0.00    -0.203 F 
ATOM     72  F   UNL A   1      39.712  35.378  36.950  1.00  0.00    -0.200 F 
ATOM     73  C   UNL A   1      38.422  33.552  37.712  1.00  0.00     0.200 A 
ATOM     74  F   UNL A   1      37.161  31.692  38.438  1.00  0.00    -0.200 F 
ATOM     75  F   UNL A   1      37.998  34.269  38.761  1.00  0.00    -0.200 F 
ENDBRANCH  41  65
BRANCH  53  76
ATOM     76  C   UNL A   1      44.732  27.803  34.366  1.00  0.00     0.064 A 
ATOM     77  C   UNL A   1      45.911  28.555  34.447  1.00  0.00     0.173 A 
ATOM     78  C   UNL A   1      44.619  26.660  35.171  1.00  0.00     0.173 A 
ATOM     79  F   UNL A   1      46.068  29.648  33.685  1.00  0.00    -0.203 F 
ATOM     80  C   UNL A   1      46.944  28.174  35.298  1.00  0.00     0.198 A 
ATOM     81  C   UNL A   1      45.644  26.293  36.038  1.00  0.00     0.198 A 
ATOM     82  F   UNL A   1      43.504  25.913  35.132  1.00  0.00    -0.203 F 
ATOM     83  F   UNL A   1      48.074  28.892  35.342  1.00  0.00    -0.200 F 
ATOM     84  C   UNL A   1      46.806  27.048  36.099  1.00  0.00     0.200 A 
ATOM     85  F   UNL A   1      45.505  25.213  36.818  1.00  0.00    -0.200 F 
ATOM     86  F   UNL A   1      47.795  26.690  36.928  1.00  0.00    -0.200 F 
ENDBRANCH  53  76
ENDBRANCH  27  28
ENDBRANCH  20  22
ENDBRANCH  19  20
ENDBRANCH   1  19
TORSDOF 11
ENDMDL
MODEL 3
REMARK VINA RESULT:     -12.0      4.805      9.902
REMARK SMILES Cc1ccc2c(c1C)O[C@@H](C(=O)OCCOC(=O)c1ccc(-c3c4nc(c(-c5c(F)c(F)c(F)c(F)c5F)c5ccc([nH]5)c(-c5c(F)c(F)c(F)c(F)c5F)c5nc(c(-c6c(F)c(F)c(F)c(F)c6F)c6ccc3[nH]6)C=C5)C=C4)cc1)CC2=O
REMARK SMILES IDX 15 1 14 2 13 3 11 4 12 5 10 6 1 7 2 8 3 9 7 10 4 11 6 12
REMARK SMILES IDX 8 13 5 14 9 15 83 16 82 17 84 18 16 19 17 20 18 21 19 22
REMARK SMILES IDX 20 23 81 24 21 25 80 26 22 27 23 28 24 29 74 30 25 31 79 32
REMARK SMILES IDX 73 33 75 34 26 35 78 36 72 37 71 38 27 40 59 41 39 42 58 43
REMARK SMILES IDX 40 44 43 45 57 46 76 47 41 48 42 49 56 51 77 52 44 53 28 54
REMARK SMILES IDX 29 55 37 56 30 57 31 58 35 59 38 60 32 61 33 62 36 63 34 64
REMARK SMILES IDX 60 65 61 66 69 67 62 68 63 69 67 70 70 71 64 72 65 73 68 74
REMARK SMILES IDX 66 75 45 76 46 77 54 78 47 79 48 80 52 81 55 82 49 83 50 84
REMARK SMILES IDX 53 85 51 86
REMARK H PARENT 75 39 43 50
REMARK Flexibility Score: inf
ROOT
ATOM      1  C   UNL A   1      31.776  30.518  25.997  1.00  0.00     0.275 C 
ENDROOT
BRANCH   1   2
ATOM      2  C   UNL A   1      31.402  29.411  25.011  1.00  0.00     0.274 C 
BRANCH   2   3
ATOM      3  O   UNL A   1      32.557  28.626  24.657  1.00  0.00    -0.459 OA
BRANCH   3   4
ATOM      4  C   UNL A   1      32.646  28.214  23.366  1.00  0.00     0.347 C 
ATOM      5  O   UNL A   1      33.448  28.655  22.548  1.00  0.00    -0.248 OA
BRANCH   4   6
ATOM      6  C   UNL A   1      31.599  27.147  23.010  1.00  0.00     0.290 C 
ATOM      7  C   UNL A   1      34.459  23.179  26.585  1.00  0.00     0.045 C 
ATOM      8  C   UNL A   1      33.990  23.808  25.301  1.00  0.00    -0.044 A 
ATOM      9  C   UNL A   1      34.672  23.488  24.112  1.00  0.00     0.005 A 
ATOM     10  C   UNL A   1      32.915  24.721  25.264  1.00  0.00    -0.005 A 
ATOM     11  C   UNL A   1      34.288  24.040  22.893  1.00  0.00     0.016 A 
ATOM     12  C   UNL A   1      32.544  25.277  24.026  1.00  0.00     0.134 A 
ATOM     13  C   UNL A   1      32.159  25.138  26.499  1.00  0.00     0.049 C 
ATOM     14  C   UNL A   1      33.219  24.930  22.854  1.00  0.00     0.060 A 
ATOM     15  O   UNL A   1      31.486  26.152  24.023  1.00  0.00    -0.477 OA
ATOM     16  C   UNL A   1      32.788  25.515  21.570  1.00  0.00     0.170 C 
ATOM     17  C   UNL A   1      31.693  26.541  21.622  1.00  0.00     0.138 C 
ATOM     18  O   UNL A   1      33.278  25.135  20.511  1.00  0.00    -0.294 OA
ENDBRANCH   4   6
ENDBRANCH   3   4
ENDBRANCH   2   3
ENDBRANCH   1   2
BRANCH   1  19
ATOM     19  O   UNL A   1      33.135  30.370  26.450  1.00  0.00    -0.458 OA
BRANCH  19  20
ATOM     20  C   UNL A   1      33.605  31.398  27.190  1.00  0.00     0.338 C 
ATOM     21  O   UNL A   1      33.056  32.454  27.442  1.00  0.00    -0.246 OA
BRANCH  20  22
ATOM     22  C   UNL A   1      34.892  31.024  27.785  1.00  0.00     0.060 A 
ATOM     23  C   UNL A   1      35.059  29.714  28.242  1.00  0.00     0.016 A 
ATOM     24  C   UNL A   1      35.873  31.991  28.001  1.00  0.00     0.016 A 
ATOM     25  C   UNL A   1      36.207  29.366  28.942  1.00  0.00     0.010 A 
ATOM     26  C   UNL A   1      37.033  31.637  28.691  1.00  0.00     0.010 A 
ATOM     27  C   UNL A   1      37.195  30.329  29.181  1.00  0.00    -0.014 A 
BRANCH  27  28
ATOM     28  C   UNL A   1      38.380  29.972  29.988  1.00  0.00     0.031 A 
ATOM     29  C   UNL A   1      39.398  29.023  29.433  1.00  0.00     0.074 A 
ATOM     30  C   UNL A   1      38.541  30.518  31.206  1.00  0.00     0.049 A 
ATOM     31  N   UNL A   1      40.465  28.529  30.006  1.00  0.00    -0.248 NA
ATOM     32  C   UNL A   1      39.192  28.569  28.048  1.00  0.00     0.031 C 
ATOM     33  C   UNL A   1      37.633  31.488  31.820  1.00  0.00     0.029 A 
ATOM     34  N   UNL A   1      39.520  30.331  32.146  1.00  0.00    -0.354 N 
ATOM     35  C   UNL A   1      41.051  27.702  29.059  1.00  0.00     0.074 A 
ATOM     36  C   UNL A   1      40.217  27.746  27.878  1.00  0.00     0.031 C 
ATOM     37  C   UNL A   1      38.094  31.802  33.042  1.00  0.00     0.029 A 
ATOM     38  C   UNL A   1      39.304  31.029  33.308  1.00  0.00     0.049 A 
ATOM     39  H   UNL A   1      40.303  29.750  32.002  1.00  0.00     0.167 HD
ATOM     40  C   UNL A   1      42.189  26.977  29.172  1.00  0.00     0.037 A 
ATOM     41  C   UNL A   1      39.991  31.020  34.464  1.00  0.00     0.037 A 
ATOM     42  C   UNL A   1      43.018  26.949  30.346  1.00  0.00     0.049 A 
ATOM     43  C   UNL A   1      41.214  30.153  34.583  1.00  0.00     0.074 A 
ATOM     44  C   UNL A   1      44.202  26.263  30.550  1.00  0.00     0.029 A 
ATOM     45  N   UNL A   1      42.747  27.640  31.518  1.00  0.00    -0.354 N 
ATOM     46  N   UNL A   1      41.763  29.374  33.684  1.00  0.00    -0.248 NA
ATOM     47  C   UNL A   1      41.907  30.156  35.879  1.00  0.00     0.031 C 
ATOM     48  C   UNL A   1      44.629  26.508  31.858  1.00  0.00     0.029 A 
ATOM     49  C   UNL A   1      43.729  27.376  32.458  1.00  0.00     0.049 A 
ATOM     50  H   UNL A   1      41.972  28.229  31.660  1.00  0.00     0.167 HD
ATOM     51  C   UNL A   1      42.869  28.804  34.297  1.00  0.00     0.074 A 
ATOM     52  C   UNL A   1      42.923  29.338  35.643  1.00  0.00     0.031 C 
ATOM     53  C   UNL A   1      43.759  27.916  33.792  1.00  0.00     0.037 A 
BRANCH  40  54
ATOM     54  C   UNL A   1      42.601  26.140  28.002  1.00  0.00     0.064 A 
ATOM     55  C   UNL A   1      42.057  24.866  27.786  1.00  0.00     0.173 A 
ATOM     56  C   UNL A   1      43.497  26.646  27.048  1.00  0.00     0.173 A 
ATOM     57  F   UNL A   1      41.206  24.335  28.676  1.00  0.00    -0.203 F 
ATOM     58  C   UNL A   1      42.398  24.126  26.656  1.00  0.00     0.198 A 
ATOM     59  C   UNL A   1      43.822  25.911  25.912  1.00  0.00     0.198 A 
ATOM     60  F   UNL A   1      44.042  27.861  27.212  1.00  0.00    -0.203 F 
ATOM     61  F   UNL A   1      41.881  22.903  26.477  1.00  0.00    -0.200 F 
ATOM     62  C   UNL A   1      43.275  24.652  25.718  1.00  0.00     0.200 A 
ATOM     63  F   UNL A   1      44.662  26.423  25.002  1.00  0.00    -0.200 F 
ATOM     64  F   UNL A   1      43.591  23.944  24.625  1.00  0.00    -0.200 F 
ENDBRANCH  40  54
BRANCH  41  65
ATOM     65  C   UNL A   1      39.517  31.840  35.605  1.00  0.00     0.064 A 
ATOM     66  C   UNL A   1      39.996  33.141  35.808  1.00  0.00     0.173 A 
ATOM     67  C   UNL A   1      38.565  31.345  36.509  1.00  0.00     0.173 A 
ATOM     68  F   UNL A   1      40.925  33.648  34.982  1.00  0.00    -0.203 F 
ATOM     69  C   UNL A   1      39.546  33.914  36.875  1.00  0.00     0.198 A 
ATOM     70  C   UNL A   1      38.098  32.126  37.562  1.00  0.00     0.198 A 
ATOM     71  F   UNL A   1      38.077  30.105  36.357  1.00  0.00    -0.203 F 
ATOM     72  F   UNL A   1      40.043  35.144  37.065  1.00  0.00    -0.200 F 
ATOM     73  C   UNL A   1      38.592  33.409  37.747  1.00  0.00     0.200 A 
ATOM     74  F   UNL A   1      37.170  31.639  38.396  1.00  0.00    -0.200 F 
ATOM     75  F   UNL A   1      38.155  34.156  38.770  1.00  0.00    -0.200 F 
ENDBRANCH  41  65
BRANCH  53  76
ATOM     76  C   UNL A   1      44.870  27.467  34.692  1.00  0.00     0.064 A 
ATOM     77  C   UNL A   1      46.061  28.198  34.793  1.00  0.00     0.173 A 
ATOM     78  C   UNL A   1      44.711  26.341  35.512  1.00  0.00     0.173 A 
ATOM     79  F   UNL A   1      46.260  29.274  34.017  1.00  0.00    -0.203 F 
ATOM     80  C   UNL A   1      47.061  27.813  35.680  1.00  0.00     0.198 A 
ATOM     81  C   UNL A   1      45.705  25.970  36.415  1.00  0.00     0.198 A 
ATOM     82  F   UNL A   1      43.585  25.615  35.454  1.00  0.00    -0.203 F 
ATOM     83  F   UNL A   1      48.203  28.510  35.744  1.00  0.00    -0.200 F 
ATOM     84  C   UNL A   1      46.879  26.704  36.496  1.00  0.00     0.200 A 
ATOM     85  F   UNL A   1      45.523  24.907  37.209  1.00  0.00    -0.200 F 
ATOM     86  F   UNL A   1      47.836  26.342  37.359  1.00  0.00    -0.200 F 
ENDBRANCH  53  76
ENDBRANCH  27  28
ENDBRANCH  20  22
ENDBRANCH  19  20
ENDBRANCH   1  19
TORSDOF 11
ENDMDL
