MODEL 1
REMARK VINA RESULT:     -13.4      0.000      0.000
REMARK SMILES Nc1ccc(-c2cc(Cl)cc3c2O[C@H](C(F)(F)F)C(C(=O)OCCOC(=O)c2ccc(-c4c5nc(c(-c6c(F)c(F)c(F)c(F)c6F)c6ccc([nH]6)c(-c6c(F)c(F)c(F)c(F)c6F)c6nc(c(-c7c(F)c(F)c(F)c(F)c7F)c7ccc4[nH]7)C=C6)C=C5)cc2)=C3)cc1
REMARK SMILES IDX 23 1 22 2 20 3 21 4 19 5 6 6 7 7 12 8 8 9 11 10 13 11 9 12
REMARK SMILES IDX 10 13 91 14 14 15 5 16 2 17 3 18 93 19 4 20 92 21 1 22 15 25
REMARK SMILES IDX 16 26 17 27 18 28 24 29 25 30 26 31 27 32 28 33 29 34 90 35
REMARK SMILES IDX 30 36 89 37 31 38 32 39 33 40 83 41 34 42 88 43 82 44 84 45
REMARK SMILES IDX 35 46 87 47 81 48 80 49 36 51 68 52 48 53 67 54 49 55 52 56
REMARK SMILES IDX 66 57 85 58 50 59 51 60 65 62 86 63 53 64 37 65 38 66 46 67
REMARK SMILES IDX 39 68 40 69 44 70 47 71 41 72 42 73 45 74 43 75 69 76 70 77
REMARK SMILES IDX 78 78 71 79 72 80 76 81 79 82 73 83 74 84 77 85 75 86 54 87
REMARK SMILES IDX 55 88 63 89 56 90 57 91 61 92 64 93 58 94 59 95 62 96 60 97
REMARK H PARENT 1 23 1 24 84 50 52 61
REMARK Flexibility Score: inf
ROOT
ATOM      1  C   UNL A   1      31.270  28.865  24.893  1.00  0.00     0.275 C 
ENDROOT
BRANCH   1   2
ATOM      2  O   UNL A   1      32.186  27.892  25.444  1.00  0.00    -0.459 OA
BRANCH   2   3
ATOM      3  C   UNL A   1      31.624  26.891  26.161  1.00  0.00     0.338 C 
ATOM      4  O   UNL A   1      30.652  26.973  26.894  1.00  0.00    -0.246 OA
BRANCH   3   5
ATOM      5  C   UNL A   1      32.327  25.620  25.899  1.00  0.00     0.087 C 
ATOM      6  C   UNL A   1      34.388  22.123  24.832  1.00  0.00     0.026 A 
ATOM      7  C   UNL A   1      35.784  22.091  25.006  1.00  0.00     0.033 A 
ATOM      8  C   UNL A   1      33.683  23.274  25.240  1.00  0.00     0.135 A 
ATOM      9  C   UNL A   1      36.456  23.175  25.564  1.00  0.00     0.042 A 
ATOM     10  C   UNL A   1      34.372  24.371  25.761  1.00  0.00     0.019 A 
ATOM     11  O   UNL A   1      32.315  23.251  25.141  1.00  0.00    -0.475 OA
ATOM     12  Cl  UNL A   1      38.164  23.113  25.773  1.00  0.00    -0.084 Cl
ATOM     13  C   UNL A   1      35.759  24.317  25.937  1.00  0.00     0.032 A 
ATOM     14  C   UNL A   1      33.651  25.582  26.090  1.00  0.00     0.027 C 
ATOM     15  C   UNL A   1      31.553  24.472  25.322  1.00  0.00     0.316 C 
BRANCH   6  16
ATOM     16  C   UNL A   1      33.705  20.985  24.198  1.00  0.00    -0.014 A 
ATOM     17  C   UNL A   1      32.446  18.778  22.954  1.00  0.00     0.031 A 
ATOM     18  C   UNL A   1      33.326  18.585  24.016  1.00  0.00     0.026 A 
ATOM     19  C   UNL A   1      32.152  20.084  22.556  1.00  0.00     0.026 A 
ATOM     20  C   UNL A   1      33.955  19.673  24.627  1.00  0.00     0.011 A 
ATOM     21  C   UNL A   1      32.782  21.176  23.162  1.00  0.00     0.011 A 
BRANCH  17  22
ATOM     22  N   UNL A   1      31.778  17.703  22.390  1.00  0.00    -0.399 N 
ATOM     23  H   UNL A   1      30.944  17.374  22.797  1.00  0.00     0.156 HD
ATOM     24  H   UNL A   1      32.137  17.269  21.583  1.00  0.00     0.156 HD
ENDBRANCH  17  22
ENDBRANCH   6  16
BRANCH  15  25
ATOM     25  C   UNL A   1      30.916  24.854  23.976  1.00  0.00     0.430 C 
ATOM     26  F   UNL A   1      31.757  25.599  23.220  1.00  0.00    -0.167 F 
ATOM     27  F   UNL A   1      30.602  23.759  23.244  1.00  0.00    -0.167 F 
ATOM     28  F   UNL A   1      29.779  25.570  24.140  1.00  0.00    -0.167 F 
ENDBRANCH  15  25
ENDBRANCH   3   5
ENDBRANCH   2   3
ENDBRANCH   1   2
BRANCH   1  29
ATOM     29  C   UNL A   1      31.566  30.266  25.428  1.00  0.00     0.275 C 
BRANCH  29  30
ATOM     30  O   UNL A   1      32.924  30.336  25.898  1.00  0.00    -0.458 OA
BRANCH  30  31
ATOM     31  C   UNL A   1      33.166  31.237  26.876  1.00  0.00     0.338 C 
ATOM     32  O   UNL A   1      32.429  32.116  27.283  1.00  0.00    -0.246 OA
BRANCH  31  33
ATOM     33  C   UNL A   1      34.477  30.951  27.478  1.00  0.00     0.060 A 
ATOM     34  C   UNL A   1      35.359  31.969  27.816  1.00  0.00     0.016 A 
ATOM     35  C   UNL A   1      34.764  29.637  27.828  1.00  0.00     0.016 A 
ATOM     36  C   UNL A   1      36.547  31.643  28.485  1.00  0.00     0.010 A 
ATOM     37  C   UNL A   1      35.867  29.335  28.619  1.00  0.00     0.010 A 
ATOM     38  C   UNL A   1      36.802  30.328  28.925  1.00  0.00    -0.014 A 
BRANCH  38  39
ATOM     39  C   UNL A   1      38.039  29.983  29.684  1.00  0.00     0.031 A 
ATOM     40  C   UNL A   1      38.246  30.469  31.101  1.00  0.00     0.074 A 
ATOM     41  C   UNL A   1      39.008  29.259  29.087  1.00  0.00     0.049 A 
ATOM     42  N   UNL A   1      39.255  30.251  31.912  1.00  0.00    -0.248 NA
ATOM     43  C   UNL A   1      37.215  31.351  31.672  1.00  0.00     0.031 C 
ATOM     44  C   UNL A   1      38.996  28.820  27.691  1.00  0.00     0.029 A 
ATOM     45  N   UNL A   1      40.182  28.747  29.584  1.00  0.00    -0.354 N 
ATOM     46  C   UNL A   1      38.989  30.989  33.060  1.00  0.00     0.074 A 
ATOM     47  C   UNL A   1      37.767  31.720  32.817  1.00  0.00     0.031 C 
ATOM     48  C   UNL A   1      40.061  28.034  27.467  1.00  0.00     0.029 A 
ATOM     49  C   UNL A   1      40.851  27.944  28.691  1.00  0.00     0.049 A 
ATOM     50  H   UNL A   1      40.513  28.937  30.491  1.00  0.00     0.167 HD
ATOM     51  C   UNL A   1      39.670  31.020  34.230  1.00  0.00     0.037 A 
ATOM     52  C   UNL A   1      41.958  27.194  28.848  1.00  0.00     0.037 A 
ATOM     53  C   UNL A   1      40.842  30.234  34.503  1.00  0.00     0.049 A 
ATOM     54  C   UNL A   1      42.652  27.175  30.182  1.00  0.00     0.074 A 
ATOM     55  C   UNL A   1      41.551  30.123  35.686  1.00  0.00     0.029 A 
ATOM     56  N   UNL A   1      41.466  29.406  33.582  1.00  0.00    -0.354 N 
ATOM     57  N   UNL A   1      42.342  27.814  31.283  1.00  0.00    -0.248 NA
ATOM     58  C   UNL A   1      43.847  26.327  30.296  1.00  0.00     0.031 C 
ATOM     59  C   UNL A   1      42.619  29.245  35.474  1.00  0.00     0.029 A 
ATOM     60  C   UNL A   1      42.554  28.784  34.170  1.00  0.00     0.049 A 
ATOM     61  H   UNL A   1      41.178  29.279  32.649  1.00  0.00     0.167 HD
ATOM     62  C   UNL A   1      43.291  27.437  32.222  1.00  0.00     0.074 A 
ATOM     63  C   UNL A   1      44.176  26.496  31.569  1.00  0.00     0.031 C 
ATOM     64  C   UNL A   1      43.420  27.843  33.508  1.00  0.00     0.037 A 
BRANCH  51  65
ATOM     65  C   UNL A   1      39.137  31.896  35.328  1.00  0.00     0.064 A 
ATOM     66  C   UNL A   1      38.337  31.372  36.357  1.00  0.00     0.173 A 
ATOM     67  C   UNL A   1      39.472  33.258  35.389  1.00  0.00     0.173 A 
ATOM     68  F   UNL A   1      37.983  30.078  36.342  1.00  0.00    -0.203 F 
ATOM     69  C   UNL A   1      37.868  32.184  37.386  1.00  0.00     0.198 A 
ATOM     70  C   UNL A   1      39.026  34.059  36.438  1.00  0.00     0.198 A 
ATOM     71  F   UNL A   1      40.243  33.808  34.440  1.00  0.00    -0.203 F 
ATOM     72  F   UNL A   1      37.069  31.669  38.330  1.00  0.00    -0.200 F 
ATOM     73  C   UNL A   1      38.220  33.523  37.431  1.00  0.00     0.200 A 
ATOM     74  F   UNL A   1      39.381  35.350  36.489  1.00  0.00    -0.200 F 
ATOM     75  F   UNL A   1      37.778  34.300  38.429  1.00  0.00    -0.200 F 
ENDBRANCH  51  65
BRANCH  52  76
ATOM     76  C   UNL A   1      42.423  26.331  27.732  1.00  0.00     0.064 A 
ATOM     77  C   UNL A   1      41.839  25.076  27.513  1.00  0.00     0.173 A 
ATOM     78  C   UNL A   1      43.422  26.751  26.843  1.00  0.00     0.173 A 
ATOM     79  F   UNL A   1      40.891  24.624  28.348  1.00  0.00    -0.203 F 
ATOM     80  C   UNL A   1      42.243  24.269  26.451  1.00  0.00     0.198 A 
ATOM     81  C   UNL A   1      43.809  25.954  25.767  1.00  0.00     0.198 A 
ATOM     82  F   UNL A   1      44.005  27.948  27.004  1.00  0.00    -0.203 F 
ATOM     83  F   UNL A   1      41.687  23.062  26.282  1.00  0.00    -0.200 F 
ATOM     84  C   UNL A   1      43.221  24.712  25.575  1.00  0.00     0.200 A 
ATOM     85  F   UNL A   1      44.743  26.391  24.912  1.00  0.00    -0.200 F 
ATOM     86  F   UNL A   1      43.599  23.941  24.545  1.00  0.00    -0.200 F 
ENDBRANCH  52  76
BRANCH  64  87
ATOM     87  C   UNL A   1      44.551  27.269  34.306  1.00  0.00     0.064 A 
ATOM     88  C   UNL A   1      44.454  26.003  34.900  1.00  0.00     0.173 A 
ATOM     89  C   UNL A   1      45.770  27.956  34.409  1.00  0.00     0.173 A 
ATOM     90  F   UNL A   1      43.305  25.314  34.837  1.00  0.00    -0.203 F 
ATOM     91  C   UNL A   1      45.535  25.449  35.580  1.00  0.00     0.198 A 
ATOM     92  C   UNL A   1      46.856  27.389  35.069  1.00  0.00     0.198 A 
ATOM     93  F   UNL A   1      45.913  29.167  33.850  1.00  0.00    -0.203 F 
ATOM     94  F   UNL A   1      45.412  24.249  36.165  1.00  0.00    -0.200 F 
ATOM     95  C   UNL A   1      46.737  26.138  35.656  1.00  0.00     0.200 A 
ATOM     96  F   UNL A   1      48.021  28.049  35.130  1.00  0.00    -0.200 F 
ATOM     97  F   UNL A   1      47.781  25.595  36.296  1.00  0.00    -0.200 F 
ENDBRANCH  64  87
ENDBRANCH  38  39
ENDBRANCH  31  33
ENDBRANCH  30  31
ENDBRANCH  29  30
ENDBRANCH   1  29
TORSDOF 14
ENDMDL
MODEL 2
REMARK VINA RESULT:     -13.4      0.202      1.287
REMARK SMILES Nc1ccc(-c2cc(Cl)cc3c2O[C@H](C(F)(F)F)C(C(=O)OCCOC(=O)c2ccc(-c4c5nc(c(-c6c(F)c(F)c(F)c(F)c6F)c6ccc([nH]6)c(-c6c(F)c(F)c(F)c(F)c6F)c6nc(c(-c7c(F)c(F)c(F)c(F)c7F)c7ccc4[nH]7)C=C6)C=C5)cc2)=C3)cc1
REMARK SMILES IDX 23 1 22 2 20 3 21 4 19 5 6 6 7 7 12 8 8 9 11 10 13 11 9 12
REMARK SMILES IDX 10 13 91 14 14 15 5 16 2 17 3 18 93 19 4 20 92 21 1 22 15 25
REMARK SMILES IDX 16 26 17 27 18 28 24 29 25 30 26 31 27 32 28 33 29 34 90 35
REMARK SMILES IDX 30 36 89 37 31 38 32 39 33 40 83 41 34 42 88 43 82 44 84 45
REMARK SMILES IDX 35 46 87 47 81 48 80 49 36 51 68 52 48 53 67 54 49 55 52 56
REMARK SMILES IDX 66 57 85 58 50 59 51 60 65 62 86 63 53 64 37 65 38 66 46 67
REMARK SMILES IDX 39 68 40 69 44 70 47 71 41 72 42 73 45 74 43 75 69 76 70 77
REMARK SMILES IDX 78 78 71 79 72 80 76 81 79 82 73 83 74 84 77 85 75 86 54 87
REMARK SMILES IDX 55 88 63 89 56 90 57 91 61 92 64 93 58 94 59 95 62 96 60 97
REMARK H PARENT 1 23 1 24 84 50 52 61
REMARK Flexibility Score: inf
ROOT
ATOM      1  C   UNL A   1      31.245  28.831  24.832  1.00  0.00     0.275 C 
ENDROOT
BRANCH   1   2
ATOM      2  O   UNL A   1      32.189  27.855  25.327  1.00  0.00    -0.459 OA
BRANCH   2   3
ATOM      3  C   UNL A   1      31.676  26.887  26.120  1.00  0.00     0.338 C 
ATOM      4  O   UNL A   1      30.744  26.996  26.900  1.00  0.00    -0.246 OA
BRANCH   3   5
ATOM      5  C   UNL A   1      32.376  25.609  25.882  1.00  0.00     0.087 C 
ATOM      6  C   UNL A   1      34.432  22.090  24.879  1.00  0.00     0.026 A 
ATOM      7  C   UNL A   1      35.826  22.053  25.071  1.00  0.00     0.033 A 
ATOM      8  C   UNL A   1      33.728  23.249  25.266  1.00  0.00     0.135 A 
ATOM      9  C   UNL A   1      36.496  23.140  25.626  1.00  0.00     0.042 A 
ATOM     10  C   UNL A   1      34.416  24.348  25.783  1.00  0.00     0.019 A 
ATOM     11  O   UNL A   1      32.361  23.232  25.148  1.00  0.00    -0.475 OA
ATOM     12  Cl  UNL A   1      38.200  23.072  25.859  1.00  0.00    -0.084 Cl
ATOM     13  C   UNL A   1      35.800  24.290  25.978  1.00  0.00     0.032 A 
ATOM     14  C   UNL A   1      33.696  25.567  26.090  1.00  0.00     0.027 C 
ATOM     15  C   UNL A   1      31.603  24.458  25.307  1.00  0.00     0.316 C 
BRANCH   6  16
ATOM     16  C   UNL A   1      33.752  20.949  24.248  1.00  0.00    -0.014 A 
ATOM     17  C   UNL A   1      32.391  18.772  23.061  1.00  0.00     0.031 A 
ATOM     18  C   UNL A   1      32.149  20.076  22.635  1.00  0.00     0.026 A 
ATOM     19  C   UNL A   1      33.361  18.557  24.042  1.00  0.00     0.026 A 
ATOM     20  C   UNL A   1      32.814  21.153  23.226  1.00  0.00     0.011 A 
ATOM     21  C   UNL A   1      34.027  19.632  24.638  1.00  0.00     0.011 A 
BRANCH  17  22
ATOM     22  N   UNL A   1      31.774  17.702  22.434  1.00  0.00    -0.399 N 
ATOM     23  H   UNL A   1      32.226  17.241  21.689  1.00  0.00     0.156 HD
ATOM     24  H   UNL A   1      30.885  17.402  22.731  1.00  0.00     0.156 HD
ENDBRANCH  17  22
ENDBRANCH   6  16
BRANCH  15  25
ATOM     25  C   UNL A   1      30.986  24.830  23.948  1.00  0.00     0.430 C 
ATOM     26  F   UNL A   1      30.621  23.730  23.248  1.00  0.00    -0.167 F 
ATOM     27  F   UNL A   1      29.870  25.584  24.097  1.00  0.00    -0.167 F 
ATOM     28  F   UNL A   1      31.848  25.533  23.177  1.00  0.00    -0.167 F 
ENDBRANCH  15  25
ENDBRANCH   3   5
ENDBRANCH   2   3
ENDBRANCH   1   2
BRANCH   1  29
ATOM     29  C   UNL A   1      31.488  30.204  25.461  1.00  0.00     0.275 C 
BRANCH  29  30
ATOM     30  O   UNL A   1      32.858  30.313  25.886  1.00  0.00    -0.458 OA
BRANCH  30  31
ATOM     31  C   UNL A   1      33.108  31.233  26.845  1.00  0.00     0.338 C 
ATOM     32  O   UNL A   1      32.368  32.111  27.251  1.00  0.00    -0.246 OA
BRANCH  31  33
ATOM     33  C   UNL A   1      34.432  30.971  27.427  1.00  0.00     0.060 A 
ATOM     34  C   UNL A   1      35.286  32.006  27.786  1.00  0.00     0.016 A 
ATOM     35  C   UNL A   1      34.764  29.658  27.737  1.00  0.00     0.016 A 
ATOM     36  C   UNL A   1      36.489  31.700  28.436  1.00  0.00     0.010 A 
ATOM     37  C   UNL A   1      35.883  29.368  28.509  1.00  0.00     0.010 A 
ATOM     38  C   UNL A   1      36.789  30.381  28.836  1.00  0.00    -0.014 A 
BRANCH  38  39
ATOM     39  C   UNL A   1      38.044  30.054  29.574  1.00  0.00     0.031 A 
ATOM     40  C   UNL A   1      38.266  30.539  30.989  1.00  0.00     0.074 A 
ATOM     41  C   UNL A   1      39.015  29.348  28.959  1.00  0.00     0.049 A 
ATOM     42  N   UNL A   1      39.290  30.334  31.783  1.00  0.00    -0.248 NA
ATOM     43  C   UNL A   1      37.230  31.402  31.579  1.00  0.00     0.031 C 
ATOM     44  C   UNL A   1      38.987  28.913  27.562  1.00  0.00     0.029 A 
ATOM     45  N   UNL A   1      40.205  28.853  29.435  1.00  0.00    -0.354 N 
ATOM     46  C   UNL A   1      39.031  31.064  32.937  1.00  0.00     0.074 A 
ATOM     47  C   UNL A   1      37.794  31.776  32.717  1.00  0.00     0.031 C 
ATOM     48  C   UNL A   1      40.062  28.145  27.318  1.00  0.00     0.029 A 
ATOM     49  C   UNL A   1      40.872  28.064  28.529  1.00  0.00     0.049 A 
ATOM     50  H   UNL A   1      40.547  29.045  30.337  1.00  0.00     0.167 HD
ATOM     51  C   UNL A   1      39.730  31.102  34.097  1.00  0.00     0.037 A 
ATOM     52  C   UNL A   1      41.994  27.331  28.666  1.00  0.00     0.037 A 
ATOM     53  C   UNL A   1      40.919  30.334  34.349  1.00  0.00     0.049 A 
ATOM     54  C   UNL A   1      42.709  27.320  29.988  1.00  0.00     0.074 A 
ATOM     55  C   UNL A   1      41.649  30.231  35.520  1.00  0.00     0.029 A 
ATOM     56  N   UNL A   1      41.541  29.519  33.414  1.00  0.00    -0.354 N 
ATOM     57  N   UNL A   1      42.406  27.950  31.096  1.00  0.00    -0.248 NA
ATOM     58  C   UNL A   1      43.920  26.490  30.080  1.00  0.00     0.031 C 
ATOM     59  C   UNL A   1      42.727  29.372  35.288  1.00  0.00     0.029 A 
ATOM     60  C   UNL A   1      42.649  28.913  33.983  1.00  0.00     0.049 A 
ATOM     61  H   UNL A   1      41.241  29.391  32.486  1.00  0.00     0.167 HD
ATOM     62  C   UNL A   1      43.376  27.585  32.018  1.00  0.00     0.074 A 
ATOM     63  C   UNL A   1      44.266  26.661  31.349  1.00  0.00     0.031 C 
ATOM     64  C   UNL A   1      43.519  27.989  33.305  1.00  0.00     0.037 A 
BRANCH  51  65
ATOM     65  C   UNL A   1      39.200  31.966  35.207  1.00  0.00     0.064 A 
ATOM     66  C   UNL A   1      38.446  31.422  36.259  1.00  0.00     0.173 A 
ATOM     67  C   UNL A   1      39.494  33.337  35.253  1.00  0.00     0.173 A 
ATOM     68  F   UNL A   1      38.133  30.117  36.259  1.00  0.00    -0.203 F 
ATOM     69  C   UNL A   1      37.981  32.223  37.298  1.00  0.00     0.198 A 
ATOM     70  C   UNL A   1      39.053  34.129  36.311  1.00  0.00     0.198 A 
ATOM     71  F   UNL A   1      40.221  33.908  34.281  1.00  0.00    -0.203 F 
ATOM     72  F   UNL A   1      37.225  31.687  38.266  1.00  0.00    -0.200 F 
ATOM     73  C   UNL A   1      38.291  33.573  37.328  1.00  0.00     0.200 A 
ATOM     74  F   UNL A   1      39.368  35.431  36.348  1.00  0.00    -0.200 F 
ATOM     75  F   UNL A   1      37.854  34.339  38.336  1.00  0.00    -0.200 F 
ENDBRANCH  51  65
BRANCH  52  76
ATOM     76  C   UNL A   1      42.455  26.480  27.539  1.00  0.00     0.064 A 
ATOM     77  C   UNL A   1      43.468  26.928  26.679  1.00  0.00     0.173 A 
ATOM     78  C   UNL A   1      41.931  25.199  27.320  1.00  0.00     0.173 A 
ATOM     79  F   UNL A   1      43.987  28.154  26.839  1.00  0.00    -0.203 F 
ATOM     80  C   UNL A   1      43.933  26.129  25.637  1.00  0.00     0.198 A 
ATOM     81  C   UNL A   1      42.414  24.391  26.292  1.00  0.00     0.198 A 
ATOM     82  F   UNL A   1      40.967  24.722  28.121  1.00  0.00    -0.203 F 
ATOM     83  F   UNL A   1      44.882  26.593  24.813  1.00  0.00    -0.200 F 
ATOM     84  C   UNL A   1      43.412  24.859  25.449  1.00  0.00     0.200 A 
ATOM     85  F   UNL A   1      41.919  23.158  26.123  1.00  0.00    -0.200 F 
ATOM     86  F   UNL A   1      43.870  24.085  24.456  1.00  0.00    -0.200 F 
ENDBRANCH  52  76
BRANCH  64  87
ATOM     87  C   UNL A   1      44.672  27.431  34.082  1.00  0.00     0.064 A 
ATOM     88  C   UNL A   1      44.563  26.217  34.774  1.00  0.00     0.173 A 
ATOM     89  C   UNL A   1      45.918  28.075  34.068  1.00  0.00     0.173 A 
ATOM     90  F   UNL A   1      43.389  25.571  34.823  1.00  0.00    -0.203 F 
ATOM     91  C   UNL A   1      45.660  25.672  35.436  1.00  0.00     0.198 A 
ATOM     92  C   UNL A   1      47.019  27.515  34.711  1.00  0.00     0.198 A 
ATOM     93  F   UNL A   1      46.072  29.235  33.413  1.00  0.00    -0.203 F 
ATOM     94  F   UNL A   1      45.528  24.524  36.114  1.00  0.00    -0.200 F 
ATOM     95  C   UNL A   1      46.888  26.316  35.396  1.00  0.00     0.200 A 
ATOM     96  F   UNL A   1      48.207  28.132  34.660  1.00  0.00    -0.200 F 
ATOM     97  F   UNL A   1      47.946  25.781  36.019  1.00  0.00    -0.200 F 
ENDBRANCH  64  87
ENDBRANCH  38  39
ENDBRANCH  31  33
ENDBRANCH  30  31
ENDBRANCH  29  30
ENDBRANCH   1  29
TORSDOF 14
ENDMDL
MODEL 3
REMARK VINA RESULT:     -13.0      4.327      9.625
REMARK SMILES Nc1ccc(-c2cc(Cl)cc3c2O[C@H](C(F)(F)F)C(C(=O)OCCOC(=O)c2ccc(-c4c5nc(c(-c6c(F)c(F)c(F)c(F)c6F)c6ccc([nH]6)c(-c6c(F)c(F)c(F)c(F)c6F)c6nc(c(-c7c(F)c(F)c(F)c(F)c7F)c7ccc4[nH]7)C=C6)C=C5)cc2)=C3)cc1
REMARK SMILES IDX 23 1 22 2 20 3 21 4 19 5 6 6 7 7 12 8 8 9 11 10 13 11 9 12
REMARK SMILES IDX 10 13 91 14 14 15 5 16 2 17 3 18 93 19 4 20 92 21 1 22 15 25
REMARK SMILES IDX 16 26 17 27 18 28 24 29 25 30 26 31 27 32 28 33 29 34 90 35
REMARK SMILES IDX 30 36 89 37 31 38 32 39 33 40 83 41 34 42 88 43 82 44 84 45
REMARK SMILES IDX 35 46 87 47 81 48 80 49 36 51 68 52 48 53 67 54 49 55 52 56
REMARK SMILES IDX 66 57 85 58 50 59 51 60 65 62 86 63 53 64 37 65 38 66 46 67
REMARK SMILES IDX 39 68 40 69 44 70 47 71 41 72 42 73 45 74 43 75 69 76 70 77
REMARK SMILES IDX 78 78 71 79 72 80 76 81 79 82 73 83 74 84 77 85 75 86 54 87
REMARK SMILES IDX 55 88 63 89 56 90 57 91 61 92 64 93 58 94 59 95 62 96 60 97
REMARK H PARENT 1 23 1 24 84 50 52 61
REMARK Flexibility Score: inf
ROOT
ATOM      1  C   UNL A   1      36.098  22.797  23.768  1.00  0.00     0.275 C 
ENDROOT
BRANCH   1   2
ATOM      2  O   UNL A   1      34.692  22.676  23.456  1.00  0.00    -0.459 OA
BRANCH   2   3
ATOM      3  C   UNL A   1      33.837  22.941  24.471  1.00  0.00     0.338 C 
ATOM      4  O   UNL A   1      33.477  22.171  25.346  1.00  0.00    -0.246 OA
BRANCH   3   5
ATOM      5  C   UNL A   1      33.412  24.354  24.422  1.00  0.00     0.087 C 
ATOM      6  C   UNL A   1      31.961  28.291  24.525  1.00  0.00     0.026 A 
ATOM      7  C   UNL A   1      32.508  29.180  25.469  1.00  0.00     0.033 A 
ATOM      8  C   UNL A   1      32.483  26.983  24.448  1.00  0.00     0.135 A 
ATOM      9  C   UNL A   1      33.539  28.775  26.313  1.00  0.00     0.042 A 
ATOM     10  C   UNL A   1      33.488  26.576  25.327  1.00  0.00     0.019 A 
ATOM     11  O   UNL A   1      31.994  26.161  23.465  1.00  0.00    -0.475 OA
ATOM     12  Cl  UNL A   1      34.198  29.880  27.456  1.00  0.00    -0.084 Cl
ATOM     13  C   UNL A   1      34.028  27.477  26.251  1.00  0.00     0.032 A 
ATOM     14  C   UNL A   1      33.952  25.204  25.302  1.00  0.00     0.027 C 
ATOM     15  C   UNL A   1      32.315  24.746  23.476  1.00  0.00     0.316 C 
BRANCH   6  16
ATOM     16  C   UNL A   1      30.842  28.726  23.676  1.00  0.00    -0.014 A 
ATOM     17  C   UNL A   1      28.693  29.620  22.068  1.00  0.00     0.031 A 
ATOM     18  C   UNL A   1      29.989  30.072  21.833  1.00  0.00     0.026 A 
ATOM     19  C   UNL A   1      28.486  28.673  23.072  1.00  0.00     0.026 A 
ATOM     20  C   UNL A   1      31.051  29.638  22.631  1.00  0.00     0.011 A 
ATOM     21  C   UNL A   1      29.545  28.238  23.876  1.00  0.00     0.011 A 
BRANCH  17  22
ATOM     22  N   UNL A   1      27.653  30.005  21.238  1.00  0.00    -0.399 N 
ATOM     23  H   UNL A   1      26.760  30.180  21.617  1.00  0.00     0.156 HD
ATOM     24  H   UNL A   1      27.805  30.104  20.271  1.00  0.00     0.156 HD
ENDBRANCH  17  22
ENDBRANCH   6  16
BRANCH  15  25
ATOM     25  C   UNL A   1      31.028  23.956  23.764  1.00  0.00     0.430 C 
ATOM     26  F   UNL A   1      29.933  24.594  23.286  1.00  0.00    -0.167 F 
ATOM     27  F   UNL A   1      31.052  22.734  23.179  1.00  0.00    -0.167 F 
ATOM     28  F   UNL A   1      30.838  23.765  25.090  1.00  0.00    -0.167 F 
ENDBRANCH  15  25
ENDBRANCH   3   5
ENDBRANCH   2   3
ENDBRANCH   1   2
BRANCH   1  29
ATOM     29  C   UNL A   1      36.650  21.496  24.349  1.00  0.00     0.275 C 
BRANCH  29  30
ATOM     30  O   UNL A   1      37.113  21.716  25.694  1.00  0.00    -0.458 OA
BRANCH  30  31
ATOM     31  C   UNL A   1      38.408  21.410  25.931  1.00  0.00     0.338 C 
ATOM     32  O   UNL A   1      38.993  20.374  25.670  1.00  0.00    -0.246 OA
BRANCH  31  33
ATOM     33  C   UNL A   1      39.082  22.585  26.501  1.00  0.00     0.060 A 
ATOM     34  C   UNL A   1      40.267  22.468  27.216  1.00  0.00     0.016 A 
ATOM     35  C   UNL A   1      38.576  23.843  26.196  1.00  0.00     0.016 A 
ATOM     36  C   UNL A   1      40.921  23.632  27.643  1.00  0.00     0.010 A 
ATOM     37  C   UNL A   1      39.299  24.993  26.491  1.00  0.00     0.010 A 
ATOM     38  C   UNL A   1      40.464  24.910  27.258  1.00  0.00    -0.014 A 
BRANCH  38  39
ATOM     39  C   UNL A   1      41.183  26.153  27.665  1.00  0.00     0.031 A 
ATOM     40  C   UNL A   1      42.597  26.423  27.201  1.00  0.00     0.074 A 
ATOM     41  C   UNL A   1      40.581  27.033  28.491  1.00  0.00     0.049 A 
ATOM     42  N   UNL A   1      43.365  27.458  27.447  1.00  0.00    -0.248 NA
ATOM     43  C   UNL A   1      43.256  25.382  26.396  1.00  0.00     0.031 C 
ATOM     44  C   UNL A   1      39.266  26.849  29.107  1.00  0.00     0.029 A 
ATOM     45  N   UNL A   1      40.985  28.267  28.938  1.00  0.00    -0.354 N 
ATOM     46  C   UNL A   1      44.591  27.173  26.856  1.00  0.00     0.074 A 
ATOM     47  C   UNL A   1      44.494  25.842  26.306  1.00  0.00     0.031 C 
ATOM     48  C   UNL A   1      38.935  27.963  29.779  1.00  0.00     0.029 A 
ATOM     49  C   UNL A   1      40.027  28.925  29.672  1.00  0.00     0.049 A 
ATOM     50  H   UNL A   1      41.874  28.644  28.751  1.00  0.00     0.167 HD
ATOM     51  C   UNL A   1      45.684  27.963  26.737  1.00  0.00     0.037 A 
ATOM     52  C   UNL A   1      40.016  30.173  30.177  1.00  0.00     0.037 A 
ATOM     53  C   UNL A   1      45.757  29.318  27.215  1.00  0.00     0.049 A 
ATOM     54  C   UNL A   1      41.206  31.066  29.961  1.00  0.00     0.074 A 
ATOM     55  C   UNL A   1      46.784  30.233  27.063  1.00  0.00     0.029 A 
ATOM     56  N   UNL A   1      44.750  29.958  27.922  1.00  0.00    -0.354 N 
ATOM     57  N   UNL A   1      42.326  30.811  29.329  1.00  0.00    -0.248 NA
ATOM     58  C   UNL A   1      41.129  32.422  30.523  1.00  0.00     0.031 C 
ATOM     59  C   UNL A   1      46.408  31.421  27.699  1.00  0.00     0.029 A 
ATOM     60  C   UNL A   1      45.134  31.255  28.217  1.00  0.00     0.049 A 
ATOM     61  H   UNL A   1      43.891  29.550  28.177  1.00  0.00     0.167 HD
ATOM     62  C   UNL A   1      43.079  31.973  29.405  1.00  0.00     0.074 A 
ATOM     63  C   UNL A   1      42.282  32.944  30.125  1.00  0.00     0.031 C 
ATOM     64  C   UNL A   1      44.325  32.210  28.927  1.00  0.00     0.037 A 
BRANCH  51  65
ATOM     65  C   UNL A   1      46.879  27.405  26.017  1.00  0.00     0.064 A 
ATOM     66  C   UNL A   1      47.044  27.579  24.633  1.00  0.00     0.173 A 
ATOM     67  C   UNL A   1      47.896  26.740  26.719  1.00  0.00     0.173 A 
ATOM     68  F   UNL A   1      46.098  28.203  23.914  1.00  0.00    -0.203 F 
ATOM     69  C   UNL A   1      48.166  27.082  23.977  1.00  0.00     0.198 A 
ATOM     70  C   UNL A   1      49.031  26.271  26.062  1.00  0.00     0.198 A 
ATOM     71  F   UNL A   1      47.795  26.556  28.044  1.00  0.00    -0.203 F 
ATOM     72  F   UNL A   1      48.278  27.221  22.648  1.00  0.00    -0.200 F 
ATOM     73  C   UNL A   1      49.162  26.436  24.691  1.00  0.00     0.200 A 
ATOM     74  F   UNL A   1      50.002  25.662  26.757  1.00  0.00    -0.200 F 
ATOM     75  F   UNL A   1      50.248  25.970  24.059  1.00  0.00    -0.200 F 
ENDBRANCH  51  65
BRANCH  52  76
ATOM     76  C   UNL A   1      38.797  30.676  30.860  1.00  0.00     0.064 A 
ATOM     77  C   UNL A   1      37.705  31.142  30.114  1.00  0.00     0.173 A 
ATOM     78  C   UNL A   1      38.678  30.667  32.257  1.00  0.00     0.173 A 
ATOM     79  F   UNL A   1      37.780  31.185  28.775  1.00  0.00    -0.203 F 
ATOM     80  C   UNL A   1      36.543  31.587  30.739  1.00  0.00     0.198 A 
ATOM     81  C   UNL A   1      37.505  31.091  32.881  1.00  0.00     0.198 A 
ATOM     82  F   UNL A   1      39.691  30.223  33.014  1.00  0.00    -0.203 F 
ATOM     83  F   UNL A   1      35.525  32.052  30.003  1.00  0.00    -0.200 F 
ATOM     84  C   UNL A   1      36.441  31.553  32.121  1.00  0.00     0.200 A 
ATOM     85  F   UNL A   1      37.404  31.042  34.215  1.00  0.00    -0.200 F 
ATOM     86  F   UNL A   1      35.317  31.969  32.722  1.00  0.00    -0.200 F 
ENDBRANCH  52  76
BRANCH  64  87
ATOM     87  C   UNL A   1      44.907  33.572  29.154  1.00  0.00     0.064 A 
ATOM     88  C   UNL A   1      45.714  33.841  30.268  1.00  0.00     0.173 A 
ATOM     89  C   UNL A   1      44.721  34.593  28.210  1.00  0.00     0.173 A 
ATOM     90  F   UNL A   1      45.912  32.900  31.203  1.00  0.00    -0.203 F 
ATOM     91  C   UNL A   1      46.307  35.090  30.435  1.00  0.00     0.198 A 
ATOM     92  C   UNL A   1      45.334  35.832  28.368  1.00  0.00     0.198 A 
ATOM     93  F   UNL A   1      43.962  34.379  27.125  1.00  0.00    -0.203 F 
ATOM     94  F   UNL A   1      47.053  35.336  31.520  1.00  0.00    -0.200 F 
ATOM     95  C   UNL A   1      46.124  36.081  29.480  1.00  0.00     0.200 A 
ATOM     96  F   UNL A   1      45.167  36.783  27.438  1.00  0.00    -0.200 F 
ATOM     97  F   UNL A   1      46.709  37.276  29.634  1.00  0.00    -0.200 F 
ENDBRANCH  64  87
ENDBRANCH  38  39
ENDBRANCH  31  33
ENDBRANCH  30  31
ENDBRANCH  29  30
ENDBRANCH   1  29
TORSDOF 14
ENDMDL
