MODEL 1
REMARK VINA RESULT:     -11.1      0.000      0.000
REMARK SMILES O=C(OCCOC(=O)[C@@H]1CS[C@H](c2ncc(-c3ccccc3)s2)[NH2+]1)c1ccc(-c2c3nc(c(-c4c(F)c(F)c(F)c(F)c4F)c4ccc([nH]4)c(-c4c(F)c(F)c(F)c(F)c4F)c4nc(c(-c5c(F)c(F)c(F)c(F)c5F)c5ccc2[nH]5)C=C4)C=C3)cc1
REMARK SMILES IDX 4 1 3 2 2 3 1 4 25 5 26 6 87 7 27 8 86 9 28 10 29 11 30 12
REMARK SMILES IDX 80 13 31 14 85 15 79 16 81 17 32 18 84 19 78 20 77 21 33 23
REMARK SMILES IDX 65 24 45 25 64 26 46 27 49 28 63 29 82 30 47 31 48 32 62 34
REMARK SMILES IDX 83 35 50 36 34 37 35 38 43 39 36 40 37 41 41 42 44 43 38 44
REMARK SMILES IDX 39 45 42 46 40 47 66 48 67 49 75 50 68 51 69 52 73 53 76 54
REMARK SMILES IDX 70 55 71 56 74 57 72 58 51 59 52 60 60 61 53 62 54 63 58 64
REMARK SMILES IDX 61 65 55 66 56 67 59 68 57 69 5 70 6 71 7 72 8 73 9 74 10 75
REMARK SMILES IDX 24 76 11 77 12 78 13 81 14 82 23 83 15 84 16 85 17 86 18 87
REMARK SMILES IDX 22 88 19 89 21 90 20 91
REMARK H PARENT 81 22 49 33 24 79 24 80
REMARK Flexibility Score: inf
ROOT
ATOM      1  C   UNL A   1      34.264  32.935  28.152  1.00  0.00     0.275 C 
ENDROOT
BRANCH   1   2
ATOM      2  O   UNL A   1      33.978  31.545  28.409  1.00  0.00    -0.458 OA
BRANCH   2   3
ATOM      3  C   UNL A   1      34.620  30.424  28.001  1.00  0.00     0.338 C 
ATOM      4  O   UNL A   1      33.972  29.549  27.430  1.00  0.00    -0.246 OA
BRANCH   3   5
ATOM      5  C   UNL A   1      36.032  30.094  28.376  1.00  0.00     0.060 A 
ATOM      6  C   UNL A   1      36.462  29.620  29.617  1.00  0.00     0.016 A 
ATOM      7  C   UNL A   1      36.990  30.194  27.344  1.00  0.00     0.016 A 
ATOM      8  C   UNL A   1      37.757  29.124  29.792  1.00  0.00     0.010 A 
ATOM      9  C   UNL A   1      38.290  29.703  27.513  1.00  0.00     0.010 A 
ATOM     10  C   UNL A   1      38.670  29.141  28.737  1.00  0.00    -0.014 A 
BRANCH  10  11
ATOM     11  C   UNL A   1      40.065  28.720  28.984  1.00  0.00     0.031 A 
ATOM     12  C   UNL A   1      40.971  29.694  29.669  1.00  0.00     0.074 A 
ATOM     13  C   UNL A   1      40.493  27.485  28.658  1.00  0.00     0.049 A 
ATOM     14  N   UNL A   1      42.218  29.550  30.028  1.00  0.00    -0.248 NA
ATOM     15  C   UNL A   1      40.382  30.995  30.030  1.00  0.00     0.031 C 
ATOM     16  C   UNL A   1      39.663  26.425  28.092  1.00  0.00     0.029 A 
ATOM     17  N   UNL A   1      41.736  26.911  28.751  1.00  0.00    -0.354 N 
ATOM     18  C   UNL A   1      42.551  30.727  30.680  1.00  0.00     0.074 A 
ATOM     19  C   UNL A   1      41.398  31.596  30.627  1.00  0.00     0.031 C 
ATOM     20  C   UNL A   1      40.431  25.357  27.813  1.00  0.00     0.029 A 
ATOM     21  C   UNL A   1      41.805  25.650  28.207  1.00  0.00     0.049 A 
ATOM     22  H   UNL A   1      42.507  27.362  29.167  1.00  0.00     0.167 HD
ATOM     23  C   UNL A   1      43.713  31.040  31.294  1.00  0.00     0.037 A 
ATOM     24  C   UNL A   1      42.865  24.833  28.048  1.00  0.00     0.037 A 
ATOM     25  C   UNL A   1      44.857  30.172  31.324  1.00  0.00     0.049 A 
ATOM     26  C   UNL A   1      44.192  25.271  28.619  1.00  0.00     0.074 A 
ATOM     27  C   UNL A   1      46.084  30.385  31.919  1.00  0.00     0.029 A 
ATOM     28  N   UNL A   1      44.913  28.929  30.709  1.00  0.00    -0.354 N 
ATOM     29  N   UNL A   1      44.481  26.358  29.294  1.00  0.00    -0.248 NA
ATOM     30  C   UNL A   1      45.332  24.362  28.434  1.00  0.00     0.031 C 
ATOM     31  C   UNL A   1      46.907  29.298  31.611  1.00  0.00     0.029 A 
ATOM     32  C   UNL A   1      46.173  28.382  30.872  1.00  0.00     0.049 A 
ATOM     33  H   UNL A   1      44.167  28.500  30.230  1.00  0.00     0.167 HD
ATOM     34  C   UNL A   1      45.819  26.246  29.648  1.00  0.00     0.074 A 
ATOM     35  C   UNL A   1      46.281  24.977  29.124  1.00  0.00     0.031 C 
ATOM     36  C   UNL A   1      46.597  27.109  30.344  1.00  0.00     0.037 A 
BRANCH  23  37
ATOM     37  C   UNL A   1      43.804  32.384  31.944  1.00  0.00     0.064 A 
ATOM     38  C   UNL A   1      44.174  33.528  31.221  1.00  0.00     0.173 A 
ATOM     39  C   UNL A   1      43.510  32.530  33.306  1.00  0.00     0.173 A 
ATOM     40  F   UNL A   1      44.493  33.433  29.921  1.00  0.00    -0.203 F 
ATOM     41  C   UNL A   1      44.260  34.770  31.845  1.00  0.00     0.198 A 
ATOM     42  C   UNL A   1      43.574  33.777  33.922  1.00  0.00     0.198 A 
ATOM     43  F   UNL A   1      43.163  31.464  34.042  1.00  0.00    -0.203 F 
ATOM     44  F   UNL A   1      44.658  35.843  31.147  1.00  0.00    -0.200 F 
ATOM     45  C   UNL A   1      43.952  34.895  33.192  1.00  0.00     0.200 A 
ATOM     46  F   UNL A   1      43.274  33.896  35.221  1.00  0.00    -0.200 F 
ATOM     47  F   UNL A   1      44.033  36.091  33.790  1.00  0.00    -0.200 F 
ENDBRANCH  23  37
BRANCH  24  48
ATOM     48  C   UNL A   1      42.740  23.539  27.319  1.00  0.00     0.064 A 
ATOM     49  C   UNL A   1      42.252  22.385  27.948  1.00  0.00     0.173 A 
ATOM     50  C   UNL A   1      43.183  23.414  25.993  1.00  0.00     0.173 A 
ATOM     51  F   UNL A   1      41.834  22.443  29.221  1.00  0.00    -0.203 F 
ATOM     52  C   UNL A   1      42.254  21.150  27.299  1.00  0.00     0.198 A 
ATOM     53  C   UNL A   1      43.159  22.184  25.335  1.00  0.00     0.198 A 
ATOM     54  F   UNL A   1      43.659  24.483  25.338  1.00  0.00    -0.203 F 
ATOM     55  F   UNL A   1      41.849  20.052  27.951  1.00  0.00    -0.200 F 
ATOM     56  C   UNL A   1      42.709  21.050  25.992  1.00  0.00     0.200 A 
ATOM     57  F   UNL A   1      43.592  22.095  24.070  1.00  0.00    -0.200 F 
ATOM     58  F   UNL A   1      42.730  19.861  25.376  1.00  0.00    -0.200 F 
ENDBRANCH  24  48
BRANCH  36  59
ATOM     59  C   UNL A   1      48.017  26.701  30.599  1.00  0.00     0.064 A 
ATOM     60  C   UNL A   1      49.059  27.102  29.751  1.00  0.00     0.173 A 
ATOM     61  C   UNL A   1      48.347  25.954  31.741  1.00  0.00     0.173 A 
ATOM     62  F   UNL A   1      48.791  27.805  28.640  1.00  0.00    -0.203 F 
ATOM     63  C   UNL A   1      50.377  26.752  30.024  1.00  0.00     0.198 A 
ATOM     64  C   UNL A   1      49.669  25.635  32.030  1.00  0.00     0.198 A 
ATOM     65  F   UNL A   1      47.386  25.554  32.589  1.00  0.00    -0.203 F 
ATOM     66  F   UNL A   1      51.351  27.107  29.176  1.00  0.00    -0.200 F 
ATOM     67  C   UNL A   1      50.682  26.029  31.169  1.00  0.00     0.200 A 
ATOM     68  F   UNL A   1      49.964  24.954  33.145  1.00  0.00    -0.200 F 
ATOM     69  F   UNL A   1      51.954  25.707  31.439  1.00  0.00    -0.200 F 
ENDBRANCH  36  59
ENDBRANCH  10  11
ENDBRANCH   3   5
ENDBRANCH   2   3
ENDBRANCH   1   2
BRANCH   1  70
ATOM     70  C   UNL A   1      33.023  33.823  28.001  1.00  0.00     0.274 C 
BRANCH  70  71
ATOM     71  O   UNL A   1      32.648  34.474  29.226  1.00  0.00    -0.458 OA
BRANCH  71  72
ATOM     72  C   UNL A   1      33.310  35.642  29.509  1.00  0.00     0.365 C 
ATOM     73  O   UNL A   1      34.191  36.116  28.810  1.00  0.00    -0.245 OA
BRANCH  72  74
ATOM     74  C   UNL A   1      32.704  36.313  30.752  1.00  0.00     0.304 C 
ATOM     75  C   UNL A   1      33.651  37.314  31.412  1.00  0.00     0.153 C 
ATOM     76  N   UNL A   1      32.118  35.361  31.741  1.00  0.00    -0.317 N 
ATOM     77  S   UNL A   1      33.700  36.833  33.155  1.00  0.00    -0.085 SA
ATOM     78  C   UNL A   1      33.125  35.147  32.798  1.00  0.00     0.303 C 
ATOM     79  H   UNL A   1      31.899  34.475  31.285  1.00  0.00     0.348 HD
ATOM     80  H   UNL A   1      31.256  35.737  32.136  1.00  0.00     0.348 HD
BRANCH  78  81
ATOM     81  C   UNL A   1      34.229  34.206  32.369  1.00  0.00     0.162 A 
ATOM     82  N   UNL A   1      34.069  33.072  31.713  1.00  0.00    -0.242 NA
ATOM     83  S   UNL A   1      35.865  34.550  32.819  1.00  0.00    -0.112 S 
ATOM     84  C   UNL A   1      35.229  32.328  31.794  1.00  0.00     0.132 A 
ATOM     85  C   UNL A   1      36.270  32.928  32.466  1.00  0.00     0.055 A 
BRANCH  85  86
ATOM     86  C   UNL A   1      37.534  32.384  32.922  1.00  0.00    -0.007 A 
ATOM     87  C   UNL A   1      37.692  30.993  32.999  1.00  0.00     0.009 A 
ATOM     88  C   UNL A   1      38.588  33.220  33.293  1.00  0.00     0.009 A 
ATOM     89  C   UNL A   1      38.885  30.442  33.464  1.00  0.00     0.001 A 
ATOM     90  C   UNL A   1      39.785  32.667  33.751  1.00  0.00     0.001 A 
ATOM     91  C   UNL A   1      39.932  31.282  33.840  1.00  0.00     0.000 A 
ENDBRANCH  85  86
ENDBRANCH  78  81
ENDBRANCH  72  74
ENDBRANCH  71  72
ENDBRANCH  70  71
ENDBRANCH   1  70
TORSDOF 13
ENDMDL
MODEL 2
REMARK VINA RESULT:     -10.8      0.795      7.538
REMARK SMILES O=C(OCCOC(=O)[C@@H]1CS[C@H](c2ncc(-c3ccccc3)s2)[NH2+]1)c1ccc(-c2c3nc(c(-c4c(F)c(F)c(F)c(F)c4F)c4ccc([nH]4)c(-c4c(F)c(F)c(F)c(F)c4F)c4nc(c(-c5c(F)c(F)c(F)c(F)c5F)c5ccc2[nH]5)C=C4)C=C3)cc1
REMARK SMILES IDX 4 1 3 2 2 3 1 4 25 5 26 6 87 7 27 8 86 9 28 10 29 11 30 12
REMARK SMILES IDX 80 13 31 14 85 15 79 16 81 17 32 18 84 19 78 20 77 21 33 23
REMARK SMILES IDX 65 24 45 25 64 26 46 27 49 28 63 29 82 30 47 31 48 32 62 34
REMARK SMILES IDX 83 35 50 36 34 37 35 38 43 39 36 40 37 41 41 42 44 43 38 44
REMARK SMILES IDX 39 45 42 46 40 47 66 48 67 49 75 50 68 51 69 52 73 53 76 54
REMARK SMILES IDX 70 55 71 56 74 57 72 58 51 59 52 60 60 61 53 62 54 63 58 64
REMARK SMILES IDX 61 65 55 66 56 67 59 68 57 69 5 70 6 71 7 72 8 73 9 74 10 75
REMARK SMILES IDX 24 76 11 77 12 78 13 81 14 82 23 83 15 84 16 85 17 86 18 87
REMARK SMILES IDX 22 88 19 89 21 90 20 91
REMARK H PARENT 81 22 49 33 24 79 24 80
REMARK Flexibility Score: inf
ROOT
ATOM      1  C   UNL A   1      34.156  32.441  28.347  1.00  0.00     0.275 C 
ENDROOT
BRANCH   1   2
ATOM      2  O   UNL A   1      33.978  31.205  27.627  1.00  0.00    -0.458 OA
BRANCH   2   3
ATOM      3  C   UNL A   1      34.637  30.025  27.726  1.00  0.00     0.338 C 
ATOM      4  O   UNL A   1      34.018  28.984  27.511  1.00  0.00    -0.246 OA
BRANCH   3   5
ATOM      5  C   UNL A   1      36.026  29.893  28.273  1.00  0.00     0.060 A 
ATOM      6  C   UNL A   1      36.361  29.545  29.583  1.00  0.00     0.016 A 
ATOM      7  C   UNL A   1      37.078  30.054  27.347  1.00  0.00     0.016 A 
ATOM      8  C   UNL A   1      37.676  29.224  29.931  1.00  0.00     0.010 A 
ATOM      9  C   UNL A   1      38.398  29.738  27.689  1.00  0.00     0.010 A 
ATOM     10  C   UNL A   1      38.696  29.296  28.983  1.00  0.00    -0.014 A 
BRANCH  10  11
ATOM     11  C   UNL A   1      40.093  29.066  29.408  1.00  0.00     0.031 A 
ATOM     12  C   UNL A   1      40.740  27.780  28.998  1.00  0.00     0.074 A 
ATOM     13  C   UNL A   1      40.781  30.002  30.091  1.00  0.00     0.049 A 
ATOM     14  N   UNL A   1      41.957  27.362  29.213  1.00  0.00    -0.248 NA
ATOM     15  C   UNL A   1      39.911  26.855  28.205  1.00  0.00     0.031 C 
ATOM     16  C   UNL A   1      40.283  31.329  30.442  1.00  0.00     0.029 A 
ATOM     17  N   UNL A   1      42.048  29.979  30.619  1.00  0.00    -0.354 N 
ATOM     18  C   UNL A   1      42.048  26.143  28.561  1.00  0.00     0.074 A 
ATOM     19  C   UNL A   1      40.754  25.860  27.984  1.00  0.00     0.031 C 
ATOM     20  C   UNL A   1      41.199  31.966  31.194  1.00  0.00     0.029 A 
ATOM     21  C   UNL A   1      42.361  31.098  31.354  1.00  0.00     0.049 A 
ATOM     22  H   UNL A   1      42.674  29.230  30.484  1.00  0.00     0.167 HD
ATOM     23  C   UNL A   1      43.130  25.344  28.434  1.00  0.00     0.037 A 
ATOM     24  C   UNL A   1      43.465  31.379  32.074  1.00  0.00     0.037 A 
ATOM     25  C   UNL A   1      44.406  25.631  29.028  1.00  0.00     0.049 A 
ATOM     26  C   UNL A   1      44.611  30.398  32.031  1.00  0.00     0.074 A 
ATOM     27  C   UNL A   1      45.572  24.895  28.962  1.00  0.00     0.029 A 
ATOM     28  N   UNL A   1      44.670  26.741  29.818  1.00  0.00    -0.354 N 
ATOM     29  N   UNL A   1      44.713  29.277  31.356  1.00  0.00    -0.248 NA
ATOM     30  C   UNL A   1      45.804  30.728  32.823  1.00  0.00     0.031 C 
ATOM     31  C   UNL A   1      46.526  25.526  29.765  1.00  0.00     0.029 A 
ATOM     32  C   UNL A   1      45.971  26.685  30.285  1.00  0.00     0.049 A 
ATOM     33  H   UNL A   1      44.028  27.461  30.016  1.00  0.00     0.167 HD
ATOM     34  C   UNL A   1      45.989  28.792  31.608  1.00  0.00     0.074 A 
ATOM     35  C   UNL A   1      46.630  29.747  32.487  1.00  0.00     0.031 C 
ATOM     36  C   UNL A   1      46.581  27.661  31.153  1.00  0.00     0.037 A 
BRANCH  23  37
ATOM     37  C   UNL A   1      42.960  24.079  27.655  1.00  0.00     0.064 A 
ATOM     38  C   UNL A   1      42.579  22.879  28.275  1.00  0.00     0.173 A 
ATOM     39  C   UNL A   1      43.173  24.068  26.270  1.00  0.00     0.173 A 
ATOM     40  F   UNL A   1      42.392  22.833  29.603  1.00  0.00    -0.203 F 
ATOM     41  C   UNL A   1      42.433  21.709  27.534  1.00  0.00     0.198 A 
ATOM     42  C   UNL A   1      43.002  22.903  25.529  1.00  0.00     0.198 A 
ATOM     43  F   UNL A   1      43.550  25.188  25.636  1.00  0.00    -0.203 F 
ATOM     44  F   UNL A   1      42.111  20.563  28.151  1.00  0.00    -0.200 F 
ATOM     45  C   UNL A   1      42.636  21.723  26.162  1.00  0.00     0.200 A 
ATOM     46  F   UNL A   1      43.197  22.919  24.205  1.00  0.00    -0.200 F 
ATOM     47  F   UNL A   1      42.491  20.597  25.450  1.00  0.00    -0.200 F 
ENDBRANCH  23  37
BRANCH  24  48
ATOM     48  C   UNL A   1      43.553  32.616  32.900  1.00  0.00     0.064 A 
ATOM     49  C   UNL A   1      43.224  32.615  34.263  1.00  0.00     0.173 A 
ATOM     50  C   UNL A   1      43.894  33.848  32.319  1.00  0.00     0.173 A 
ATOM     51  F   UNL A   1      42.873  31.470  34.865  1.00  0.00    -0.203 F 
ATOM     52  C   UNL A   1      43.189  33.799  35.000  1.00  0.00     0.198 A 
ATOM     53  C   UNL A   1      43.885  35.027  33.064  1.00  0.00     0.198 A 
ATOM     54  F   UNL A   1      44.219  33.912  31.019  1.00  0.00    -0.203 F 
ATOM     55  F   UNL A   1      42.801  33.775  36.283  1.00  0.00    -0.200 F 
ATOM     56  C   UNL A   1      43.518  35.005  34.400  1.00  0.00     0.200 A 
ATOM     57  F   UNL A   1      44.212  36.188  32.480  1.00  0.00    -0.200 F 
ATOM     58  F   UNL A   1      43.464  36.144  35.103  1.00  0.00    -0.200 F 
ENDBRANCH  24  48
BRANCH  36  59
ATOM     59  C   UNL A   1      47.997  27.409  31.579  1.00  0.00     0.064 A 
ATOM     60  C   UNL A   1      48.295  26.652  32.720  1.00  0.00     0.173 A 
ATOM     61  C   UNL A   1      49.067  27.878  30.800  1.00  0.00     0.173 A 
ATOM     62  F   UNL A   1      47.306  26.195  33.504  1.00  0.00    -0.203 F 
ATOM     63  C   UNL A   1      49.613  26.389  33.079  1.00  0.00     0.198 A 
ATOM     64  C   UNL A   1      50.382  27.584  31.142  1.00  0.00     0.198 A 
ATOM     65  F   UNL A   1      48.832  28.599  29.693  1.00  0.00    -0.203 F 
ATOM     66  F   UNL A   1      49.876  25.702  34.199  1.00  0.00    -0.200 F 
ATOM     67  C   UNL A   1      50.654  26.846  32.283  1.00  0.00     0.200 A 
ATOM     68  F   UNL A   1      51.385  28.008  30.363  1.00  0.00    -0.200 F 
ATOM     69  F   UNL A   1      51.923  26.578  32.621  1.00  0.00    -0.200 F 
ENDBRANCH  36  59
ENDBRANCH  10  11
ENDBRANCH   3   5
ENDBRANCH   2   3
ENDBRANCH   1   2
BRANCH   1  70
ATOM     70  C   UNL A   1      33.143  33.535  27.992  1.00  0.00     0.274 C 
BRANCH  70  71
ATOM     71  O   UNL A   1      32.710  34.291  29.135  1.00  0.00    -0.458 OA
BRANCH  71  72
ATOM     72  C   UNL A   1      33.426  35.430  29.405  1.00  0.00     0.365 C 
ATOM     73  O   UNL A   1      34.380  35.811  28.745  1.00  0.00    -0.245 OA
BRANCH  72  74
ATOM     74  C   UNL A   1      32.784  36.203  30.568  1.00  0.00     0.304 C 
ATOM     75  C   UNL A   1      33.720  37.243  31.183  1.00  0.00     0.153 C 
ATOM     76  N   UNL A   1      32.148  35.338  31.604  1.00  0.00    -0.317 N 
ATOM     77  S   UNL A   1      33.697  36.900  32.958  1.00  0.00    -0.085 SA
ATOM     78  C   UNL A   1      33.112  35.197  32.713  1.00  0.00     0.303 C 
ATOM     79  H   UNL A   1      31.934  34.422  31.211  1.00  0.00     0.348 HD
ATOM     80  H   UNL A   1      31.277  35.754  31.935  1.00  0.00     0.348 HD
BRANCH  78  81
ATOM     81  C   UNL A   1      34.218  34.213  32.401  1.00  0.00     0.162 A 
ATOM     82  N   UNL A   1      34.074  33.055  31.787  1.00  0.00    -0.242 NA
ATOM     83  S   UNL A   1      35.829  34.542  32.946  1.00  0.00    -0.112 S 
ATOM     84  C   UNL A   1      35.206  32.289  31.978  1.00  0.00     0.132 A 
ATOM     85  C   UNL A   1      36.215  32.896  32.692  1.00  0.00     0.055 A 
BRANCH  85  86
ATOM     86  C   UNL A   1      37.432  32.346  33.256  1.00  0.00    -0.007 A 
ATOM     87  C   UNL A   1      37.652  30.962  33.190  1.00  0.00     0.009 A 
ATOM     88  C   UNL A   1      38.379  33.167  33.870  1.00  0.00     0.009 A 
ATOM     89  C   UNL A   1      38.798  30.402  33.752  1.00  0.00     0.001 A 
ATOM     90  C   UNL A   1      39.530  32.605  34.424  1.00  0.00     0.001 A 
ATOM     91  C   UNL A   1      39.736  31.226  34.369  1.00  0.00     0.000 A 
ENDBRANCH  85  86
ENDBRANCH  78  81
ENDBRANCH  72  74
ENDBRANCH  71  72
ENDBRANCH  70  71
ENDBRANCH   1  70
TORSDOF 13
ENDMDL
MODEL 3
REMARK VINA RESULT:     -10.7      4.680      7.505
REMARK SMILES O=C(OCCOC(=O)[C@@H]1CS[C@H](c2ncc(-c3ccccc3)s2)[NH2+]1)c1ccc(-c2c3nc(c(-c4c(F)c(F)c(F)c(F)c4F)c4ccc([nH]4)c(-c4c(F)c(F)c(F)c(F)c4F)c4nc(c(-c5c(F)c(F)c(F)c(F)c5F)c5ccc2[nH]5)C=C4)C=C3)cc1
REMARK SMILES IDX 4 1 3 2 2 3 1 4 25 5 26 6 87 7 27 8 86 9 28 10 29 11 30 12
REMARK SMILES IDX 80 13 31 14 85 15 79 16 81 17 32 18 84 19 78 20 77 21 33 23
REMARK SMILES IDX 65 24 45 25 64 26 46 27 49 28 63 29 82 30 47 31 48 32 62 34
REMARK SMILES IDX 83 35 50 36 34 37 35 38 43 39 36 40 37 41 41 42 44 43 38 44
REMARK SMILES IDX 39 45 42 46 40 47 66 48 67 49 75 50 68 51 69 52 73 53 76 54
REMARK SMILES IDX 70 55 71 56 74 57 72 58 51 59 52 60 60 61 53 62 54 63 58 64
REMARK SMILES IDX 61 65 55 66 56 67 59 68 57 69 5 70 6 71 7 72 8 73 9 74 10 75
REMARK SMILES IDX 24 76 11 77 12 78 13 81 14 82 23 83 15 84 16 85 17 86 18 87
REMARK SMILES IDX 22 88 19 89 21 90 20 91
REMARK H PARENT 81 22 49 33 24 79 24 80
REMARK Flexibility Score: inf
ROOT
ATOM      1  C   UNL A   1      31.767  29.997  26.381  1.00  0.00     0.275 C 
ENDROOT
BRANCH   1   2
ATOM      2  O   UNL A   1      33.016  30.714  26.315  1.00  0.00    -0.458 OA
BRANCH   2   3
ATOM      3  C   UNL A   1      33.666  31.441  27.256  1.00  0.00     0.338 C 
ATOM      4  O   UNL A   1      33.241  32.561  27.532  1.00  0.00    -0.246 OA
BRANCH   3   5
ATOM      5  C   UNL A   1      34.986  31.046  27.844  1.00  0.00     0.060 A 
ATOM      6  C   UNL A   1      36.096  31.878  28.001  1.00  0.00     0.016 A 
ATOM      7  C   UNL A   1      35.070  29.735  28.359  1.00  0.00     0.016 A 
ATOM      8  C   UNL A   1      37.194  31.481  28.768  1.00  0.00     0.010 A 
ATOM      9  C   UNL A   1      36.169  29.328  29.125  1.00  0.00     0.010 A 
ATOM     10  C   UNL A   1      37.228  30.215  29.352  1.00  0.00    -0.014 A 
BRANCH  10  11
ATOM     11  C   UNL A   1      38.452  29.779  30.058  1.00  0.00     0.031 A 
ATOM     12  C   UNL A   1      38.716  30.360  31.411  1.00  0.00     0.074 A 
ATOM     13  C   UNL A   1      39.271  28.848  29.529  1.00  0.00     0.049 A 
ATOM     14  N   UNL A   1      39.694  30.112  32.239  1.00  0.00    -0.248 NA
ATOM     15  C   UNL A   1      37.725  31.326  31.913  1.00  0.00     0.031 C 
ATOM     16  C   UNL A   1      39.046  28.139  28.273  1.00  0.00     0.029 A 
ATOM     17  N   UNL A   1      40.464  28.342  29.980  1.00  0.00    -0.354 N 
ATOM     18  C   UNL A   1      39.420  30.868  33.368  1.00  0.00     0.074 A 
ATOM     19  C   UNL A   1      38.215  31.622  33.106  1.00  0.00     0.031 C 
ATOM     20  C   UNL A   1      40.101  27.348  28.011  1.00  0.00     0.029 A 
ATOM     21  C   UNL A   1      41.066  27.476  29.098  1.00  0.00     0.049 A 
ATOM     22  H   UNL A   1      40.853  28.578  30.854  1.00  0.00     0.167 HD
ATOM     23  C   UNL A   1      40.104  30.905  34.532  1.00  0.00     0.037 A 
ATOM     24  C   UNL A   1      42.264  26.863  29.169  1.00  0.00     0.037 A 
ATOM     25  C   UNL A   1      41.309  30.164  34.772  1.00  0.00     0.049 A 
ATOM     26  C   UNL A   1      43.079  27.036  30.428  1.00  0.00     0.074 A 
ATOM     27  C   UNL A   1      42.083  30.122  35.915  1.00  0.00     0.029 A 
ATOM     28  N   UNL A   1      41.925  29.345  33.835  1.00  0.00    -0.354 N 
ATOM     29  N   UNL A   1      42.779  27.700  31.519  1.00  0.00    -0.248 NA
ATOM     30  C   UNL A   1      44.380  26.357  30.481  1.00  0.00     0.031 C 
ATOM     31  C   UNL A   1      43.203  29.330  35.649  1.00  0.00     0.029 A 
ATOM     32  C   UNL A   1      43.097  28.831  34.360  1.00  0.00     0.049 A 
ATOM     33  H   UNL A   1      41.579  29.159  32.932  1.00  0.00     0.167 HD
ATOM     34  C   UNL A   1      43.830  27.487  32.400  1.00  0.00     0.074 A 
ATOM     35  C   UNL A   1      44.770  26.619  31.720  1.00  0.00     0.031 C 
ATOM     36  C   UNL A   1      44.006  27.960  33.657  1.00  0.00     0.037 A 
BRANCH  23  37
ATOM     37  C   UNL A   1      39.577  31.802  35.608  1.00  0.00     0.064 A 
ATOM     38  C   UNL A   1      38.611  31.361  36.525  1.00  0.00     0.173 A 
ATOM     39  C   UNL A   1      40.050  33.115  35.727  1.00  0.00     0.173 A 
ATOM     40  F   UNL A   1      38.106  30.121  36.433  1.00  0.00    -0.203 F 
ATOM     41  C   UNL A   1      38.126  32.212  37.515  1.00  0.00     0.198 A 
ATOM     42  C   UNL A   1      39.581  33.955  36.733  1.00  0.00     0.198 A 
ATOM     43  F   UNL A   1      40.965  33.585  34.866  1.00  0.00    -0.203 F 
ATOM     44  F   UNL A   1      37.171  31.786  38.354  1.00  0.00    -0.200 F 
ATOM     45  C   UNL A   1      38.617  33.505  37.623  1.00  0.00     0.200 A 
ATOM     46  F   UNL A   1      40.058  35.202  36.837  1.00  0.00    -0.200 F 
ATOM     47  F   UNL A   1      38.153  34.321  38.579  1.00  0.00    -0.200 F 
ENDBRANCH  23  37
BRANCH  24  48
ATOM     48  C   UNL A   1      42.781  26.046  28.035  1.00  0.00     0.064 A 
ATOM     49  C   UNL A   1      43.634  26.591  27.065  1.00  0.00     0.173 A 
ATOM     50  C   UNL A   1      42.365  24.717  27.855  1.00  0.00     0.173 A 
ATOM     51  F   UNL A   1      44.048  27.862  27.176  1.00  0.00    -0.203 F 
ATOM     52  C   UNL A   1      44.014  25.858  25.940  1.00  0.00     0.198 A 
ATOM     53  C   UNL A   1      42.767  23.976  26.744  1.00  0.00     0.198 A 
ATOM     54  F   UNL A   1      41.550  24.141  28.751  1.00  0.00    -0.203 F 
ATOM     55  F   UNL A   1      44.771  26.431  24.994  1.00  0.00    -0.200 F 
ATOM     56  C   UNL A   1      43.579  24.551  25.780  1.00  0.00     0.200 A 
ATOM     57  F   UNL A   1      42.351  22.711  26.599  1.00  0.00    -0.200 F 
ATOM     58  F   UNL A   1      43.927  23.854  24.690  1.00  0.00    -0.200 F 
ENDBRANCH  24  48
BRANCH  36  59
ATOM     59  C   UNL A   1      45.245  27.532  34.385  1.00  0.00     0.064 A 
ATOM     60  C   UNL A   1      45.273  26.364  35.160  1.00  0.00     0.173 A 
ATOM     61  C   UNL A   1      46.435  28.265  34.253  1.00  0.00     0.173 A 
ATOM     62  F   UNL A   1      44.156  25.638  35.327  1.00  0.00    -0.203 F 
ATOM     63  C   UNL A   1      46.441  25.955  35.794  1.00  0.00     0.198 A 
ATOM     64  C   UNL A   1      47.609  27.835  34.860  1.00  0.00     0.198 A 
ATOM     65  F   UNL A   1      46.461  29.385  33.515  1.00  0.00    -0.203 F 
ATOM     66  F   UNL A   1      46.434  24.861  36.567  1.00  0.00    -0.200 F 
ATOM     67  C   UNL A   1      47.610  26.685  35.634  1.00  0.00     0.200 A 
ATOM     68  F   UNL A   1      48.743  28.529  34.689  1.00  0.00    -0.200 F 
ATOM     69  F   UNL A   1      48.739  26.281  36.233  1.00  0.00    -0.200 F 
ENDBRANCH  36  59
ENDBRANCH  10  11
ENDBRANCH   3   5
ENDBRANCH   2   3
ENDBRANCH   1   2
BRANCH   1  70
ATOM     70  C   UNL A   1      31.840  28.659  27.124  1.00  0.00     0.274 C 
BRANCH  70  71
ATOM     71  O   UNL A   1      32.643  27.682  26.442  1.00  0.00    -0.458 OA
BRANCH  71  72
ATOM     72  C   UNL A   1      32.041  26.471  26.208  1.00  0.00     0.365 C 
ATOM     73  O   UNL A   1      31.037  26.083  26.784  1.00  0.00    -0.245 OA
BRANCH  72  74
ATOM     74  C   UNL A   1      32.738  25.741  25.049  1.00  0.00     0.304 C 
ATOM     75  C   UNL A   1      33.652  26.654  24.232  1.00  0.00     0.153 C 
ATOM     76  N   UNL A   1      31.820  24.947  24.181  1.00  0.00    -0.317 N 
ATOM     77  S   UNL A   1      33.141  26.411  22.514  1.00  0.00    -0.085 SA
ATOM     78  C   UNL A   1      31.511  25.769  22.996  1.00  0.00     0.303 C 
ATOM     79  H   UNL A   1      30.961  24.731  24.688  1.00  0.00     0.348 HD
ATOM     80  H   UNL A   1      32.256  24.067  23.906  1.00  0.00     0.348 HD
BRANCH  78  81
ATOM     81  C   UNL A   1      30.494  26.850  23.286  1.00  0.00     0.162 A 
ATOM     82  N   UNL A   1      29.243  26.656  23.659  1.00  0.00    -0.242 NA
ATOM     83  S   UNL A   1      30.923  28.510  23.046  1.00  0.00    -0.112 S 
ATOM     84  C   UNL A   1      28.530  27.828  23.501  1.00  0.00     0.132 A 
ATOM     85  C   UNL A   1      29.260  28.908  23.058  1.00  0.00     0.055 A 
BRANCH  85  86
ATOM     86  C   UNL A   1      28.826  30.209  22.588  1.00  0.00    -0.007 A 
ATOM     87  C   UNL A   1      28.427  30.355  21.251  1.00  0.00     0.009 A 
ATOM     88  C   UNL A   1      28.810  31.316  23.438  1.00  0.00     0.009 A 
ATOM     89  C   UNL A   1      28.036  31.600  20.763  1.00  0.00     0.001 A 
ATOM     90  C   UNL A   1      28.409  32.560  22.950  1.00  0.00     0.001 A 
ATOM     91  C   UNL A   1      28.028  32.703  21.615  1.00  0.00     0.000 A 
ENDBRANCH  85  86
ENDBRANCH  78  81
ENDBRANCH  72  74
ENDBRANCH  71  72
ENDBRANCH  70  71
ENDBRANCH   1  70
TORSDOF 13
ENDMDL
