MODEL 1
REMARK VINA RESULT:     -11.6      0.000      0.000
REMARK SMILES O=C(OCCOC(=O)c1cc(S[C@H]2CCOC2=O)cs1)c1ccc(-c2c3nc(c(-c4c(F)c(F)c(F)c(F)c4F)c4ccc([nH]4)c(-c4c(F)c(F)c(F)c(F)c4F)c4nc(c(-c5c(F)c(F)c(F)c(F)c5F)c5ccc2[nH]5)C=C4)C=C3)cc1
REMARK SMILES IDX 4 1 3 2 2 3 1 4 21 5 22 6 83 7 23 8 82 9 24 10 25 11 26 12
REMARK SMILES IDX 76 13 27 14 81 15 75 16 77 17 28 18 80 19 74 20 73 21 29 23
REMARK SMILES IDX 61 24 41 25 60 26 42 27 45 28 59 29 78 30 43 31 44 32 58 34
REMARK SMILES IDX 79 35 46 36 30 37 31 38 39 39 32 40 33 41 37 42 40 43 34 44
REMARK SMILES IDX 35 45 38 46 36 47 62 48 63 49 71 50 64 51 65 52 69 53 72 54
REMARK SMILES IDX 66 55 67 56 70 57 68 58 47 59 48 60 56 61 49 62 50 63 54 64
REMARK SMILES IDX 57 65 51 66 52 67 55 68 53 69 5 70 6 71 7 72 8 73 9 74 10 75
REMARK SMILES IDX 20 76 11 77 19 78 12 79 13 80 14 81 17 82 15 83 16 84 18 85
REMARK H PARENT 77 22 45 33
REMARK Flexibility Score: inf
ROOT
ATOM      1  C   UNL A   1      32.679  29.230  25.642  1.00  0.00     0.275 C 
ENDROOT
BRANCH   1   2
ATOM      2  O   UNL A   1      32.695  30.602  26.078  1.00  0.00    -0.458 OA
BRANCH   2   3
ATOM      3  C   UNL A   1      33.377  31.236  27.055  1.00  0.00     0.338 C 
ATOM      4  O   UNL A   1      32.896  32.279  27.501  1.00  0.00    -0.246 OA
BRANCH   3   5
ATOM      5  C   UNL A   1      34.701  30.801  27.628  1.00  0.00     0.060 A 
ATOM      6  C   UNL A   1      35.109  29.497  27.915  1.00  0.00     0.016 A 
ATOM      7  C   UNL A   1      35.624  31.835  27.905  1.00  0.00     0.016 A 
ATOM      8  C   UNL A   1      36.358  29.238  28.499  1.00  0.00     0.010 A 
ATOM      9  C   UNL A   1      36.881  31.583  28.470  1.00  0.00     0.010 A 
ATOM     10  C   UNL A   1      37.243  30.278  28.800  1.00  0.00    -0.014 A 
BRANCH  10  11
ATOM     11  C   UNL A   1      38.492  29.970  29.532  1.00  0.00     0.031 A 
ATOM     12  C   UNL A   1      38.621  30.353  30.969  1.00  0.00     0.074 A 
ATOM     13  C   UNL A   1      39.501  29.324  28.924  1.00  0.00     0.049 A 
ATOM     14  N   UNL A   1      39.588  30.081  31.804  1.00  0.00    -0.248 NA
ATOM     15  C   UNL A   1      37.554  31.199  31.521  1.00  0.00     0.031 C 
ATOM     16  C   UNL A   1      39.557  29.065  27.496  1.00  0.00     0.029 A 
ATOM     17  N   UNL A   1      40.652  28.752  29.412  1.00  0.00    -0.354 N 
ATOM     18  C   UNL A   1      39.288  30.786  32.958  1.00  0.00     0.074 A 
ATOM     19  C   UNL A   1      38.029  31.465  32.729  1.00  0.00     0.031 C 
ATOM     20  C   UNL A   1      40.629  28.303  27.235  1.00  0.00     0.029 A 
ATOM     21  C   UNL A   1      41.321  27.999  28.474  1.00  0.00     0.049 A 
ATOM     22  H   UNL A   1      40.966  28.871  30.338  1.00  0.00     0.167 HD
ATOM     23  C   UNL A   1      40.032  30.887  34.085  1.00  0.00     0.037 A 
ATOM     24  C   UNL A   1      42.344  27.131  28.608  1.00  0.00     0.037 A 
ATOM     25  C   UNL A   1      41.289  30.213  34.282  1.00  0.00     0.049 A 
ATOM     26  C   UNL A   1      43.022  27.071  29.947  1.00  0.00     0.074 A 
ATOM     27  C   UNL A   1      42.134  30.257  35.376  1.00  0.00     0.029 A 
ATOM     28  N   UNL A   1      41.884  29.368  33.354  1.00  0.00    -0.354 N 
ATOM     29  N   UNL A   1      42.717  27.716  31.046  1.00  0.00    -0.248 NA
ATOM     30  C   UNL A   1      44.219  26.226  30.051  1.00  0.00     0.031 C 
ATOM     31  C   UNL A   1      43.253  29.462  35.099  1.00  0.00     0.029 A 
ATOM     32  C   UNL A   1      43.083  28.881  33.852  1.00  0.00     0.049 A 
ATOM     33  H   UNL A   1      41.509  29.146  32.471  1.00  0.00     0.167 HD
ATOM     34  C   UNL A   1      43.720  27.414  31.950  1.00  0.00     0.074 A 
ATOM     35  C   UNL A   1      44.584  26.444  31.306  1.00  0.00     0.031 C 
ATOM     36  C   UNL A   1      43.940  27.940  33.178  1.00  0.00     0.037 A 
BRANCH  23  37
ATOM     37  C   UNL A   1      39.530  31.823  35.141  1.00  0.00     0.064 A 
ATOM     38  C   UNL A   1      38.678  31.396  36.169  1.00  0.00     0.173 A 
ATOM     39  C   UNL A   1      39.885  33.181  35.102  1.00  0.00     0.173 A 
ATOM     40  F   UNL A   1      38.286  30.114  36.231  1.00  0.00    -0.203 F 
ATOM     41  C   UNL A   1      38.174  32.299  37.102  1.00  0.00     0.198 A 
ATOM     42  C   UNL A   1      39.402  34.076  36.053  1.00  0.00     0.198 A 
ATOM     43  F   UNL A   1      40.690  33.642  34.133  1.00  0.00    -0.203 F 
ATOM     44  F   UNL A   1      37.311  31.881  38.038  1.00  0.00    -0.200 F 
ATOM     45  C   UNL A   1      38.540  33.636  37.045  1.00  0.00     0.200 A 
ATOM     46  F   UNL A   1      39.759  35.366  35.998  1.00  0.00    -0.200 F 
ATOM     47  F   UNL A   1      38.049  34.505  37.940  1.00  0.00    -0.200 F 
ENDBRANCH  23  37
BRANCH  24  48
ATOM     48  C   UNL A   1      42.760  26.228  27.495  1.00  0.00     0.064 A 
ATOM     49  C   UNL A   1      42.088  25.012  27.283  1.00  0.00     0.173 A 
ATOM     50  C   UNL A   1      43.812  26.535  26.620  1.00  0.00     0.173 A 
ATOM     51  F   UNL A   1      41.078  24.655  28.091  1.00  0.00    -0.203 F 
ATOM     52  C   UNL A   1      42.461  24.138  26.260  1.00  0.00     0.198 A 
ATOM     53  C   UNL A   1      44.157  25.681  25.570  1.00  0.00     0.198 A 
ATOM     54  F   UNL A   1      44.497  27.676  26.770  1.00  0.00    -0.203 F 
ATOM     55  F   UNL A   1      41.826  22.967  26.117  1.00  0.00    -0.200 F 
ATOM     56  C   UNL A   1      43.488  24.479  25.397  1.00  0.00     0.200 A 
ATOM     57  F   UNL A   1      45.133  26.030  24.722  1.00  0.00    -0.200 F 
ATOM     58  F   UNL A   1      43.832  23.652  24.401  1.00  0.00    -0.200 F 
ENDBRANCH  24  48
BRANCH  36  59
ATOM     59  C   UNL A   1      45.194  27.504  33.870  1.00  0.00     0.064 A 
ATOM     60  C   UNL A   1      45.200  26.389  34.724  1.00  0.00     0.173 A 
ATOM     61  C   UNL A   1      46.395  28.198  33.679  1.00  0.00     0.173 A 
ATOM     62  F   UNL A   1      44.067  25.707  34.954  1.00  0.00    -0.203 F 
ATOM     63  C   UNL A   1      46.361  26.004  35.385  1.00  0.00     0.198 A 
ATOM     64  C   UNL A   1      47.560  27.793  34.321  1.00  0.00     0.198 A 
ATOM     65  F   UNL A   1      46.434  29.269  32.873  1.00  0.00    -0.203 F 
ATOM     66  F   UNL A   1      46.334  24.971  36.239  1.00  0.00    -0.200 F 
ATOM     67  C   UNL A   1      47.542  26.703  35.179  1.00  0.00     0.200 A 
ATOM     68  F   UNL A   1      48.702  28.465  34.118  1.00  0.00    -0.200 F 
ATOM     69  F   UNL A   1      48.659  26.334  35.820  1.00  0.00    -0.200 F 
ENDBRANCH  36  59
ENDBRANCH  10  11
ENDBRANCH   3   5
ENDBRANCH   2   3
ENDBRANCH   1   2
BRANCH   1  70
ATOM     70  C   UNL A   1      33.625  28.970  24.466  1.00  0.00     0.275 C 
BRANCH  70  71
ATOM     71  O   UNL A   1      33.613  27.602  24.034  1.00  0.00    -0.458 OA
BRANCH  71  72
ATOM     72  C   UNL A   1      33.022  27.375  22.818  1.00  0.00     0.348 C 
ATOM     73  O   UNL A   1      33.626  27.121  21.786  1.00  0.00    -0.245 OA
BRANCH  72  74
ATOM     74  C   UNL A   1      31.590  27.425  22.986  1.00  0.00     0.113 A 
ATOM     75  C   UNL A   1      30.716  28.418  22.589  1.00  0.00     0.042 A 
ATOM     76  S   UNL A   1      30.777  26.148  23.775  1.00  0.00    -0.136 S 
ATOM     77  C   UNL A   1      29.376  28.151  22.971  1.00  0.00     0.020 A 
ATOM     78  C   UNL A   1      29.277  26.962  23.664  1.00  0.00     0.080 A 
BRANCH  77  79
ATOM     79  S   UNL A   1      27.965  29.135  22.625  1.00  0.00    -0.110 SA
BRANCH  79  80
ATOM     80  C   UNL A   1      28.525  30.670  21.848  1.00  0.00     0.165 C 
ATOM     81  C   UNL A   1      27.846  31.124  20.570  1.00  0.00     0.068 C 
ATOM     82  C   UNL A   1      28.405  31.866  22.751  1.00  0.00     0.319 C 
ATOM     83  C   UNL A   1      27.987  32.623  20.635  1.00  0.00     0.234 C 
ATOM     84  O   UNL A   1      28.033  32.959  22.019  1.00  0.00    -0.465 OA
ATOM     85  O   UNL A   1      28.628  31.905  23.949  1.00  0.00    -0.251 OA
ENDBRANCH  79  80
ENDBRANCH  77  79
ENDBRANCH  72  74
ENDBRANCH  71  72
ENDBRANCH  70  71
ENDBRANCH   1  70
TORSDOF 13
ENDMDL
MODEL 2
REMARK VINA RESULT:     -11.6      1.659      3.849
REMARK SMILES O=C(OCCOC(=O)c1cc(S[C@H]2CCOC2=O)cs1)c1ccc(-c2c3nc(c(-c4c(F)c(F)c(F)c(F)c4F)c4ccc([nH]4)c(-c4c(F)c(F)c(F)c(F)c4F)c4nc(c(-c5c(F)c(F)c(F)c(F)c5F)c5ccc2[nH]5)C=C4)C=C3)cc1
REMARK SMILES IDX 4 1 3 2 2 3 1 4 21 5 22 6 83 7 23 8 82 9 24 10 25 11 26 12
REMARK SMILES IDX 76 13 27 14 81 15 75 16 77 17 28 18 80 19 74 20 73 21 29 23
REMARK SMILES IDX 61 24 41 25 60 26 42 27 45 28 59 29 78 30 43 31 44 32 58 34
REMARK SMILES IDX 79 35 46 36 30 37 31 38 39 39 32 40 33 41 37 42 40 43 34 44
REMARK SMILES IDX 35 45 38 46 36 47 62 48 63 49 71 50 64 51 65 52 69 53 72 54
REMARK SMILES IDX 66 55 67 56 70 57 68 58 47 59 48 60 56 61 49 62 50 63 54 64
REMARK SMILES IDX 57 65 51 66 52 67 55 68 53 69 5 70 6 71 7 72 8 73 9 74 10 75
REMARK SMILES IDX 20 76 11 77 19 78 12 79 13 80 14 81 17 82 15 83 16 84 18 85
REMARK H PARENT 77 22 45 33
REMARK Flexibility Score: inf
ROOT
ATOM      1  C   UNL A   1      32.719  29.745  25.295  1.00  0.00     0.275 C 
ENDROOT
BRANCH   1   2
ATOM      2  O   UNL A   1      32.423  30.770  26.261  1.00  0.00    -0.458 OA
BRANCH   2   3
ATOM      3  C   UNL A   1      33.205  31.474  27.107  1.00  0.00     0.338 C 
ATOM      4  O   UNL A   1      32.834  32.607  27.417  1.00  0.00    -0.246 OA
BRANCH   3   5
ATOM      5  C   UNL A   1      34.519  31.010  27.681  1.00  0.00     0.060 A 
ATOM      6  C   UNL A   1      34.884  29.702  28.003  1.00  0.00     0.016 A 
ATOM      7  C   UNL A   1      35.480  32.019  27.919  1.00  0.00     0.016 A 
ATOM      8  C   UNL A   1      36.129  29.416  28.584  1.00  0.00     0.010 A 
ATOM      9  C   UNL A   1      36.733  31.740  28.480  1.00  0.00     0.010 A 
ATOM     10  C   UNL A   1      37.053  30.433  28.846  1.00  0.00    -0.014 A 
BRANCH  10  11
ATOM     11  C   UNL A   1      38.298  30.104  29.576  1.00  0.00     0.031 A 
ATOM     12  C   UNL A   1      38.439  30.493  31.010  1.00  0.00     0.074 A 
ATOM     13  C   UNL A   1      39.291  29.433  28.969  1.00  0.00     0.049 A 
ATOM     14  N   UNL A   1      39.403  30.206  31.844  1.00  0.00    -0.248 NA
ATOM     15  C   UNL A   1      37.393  31.365  31.560  1.00  0.00     0.031 C 
ATOM     16  C   UNL A   1      39.336  29.164  27.542  1.00  0.00     0.029 A 
ATOM     17  N   UNL A   1      40.430  28.840  29.457  1.00  0.00    -0.354 N 
ATOM     18  C   UNL A   1      39.122  30.925  32.994  1.00  0.00     0.074 A 
ATOM     19  C   UNL A   1      37.877  31.630  32.764  1.00  0.00     0.031 C 
ATOM     20  C   UNL A   1      40.391  28.377  27.283  1.00  0.00     0.029 A 
ATOM     21  C   UNL A   1      41.081  28.067  28.521  1.00  0.00     0.049 A 
ATOM     22  H   UNL A   1      40.750  28.958  30.380  1.00  0.00     0.167 HD
ATOM     23  C   UNL A   1      39.872  31.018  34.117  1.00  0.00     0.037 A 
ATOM     24  C   UNL A   1      42.085  27.178  28.658  1.00  0.00     0.037 A 
ATOM     25  C   UNL A   1      41.115  30.318  34.315  1.00  0.00     0.049 A 
ATOM     26  C   UNL A   1      42.766  27.113  29.995  1.00  0.00     0.074 A 
ATOM     27  C   UNL A   1      41.965  30.352  35.406  1.00  0.00     0.029 A 
ATOM     28  N   UNL A   1      41.689  29.455  33.391  1.00  0.00    -0.354 N 
ATOM     29  N   UNL A   1      42.479  27.770  31.091  1.00  0.00    -0.248 NA
ATOM     30  C   UNL A   1      43.945  26.242  30.101  1.00  0.00     0.031 C 
ATOM     31  C   UNL A   1      43.065  29.532  35.130  1.00  0.00     0.029 A 
ATOM     32  C   UNL A   1      42.879  28.946  33.888  1.00  0.00     0.049 A 
ATOM     33  H   UNL A   1      41.306  29.235  32.510  1.00  0.00     0.167 HD
ATOM     34  C   UNL A   1      43.478  27.453  31.993  1.00  0.00     0.074 A 
ATOM     35  C   UNL A   1      44.320  26.461  31.353  1.00  0.00     0.031 C 
ATOM     36  C   UNL A   1      43.713  27.982  33.217  1.00  0.00     0.037 A 
BRANCH  23  37
ATOM     37  C   UNL A   1      39.394  31.971  35.169  1.00  0.00     0.064 A 
ATOM     38  C   UNL A   1      39.775  33.321  35.177  1.00  0.00     0.173 A 
ATOM     39  C   UNL A   1      38.565  31.516  36.206  1.00  0.00     0.173 A 
ATOM     40  F   UNL A   1      40.592  33.797  34.224  1.00  0.00    -0.203 F 
ATOM     41  C   UNL A   1      39.370  34.172  36.202  1.00  0.00     0.198 A 
ATOM     42  C   UNL A   1      38.138  32.377  37.214  1.00  0.00     0.198 A 
ATOM     43  F   UNL A   1      38.180  30.232  36.249  1.00  0.00    -0.203 F 
ATOM     44  F   UNL A   1      39.798  35.442  36.224  1.00  0.00    -0.200 F 
ATOM     45  C   UNL A   1      38.548  33.701  37.216  1.00  0.00     0.200 A 
ATOM     46  F   UNL A   1      37.342  31.920  38.190  1.00  0.00    -0.200 F 
ATOM     47  F   UNL A   1      38.164  34.520  38.205  1.00  0.00    -0.200 F 
ENDBRANCH  23  37
BRANCH  24  48
ATOM     48  C   UNL A   1      42.478  26.259  27.549  1.00  0.00     0.064 A 
ATOM     49  C   UNL A   1      41.780  25.055  27.348  1.00  0.00     0.173 A 
ATOM     50  C   UNL A   1      43.532  26.538  26.668  1.00  0.00     0.173 A 
ATOM     51  F   UNL A   1      40.767  24.725  28.163  1.00  0.00    -0.203 F 
ATOM     52  C   UNL A   1      42.131  24.168  26.331  1.00  0.00     0.198 A 
ATOM     53  C   UNL A   1      43.855  25.671  25.623  1.00  0.00     0.198 A 
ATOM     54  F   UNL A   1      44.241  27.667  26.807  1.00  0.00    -0.203 F 
ATOM     55  F   UNL A   1      41.472  23.009  26.198  1.00  0.00    -0.200 F 
ATOM     56  C   UNL A   1      43.162  24.482  25.461  1.00  0.00     0.200 A 
ATOM     57  F   UNL A   1      44.835  25.994  24.768  1.00  0.00    -0.200 F 
ATOM     58  F   UNL A   1      43.485  23.641  24.470  1.00  0.00    -0.200 F 
ENDBRANCH  24  48
BRANCH  36  59
ATOM     59  C   UNL A   1      44.960  27.525  33.908  1.00  0.00     0.064 A 
ATOM     60  C   UNL A   1      46.178  28.200  33.726  1.00  0.00     0.173 A 
ATOM     61  C   UNL A   1      44.941  26.411  34.756  1.00  0.00     0.173 A 
ATOM     62  F   UNL A   1      46.248  29.260  32.906  1.00  0.00    -0.203 F 
ATOM     63  C   UNL A   1      47.340  27.756  34.349  1.00  0.00     0.198 A 
ATOM     64  C   UNL A   1      46.100  25.986  35.398  1.00  0.00     0.198 A 
ATOM     65  F   UNL A   1      43.800  25.735  34.957  1.00  0.00    -0.203 F 
ATOM     66  F   UNL A   1      48.503  28.381  34.119  1.00  0.00    -0.200 F 
ATOM     67  C   UNL A   1      47.298  26.652  35.188  1.00  0.00     0.200 A 
ATOM     68  F   UNL A   1      46.059  24.923  36.213  1.00  0.00    -0.200 F 
ATOM     69  F   UNL A   1      48.419  26.222  35.784  1.00  0.00    -0.200 F 
ENDBRANCH  36  59
ENDBRANCH  10  11
ENDBRANCH   3   5
ENDBRANCH   2   3
ENDBRANCH   1   2
BRANCH   1  70
ATOM     70  C   UNL A   1      31.472  29.252  24.553  1.00  0.00     0.275 C 
BRANCH  70  71
ATOM     71  O   UNL A   1      31.743  28.886  23.192  1.00  0.00    -0.458 OA
BRANCH  71  72
ATOM     72  C   UNL A   1      30.821  28.052  22.614  1.00  0.00     0.348 C 
ATOM     73  O   UNL A   1      29.900  28.421  21.900  1.00  0.00    -0.245 OA
BRANCH  72  74
ATOM     74  C   UNL A   1      31.164  26.689  22.941  1.00  0.00     0.113 A 
ATOM     75  C   UNL A   1      32.316  25.997  22.625  1.00  0.00     0.042 A 
ATOM     76  S   UNL A   1      30.067  25.720  23.818  1.00  0.00    -0.136 S 
ATOM     77  C   UNL A   1      32.282  24.649  23.067  1.00  0.00     0.020 A 
ATOM     78  C   UNL A   1      31.091  24.355  23.697  1.00  0.00     0.080 A 
BRANCH  77  79
ATOM     79  S   UNL A   1      33.556  23.453  22.902  1.00  0.00    -0.110 SA
BRANCH  79  80
ATOM     80  C   UNL A   1      34.942  23.956  23.952  1.00  0.00     0.165 C 
ATOM     81  C   UNL A   1      34.807  23.795  25.453  1.00  0.00     0.068 C 
ATOM     82  C   UNL A   1      36.217  23.226  23.634  1.00  0.00     0.319 C 
ATOM     83  C   UNL A   1      36.233  23.583  25.893  1.00  0.00     0.234 C 
ATOM     84  O   UNL A   1      36.903  22.977  24.791  1.00  0.00    -0.465 OA
ATOM     85  O   UNL A   1      36.629  22.915  22.530  1.00  0.00    -0.251 OA
ENDBRANCH  79  80
ENDBRANCH  77  79
ENDBRANCH  72  74
ENDBRANCH  71  72
ENDBRANCH  70  71
ENDBRANCH   1  70
TORSDOF 13
ENDMDL
MODEL 3
REMARK VINA RESULT:     -11.4      0.851      2.291
REMARK SMILES O=C(OCCOC(=O)c1cc(S[C@H]2CCOC2=O)cs1)c1ccc(-c2c3nc(c(-c4c(F)c(F)c(F)c(F)c4F)c4ccc([nH]4)c(-c4c(F)c(F)c(F)c(F)c4F)c4nc(c(-c5c(F)c(F)c(F)c(F)c5F)c5ccc2[nH]5)C=C4)C=C3)cc1
REMARK SMILES IDX 4 1 3 2 2 3 1 4 21 5 22 6 83 7 23 8 82 9 24 10 25 11 26 12
REMARK SMILES IDX 76 13 27 14 81 15 75 16 77 17 28 18 80 19 74 20 73 21 29 23
REMARK SMILES IDX 61 24 41 25 60 26 42 27 45 28 59 29 78 30 43 31 44 32 58 34
REMARK SMILES IDX 79 35 46 36 30 37 31 38 39 39 32 40 33 41 37 42 40 43 34 44
REMARK SMILES IDX 35 45 38 46 36 47 62 48 63 49 71 50 64 51 65 52 69 53 72 54
REMARK SMILES IDX 66 55 67 56 70 57 68 58 47 59 48 60 56 61 49 62 50 63 54 64
REMARK SMILES IDX 57 65 51 66 52 67 55 68 53 69 5 70 6 71 7 72 8 73 9 74 10 75
REMARK SMILES IDX 20 76 11 77 19 78 12 79 13 80 14 81 17 82 15 83 16 84 18 85
REMARK H PARENT 77 22 45 33
REMARK Flexibility Score: inf
ROOT
ATOM      1  C   UNL A   1      31.553  29.700  26.904  1.00  0.00     0.275 C 
ENDROOT
BRANCH   1   2
ATOM      2  O   UNL A   1      32.563  30.640  26.493  1.00  0.00    -0.458 OA
BRANCH   2   3
ATOM      3  C   UNL A   1      33.426  31.409  27.192  1.00  0.00     0.338 C 
ATOM      4  O   UNL A   1      33.124  32.592  27.362  1.00  0.00    -0.246 OA
BRANCH   3   5
ATOM      5  C   UNL A   1      34.749  30.959  27.753  1.00  0.00     0.060 A 
ATOM      6  C   UNL A   1      35.158  29.647  28.001  1.00  0.00     0.016 A 
ATOM      7  C   UNL A   1      35.671  31.985  28.062  1.00  0.00     0.016 A 
ATOM      8  C   UNL A   1      36.407  29.372  28.579  1.00  0.00     0.010 A 
ATOM      9  C   UNL A   1      36.927  31.718  28.621  1.00  0.00     0.010 A 
ATOM     10  C   UNL A   1      37.290  30.404  28.913  1.00  0.00    -0.014 A 
BRANCH  10  11
ATOM     11  C   UNL A   1      38.539  30.076  29.637  1.00  0.00     0.031 A 
ATOM     12  C   UNL A   1      38.682  30.456  31.073  1.00  0.00     0.074 A 
ATOM     13  C   UNL A   1      39.533  29.413  29.022  1.00  0.00     0.049 A 
ATOM     14  N   UNL A   1      39.650  30.169  31.902  1.00  0.00    -0.248 NA
ATOM     15  C   UNL A   1      37.633  31.320  31.632  1.00  0.00     0.031 C 
ATOM     16  C   UNL A   1      39.575  29.153  27.594  1.00  0.00     0.029 A 
ATOM     17  N   UNL A   1      40.677  28.823  29.503  1.00  0.00    -0.354 N 
ATOM     18  C   UNL A   1      39.370  30.879  33.058  1.00  0.00     0.074 A 
ATOM     19  C   UNL A   1      38.120  31.579  32.836  1.00  0.00     0.031 C 
ATOM     20  C   UNL A   1      40.633  28.373  27.327  1.00  0.00     0.029 A 
ATOM     21  C   UNL A   1      41.328  28.059  28.561  1.00  0.00     0.049 A 
ATOM     22  H   UNL A   1      40.999  28.936  30.427  1.00  0.00     0.167 HD
ATOM     23  C   UNL A   1      40.122  30.968  34.180  1.00  0.00     0.037 A 
ATOM     24  C   UNL A   1      42.337  27.173  28.690  1.00  0.00     0.037 A 
ATOM     25  C   UNL A   1      41.369  30.274  34.369  1.00  0.00     0.049 A 
ATOM     26  C   UNL A   1      43.023  27.103  30.024  1.00  0.00     0.074 A 
ATOM     27  C   UNL A   1      42.222  30.304  35.458  1.00  0.00     0.029 A 
ATOM     28  N   UNL A   1      41.944  29.419  33.438  1.00  0.00    -0.354 N 
ATOM     29  N   UNL A   1      42.735  27.753  31.125  1.00  0.00    -0.248 NA
ATOM     30  C   UNL A   1      44.206  26.238  30.121  1.00  0.00     0.031 C 
ATOM     31  C   UNL A   1      43.325  29.491  35.173  1.00  0.00     0.029 A 
ATOM     32  C   UNL A   1      43.138  28.912  33.928  1.00  0.00     0.049 A 
ATOM     33  H   UNL A   1      41.560  29.203  32.557  1.00  0.00     0.167 HD
ATOM     34  C   UNL A   1      43.739  27.434  32.022  1.00  0.00     0.074 A 
ATOM     35  C   UNL A   1      44.583  26.450  31.373  1.00  0.00     0.031 C 
ATOM     36  C   UNL A   1      43.975  27.957  33.249  1.00  0.00     0.037 A 
BRANCH  23  37
ATOM     37  C   UNL A   1      39.642  31.913  35.239  1.00  0.00     0.064 A 
ATOM     38  C   UNL A   1      40.107  33.233  35.323  1.00  0.00     0.173 A 
ATOM     39  C   UNL A   1      38.724  31.476  36.207  1.00  0.00     0.173 A 
ATOM     40  F   UNL A   1      41.010  33.688  34.439  1.00  0.00    -0.203 F 
ATOM     41  C   UNL A   1      39.696  34.071  36.356  1.00  0.00     0.198 A 
ATOM     42  C   UNL A   1      38.293  32.326  37.221  1.00  0.00     0.198 A 
ATOM     43  F   UNL A   1      38.256  30.219  36.175  1.00  0.00    -0.203 F 
ATOM     44  F   UNL A   1      40.202  35.309  36.453  1.00  0.00    -0.200 F 
ATOM     45  C   UNL A   1      38.785  33.619  37.300  1.00  0.00     0.200 A 
ATOM     46  F   UNL A   1      37.410  31.888  38.130  1.00  0.00    -0.200 F 
ATOM     47  F   UNL A   1      38.395  34.426  38.296  1.00  0.00    -0.200 F 
ENDBRANCH  23  37
BRANCH  24  48
ATOM     48  C   UNL A   1      42.731  26.264  27.574  1.00  0.00     0.064 A 
ATOM     49  C   UNL A   1      43.773  26.626  26.702  1.00  0.00     0.173 A 
ATOM     50  C   UNL A   1      42.106  25.032  27.340  1.00  0.00     0.173 A 
ATOM     51  F   UNL A   1      44.407  27.798  26.865  1.00  0.00    -0.203 F 
ATOM     52  C   UNL A   1      44.157  25.806  25.640  1.00  0.00     0.198 A 
ATOM     53  C   UNL A   1      42.518  24.191  26.304  1.00  0.00     0.198 A 
ATOM     54  F   UNL A   1      41.102  24.629  28.131  1.00  0.00    -0.203 F 
ATOM     55  F   UNL A   1      45.124  26.205  24.803  1.00  0.00    -0.200 F 
ATOM     56  C   UNL A   1      43.536  24.584  25.449  1.00  0.00     0.200 A 
ATOM     57  F   UNL A   1      41.932  22.997  26.141  1.00  0.00    -0.200 F 
ATOM     58  F   UNL A   1      43.918  23.785  24.443  1.00  0.00    -0.200 F 
ENDBRANCH  24  48
BRANCH  36  59
ATOM     59  C   UNL A   1      45.226  27.501  33.933  1.00  0.00     0.064 A 
ATOM     60  C   UNL A   1      46.440  28.185  33.754  1.00  0.00     0.173 A 
ATOM     61  C   UNL A   1      45.215  26.381  34.772  1.00  0.00     0.173 A 
ATOM     62  F   UNL A   1      46.501  29.251  32.942  1.00  0.00    -0.203 F 
ATOM     63  C   UNL A   1      47.605  27.742  34.370  1.00  0.00     0.198 A 
ATOM     64  C   UNL A   1      46.378  25.957  35.409  1.00  0.00     0.198 A 
ATOM     65  F   UNL A   1      44.079  25.696  34.971  1.00  0.00    -0.203 F 
ATOM     66  F   UNL A   1      48.764  28.376  34.143  1.00  0.00    -0.200 F 
ATOM     67  C   UNL A   1      47.572  26.632  35.201  1.00  0.00     0.200 A 
ATOM     68  F   UNL A   1      46.345  24.887  36.215  1.00  0.00    -0.200 F 
ATOM     69  F   UNL A   1      48.696  26.203  35.791  1.00  0.00    -0.200 F 
ENDBRANCH  36  59
ENDBRANCH  10  11
ENDBRANCH   3   5
ENDBRANCH   2   3
ENDBRANCH   1   2
BRANCH   1  70
ATOM     70  C   UNL A   1      32.061  28.255  26.927  1.00  0.00     0.275 C 
BRANCH  70  71
ATOM     71  O   UNL A   1      32.764  27.893  25.730  1.00  0.00    -0.458 OA
BRANCH  71  72
ATOM     72  C   UNL A   1      32.082  27.064  24.877  1.00  0.00     0.348 C 
ATOM     73  O   UNL A   1      32.093  25.842  24.935  1.00  0.00    -0.245 OA
BRANCH  72  74
ATOM     74  C   UNL A   1      31.317  27.874  23.961  1.00  0.00     0.113 A 
ATOM     75  C   UNL A   1      29.947  28.031  23.897  1.00  0.00     0.042 A 
ATOM     76  S   UNL A   1      32.114  28.784  22.757  1.00  0.00    -0.136 S 
ATOM     77  C   UNL A   1      29.543  28.870  22.825  1.00  0.00     0.020 A 
ATOM     78  C   UNL A   1      30.627  29.314  22.098  1.00  0.00     0.080 A 
BRANCH  77  79
ATOM     79  S   UNL A   1      27.904  29.353  22.425  1.00  0.00    -0.110 SA
BRANCH  79  80
ATOM     80  C   UNL A   1      27.772  31.144  22.656  1.00  0.00     0.165 C 
ATOM     81  C   UNL A   1      28.694  31.814  23.656  1.00  0.00     0.068 C 
ATOM     82  C   UNL A   1      28.006  31.920  21.390  1.00  0.00     0.319 C 
ATOM     83  C   UNL A   1      28.848  33.201  23.087  1.00  0.00     0.234 C 
ATOM     84  O   UNL A   1      28.684  33.073  21.677  1.00  0.00    -0.465 OA
ATOM     85  O   UNL A   1      27.636  31.621  20.268  1.00  0.00    -0.251 OA
ENDBRANCH  79  80
ENDBRANCH  77  79
ENDBRANCH  72  74
ENDBRANCH  71  72
ENDBRANCH  70  71
ENDBRANCH   1  70
TORSDOF 13
ENDMDL
