MODEL 1
REMARK VINA RESULT:     -10.8      0.000      0.000
REMARK SMILES CCC1(CC)CCN(c2nc(C(C)C)c(C(=O)OCCOC(=O)c3ccc(-c4c5nc(c(-c6c(F)c(F)c(F)c(F)c6F)c6ccc([nH]6)c(-c6c(F)c(F)c(F)c(F)c6F)c6nc(c(-c7c(F)c(F)c(F)c(F)c7F)c7ccc4[nH]7)C=C6)C=C5)cc3)s2)C1
REMARK SMILES IDX 19 1 18 2 16 3 17 4 15 5 9 6 10 7 87 8 11 9 8 10 3 11 6 12
REMARK SMILES IDX 88 13 7 14 2 15 1 16 4 17 5 18 12 19 13 20 14 21 20 22 21 23
REMARK SMILES IDX 22 24 23 25 24 26 25 27 86 28 26 29 85 30 27 31 28 32 29 33
REMARK SMILES IDX 79 34 30 35 84 36 78 37 80 38 31 39 83 40 77 41 76 42 32 44
REMARK SMILES IDX 64 45 44 46 63 47 45 48 48 49 62 50 81 51 46 52 47 53 61 55
REMARK SMILES IDX 82 56 49 57 33 58 34 59 42 60 35 61 36 62 40 63 43 64 37 65
REMARK SMILES IDX 38 66 41 67 39 68 65 69 66 70 74 71 67 72 68 73 72 74 75 75
REMARK SMILES IDX 69 76 70 77 73 78 71 79 50 80 51 81 59 82 52 83 53 84 57 85
REMARK SMILES IDX 60 86 54 87 55 88 58 89 56 90
REMARK H PARENT 80 43 48 54
REMARK Flexibility Score: inf
ROOT
ATOM      1  C   UNL A   1      42.607  21.264  25.976  1.00  0.00     0.275 C 
ENDROOT
BRANCH   1   2
ATOM      2  O   UNL A   1      41.429  22.091  25.865  1.00  0.00    -0.458 OA
BRANCH   2   3
ATOM      3  C   UNL A   1      40.445  21.926  26.794  1.00  0.00     0.350 C 
ATOM      4  O   UNL A   1      40.639  21.458  27.909  1.00  0.00    -0.245 OA
BRANCH   3   5
ATOM      5  C   UNL A   1      39.183  22.458  26.310  1.00  0.00     0.137 A 
ATOM      6  C   UNL A   1      36.934  22.596  25.342  1.00  0.00     0.186 A 
ATOM      7  N   UNL A   1      37.289  23.755  25.849  1.00  0.00    -0.224 NA
ATOM      8  S   UNL A   1      38.171  21.414  25.378  1.00  0.00    -0.089 S 
ATOM      9  C   UNL A   1      38.581  23.707  26.390  1.00  0.00     0.071 A 
BRANCH   6  10
ATOM     10  N   UNL A   1      35.750  22.328  24.739  1.00  0.00    -0.347 N 
ATOM     11  C   UNL A   1      33.352  22.424  24.579  1.00  0.00    -0.011 C 
ATOM     12  C   UNL A   1      34.003  23.456  23.640  1.00  0.00     0.030 C 
ATOM     13  C   UNL A   1      34.544  22.128  25.549  1.00  0.00     0.126 C 
ATOM     14  C   UNL A   1      35.436  22.966  23.472  1.00  0.00     0.119 C 
BRANCH  11  15
ATOM     15  C   UNL A   1      32.941  21.097  23.873  1.00  0.00     0.005 C 
ATOM     16  C   UNL A   1      32.594  19.902  24.756  1.00  0.00     0.004 C 
ENDBRANCH  11  15
BRANCH  11  17
ATOM     17  C   UNL A   1      32.182  23.051  25.384  1.00  0.00     0.005 C 
ATOM     18  C   UNL A   1      32.273  22.960  26.901  1.00  0.00     0.004 C 
ENDBRANCH  11  17
ENDBRANCH   6  10
BRANCH   9  19
ATOM     19  C   UNL A   1      39.144  25.019  26.891  1.00  0.00     0.034 C 
ATOM     20  C   UNL A   1      39.352  25.065  28.404  1.00  0.00     0.014 C 
ATOM     21  C   UNL A   1      40.394  25.456  26.121  1.00  0.00     0.014 C 
ENDBRANCH   9  19
ENDBRANCH   3   5
ENDBRANCH   2   3
ENDBRANCH   1   2
BRANCH   1  22
ATOM     22  C   UNL A   1      43.799  21.902  25.258  1.00  0.00     0.275 C 
BRANCH  22  23
ATOM     23  O   UNL A   1      44.538  22.742  26.163  1.00  0.00    -0.458 OA
BRANCH  23  24
ATOM     24  C   UNL A   1      44.606  24.046  25.809  1.00  0.00     0.338 C 
ATOM     25  O   UNL A   1      44.960  24.513  24.740  1.00  0.00    -0.246 OA
BRANCH  24  26
ATOM     26  C   UNL A   1      43.975  24.850  26.861  1.00  0.00     0.060 A 
ATOM     27  C   UNL A   1      44.098  26.231  26.746  1.00  0.00     0.016 A 
ATOM     28  C   UNL A   1      43.349  24.290  27.971  1.00  0.00     0.016 A 
ATOM     29  C   UNL A   1      43.617  27.076  27.734  1.00  0.00     0.010 A 
ATOM     30  C   UNL A   1      42.833  25.141  28.958  1.00  0.00     0.010 A 
ATOM     31  C   UNL A   1      42.970  26.540  28.849  1.00  0.00    -0.014 A 
BRANCH  31  32
ATOM     32  C   UNL A   1      42.482  27.453  29.911  1.00  0.00     0.031 A 
ATOM     33  C   UNL A   1      43.216  27.542  31.216  1.00  0.00     0.074 A 
ATOM     34  C   UNL A   1      41.406  28.231  29.684  1.00  0.00     0.049 A 
ATOM     35  N   UNL A   1      42.887  28.177  32.312  1.00  0.00    -0.248 NA
ATOM     36  C   UNL A   1      44.493  26.817  31.301  1.00  0.00     0.031 C 
ATOM     37  C   UNL A   1      40.657  28.290  28.427  1.00  0.00     0.029 A 
ATOM     38  N   UNL A   1      40.759  29.126  30.499  1.00  0.00    -0.354 N 
ATOM     39  C   UNL A   1      43.892  27.897  33.227  1.00  0.00     0.074 A 
ATOM     40  C   UNL A   1      44.840  27.028  32.563  1.00  0.00     0.031 C 
ATOM     41  C   UNL A   1      39.660  29.180  28.551  1.00  0.00     0.029 A 
ATOM     42  C   UNL A   1      39.654  29.696  29.915  1.00  0.00     0.049 A 
ATOM     43  H   UNL A   1      41.057  29.339  31.412  1.00  0.00     0.167 HD
ATOM     44  C   UNL A   1      44.007  28.328  34.506  1.00  0.00     0.037 A 
ATOM     45  C   UNL A   1      38.715  30.509  30.437  1.00  0.00     0.037 A 
ATOM     46  C   UNL A   1      43.070  29.217  35.144  1.00  0.00     0.049 A 
ATOM     47  C   UNL A   1      38.825  30.911  31.881  1.00  0.00     0.074 A 
ATOM     48  C   UNL A   1      43.098  29.724  36.431  1.00  0.00     0.029 A 
ATOM     49  N   UNL A   1      41.932  29.732  34.536  1.00  0.00    -0.354 N 
ATOM     50  N   UNL A   1      39.760  30.618  32.753  1.00  0.00    -0.248 NA
ATOM     51  C   UNL A   1      37.742  31.745  32.420  1.00  0.00     0.031 C 
ATOM     52  C   UNL A   1      41.953  30.504  36.619  1.00  0.00     0.029 A 
ATOM     53  C   UNL A   1      41.238  30.529  35.433  1.00  0.00     0.049 A 
ATOM     54  H   UNL A   1      41.661  29.558  33.607  1.00  0.00     0.167 HD
ATOM     55  C   UNL A   1      39.387  31.240  33.936  1.00  0.00     0.074 A 
ATOM     56  C   UNL A   1      38.152  31.947  33.664  1.00  0.00     0.031 C 
ATOM     57  C   UNL A   1      40.008  31.223  35.141  1.00  0.00     0.037 A 
BRANCH  44  58
ATOM     58  C   UNL A   1      45.161  27.810  35.314  1.00  0.00     0.064 A 
ATOM     59  C   UNL A   1      46.388  28.486  35.383  1.00  0.00     0.173 A 
ATOM     60  C   UNL A   1      45.024  26.626  36.057  1.00  0.00     0.173 A 
ATOM     61  F   UNL A   1      46.577  29.614  34.681  1.00  0.00    -0.203 F 
ATOM     62  C   UNL A   1      47.442  27.983  36.141  1.00  0.00     0.198 A 
ATOM     63  C   UNL A   1      46.070  26.142  36.838  1.00  0.00     0.198 A 
ATOM     64  F   UNL A   1      43.872  25.941  36.031  1.00  0.00    -0.203 F 
ATOM     65  F   UNL A   1      48.621  28.621  36.153  1.00  0.00    -0.200 F 
ATOM     66  C   UNL A   1      47.280  26.816  36.873  1.00  0.00     0.200 A 
ATOM     67  F   UNL A   1      45.907  25.021  37.554  1.00  0.00    -0.200 F 
ATOM     68  F   UNL A   1      48.295  26.337  37.607  1.00  0.00    -0.200 F 
ENDBRANCH  44  58
BRANCH  45  69
ATOM     69  C   UNL A   1      37.567  30.951  29.600  1.00  0.00     0.064 A 
ATOM     70  C   UNL A   1      36.541  30.063  29.249  1.00  0.00     0.173 A 
ATOM     71  C   UNL A   1      37.475  32.270  29.129  1.00  0.00     0.173 A 
ATOM     72  F   UNL A   1      36.597  28.783  29.650  1.00  0.00    -0.203 F 
ATOM     73  C   UNL A   1      35.476  30.473  28.450  1.00  0.00     0.198 A 
ATOM     74  C   UNL A   1      36.392  32.688  28.358  1.00  0.00     0.198 A 
ATOM     75  F   UNL A   1      38.432  33.160  29.430  1.00  0.00    -0.203 F 
ATOM     76  F   UNL A   1      34.533  29.592  28.091  1.00  0.00    -0.200 F 
ATOM     77  C   UNL A   1      35.397  31.787  28.013  1.00  0.00     0.200 A 
ATOM     78  F   UNL A   1      36.316  33.961  27.950  1.00  0.00    -0.200 F 
ATOM     79  F   UNL A   1      34.369  32.183  27.251  1.00  0.00    -0.200 F 
ENDBRANCH  45  69
BRANCH  57  80
ATOM     80  C   UNL A   1      39.373  32.014  36.248  1.00  0.00     0.064 A 
ATOM     81  C   UNL A   1      38.336  31.482  37.029  1.00  0.00     0.173 A 
ATOM     82  C   UNL A   1      39.831  33.304  36.553  1.00  0.00     0.173 A 
ATOM     83  F   UNL A   1      37.852  30.260  36.765  1.00  0.00    -0.203 F 
ATOM     84  C   UNL A   1      37.765  32.224  38.060  1.00  0.00     0.198 A 
ATOM     85  C   UNL A   1      39.280  34.031  37.604  1.00  0.00     0.198 A 
ATOM     86  F   UNL A   1      40.825  33.857  35.839  1.00  0.00    -0.203 F 
ATOM     87  F   UNL A   1      36.743  31.716  38.762  1.00  0.00    -0.200 F 
ATOM     88  C   UNL A   1      38.243  33.494  38.351  1.00  0.00     0.200 A 
ATOM     89  F   UNL A   1      39.752  35.251  37.893  1.00  0.00    -0.200 F 
ATOM     90  F   UNL A   1      37.698  34.202  39.349  1.00  0.00    -0.200 F 
ENDBRANCH  57  80
ENDBRANCH  31  32
ENDBRANCH  24  26
ENDBRANCH  23  24
ENDBRANCH  22  23
ENDBRANCH   1  22
TORSDOF 15
ENDMDL
MODEL 2
REMARK VINA RESULT:     -10.8      0.680      1.871
REMARK SMILES CCC1(CC)CCN(c2nc(C(C)C)c(C(=O)OCCOC(=O)c3ccc(-c4c5nc(c(-c6c(F)c(F)c(F)c(F)c6F)c6ccc([nH]6)c(-c6c(F)c(F)c(F)c(F)c6F)c6nc(c(-c7c(F)c(F)c(F)c(F)c7F)c7ccc4[nH]7)C=C6)C=C5)cc3)s2)C1
REMARK SMILES IDX 19 1 18 2 16 3 17 4 15 5 9 6 10 7 87 8 11 9 8 10 3 11 6 12
REMARK SMILES IDX 88 13 7 14 2 15 1 16 4 17 5 18 12 19 13 20 14 21 20 22 21 23
REMARK SMILES IDX 22 24 23 25 24 26 25 27 86 28 26 29 85 30 27 31 28 32 29 33
REMARK SMILES IDX 79 34 30 35 84 36 78 37 80 38 31 39 83 40 77 41 76 42 32 44
REMARK SMILES IDX 64 45 44 46 63 47 45 48 48 49 62 50 81 51 46 52 47 53 61 55
REMARK SMILES IDX 82 56 49 57 33 58 34 59 42 60 35 61 36 62 40 63 43 64 37 65
REMARK SMILES IDX 38 66 41 67 39 68 65 69 66 70 74 71 67 72 68 73 72 74 75 75
REMARK SMILES IDX 69 76 70 77 73 78 71 79 50 80 51 81 59 82 52 83 53 84 57 85
REMARK SMILES IDX 60 86 54 87 55 88 58 89 56 90
REMARK H PARENT 80 43 48 54
REMARK Flexibility Score: inf
ROOT
ATOM      1  C   UNL A   1      42.752  21.332  26.164  1.00  0.00     0.275 C 
ENDROOT
BRANCH   1   2
ATOM      2  O   UNL A   1      41.439  21.750  25.734  1.00  0.00    -0.458 OA
BRANCH   2   3
ATOM      3  C   UNL A   1      40.366  21.327  26.461  1.00  0.00     0.350 C 
ATOM      4  O   UNL A   1      40.404  20.378  27.233  1.00  0.00    -0.245 OA
BRANCH   3   5
ATOM      5  C   UNL A   1      39.226  22.205  26.259  1.00  0.00     0.137 A 
ATOM      6  C   UNL A   1      36.977  23.008  25.699  1.00  0.00     0.186 A 
ATOM      7  N   UNL A   1      37.676  23.960  26.272  1.00  0.00    -0.224 NA
ATOM      8  S   UNL A   1      37.870  21.580  25.391  1.00  0.00    -0.089 S 
ATOM      9  C   UNL A   1      38.974  23.532  26.582  1.00  0.00     0.071 A 
BRANCH   6  10
ATOM     10  N   UNL A   1      35.695  23.116  25.274  1.00  0.00    -0.347 N 
ATOM     11  C   UNL A   1      33.313  22.971  25.575  1.00  0.00    -0.011 C 
ATOM     12  C   UNL A   1      33.785  24.434  25.661  1.00  0.00     0.030 C 
ATOM     13  C   UNL A   1      34.666  22.219  25.809  1.00  0.00     0.126 C 
ATOM     14  C   UNL A   1      35.151  24.433  24.985  1.00  0.00     0.119 C 
BRANCH  11  15
ATOM     15  C   UNL A   1      32.753  22.566  24.178  1.00  0.00     0.005 C 
ATOM     16  C   UNL A   1      32.596  21.079  23.880  1.00  0.00     0.004 C 
ENDBRANCH  11  15
BRANCH  11  17
ATOM     17  C   UNL A   1      32.331  22.625  26.727  1.00  0.00     0.005 C 
ATOM     18  C   UNL A   1      30.970  23.305  26.690  1.00  0.00     0.004 C 
ENDBRANCH  11  17
ENDBRANCH   6  10
BRANCH   9  19
ATOM     19  C   UNL A   1      39.911  24.585  27.133  1.00  0.00     0.034 C 
ATOM     20  C   UNL A   1      40.404  25.583  26.086  1.00  0.00     0.014 C 
ATOM     21  C   UNL A   1      39.349  25.282  28.376  1.00  0.00     0.014 C 
ENDBRANCH   9  19
ENDBRANCH   3   5
ENDBRANCH   2   3
ENDBRANCH   1   2
BRANCH   1  22
ATOM     22  C   UNL A   1      43.848  22.062  25.383  1.00  0.00     0.275 C 
BRANCH  22  23
ATOM     23  O   UNL A   1      43.480  23.436  25.168  1.00  0.00    -0.458 OA
BRANCH  23  24
ATOM     24  C   UNL A   1      44.482  24.330  25.323  1.00  0.00     0.338 C 
ATOM     25  O   UNL A   1      45.473  24.471  24.626  1.00  0.00    -0.246 OA
BRANCH  24  26
ATOM     26  C   UNL A   1      44.102  25.283  26.371  1.00  0.00     0.060 A 
ATOM     27  C   UNL A   1      43.584  24.743  27.545  1.00  0.00     0.016 A 
ATOM     28  C   UNL A   1      44.170  26.662  26.202  1.00  0.00     0.016 A 
ATOM     29  C   UNL A   1      43.112  25.562  28.559  1.00  0.00     0.010 A 
ATOM     30  C   UNL A   1      43.723  27.495  27.237  1.00  0.00     0.010 A 
ATOM     31  C   UNL A   1      43.184  26.949  28.420  1.00  0.00    -0.014 A 
BRANCH  31  32
ATOM     32  C   UNL A   1      42.653  27.813  29.502  1.00  0.00     0.031 A 
ATOM     33  C   UNL A   1      43.412  27.950  30.790  1.00  0.00     0.074 A 
ATOM     34  C   UNL A   1      41.514  28.505  29.311  1.00  0.00     0.049 A 
ATOM     35  N   UNL A   1      43.063  28.548  31.900  1.00  0.00    -0.248 NA
ATOM     36  C   UNL A   1      44.744  27.327  30.835  1.00  0.00     0.031 C 
ATOM     37  C   UNL A   1      40.729  28.514  28.075  1.00  0.00     0.029 A 
ATOM     38  N   UNL A   1      40.820  29.340  30.151  1.00  0.00    -0.354 N 
ATOM     39  C   UNL A   1      44.111  28.342  32.786  1.00  0.00     0.074 A 
ATOM     40  C   UNL A   1      45.107  27.555  32.089  1.00  0.00     0.031 C 
ATOM     41  C   UNL A   1      39.669  29.322  28.232  1.00  0.00     0.029 A 
ATOM     42  C   UNL A   1      39.658  29.826  29.602  1.00  0.00     0.049 A 
ATOM     43  H   UNL A   1      41.124  29.569  31.058  1.00  0.00     0.167 HD
ATOM     44  C   UNL A   1      44.226  28.771  34.065  1.00  0.00     0.037 A 
ATOM     45  C   UNL A   1      38.672  30.558  30.155  1.00  0.00     0.037 A 
ATOM     46  C   UNL A   1      43.238  29.578  34.735  1.00  0.00     0.049 A 
ATOM     47  C   UNL A   1      38.788  30.956  31.600  1.00  0.00     0.074 A 
ATOM     48  C   UNL A   1      43.261  30.076  36.026  1.00  0.00     0.029 A 
ATOM     49  N   UNL A   1      42.048  30.006  34.163  1.00  0.00    -0.354 N 
ATOM     50  N   UNL A   1      39.766  30.732  32.444  1.00  0.00    -0.248 NA
ATOM     51  C   UNL A   1      37.657  31.697  32.174  1.00  0.00     0.031 C 
ATOM     52  C   UNL A   1      42.063  30.762  36.251  1.00  0.00     0.029 A 
ATOM     53  C   UNL A   1      41.316  30.739  35.084  1.00  0.00     0.049 A 
ATOM     54  H   UNL A   1      41.766  29.819  33.239  1.00  0.00     0.167 HD
ATOM     55  C   UNL A   1      39.377  31.313  33.643  1.00  0.00     0.074 A 
ATOM     56  C   UNL A   1      38.083  31.922  33.409  1.00  0.00     0.031 C 
ATOM     57  C   UNL A   1      40.029  31.337  34.831  1.00  0.00     0.037 A 
BRANCH  44  58
ATOM     58  C   UNL A   1      45.437  28.339  34.838  1.00  0.00     0.064 A 
ATOM     59  C   UNL A   1      46.617  29.098  34.863  1.00  0.00     0.173 A 
ATOM     60  C   UNL A   1      45.406  27.155  35.593  1.00  0.00     0.173 A 
ATOM     61  F   UNL A   1      46.705  30.230  34.148  1.00  0.00    -0.203 F 
ATOM     62  C   UNL A   1      47.727  28.674  35.589  1.00  0.00     0.198 A 
ATOM     63  C   UNL A   1      46.507  26.751  36.343  1.00  0.00     0.198 A 
ATOM     64  F   UNL A   1      44.303  26.393  35.609  1.00  0.00    -0.203 F 
ATOM     65  F   UNL A   1      48.860  29.391  35.558  1.00  0.00    -0.200 F 
ATOM     66  C   UNL A   1      47.669  27.506  36.333  1.00  0.00     0.200 A 
ATOM     67  F   UNL A   1      46.444  25.628  37.071  1.00  0.00    -0.200 F 
ATOM     68  F   UNL A   1      48.737  27.103  37.036  1.00  0.00    -0.200 F 
ENDBRANCH  44  58
BRANCH  45  69
ATOM     69  C   UNL A   1      37.471  30.914  29.352  1.00  0.00     0.064 A 
ATOM     70  C   UNL A   1      37.284  32.215  28.866  1.00  0.00     0.173 A 
ATOM     71  C   UNL A   1      36.483  29.960  29.059  1.00  0.00     0.173 A 
ATOM     72  F   UNL A   1      38.184  33.170  29.143  1.00  0.00    -0.203 F 
ATOM     73  C   UNL A   1      36.149  32.551  28.130  1.00  0.00     0.198 A 
ATOM     74  C   UNL A   1      35.366  30.290  28.294  1.00  0.00     0.198 A 
ATOM     75  F   UNL A   1      36.610  28.702  29.504  1.00  0.00    -0.203 F 
ATOM     76  F   UNL A   1      35.971  33.813  27.717  1.00  0.00    -0.200 F 
ATOM     77  C   UNL A   1      35.197  31.587  27.837  1.00  0.00     0.200 A 
ATOM     78  F   UNL A   1      34.456  29.351  28.004  1.00  0.00    -0.200 F 
ATOM     79  F   UNL A   1      34.109  31.909  27.123  1.00  0.00    -0.200 F 
ENDBRANCH  45  69
BRANCH  57  80
ATOM     80  C   UNL A   1      39.363  32.066  35.962  1.00  0.00     0.064 A 
ATOM     81  C   UNL A   1      39.614  33.423  36.209  1.00  0.00     0.173 A 
ATOM     82  C   UNL A   1      38.435  31.408  36.782  1.00  0.00     0.173 A 
ATOM     83  F   UNL A   1      40.506  34.091  35.463  1.00  0.00    -0.203 F 
ATOM     84  C   UNL A   1      38.979  34.088  37.255  1.00  0.00     0.198 A 
ATOM     85  C   UNL A   1      37.778  32.083  37.806  1.00  0.00     0.198 A 
ATOM     86  F   UNL A   1      38.155  30.110  36.583  1.00  0.00    -0.203 F 
ATOM     87  F   UNL A   1      39.271  35.372  37.505  1.00  0.00    -0.200 F 
ATOM     88  C   UNL A   1      38.056  33.420  38.047  1.00  0.00     0.200 A 
ATOM     89  F   UNL A   1      36.877  31.441  38.561  1.00  0.00    -0.200 F 
ATOM     90  F   UNL A   1      37.440  34.065  39.046  1.00  0.00    -0.200 F 
ENDBRANCH  57  80
ENDBRANCH  31  32
ENDBRANCH  24  26
ENDBRANCH  23  24
ENDBRANCH  22  23
ENDBRANCH   1  22
TORSDOF 15
ENDMDL
MODEL 3
REMARK VINA RESULT:     -10.5      4.819      9.210
REMARK SMILES CCC1(CC)CCN(c2nc(C(C)C)c(C(=O)OCCOC(=O)c3ccc(-c4c5nc(c(-c6c(F)c(F)c(F)c(F)c6F)c6ccc([nH]6)c(-c6c(F)c(F)c(F)c(F)c6F)c6nc(c(-c7c(F)c(F)c(F)c(F)c7F)c7ccc4[nH]7)C=C6)C=C5)cc3)s2)C1
REMARK SMILES IDX 19 1 18 2 16 3 17 4 15 5 9 6 10 7 87 8 11 9 8 10 3 11 6 12
REMARK SMILES IDX 88 13 7 14 2 15 1 16 4 17 5 18 12 19 13 20 14 21 20 22 21 23
REMARK SMILES IDX 22 24 23 25 24 26 25 27 86 28 26 29 85 30 27 31 28 32 29 33
REMARK SMILES IDX 79 34 30 35 84 36 78 37 80 38 31 39 83 40 77 41 76 42 32 44
REMARK SMILES IDX 64 45 44 46 63 47 45 48 48 49 62 50 81 51 46 52 47 53 61 55
REMARK SMILES IDX 82 56 49 57 33 58 34 59 42 60 35 61 36 62 40 63 43 64 37 65
REMARK SMILES IDX 38 66 41 67 39 68 65 69 66 70 74 71 67 72 68 73 72 74 75 75
REMARK SMILES IDX 69 76 70 77 73 78 71 79 50 80 51 81 59 82 52 83 53 84 57 85
REMARK SMILES IDX 60 86 54 87 55 88 58 89 56 90
REMARK H PARENT 80 43 48 54
REMARK Flexibility Score: inf
ROOT
ATOM      1  C   UNL A   1      35.889  20.644  25.046  1.00  0.00     0.275 C 
ENDROOT
BRANCH   1   2
ATOM      2  O   UNL A   1      35.480  21.975  25.426  1.00  0.00    -0.458 OA
BRANCH   2   3
ATOM      3  C   UNL A   1      35.085  22.827  24.437  1.00  0.00     0.350 C 
ATOM      4  O   UNL A   1      35.465  22.738  23.277  1.00  0.00    -0.245 OA
BRANCH   3   5
ATOM      5  C   UNL A   1      34.102  23.773  24.932  1.00  0.00     0.137 A 
ATOM      6  C   UNL A   1      32.975  25.878  25.497  1.00  0.00     0.186 A 
ATOM      7  N   UNL A   1      32.174  24.858  25.703  1.00  0.00    -0.224 NA
ATOM      8  S   UNL A   1      34.567  25.433  25.050  1.00  0.00    -0.089 S 
ATOM      9  C   UNL A   1      32.804  23.640  25.408  1.00  0.00     0.071 A 
BRANCH   6  10
ATOM     10  N   UNL A   1      32.662  27.181  25.701  1.00  0.00    -0.347 N 
ATOM     11  C   UNL A   1      33.150  29.416  26.442  1.00  0.00    -0.011 C 
ATOM     12  C   UNL A   1      33.265  29.312  24.910  1.00  0.00     0.030 C 
ATOM     13  C   UNL A   1      33.237  27.904  26.839  1.00  0.00     0.126 C 
ATOM     14  C   UNL A   1      32.481  28.056  24.554  1.00  0.00     0.119 C 
BRANCH  11  15
ATOM     15  C   UNL A   1      31.786  29.984  26.939  1.00  0.00     0.005 C 
ATOM     16  C   UNL A   1      31.446  31.427  26.581  1.00  0.00     0.004 C 
ENDBRANCH  11  15
BRANCH  11  17
ATOM     17  C   UNL A   1      34.361  30.173  27.051  1.00  0.00     0.005 C 
ATOM     18  C   UNL A   1      35.493  29.318  27.603  1.00  0.00     0.004 C 
ENDBRANCH  11  17
ENDBRANCH   6  10
BRANCH   9  19
ATOM     19  C   UNL A   1      32.017  22.388  25.728  1.00  0.00     0.034 C 
ATOM     20  C   UNL A   1      30.619  22.659  26.280  1.00  0.00     0.014 C 
ATOM     21  C   UNL A   1      31.996  21.393  24.564  1.00  0.00     0.014 C 
ENDBRANCH   9  19
ENDBRANCH   3   5
ENDBRANCH   2   3
ENDBRANCH   1   2
BRANCH   1  22
ATOM     22  C   UNL A   1      37.414  20.534  24.975  1.00  0.00     0.275 C 
BRANCH  22  23
ATOM     23  O   UNL A   1      38.029  21.551  25.786  1.00  0.00    -0.458 OA
BRANCH  23  24
ATOM     24  C   UNL A   1      39.227  21.217  26.315  1.00  0.00     0.338 C 
ATOM     25  O   UNL A   1      39.783  20.132  26.282  1.00  0.00    -0.246 OA
BRANCH  24  26
ATOM     26  C   UNL A   1      39.892  22.440  26.779  1.00  0.00     0.060 A 
ATOM     27  C   UNL A   1      39.489  23.631  26.184  1.00  0.00     0.016 A 
ATOM     28  C   UNL A   1      40.928  22.433  27.708  1.00  0.00     0.016 A 
ATOM     29  C   UNL A   1      40.117  24.829  26.488  1.00  0.00     0.010 A 
ATOM     30  C   UNL A   1      41.547  23.645  28.041  1.00  0.00     0.010 A 
ATOM     31  C   UNL A   1      41.149  24.851  27.428  1.00  0.00    -0.014 A 
BRANCH  31  32
ATOM     32  C   UNL A   1      41.829  26.135  27.725  1.00  0.00     0.031 A 
ATOM     33  C   UNL A   1      41.126  27.182  28.539  1.00  0.00     0.074 A 
ATOM     34  C   UNL A   1      43.091  26.341  27.302  1.00  0.00     0.049 A 
ATOM     35  N   UNL A   1      41.489  28.411  28.803  1.00  0.00    -0.248 NA
ATOM     36  C   UNL A   1      39.838  26.794  29.135  1.00  0.00     0.031 C 
ATOM     37  C   UNL A   1      43.904  25.368  26.570  1.00  0.00     0.029 A 
ATOM     38  N   UNL A   1      43.912  27.433  27.428  1.00  0.00    -0.354 N 
ATOM     39  C   UNL A   1      40.461  28.955  29.560  1.00  0.00     0.074 A 
ATOM     40  C   UNL A   1      39.453  27.926  29.707  1.00  0.00     0.031 C 
ATOM     41  C   UNL A   1      45.111  25.901  26.323  1.00  0.00     0.029 A 
ATOM     42  C   UNL A   1      45.129  27.276  26.810  1.00  0.00     0.049 A 
ATOM     43  H   UNL A   1      43.656  28.248  27.916  1.00  0.00     0.167 HD
ATOM     44  C   UNL A   1      40.370  30.202  30.081  1.00  0.00     0.037 A 
ATOM     45  C   UNL A   1      46.128  28.158  26.617  1.00  0.00     0.037 A 
ATOM     46  C   UNL A   1      41.395  31.205  29.950  1.00  0.00     0.049 A 
ATOM     47  C   UNL A   1      45.970  29.559  27.139  1.00  0.00     0.074 A 
ATOM     48  C   UNL A   1      41.409  32.496  30.448  1.00  0.00     0.029 A 
ATOM     49  N   UNL A   1      42.593  31.027  29.269  1.00  0.00    -0.354 N 
ATOM     50  N   UNL A   1      44.982  30.079  27.826  1.00  0.00    -0.248 NA
ATOM     51  C   UNL A   1      47.058  30.501  26.846  1.00  0.00     0.031 C 
ATOM     52  C   UNL A   1      42.591  33.115  30.027  1.00  0.00     0.029 A 
ATOM     53  C   UNL A   1      43.339  32.194  29.312  1.00  0.00     0.049 A 
ATOM     54  H   UNL A   1      42.870  30.194  28.824  1.00  0.00     0.167 HD
ATOM     55  C   UNL A   1      45.332  31.401  28.060  1.00  0.00     0.074 A 
ATOM     56  C   UNL A   1      46.638  31.597  27.461  1.00  0.00     0.031 C 
ATOM     57  C   UNL A   1      44.637  32.368  28.708  1.00  0.00     0.037 A 
BRANCH  44  58
ATOM     58  C   UNL A   1      39.104  30.566  30.800  1.00  0.00     0.064 A 
ATOM     59  C   UNL A   1      38.976  30.448  32.192  1.00  0.00     0.173 A 
ATOM     60  C   UNL A   1      38.007  31.068  30.082  1.00  0.00     0.173 A 
ATOM     61  F   UNL A   1      39.988  29.960  32.923  1.00  0.00    -0.203 F 
ATOM     62  C   UNL A   1      37.789  30.793  32.833  1.00  0.00     0.198 A 
ATOM     63  C   UNL A   1      36.833  31.442  30.730  1.00  0.00     0.198 A 
ATOM     64  F   UNL A   1      38.076  31.206  28.750  1.00  0.00    -0.203 F 
ATOM     65  F   UNL A   1      37.672  30.627  34.159  1.00  0.00    -0.200 F 
ATOM     66  C   UNL A   1      36.722  31.296  32.104  1.00  0.00     0.200 A 
ATOM     67  F   UNL A   1      35.808  31.939  30.025  1.00  0.00    -0.200 F 
ATOM     68  F   UNL A   1      35.583  31.633  32.725  1.00  0.00    -0.200 F 
ENDBRANCH  44  58
BRANCH  45  69
ATOM     69  C   UNL A   1      47.339  27.754  25.853  1.00  0.00     0.064 A 
ATOM     70  C   UNL A   1      48.516  27.372  26.510  1.00  0.00     0.173 A 
ATOM     71  C   UNL A   1      47.345  27.745  24.449  1.00  0.00     0.173 A 
ATOM     72  F   UNL A   1      48.572  27.391  27.851  1.00  0.00    -0.203 F 
ATOM     73  C   UNL A   1      49.656  27.011  25.794  1.00  0.00     0.198 A 
ATOM     74  C   UNL A   1      48.474  27.352  23.735  1.00  0.00     0.198 A 
ATOM     75  F   UNL A   1      46.246  28.107  23.771  1.00  0.00    -0.203 F 
ATOM     76  F   UNL A   1      50.783  26.696  26.446  1.00  0.00    -0.200 F 
ATOM     77  C   UNL A   1      49.631  26.992  24.407  1.00  0.00     0.200 A 
ATOM     78  F   UNL A   1      48.439  27.324  22.396  1.00  0.00    -0.200 F 
ATOM     79  F   UNL A   1      50.724  26.638  23.718  1.00  0.00    -0.200 F 
ENDBRANCH  45  69
BRANCH  57  80
ATOM     80  C   UNL A   1      45.286  33.717  28.822  1.00  0.00     0.064 A 
ATOM     81  C   UNL A   1      45.058  34.724  27.874  1.00  0.00     0.173 A 
ATOM     82  C   UNL A   1      46.116  34.015  29.913  1.00  0.00     0.173 A 
ATOM     83  F   UNL A   1      44.286  34.482  26.804  1.00  0.00    -0.203 F 
ATOM     84  C   UNL A   1      45.658  35.974  28.001  1.00  0.00     0.198 A 
ATOM     85  C   UNL A   1      46.689  35.275  30.054  1.00  0.00     0.198 A 
ATOM     86  F   UNL A   1      46.362  33.087  30.851  1.00  0.00    -0.203 F 
ATOM     87  F   UNL A   1      45.465  36.907  27.057  1.00  0.00    -0.200 F 
ATOM     88  C   UNL A   1      46.466  36.251  29.094  1.00  0.00     0.200 A 
ATOM     89  F   UNL A   1      47.457  35.545  31.117  1.00  0.00    -0.200 F 
ATOM     90  F   UNL A   1      47.035  37.457  29.218  1.00  0.00    -0.200 F 
ENDBRANCH  57  80
ENDBRANCH  31  32
ENDBRANCH  24  26
ENDBRANCH  23  24
ENDBRANCH  22  23
ENDBRANCH   1  22
TORSDOF 15
ENDMDL
