MODEL 1
REMARK VINA RESULT:     -11.6      0.000      0.000
REMARK SMILES O=C(OCCOC(=O)c1cc(-c2cccc(Cl)c2)oc1C(F)(F)F)c1ccc(-c2c3nc(c(-c4c(F)c(F)c(F)c(F)c4F)c4ccc([nH]4)c(-c4c(F)c(F)c(F)c(F)c4F)c4nc(c(-c5c(F)c(F)c(F)c(F)c5F)c5ccc2[nH]5)C=C4)C=C3)cc1
REMARK SMILES IDX 4 1 3 2 2 3 1 4 25 5 26 6 87 7 27 8 86 9 28 10 29 11 30 12
REMARK SMILES IDX 80 13 31 14 85 15 79 16 81 17 32 18 84 19 78 20 77 21 33 23
REMARK SMILES IDX 65 24 45 25 64 26 46 27 49 28 63 29 82 30 47 31 48 32 62 34
REMARK SMILES IDX 83 35 50 36 34 37 35 38 43 39 36 40 37 41 41 42 44 43 38 44
REMARK SMILES IDX 39 45 42 46 40 47 66 48 67 49 75 50 68 51 69 52 73 53 76 54
REMARK SMILES IDX 70 55 71 56 74 57 72 58 51 59 52 60 60 61 53 62 54 63 58 64
REMARK SMILES IDX 61 65 55 66 56 67 59 68 57 69 5 70 6 71 7 72 8 73 9 74 10 75
REMARK SMILES IDX 20 76 11 77 19 78 21 79 22 80 23 81 24 82 12 83 13 84 18 85
REMARK SMILES IDX 14 86 16 87 15 88 17 89
REMARK H PARENT 81 22 49 33
REMARK Flexibility Score: inf
ROOT
ATOM      1  C   UNL A   1      34.208  33.339  27.944  1.00  0.00     0.275 C 
ENDROOT
BRANCH   1   2
ATOM      2  O   UNL A   1      33.891  32.001  28.374  1.00  0.00    -0.458 OA
BRANCH   2   3
ATOM      3  C   UNL A   1      34.344  30.798  27.954  1.00  0.00     0.338 C 
ATOM      4  O   UNL A   1      33.602  30.076  27.292  1.00  0.00    -0.246 OA
BRANCH   3   5
ATOM      5  C   UNL A   1      35.677  30.244  28.340  1.00  0.00     0.060 A 
ATOM      6  C   UNL A   1      35.997  29.703  29.584  1.00  0.00     0.016 A 
ATOM      7  C   UNL A   1      36.691  30.294  27.364  1.00  0.00     0.016 A 
ATOM      8  C   UNL A   1      37.253  29.148  29.828  1.00  0.00     0.010 A 
ATOM      9  C   UNL A   1      37.949  29.729  27.596  1.00  0.00     0.010 A 
ATOM     10  C   UNL A   1      38.238  29.154  28.840  1.00  0.00    -0.014 A 
BRANCH  10  11
ATOM     11  C   UNL A   1      39.613  28.753  29.217  1.00  0.00     0.031 A 
ATOM     12  C   UNL A   1      40.354  29.637  30.178  1.00  0.00     0.074 A 
ATOM     13  C   UNL A   1      40.127  27.571  28.824  1.00  0.00     0.049 A 
ATOM     14  N   UNL A   1      41.535  29.473  30.710  1.00  0.00    -0.248 NA
ATOM     15  C   UNL A   1      39.649  30.847  30.640  1.00  0.00     0.031 C 
ATOM     16  C   UNL A   1      39.428  26.579  28.010  1.00  0.00     0.029 A 
ATOM     17  N   UNL A   1      41.351  26.995  29.054  1.00  0.00    -0.354 N 
ATOM     18  C   UNL A   1      41.693  30.530  31.595  1.00  0.00     0.074 A 
ATOM     19  C   UNL A   1      40.531  31.376  31.472  1.00  0.00     0.031 C 
ATOM     20  C   UNL A   1      40.246  25.542  27.763  1.00  0.00     0.029 A 
ATOM     21  C   UNL A   1      41.529  25.792  28.406  1.00  0.00     0.049 A 
ATOM     22  H   UNL A   1      42.039  27.403  29.629  1.00  0.00     0.167 HD
ATOM     23  C   UNL A   1      42.699  30.742  32.472  1.00  0.00     0.037 A 
ATOM     24  C   UNL A   1      42.618  25.000  28.332  1.00  0.00     0.037 A 
ATOM     25  C   UNL A   1      43.857  29.897  32.563  1.00  0.00     0.049 A 
ATOM     26  C   UNL A   1      43.836  25.420  29.110  1.00  0.00     0.074 A 
ATOM     27  C   UNL A   1      44.949  30.013  33.401  1.00  0.00     0.029 A 
ATOM     28  N   UNL A   1      44.073  28.781  31.763  1.00  0.00    -0.354 N 
ATOM     29  N   UNL A   1      43.971  26.411  29.959  1.00  0.00    -0.248 NA
ATOM     30  C   UNL A   1      45.048  24.611  28.934  1.00  0.00     0.031 C 
ATOM     31  C   UNL A   1      45.857  29.004  33.063  1.00  0.00     0.029 A 
ATOM     32  C   UNL A   1      45.302  28.219  32.063  1.00  0.00     0.049 A 
ATOM     33  H   UNL A   1      43.447  28.442  31.085  1.00  0.00     0.167 HD
ATOM     34  C   UNL A   1      45.255  26.301  30.474  1.00  0.00     0.074 A 
ATOM     35  C   UNL A   1      45.864  25.159  29.821  1.00  0.00     0.031 C 
ATOM     36  C   UNL A   1      45.864  27.057  31.421  1.00  0.00     0.037 A 
BRANCH  23  37
ATOM     37  C   UNL A   1      42.583  31.940  33.368  1.00  0.00     0.064 A 
ATOM     38  C   UNL A   1      41.974  31.859  34.630  1.00  0.00     0.173 A 
ATOM     39  C   UNL A   1      43.063  33.189  32.951  1.00  0.00     0.173 A 
ATOM     40  F   UNL A   1      41.476  30.691  35.068  1.00  0.00    -0.203 F 
ATOM     41  C   UNL A   1      41.815  32.992  35.424  1.00  0.00     0.198 A 
ATOM     42  C   UNL A   1      42.931  34.314  33.761  1.00  0.00     0.198 A 
ATOM     43  F   UNL A   1      43.650  33.323  31.752  1.00  0.00    -0.203 F 
ATOM     44  F   UNL A   1      41.171  32.902  36.597  1.00  0.00    -0.200 F 
ATOM     45  C   UNL A   1      42.297  34.217  34.991  1.00  0.00     0.200 A 
ATOM     46  F   UNL A   1      43.404  35.496  33.344  1.00  0.00    -0.200 F 
ATOM     47  F   UNL A   1      42.140  35.309  35.754  1.00  0.00    -0.200 F 
ENDBRANCH  23  37
BRANCH  24  48
ATOM     48  C   UNL A   1      42.649  23.791  27.454  1.00  0.00     0.064 A 
ATOM     49  C   UNL A   1      42.324  22.507  27.905  1.00  0.00     0.173 A 
ATOM     50  C   UNL A   1      43.113  23.897  26.138  1.00  0.00     0.173 A 
ATOM     51  F   UNL A   1      41.902  22.326  29.164  1.00  0.00    -0.203 F 
ATOM     52  C   UNL A   1      42.491  21.387  27.083  1.00  0.00     0.198 A 
ATOM     53  C   UNL A   1      43.255  22.792  25.304  1.00  0.00     0.198 A 
ATOM     54  F   UNL A   1      43.452  25.094  25.665  1.00  0.00    -0.203 F 
ATOM     55  F   UNL A   1      42.232  20.163  27.561  1.00  0.00    -0.200 F 
ATOM     56  C   UNL A   1      42.956  21.531  25.783  1.00  0.00     0.200 A 
ATOM     57  F   UNL A   1      43.702  22.953  24.050  1.00  0.00    -0.200 F 
ATOM     58  F   UNL A   1      43.133  20.457  25.001  1.00  0.00    -0.200 F 
ENDBRANCH  24  48
BRANCH  36  59
ATOM     59  C   UNL A   1      47.211  26.598  31.892  1.00  0.00     0.064 A 
ATOM     60  C   UNL A   1      47.364  25.614  32.877  1.00  0.00     0.173 A 
ATOM     61  C   UNL A   1      48.368  27.135  31.307  1.00  0.00     0.173 A 
ATOM     62  F   UNL A   1      46.288  25.089  33.481  1.00  0.00    -0.203 F 
ATOM     63  C   UNL A   1      48.632  25.204  33.279  1.00  0.00     0.198 A 
ATOM     64  C   UNL A   1      49.631  26.694  31.683  1.00  0.00     0.198 A 
ATOM     65  F   UNL A   1      48.272  28.078  30.355  1.00  0.00    -0.203 F 
ATOM     66  F   UNL A   1      48.761  24.305  34.264  1.00  0.00    -0.200 F 
ATOM     67  C   UNL A   1      49.762  25.735  32.675  1.00  0.00     0.200 A 
ATOM     68  F   UNL A   1      50.720  27.197  31.084  1.00  0.00    -0.200 F 
ATOM     69  F   UNL A   1      50.981  25.329  33.056  1.00  0.00    -0.200 F 
ENDBRANCH  36  59
ENDBRANCH  10  11
ENDBRANCH   3   5
ENDBRANCH   2   3
ENDBRANCH   1   2
BRANCH   1  70
ATOM     70  C   UNL A   1      33.069  34.353  28.080  1.00  0.00     0.275 C 
BRANCH  70  71
ATOM     71  O   UNL A   1      32.606  34.564  29.426  1.00  0.00    -0.458 OA
BRANCH  71  72
ATOM     72  C   UNL A   1      33.177  35.603  30.106  1.00  0.00     0.342 C 
ATOM     73  O   UNL A   1      32.951  36.787  29.884  1.00  0.00    -0.246 OA
BRANCH  72  74
ATOM     74  C   UNL A   1      34.062  35.155  31.163  1.00  0.00     0.111 A 
ATOM     75  C   UNL A   1      34.949  34.033  31.181  1.00  0.00     0.067 A 
ATOM     76  C   UNL A   1      34.207  35.764  32.403  1.00  0.00     0.223 A 
ATOM     77  C   UNL A   1      35.518  33.995  32.436  1.00  0.00     0.135 A 
ATOM     78  O   UNL A   1      35.062  35.034  33.179  1.00  0.00    -0.451 OA
BRANCH  76  79
ATOM     79  C   UNL A   1      33.614  36.952  33.064  1.00  0.00     0.450 C 
ATOM     80  F   UNL A   1      33.977  37.016  34.376  1.00  0.00    -0.163 F 
ATOM     81  F   UNL A   1      34.028  38.108  32.489  1.00  0.00    -0.163 F 
ATOM     82  F   UNL A   1      32.263  36.951  33.047  1.00  0.00    -0.163 F 
ENDBRANCH  76  79
BRANCH  77  83
ATOM     83  C   UNL A   1      36.503  33.177  33.115  1.00  0.00     0.019 A 
ATOM     84  C   UNL A   1      37.330  33.745  34.090  1.00  0.00     0.012 A 
ATOM     85  C   UNL A   1      36.576  31.799  32.867  1.00  0.00     0.032 A 
ATOM     86  C   UNL A   1      38.180  32.937  34.847  1.00  0.00     0.002 A 
ATOM     87  C   UNL A   1      37.457  31.004  33.598  1.00  0.00     0.041 A 
ATOM     88  C   UNL A   1      38.234  31.562  34.609  1.00  0.00     0.020 A 
ATOM     89  Cl  UNL A   1      37.603  29.328  33.236  1.00  0.00    -0.084 Cl
ENDBRANCH  77  83
ENDBRANCH  72  74
ENDBRANCH  71  72
ENDBRANCH  70  71
ENDBRANCH   1  70
TORSDOF 13
ENDMDL
MODEL 2
REMARK VINA RESULT:     -11.6      4.324     12.226
REMARK SMILES O=C(OCCOC(=O)c1cc(-c2cccc(Cl)c2)oc1C(F)(F)F)c1ccc(-c2c3nc(c(-c4c(F)c(F)c(F)c(F)c4F)c4ccc([nH]4)c(-c4c(F)c(F)c(F)c(F)c4F)c4nc(c(-c5c(F)c(F)c(F)c(F)c5F)c5ccc2[nH]5)C=C4)C=C3)cc1
REMARK SMILES IDX 4 1 3 2 2 3 1 4 25 5 26 6 87 7 27 8 86 9 28 10 29 11 30 12
REMARK SMILES IDX 80 13 31 14 85 15 79 16 81 17 32 18 84 19 78 20 77 21 33 23
REMARK SMILES IDX 65 24 45 25 64 26 46 27 49 28 63 29 82 30 47 31 48 32 62 34
REMARK SMILES IDX 83 35 50 36 34 37 35 38 43 39 36 40 37 41 41 42 44 43 38 44
REMARK SMILES IDX 39 45 42 46 40 47 66 48 67 49 75 50 68 51 69 52 73 53 76 54
REMARK SMILES IDX 70 55 71 56 74 57 72 58 51 59 52 60 60 61 53 62 54 63 58 64
REMARK SMILES IDX 61 65 55 66 56 67 59 68 57 69 5 70 6 71 7 72 8 73 9 74 10 75
REMARK SMILES IDX 20 76 11 77 19 78 21 79 22 80 23 81 24 82 12 83 13 84 18 85
REMARK SMILES IDX 14 86 16 87 15 88 17 89
REMARK H PARENT 81 22 49 33
REMARK Flexibility Score: inf
ROOT
ATOM      1  C   UNL A   1      40.623  20.783  27.110  1.00  0.00     0.275 C 
ENDROOT
BRANCH   1   2
ATOM      2  O   UNL A   1      40.059  21.680  26.135  1.00  0.00    -0.458 OA
BRANCH   2   3
ATOM      3  C   UNL A   1      39.143  22.668  26.255  1.00  0.00     0.338 C 
ATOM      4  O   UNL A   1      37.999  22.477  25.851  1.00  0.00    -0.246 OA
BRANCH   3   5
ATOM      5  C   UNL A   1      39.472  24.033  26.766  1.00  0.00     0.060 A 
ATOM      6  C   UNL A   1      40.138  25.025  26.048  1.00  0.00     0.016 A 
ATOM      7  C   UNL A   1      39.090  24.324  28.090  1.00  0.00     0.016 A 
ATOM      8  C   UNL A   1      40.341  26.294  26.589  1.00  0.00     0.010 A 
ATOM      9  C   UNL A   1      39.278  25.598  28.636  1.00  0.00     0.010 A 
ATOM     10  C   UNL A   1      39.914  26.593  27.883  1.00  0.00    -0.014 A 
BRANCH  10  11
ATOM     11  C   UNL A   1      40.344  27.876  28.486  1.00  0.00     0.031 A 
ATOM     12  C   UNL A   1      41.806  28.050  28.777  1.00  0.00     0.074 A 
ATOM     13  C   UNL A   1      39.480  28.899  28.637  1.00  0.00     0.049 A 
ATOM     14  N   UNL A   1      42.439  29.094  29.240  1.00  0.00    -0.248 NA
ATOM     15  C   UNL A   1      42.682  26.907  28.460  1.00  0.00     0.031 C 
ATOM     16  C   UNL A   1      38.072  28.876  28.247  1.00  0.00     0.029 A 
ATOM     17  N   UNL A   1      39.651  30.160  29.153  1.00  0.00    -0.354 N 
ATOM     18  C   UNL A   1      43.783  28.748  29.227  1.00  0.00     0.074 A 
ATOM     19  C   UNL A   1      43.874  27.374  28.794  1.00  0.00     0.031 C 
ATOM     20  C   UNL A   1      37.493  30.041  28.582  1.00  0.00     0.029 A 
ATOM     21  C   UNL A   1      38.490  30.899  29.208  1.00  0.00     0.049 A 
ATOM     22  H   UNL A   1      40.523  30.504  29.455  1.00  0.00     0.167 HD
ATOM     23  C   UNL A   1      44.850  29.531  29.503  1.00  0.00     0.037 A 
ATOM     24  C   UNL A   1      38.265  32.123  29.726  1.00  0.00     0.037 A 
ATOM     25  C   UNL A   1      44.735  30.890  29.952  1.00  0.00     0.049 A 
ATOM     26  C   UNL A   1      39.448  32.866  30.290  1.00  0.00     0.074 A 
ATOM     27  C   UNL A   1      45.738  31.782  30.276  1.00  0.00     0.029 A 
ATOM     28  N   UNL A   1      43.526  31.545  30.158  1.00  0.00    -0.354 N 
ATOM     29  N   UNL A   1      40.718  32.540  30.258  1.00  0.00    -0.248 NA
ATOM     30  C   UNL A   1      39.173  34.147  30.950  1.00  0.00     0.031 C 
ATOM     31  C   UNL A   1      45.135  32.956  30.740  1.00  0.00     0.029 A 
ATOM     32  C   UNL A   1      43.758  32.821  30.641  1.00  0.00     0.049 A 
ATOM     33  H   UNL A   1      42.637  31.158  29.987  1.00  0.00     0.167 HD
ATOM     34  C   UNL A   1      41.401  33.607  30.823  1.00  0.00     0.074 A 
ATOM     35  C   UNL A   1      40.399  34.578  31.212  1.00  0.00     0.031 C 
ATOM     36  C   UNL A   1      42.737  33.780  30.981  1.00  0.00     0.037 A 
BRANCH  23  37
ATOM     37  C   UNL A   1      46.208  28.915  29.343  1.00  0.00     0.064 A 
ATOM     38  C   UNL A   1      46.870  28.301  30.418  1.00  0.00     0.173 A 
ATOM     39  C   UNL A   1      46.869  28.962  28.107  1.00  0.00     0.173 A 
ATOM     40  F   UNL A   1      46.291  28.250  31.628  1.00  0.00    -0.203 F 
ATOM     41  C   UNL A   1      48.158  27.791  30.271  1.00  0.00     0.198 A 
ATOM     42  C   UNL A   1      48.144  28.423  27.956  1.00  0.00     0.198 A 
ATOM     43  F   UNL A   1      46.284  29.542  27.048  1.00  0.00    -0.203 F 
ATOM     44  F   UNL A   1      48.795  27.268  31.329  1.00  0.00    -0.200 F 
ATOM     45  C   UNL A   1      48.791  27.849  29.040  1.00  0.00     0.200 A 
ATOM     46  F   UNL A   1      48.753  28.474  26.763  1.00  0.00    -0.200 F 
ATOM     47  F   UNL A   1      50.033  27.362  28.900  1.00  0.00    -0.200 F 
ENDBRANCH  23  37
BRANCH  24  48
ATOM     48  C   UNL A   1      36.889  32.698  29.811  1.00  0.00     0.064 A 
ATOM     49  C   UNL A   1      36.304  33.444  28.782  1.00  0.00     0.173 A 
ATOM     50  C   UNL A   1      36.159  32.586  31.000  1.00  0.00     0.173 A 
ATOM     51  F   UNL A   1      36.959  33.619  27.626  1.00  0.00    -0.203 F 
ATOM     52  C   UNL A   1      35.065  34.070  28.956  1.00  0.00     0.198 A 
ATOM     53  C   UNL A   1      34.913  33.182  31.172  1.00  0.00     0.198 A 
ATOM     54  F   UNL A   1      36.678  31.902  32.017  1.00  0.00    -0.203 F 
ATOM     55  F   UNL A   1      34.558  34.829  27.976  1.00  0.00    -0.200 F 
ATOM     56  C   UNL A   1      34.371  33.938  30.151  1.00  0.00     0.200 A 
ATOM     57  F   UNL A   1      34.257  33.039  32.332  1.00  0.00    -0.200 F 
ATOM     58  F   UNL A   1      33.192  34.553  30.323  1.00  0.00    -0.200 F 
ENDBRANCH  24  48
BRANCH  36  59
ATOM     59  C   UNL A   1      43.192  35.115  31.486  1.00  0.00     0.064 A 
ATOM     60  C   UNL A   1      43.547  36.161  30.624  1.00  0.00     0.173 A 
ATOM     61  C   UNL A   1      43.233  35.355  32.869  1.00  0.00     0.173 A 
ATOM     62  F   UNL A   1      43.546  35.971  29.297  1.00  0.00    -0.203 F 
ATOM     63  C   UNL A   1      43.953  37.392  31.130  1.00  0.00     0.198 A 
ATOM     64  C   UNL A   1      43.600  36.599  33.369  1.00  0.00     0.198 A 
ATOM     65  F   UNL A   1      42.898  34.385  33.735  1.00  0.00    -0.203 F 
ATOM     66  F   UNL A   1      44.345  38.361  30.292  1.00  0.00    -0.200 F 
ATOM     67  C   UNL A   1      43.969  37.613  32.500  1.00  0.00     0.200 A 
ATOM     68  F   UNL A   1      43.597  36.814  34.692  1.00  0.00    -0.200 F 
ATOM     69  F   UNL A   1      44.348  38.804  32.983  1.00  0.00    -0.200 F 
ENDBRANCH  36  59
ENDBRANCH  10  11
ENDBRANCH   3   5
ENDBRANCH   2   3
ENDBRANCH   1   2
BRANCH   1  70
ATOM     70  C   UNL A   1      41.099  19.437  26.557  1.00  0.00     0.275 C 
BRANCH  70  71
ATOM     71  O   UNL A   1      41.914  19.523  25.375  1.00  0.00    -0.458 OA
BRANCH  71  72
ATOM     72  C   UNL A   1      43.254  19.318  25.548  1.00  0.00     0.342 C 
ATOM     73  O   UNL A   1      43.772  18.223  25.733  1.00  0.00    -0.246 OA
BRANCH  72  74
ATOM     74  C   UNL A   1      44.021  20.545  25.448  1.00  0.00     0.111 A 
ATOM     75  C   UNL A   1      43.603  21.891  25.693  1.00  0.00     0.067 A 
ATOM     76  C   UNL A   1      45.356  20.631  25.077  1.00  0.00     0.223 A 
ATOM     77  C   UNL A   1      44.677  22.702  25.395  1.00  0.00     0.135 A 
ATOM     78  O   UNL A   1      45.734  21.942  25.012  1.00  0.00    -0.451 OA
BRANCH  76  79
ATOM     79  C   UNL A   1      46.404  19.653  24.692  1.00  0.00     0.450 C 
ATOM     80  F   UNL A   1      47.527  20.285  24.250  1.00  0.00    -0.163 F 
ATOM     81  F   UNL A   1      46.779  18.879  25.740  1.00  0.00    -0.163 F 
ATOM     82  F   UNL A   1      46.019  18.828  23.693  1.00  0.00    -0.163 F 
ENDBRANCH  76  79
BRANCH  77  83
ATOM     83  C   UNL A   1      44.966  24.121  25.450  1.00  0.00     0.019 A 
ATOM     84  C   UNL A   1      46.282  24.560  25.631  1.00  0.00     0.012 A 
ATOM     85  C   UNL A   1      43.949  25.062  25.234  1.00  0.00     0.032 A 
ATOM     86  C   UNL A   1      46.587  25.919  25.543  1.00  0.00     0.002 A 
ATOM     87  C   UNL A   1      44.254  26.421  25.188  1.00  0.00     0.041 A 
ATOM     88  C   UNL A   1      45.573  26.850  25.308  1.00  0.00     0.020 A 
ATOM     89  Cl  UNL A   1      42.993  27.577  25.004  1.00  0.00    -0.084 Cl
ENDBRANCH  77  83
ENDBRANCH  72  74
ENDBRANCH  71  72
ENDBRANCH  70  71
ENDBRANCH   1  70
TORSDOF 13
ENDMDL
MODEL 3
REMARK VINA RESULT:     -11.6      4.353     12.189
REMARK SMILES O=C(OCCOC(=O)c1cc(-c2cccc(Cl)c2)oc1C(F)(F)F)c1ccc(-c2c3nc(c(-c4c(F)c(F)c(F)c(F)c4F)c4ccc([nH]4)c(-c4c(F)c(F)c(F)c(F)c4F)c4nc(c(-c5c(F)c(F)c(F)c(F)c5F)c5ccc2[nH]5)C=C4)C=C3)cc1
REMARK SMILES IDX 4 1 3 2 2 3 1 4 25 5 26 6 87 7 27 8 86 9 28 10 29 11 30 12
REMARK SMILES IDX 80 13 31 14 85 15 79 16 81 17 32 18 84 19 78 20 77 21 33 23
REMARK SMILES IDX 65 24 45 25 64 26 46 27 49 28 63 29 82 30 47 31 48 32 62 34
REMARK SMILES IDX 83 35 50 36 34 37 35 38 43 39 36 40 37 41 41 42 44 43 38 44
REMARK SMILES IDX 39 45 42 46 40 47 66 48 67 49 75 50 68 51 69 52 73 53 76 54
REMARK SMILES IDX 70 55 71 56 74 57 72 58 51 59 52 60 60 61 53 62 54 63 58 64
REMARK SMILES IDX 61 65 55 66 56 67 59 68 57 69 5 70 6 71 7 72 8 73 9 74 10 75
REMARK SMILES IDX 20 76 11 77 19 78 21 79 22 80 23 81 24 82 12 83 13 84 18 85
REMARK SMILES IDX 14 86 16 87 15 88 17 89
REMARK H PARENT 81 22 49 33
REMARK Flexibility Score: inf
ROOT
ATOM      1  C   UNL A   1      40.608  20.641  27.137  1.00  0.00     0.275 C 
ENDROOT
BRANCH   1   2
ATOM      2  O   UNL A   1      40.202  21.706  26.256  1.00  0.00    -0.458 OA
BRANCH   2   3
ATOM      3  C   UNL A   1      39.266  22.673  26.397  1.00  0.00     0.338 C 
ATOM      4  O   UNL A   1      38.115  22.451  26.029  1.00  0.00    -0.246 OA
BRANCH   3   5
ATOM      5  C   UNL A   1      39.577  24.050  26.887  1.00  0.00     0.060 A 
ATOM      6  C   UNL A   1      40.188  25.055  26.138  1.00  0.00     0.016 A 
ATOM      7  C   UNL A   1      39.239  24.339  28.223  1.00  0.00     0.016 A 
ATOM      8  C   UNL A   1      40.376  26.333  26.663  1.00  0.00     0.010 A 
ATOM      9  C   UNL A   1      39.413  25.621  28.754  1.00  0.00     0.010 A 
ATOM     10  C   UNL A   1      39.992  26.628  27.971  1.00  0.00    -0.014 A 
BRANCH  10  11
ATOM     11  C   UNL A   1      40.409  27.926  28.550  1.00  0.00     0.031 A 
ATOM     12  C   UNL A   1      41.872  28.126  28.821  1.00  0.00     0.074 A 
ATOM     13  C   UNL A   1      39.532  28.938  28.697  1.00  0.00     0.049 A 
ATOM     14  N   UNL A   1      42.495  29.186  29.260  1.00  0.00    -0.248 NA
ATOM     15  C   UNL A   1      42.762  26.992  28.510  1.00  0.00     0.031 C 
ATOM     16  C   UNL A   1      38.120  28.888  28.325  1.00  0.00     0.029 A 
ATOM     17  N   UNL A   1      39.690  30.209  29.193  1.00  0.00    -0.354 N 
ATOM     18  C   UNL A   1      43.844  28.861  29.236  1.00  0.00     0.074 A 
ATOM     19  C   UNL A   1      43.950  27.482  28.822  1.00  0.00     0.031 C 
ATOM     20  C   UNL A   1      37.527  30.049  28.650  1.00  0.00     0.029 A 
ATOM     21  C   UNL A   1      38.518  30.931  29.252  1.00  0.00     0.049 A 
ATOM     22  H   UNL A   1      40.560  30.570  29.479  1.00  0.00     0.167 HD
ATOM     23  C   UNL A   1      44.901  29.664  29.487  1.00  0.00     0.037 A 
ATOM     24  C   UNL A   1      38.282  32.159  29.755  1.00  0.00     0.037 A 
ATOM     25  C   UNL A   1      44.771  31.027  29.918  1.00  0.00     0.049 A 
ATOM     26  C   UNL A   1      39.459  32.929  30.293  1.00  0.00     0.074 A 
ATOM     27  C   UNL A   1      45.765  31.939  30.216  1.00  0.00     0.029 A 
ATOM     28  N   UNL A   1      43.555  31.667  30.129  1.00  0.00    -0.354 N 
ATOM     29  N   UNL A   1      40.734  32.621  30.249  1.00  0.00    -0.248 NA
ATOM     30  C   UNL A   1      39.174  34.215  30.937  1.00  0.00     0.031 C 
ATOM     31  C   UNL A   1      45.150  33.111  30.671  1.00  0.00     0.029 A 
ATOM     32  C   UNL A   1      43.774  32.953  30.591  1.00  0.00     0.049 A 
ATOM     33  H   UNL A   1      42.671  31.264  29.975  1.00  0.00     0.167 HD
ATOM     34  C   UNL A   1      41.408  33.706  30.791  1.00  0.00     0.074 A 
ATOM     35  C   UNL A   1      40.395  34.668  31.177  1.00  0.00     0.031 C 
ATOM     36  C   UNL A   1      42.742  33.901  30.929  1.00  0.00     0.037 A 
BRANCH  23  37
ATOM     37  C   UNL A   1      46.267  29.066  29.319  1.00  0.00     0.064 A 
ATOM     38  C   UNL A   1      46.957  28.489  30.397  1.00  0.00     0.173 A 
ATOM     39  C   UNL A   1      46.907  29.094  28.072  1.00  0.00     0.173 A 
ATOM     40  F   UNL A   1      46.398  28.458  31.618  1.00  0.00    -0.203 F 
ATOM     41  C   UNL A   1      48.250  27.996  30.241  1.00  0.00     0.198 A 
ATOM     42  C   UNL A   1      48.188  28.572  27.913  1.00  0.00     0.198 A 
ATOM     43  F   UNL A   1      46.295  29.638  27.009  1.00  0.00    -0.203 F 
ATOM     44  F   UNL A   1      48.912  27.509  31.301  1.00  0.00    -0.200 F 
ATOM     45  C   UNL A   1      48.862  28.034  28.999  1.00  0.00     0.200 A 
ATOM     46  F   UNL A   1      48.777  28.604  26.709  1.00  0.00    -0.200 F 
ATOM     47  F   UNL A   1      50.109  27.564  28.850  1.00  0.00    -0.200 F 
ENDBRANCH  23  37
BRANCH  24  48
ATOM     48  C   UNL A   1      36.898  32.715  29.848  1.00  0.00     0.064 A 
ATOM     49  C   UNL A   1      36.289  33.438  28.816  1.00  0.00     0.173 A 
ATOM     50  C   UNL A   1      36.184  32.608  31.047  1.00  0.00     0.173 A 
ATOM     51  F   UNL A   1      36.928  33.607  27.650  1.00  0.00    -0.203 F 
ATOM     52  C   UNL A   1      35.043  34.048  28.996  1.00  0.00     0.198 A 
ATOM     53  C   UNL A   1      34.931  33.188  31.225  1.00  0.00     0.198 A 
ATOM     54  F   UNL A   1      36.725  31.946  32.067  1.00  0.00    -0.203 F 
ATOM     55  F   UNL A   1      34.513  34.786  28.012  1.00  0.00    -0.200 F 
ATOM     56  C   UNL A   1      34.365  33.922  30.201  1.00  0.00     0.200 A 
ATOM     57  F   UNL A   1      34.291  33.051  32.395  1.00  0.00    -0.200 F 
ATOM     58  F   UNL A   1      33.179  34.520  30.379  1.00  0.00    -0.200 F 
ENDBRANCH  24  48
BRANCH  36  59
ATOM     59  C   UNL A   1      43.183  35.251  31.409  1.00  0.00     0.064 A 
ATOM     60  C   UNL A   1      43.315  35.555  32.771  1.00  0.00     0.173 A 
ATOM     61  C   UNL A   1      43.516  36.244  30.474  1.00  0.00     0.173 A 
ATOM     62  F   UNL A   1      42.986  34.647  33.700  1.00  0.00    -0.203 F 
ATOM     63  C   UNL A   1      43.740  36.816  33.178  1.00  0.00     0.198 A 
ATOM     64  C   UNL A   1      43.979  37.488  30.885  1.00  0.00     0.198 A 
ATOM     65  F   UNL A   1      43.410  35.998  29.158  1.00  0.00    -0.203 F 
ATOM     66  F   UNL A   1      43.804  37.108  34.484  1.00  0.00    -0.200 F 
ATOM     67  C   UNL A   1      44.081  37.777  32.237  1.00  0.00     0.200 A 
ATOM     68  F   UNL A   1      44.324  38.407  29.972  1.00  0.00    -0.200 F 
ATOM     69  F   UNL A   1      44.502  38.985  32.633  1.00  0.00    -0.200 F 
ENDBRANCH  36  59
ENDBRANCH  10  11
ENDBRANCH   3   5
ENDBRANCH   2   3
ENDBRANCH   1   2
BRANCH   1  70
ATOM     70  C   UNL A   1      41.036  19.348  26.438  1.00  0.00     0.275 C 
BRANCH  70  71
ATOM     71  O   UNL A   1      41.910  19.531  25.311  1.00  0.00    -0.458 OA
BRANCH  71  72
ATOM     72  C   UNL A   1      43.245  19.352  25.545  1.00  0.00     0.342 C 
ATOM     73  O   UNL A   1      43.770  18.271  25.788  1.00  0.00    -0.246 OA
BRANCH  72  74
ATOM     74  C   UNL A   1      43.998  20.586  25.434  1.00  0.00     0.111 A 
ATOM     75  C   UNL A   1      43.577  21.926  25.703  1.00  0.00     0.067 A 
ATOM     76  C   UNL A   1      45.321  20.687  25.026  1.00  0.00     0.223 A 
ATOM     77  C   UNL A   1      44.635  22.749  25.382  1.00  0.00     0.135 A 
ATOM     78  O   UNL A   1      45.686  22.001  24.961  1.00  0.00    -0.451 OA
BRANCH  76  79
ATOM     79  C   UNL A   1      46.365  19.722  24.601  1.00  0.00     0.450 C 
ATOM     80  F   UNL A   1      47.470  20.367  24.132  1.00  0.00    -0.163 F 
ATOM     81  F   UNL A   1      46.778  18.942  25.631  1.00  0.00    -0.163 F 
ATOM     82  F   UNL A   1      45.958  18.901  23.607  1.00  0.00    -0.163 F 
ENDBRANCH  76  79
BRANCH  77  83
ATOM     83  C   UNL A   1      44.913  24.170  25.441  1.00  0.00     0.019 A 
ATOM     84  C   UNL A   1      46.225  24.618  25.625  1.00  0.00     0.012 A 
ATOM     85  C   UNL A   1      43.889  25.104  25.227  1.00  0.00     0.032 A 
ATOM     86  C   UNL A   1      46.521  25.979  25.540  1.00  0.00     0.002 A 
ATOM     87  C   UNL A   1      44.184  26.465  25.186  1.00  0.00     0.041 A 
ATOM     88  C   UNL A   1      45.500  26.904  25.308  1.00  0.00     0.020 A 
ATOM     89  Cl  UNL A   1      42.915  27.613  25.004  1.00  0.00    -0.084 Cl
ENDBRANCH  77  83
ENDBRANCH  72  74
ENDBRANCH  71  72
ENDBRANCH  70  71
ENDBRANCH   1  70
TORSDOF 13
ENDMDL
