MODEL 1
REMARK VINA RESULT:     -14.2      0.000      0.000
REMARK SMILES Cc1ccccc1S(=O)(=O)Nc1ccc(N2CCOCC2)cc1C(=O)OCCOC(=O)c1ccc(-c2c3nc(c(-c4c(F)c(F)c(F)c(F)c4F)c4ccc([nH]4)c(-c4c(F)c(F)c(F)c(F)c4F)c4nc(c(-c5c(F)c(F)c(F)c(F)c5F)c5ccc2[nH]5)C=C4)C=C3)cc1
REMARK SMILES IDX 27 1 26 2 24 3 25 4 23 5 12 6 13 7 14 8 22 9 15 10 11 11
REMARK SMILES IDX 8 13 9 14 10 15 7 16 1 17 2 18 3 19 4 20 6 21 5 22 16 23
REMARK SMILES IDX 17 24 21 25 18 26 20 27 19 28 28 29 29 30 30 31 31 32 32 33
REMARK SMILES IDX 33 34 94 35 34 36 93 37 35 38 36 39 37 40 87 41 38 42 92 43
REMARK SMILES IDX 86 44 88 45 39 46 91 47 85 48 84 49 40 51 72 52 52 53 71 54
REMARK SMILES IDX 53 55 56 56 70 57 89 58 54 59 55 60 69 62 90 63 57 64 41 65
REMARK SMILES IDX 42 66 50 67 43 68 44 69 48 70 51 71 45 72 46 73 49 74 47 75
REMARK SMILES IDX 73 76 74 77 82 78 75 79 76 80 80 81 83 82 77 83 78 84 81 85
REMARK SMILES IDX 79 86 58 87 59 88 67 89 60 90 61 91 65 92 68 93 62 94 63 95
REMARK SMILES IDX 66 96 64 97
REMARK H PARENT 11 12 88 50 56 61
REMARK Flexibility Score: inf
ROOT
ATOM      1  C   UNL A   1      37.208  22.100  25.226  1.00  0.00     0.275 C 
ENDROOT
BRANCH   1   2
ATOM      2  O   UNL A   1      36.337  21.238  25.988  1.00  0.00    -0.458 OA
BRANCH   2   3
ATOM      3  C   UNL A   1      35.087  21.779  26.076  1.00  0.00     0.340 C 
ATOM      4  O   UNL A   1      34.677  22.341  27.091  1.00  0.00    -0.246 OA
BRANCH   3   5
ATOM      5  C   UNL A   1      34.111  21.542  24.974  1.00  0.00     0.086 A 
ATOM      6  C   UNL A   1      33.478  22.447  24.112  1.00  0.00     0.064 A 
ATOM      7  C   UNL A   1      32.502  21.970  23.219  1.00  0.00     0.030 A 
ATOM      8  C   UNL A   1      32.191  20.609  23.143  1.00  0.00     0.028 A 
ATOM      9  C   UNL A   1      33.748  20.181  24.887  1.00  0.00     0.043 A 
ATOM     10  C   UNL A   1      32.803  19.689  23.990  1.00  0.00     0.038 A 
BRANCH   6  11
ATOM     11  N   UNL A   1      33.719  23.851  24.110  1.00  0.00    -0.279 N 
ATOM     12  H   UNL A   1      34.313  24.256  23.437  1.00  0.00     0.180 HD
BRANCH  11  13
ATOM     13  S   UNL A   1      32.966  24.818  25.295  1.00  0.00     0.262 S 
ATOM     14  O   UNL A   1      34.066  25.471  25.974  1.00  0.00    -0.201 OA
ATOM     15  O   UNL A   1      32.025  24.032  26.057  1.00  0.00    -0.201 OA
BRANCH  13  16
ATOM     16  C   UNL A   1      32.111  26.028  24.307  1.00  0.00     0.090 A 
ATOM     17  C   UNL A   1      31.294  27.483  26.302  1.00  0.00     0.046 C 
ATOM     18  C   UNL A   1      31.338  27.071  24.859  1.00  0.00    -0.031 A 
ATOM     19  C   UNL A   1      30.516  27.813  23.989  1.00  0.00     0.005 A 
ATOM     20  C   UNL A   1      30.534  27.595  22.614  1.00  0.00     0.000 A 
ATOM     21  C   UNL A   1      32.161  25.846  22.917  1.00  0.00     0.022 A 
ATOM     22  C   UNL A   1      31.391  26.643  22.076  1.00  0.00     0.001 A 
ENDBRANCH  13  16
ENDBRANCH  11  13
ENDBRANCH   6  11
BRANCH  10  23
ATOM     23  N   UNL A   1      32.466  18.352  23.941  1.00  0.00    -0.367 N 
ATOM     24  C   UNL A   1      32.383  17.552  25.177  1.00  0.00     0.145 C 
ATOM     25  C   UNL A   1      32.857  17.583  22.749  1.00  0.00     0.145 C 
ATOM     26  C   UNL A   1      33.639  16.685  25.367  1.00  0.00     0.181 C 
ATOM     27  C   UNL A   1      34.112  16.744  23.052  1.00  0.00     0.181 C 
ATOM     28  O   UNL A   1      33.920  15.896  24.200  1.00  0.00    -0.378 OA
ENDBRANCH  10  23
ENDBRANCH   3   5
ENDBRANCH   2   3
ENDBRANCH   1   2
BRANCH   1  29
ATOM     29  C   UNL A   1      38.019  23.188  25.956  1.00  0.00     0.275 C 
BRANCH  29  30
ATOM     30  O   UNL A   1      39.446  23.076  26.183  1.00  0.00    -0.458 OA
BRANCH  30  31
ATOM     31  C   UNL A   1      40.199  23.491  27.220  1.00  0.00     0.338 C 
ATOM     32  O   UNL A   1      40.974  22.758  27.821  1.00  0.00    -0.246 OA
BRANCH  31  33
ATOM     33  C   UNL A   1      40.094  24.895  27.578  1.00  0.00     0.060 A 
ATOM     34  C   UNL A   1      40.517  25.850  26.644  1.00  0.00     0.016 A 
ATOM     35  C   UNL A   1      39.504  25.244  28.787  1.00  0.00     0.016 A 
ATOM     36  C   UNL A   1      40.270  27.192  26.880  1.00  0.00     0.010 A 
ATOM     37  C   UNL A   1      39.188  26.563  28.994  1.00  0.00     0.010 A 
ATOM     38  C   UNL A   1      39.622  27.531  28.067  1.00  0.00    -0.014 A 
BRANCH  38  39
ATOM     39  C   UNL A   1      39.815  28.825  28.687  1.00  0.00     0.031 A 
ATOM     40  C   UNL A   1      38.773  29.847  28.800  1.00  0.00     0.074 A 
ATOM     41  C   UNL A   1      40.930  28.783  29.448  1.00  0.00     0.049 A 
ATOM     42  N   UNL A   1      39.009  31.032  29.243  1.00  0.00    -0.248 NA
ATOM     43  C   UNL A   1      37.383  29.658  28.401  1.00  0.00     0.031 C 
ATOM     44  C   UNL A   1      41.266  29.496  30.662  1.00  0.00     0.029 A 
ATOM     45  N   UNL A   1      42.065  27.992  29.186  1.00  0.00    -0.354 N 
ATOM     46  C   UNL A   1      37.792  31.619  29.503  1.00  0.00     0.074 A 
ATOM     47  C   UNL A   1      36.816  30.791  28.838  1.00  0.00     0.031 C 
ATOM     48  C   UNL A   1      42.584  29.331  30.894  1.00  0.00     0.029 A 
ATOM     49  C   UNL A   1      43.158  28.682  29.719  1.00  0.00     0.049 A 
ATOM     50  H   UNL A   1      42.084  27.125  28.720  1.00  0.00     0.167 HD
ATOM     51  C   UNL A   1      37.738  32.638  30.407  1.00  0.00     0.037 A 
ATOM     52  C   UNL A   1      44.011  29.268  28.824  1.00  0.00     0.037 A 
ATOM     53  C   UNL A   1      39.067  32.910  30.946  1.00  0.00     0.049 A 
ATOM     54  C   UNL A   1      43.930  30.783  28.833  1.00  0.00     0.074 A 
ATOM     55  C   UNL A   1      39.742  32.497  32.085  1.00  0.00     0.029 A 
ATOM     56  N   UNL A   1      40.039  33.383  30.087  1.00  0.00    -0.354 N 
ATOM     57  N   UNL A   1      43.041  31.470  29.496  1.00  0.00    -0.248 NA
ATOM     58  C   UNL A   1      44.800  31.638  28.029  1.00  0.00     0.031 C 
ATOM     59  C   UNL A   1      41.135  32.741  31.891  1.00  0.00     0.029 A 
ATOM     60  C   UNL A   1      41.300  33.306  30.640  1.00  0.00     0.049 A 
ATOM     61  H   UNL A   1      39.853  33.733  29.185  1.00  0.00     0.167 HD
ATOM     62  C   UNL A   1      43.203  32.802  29.251  1.00  0.00     0.074 A 
ATOM     63  C   UNL A   1      44.301  32.856  28.301  1.00  0.00     0.031 C 
ATOM     64  C   UNL A   1      42.419  33.759  29.832  1.00  0.00     0.037 A 
BRANCH  51  65
ATOM     65  C   UNL A   1      36.468  33.198  30.992  1.00  0.00     0.064 A 
ATOM     66  C   UNL A   1      35.637  34.042  30.223  1.00  0.00     0.173 A 
ATOM     67  C   UNL A   1      36.014  32.941  32.299  1.00  0.00     0.173 A 
ATOM     68  F   UNL A   1      35.917  34.325  28.946  1.00  0.00    -0.203 F 
ATOM     69  C   UNL A   1      34.487  34.639  30.742  1.00  0.00     0.198 A 
ATOM     70  C   UNL A   1      34.882  33.572  32.831  1.00  0.00     0.198 A 
ATOM     71  F   UNL A   1      36.630  32.046  33.083  1.00  0.00    -0.203 F 
ATOM     72  F   UNL A   1      33.743  35.434  29.960  1.00  0.00    -0.200 F 
ATOM     73  C   UNL A   1      34.122  34.425  32.054  1.00  0.00     0.200 A 
ATOM     74  F   UNL A   1      34.529  33.345  34.105  1.00  0.00    -0.200 F 
ATOM     75  F   UNL A   1      33.035  35.023  32.560  1.00  0.00    -0.200 F 
ENDBRANCH  51  65
BRANCH  52  76
ATOM     76  C   UNL A   1      44.230  28.428  27.596  1.00  0.00     0.064 A 
ATOM     77  C   UNL A   1      44.968  27.229  27.715  1.00  0.00     0.173 A 
ATOM     78  C   UNL A   1      43.463  28.587  26.435  1.00  0.00     0.173 A 
ATOM     79  F   UNL A   1      45.713  27.006  28.810  1.00  0.00    -0.203 F 
ATOM     80  C   UNL A   1      44.864  26.206  26.771  1.00  0.00     0.198 A 
ATOM     81  C   UNL A   1      43.369  27.563  25.485  1.00  0.00     0.198 A 
ATOM     82  F   UNL A   1      42.714  29.684  26.256  1.00  0.00    -0.203 F 
ATOM     83  F   UNL A   1      45.498  25.042  26.973  1.00  0.00    -0.200 F 
ATOM     84  C   UNL A   1      44.049  26.368  25.666  1.00  0.00     0.200 A 
ATOM     85  F   UNL A   1      42.534  27.695  24.443  1.00  0.00    -0.200 F 
ATOM     86  F   UNL A   1      43.873  25.360  24.800  1.00  0.00    -0.200 F 
ENDBRANCH  52  76
BRANCH  64  87
ATOM     87  C   UNL A   1      42.632  35.234  29.642  1.00  0.00     0.064 A 
ATOM     88  C   UNL A   1      42.149  35.916  28.516  1.00  0.00     0.173 A 
ATOM     89  C   UNL A   1      43.420  35.998  30.532  1.00  0.00     0.173 A 
ATOM     90  F   UNL A   1      41.506  35.263  27.536  1.00  0.00    -0.203 F 
ATOM     91  C   UNL A   1      42.335  37.288  28.356  1.00  0.00     0.198 A 
ATOM     92  C   UNL A   1      43.655  37.354  30.340  1.00  0.00     0.198 A 
ATOM     93  F   UNL A   1      43.974  35.470  31.632  1.00  0.00    -0.203 F 
ATOM     94  F   UNL A   1      41.782  37.913  27.308  1.00  0.00    -0.200 F 
ATOM     95  C   UNL A   1      43.087  38.007  29.267  1.00  0.00     0.200 A 
ATOM     96  F   UNL A   1      44.426  38.023  31.210  1.00  0.00    -0.200 F 
ATOM     97  F   UNL A   1      43.268  39.324  29.111  1.00  0.00    -0.200 F 
ENDBRANCH  64  87
ENDBRANCH  38  39
ENDBRANCH  31  33
ENDBRANCH  30  31
ENDBRANCH  29  30
ENDBRANCH   1  29
TORSDOF 15
ENDMDL
MODEL 2
REMARK VINA RESULT:     -14.2      4.196     10.620
REMARK SMILES Cc1ccccc1S(=O)(=O)Nc1ccc(N2CCOCC2)cc1C(=O)OCCOC(=O)c1ccc(-c2c3nc(c(-c4c(F)c(F)c(F)c(F)c4F)c4ccc([nH]4)c(-c4c(F)c(F)c(F)c(F)c4F)c4nc(c(-c5c(F)c(F)c(F)c(F)c5F)c5ccc2[nH]5)C=C4)C=C3)cc1
REMARK SMILES IDX 27 1 26 2 24 3 25 4 23 5 12 6 13 7 14 8 22 9 15 10 11 11
REMARK SMILES IDX 8 13 9 14 10 15 7 16 1 17 2 18 3 19 4 20 6 21 5 22 16 23
REMARK SMILES IDX 17 24 21 25 18 26 20 27 19 28 28 29 29 30 30 31 31 32 32 33
REMARK SMILES IDX 33 34 94 35 34 36 93 37 35 38 36 39 37 40 87 41 38 42 92 43
REMARK SMILES IDX 86 44 88 45 39 46 91 47 85 48 84 49 40 51 72 52 52 53 71 54
REMARK SMILES IDX 53 55 56 56 70 57 89 58 54 59 55 60 69 62 90 63 57 64 41 65
REMARK SMILES IDX 42 66 50 67 43 68 44 69 48 70 51 71 45 72 46 73 49 74 47 75
REMARK SMILES IDX 73 76 74 77 82 78 75 79 76 80 80 81 83 82 77 83 78 84 81 85
REMARK SMILES IDX 79 86 58 87 59 88 67 89 60 90 61 91 65 92 68 93 62 94 63 95
REMARK SMILES IDX 66 96 64 97
REMARK H PARENT 11 12 88 50 56 61
REMARK Flexibility Score: inf
ROOT
ATOM      1  C   UNL A   1      33.702  28.800  27.344  1.00  0.00     0.275 C 
ENDROOT
BRANCH   1   2
ATOM      2  O   UNL A   1      32.886  28.237  26.294  1.00  0.00    -0.458 OA
BRANCH   2   3
ATOM      3  C   UNL A   1      32.072  29.191  25.758  1.00  0.00     0.340 C 
ATOM      4  O   UNL A   1      31.739  30.202  26.374  1.00  0.00    -0.246 OA
BRANCH   3   5
ATOM      5  C   UNL A   1      31.417  28.935  24.443  1.00  0.00     0.086 A 
ATOM      6  C   UNL A   1      31.782  28.075  23.399  1.00  0.00     0.064 A 
ATOM      7  C   UNL A   1      31.045  28.104  22.202  1.00  0.00     0.030 A 
ATOM      8  C   UNL A   1      29.930  28.936  22.056  1.00  0.00     0.028 A 
ATOM      9  C   UNL A   1      30.304  29.782  24.245  1.00  0.00     0.043 A 
ATOM     10  C   UNL A   1      29.549  29.803  23.075  1.00  0.00     0.038 A 
BRANCH   6  11
ATOM     11  N   UNL A   1      32.899  27.193  23.445  1.00  0.00    -0.279 N 
ATOM     12  H   UNL A   1      33.705  27.432  23.957  1.00  0.00     0.180 HD
BRANCH  11  13
ATOM     13  S   UNL A   1      32.819  25.716  22.597  1.00  0.00     0.262 S 
ATOM     14  O   UNL A   1      33.614  25.945  21.407  1.00  0.00    -0.201 OA
ATOM     15  O   UNL A   1      31.447  25.290  22.464  1.00  0.00    -0.201 OA
BRANCH  13  16
ATOM     16  C   UNL A   1      33.713  24.614  23.672  1.00  0.00     0.090 A 
ATOM     17  C   UNL A   1      32.941  22.416  22.516  1.00  0.00     0.046 C 
ATOM     18  C   UNL A   1      33.603  23.209  23.605  1.00  0.00    -0.031 A 
ATOM     19  C   UNL A   1      34.161  22.454  24.654  1.00  0.00     0.005 A 
ATOM     20  C   UNL A   1      34.885  23.061  25.678  1.00  0.00     0.000 A 
ATOM     21  C   UNL A   1      34.484  25.215  24.679  1.00  0.00     0.022 A 
ATOM     22  C   UNL A   1      35.084  24.435  25.663  1.00  0.00     0.001 A 
ENDBRANCH  13  16
ENDBRANCH  11  13
ENDBRANCH   6  11
BRANCH  10  23
ATOM     23  N   UNL A   1      28.473  30.652  22.914  1.00  0.00    -0.367 N 
ATOM     24  C   UNL A   1      27.828  30.807  21.598  1.00  0.00     0.145 C 
ATOM     25  C   UNL A   1      28.404  31.851  23.766  1.00  0.00     0.145 C 
ATOM     26  C   UNL A   1      28.279  32.104  20.904  1.00  0.00     0.181 C 
ATOM     27  C   UNL A   1      28.863  33.087  22.973  1.00  0.00     0.181 C 
ATOM     28  O   UNL A   1      28.109  33.248  21.756  1.00  0.00    -0.378 OA
ENDBRANCH  10  23
ENDBRANCH   3   5
ENDBRANCH   2   3
ENDBRANCH   1   2
BRANCH   1  29
ATOM     29  C   UNL A   1      34.954  29.617  26.969  1.00  0.00     0.275 C 
BRANCH  29  30
ATOM     30  O   UNL A   1      35.304  30.856  27.635  1.00  0.00    -0.458 OA
BRANCH  30  31
ATOM     31  C   UNL A   1      36.426  31.204  28.294  1.00  0.00     0.338 C 
ATOM     32  O   UNL A   1      36.622  32.329  28.735  1.00  0.00    -0.246 OA
BRANCH  31  33
ATOM     33  C   UNL A   1      37.402  30.151  28.516  1.00  0.00     0.060 A 
ATOM     34  C   UNL A   1      37.244  29.327  29.639  1.00  0.00     0.016 A 
ATOM     35  C   UNL A   1      38.400  29.941  27.572  1.00  0.00     0.016 A 
ATOM     36  C   UNL A   1      38.049  28.211  29.786  1.00  0.00     0.010 A 
ATOM     37  C   UNL A   1      39.150  28.797  27.669  1.00  0.00     0.010 A 
ATOM     38  C   UNL A   1      39.007  27.971  28.802  1.00  0.00    -0.014 A 
BRANCH  38  39
ATOM     39  C   UNL A   1      40.224  27.244  29.098  1.00  0.00     0.031 A 
ATOM     40  C   UNL A   1      40.482  25.866  28.676  1.00  0.00     0.074 A 
ATOM     41  C   UNL A   1      41.182  28.125  29.460  1.00  0.00     0.049 A 
ATOM     42  N   UNL A   1      41.517  25.206  29.060  1.00  0.00    -0.248 NA
ATOM     43  C   UNL A   1      39.599  25.085  27.818  1.00  0.00     0.031 C 
ATOM     44  C   UNL A   1      42.619  28.069  29.298  1.00  0.00     0.029 A 
ATOM     45  N   UNL A   1      40.956  29.346  30.124  1.00  0.00    -0.354 N 
ATOM     46  C   UNL A   1      41.610  24.091  28.259  1.00  0.00     0.074 A 
ATOM     47  C   UNL A   1      40.330  23.983  27.603  1.00  0.00     0.031 C 
ATOM     48  C   UNL A   1      43.165  29.038  30.059  1.00  0.00     0.029 A 
ATOM     49  C   UNL A   1      42.100  29.598  30.887  1.00  0.00     0.049 A 
ATOM     50  H   UNL A   1      40.151  29.910  30.063  1.00  0.00     0.167 HD
ATOM     51  C   UNL A   1      42.826  23.495  28.107  1.00  0.00     0.037 A 
ATOM     52  C   UNL A   1      41.982  29.446  32.241  1.00  0.00     0.037 A 
ATOM     53  C   UNL A   1      43.842  24.209  28.874  1.00  0.00     0.049 A 
ATOM     54  C   UNL A   1      42.737  28.239  32.770  1.00  0.00     0.074 A 
ATOM     55  C   UNL A   1      44.759  25.201  28.559  1.00  0.00     0.029 A 
ATOM     56  N   UNL A   1      43.735  24.223  30.250  1.00  0.00    -0.354 N 
ATOM     57  N   UNL A   1      43.310  27.340  32.018  1.00  0.00    -0.248 NA
ATOM     58  C   UNL A   1      42.835  27.913  34.190  1.00  0.00     0.031 C 
ATOM     59  C   UNL A   1      45.204  25.800  29.776  1.00  0.00     0.029 A 
ATOM     60  C   UNL A   1      44.561  25.167  30.824  1.00  0.00     0.049 A 
ATOM     61  H   UNL A   1      43.139  23.629  30.762  1.00  0.00     0.167 HD
ATOM     62  C   UNL A   1      43.852  26.359  32.794  1.00  0.00     0.074 A 
ATOM     63  C   UNL A   1      43.502  26.747  34.150  1.00  0.00     0.031 C 
ATOM     64  C   UNL A   1      44.534  25.297  32.271  1.00  0.00     0.037 A 
BRANCH  51  65
ATOM     65  C   UNL A   1      43.143  22.446  27.073  1.00  0.00     0.064 A 
ATOM     66  C   UNL A   1      42.524  21.179  27.125  1.00  0.00     0.173 A 
ATOM     67  C   UNL A   1      44.044  22.628  26.007  1.00  0.00     0.173 A 
ATOM     68  F   UNL A   1      41.604  20.887  28.051  1.00  0.00    -0.203 F 
ATOM     69  C   UNL A   1      42.835  20.154  26.231  1.00  0.00     0.198 A 
ATOM     70  C   UNL A   1      44.385  21.587  25.134  1.00  0.00     0.198 A 
ATOM     71  F   UNL A   1      44.591  23.827  25.758  1.00  0.00    -0.203 F 
ATOM     72  F   UNL A   1      42.214  18.971  26.337  1.00  0.00    -0.200 F 
ATOM     73  C   UNL A   1      43.784  20.348  25.250  1.00  0.00     0.200 A 
ATOM     74  F   UNL A   1      45.301  21.792  24.176  1.00  0.00    -0.200 F 
ATOM     75  F   UNL A   1      44.105  19.353  24.412  1.00  0.00    -0.200 F 
ENDBRANCH  51  65
BRANCH  52  76
ATOM     76  C   UNL A   1      40.659  29.926  32.766  1.00  0.00     0.064 A 
ATOM     77  C   UNL A   1      40.385  31.312  32.756  1.00  0.00     0.173 A 
ATOM     78  C   UNL A   1      39.565  29.067  32.937  1.00  0.00     0.173 A 
ATOM     79  F   UNL A   1      41.386  32.191  32.581  1.00  0.00    -0.203 F 
ATOM     80  C   UNL A   1      39.080  31.805  32.814  1.00  0.00     0.198 A 
ATOM     81  C   UNL A   1      38.259  29.564  33.005  1.00  0.00     0.198 A 
ATOM     82  F   UNL A   1      39.735  27.738  32.933  1.00  0.00    -0.203 F 
ATOM     83  F   UNL A   1      38.856  33.121  32.695  1.00  0.00    -0.200 F 
ATOM     84  C   UNL A   1      38.017  30.927  32.920  1.00  0.00     0.200 A 
ATOM     85  F   UNL A   1      37.223  28.712  33.049  1.00  0.00    -0.200 F 
ATOM     86  F   UNL A   1      36.757  31.383  32.888  1.00  0.00    -0.200 F 
ENDBRANCH  52  76
BRANCH  64  87
ATOM     87  C   UNL A   1      45.210  24.250  33.109  1.00  0.00     0.064 A 
ATOM     88  C   UNL A   1      44.540  23.096  33.540  1.00  0.00     0.173 A 
ATOM     89  C   UNL A   1      46.525  24.416  33.599  1.00  0.00     0.173 A 
ATOM     90  F   UNL A   1      43.245  22.901  33.251  1.00  0.00    -0.203 F 
ATOM     91  C   UNL A   1      45.180  22.120  34.303  1.00  0.00     0.198 A 
ATOM     92  C   UNL A   1      47.142  23.470  34.410  1.00  0.00     0.198 A 
ATOM     93  F   UNL A   1      47.272  25.487  33.297  1.00  0.00    -0.203 F 
ATOM     94  F   UNL A   1      44.527  20.994  34.620  1.00  0.00    -0.200 F 
ATOM     95  C   UNL A   1      46.480  22.307  34.737  1.00  0.00     0.200 A 
ATOM     96  F   UNL A   1      48.386  23.692  34.858  1.00  0.00    -0.200 F 
ATOM     97  F   UNL A   1      47.093  21.371  35.472  1.00  0.00    -0.200 F 
ENDBRANCH  64  87
ENDBRANCH  38  39
ENDBRANCH  31  33
ENDBRANCH  30  31
ENDBRANCH  29  30
ENDBRANCH   1  29
TORSDOF 15
ENDMDL
MODEL 3
REMARK VINA RESULT:     -14.0      4.278     10.545
REMARK SMILES Cc1ccccc1S(=O)(=O)Nc1ccc(N2CCOCC2)cc1C(=O)OCCOC(=O)c1ccc(-c2c3nc(c(-c4c(F)c(F)c(F)c(F)c4F)c4ccc([nH]4)c(-c4c(F)c(F)c(F)c(F)c4F)c4nc(c(-c5c(F)c(F)c(F)c(F)c5F)c5ccc2[nH]5)C=C4)C=C3)cc1
REMARK SMILES IDX 27 1 26 2 24 3 25 4 23 5 12 6 13 7 14 8 22 9 15 10 11 11
REMARK SMILES IDX 8 13 9 14 10 15 7 16 1 17 2 18 3 19 4 20 6 21 5 22 16 23
REMARK SMILES IDX 17 24 21 25 18 26 20 27 19 28 28 29 29 30 30 31 31 32 32 33
REMARK SMILES IDX 33 34 94 35 34 36 93 37 35 38 36 39 37 40 87 41 38 42 92 43
REMARK SMILES IDX 86 44 88 45 39 46 91 47 85 48 84 49 40 51 72 52 52 53 71 54
REMARK SMILES IDX 53 55 56 56 70 57 89 58 54 59 55 60 69 62 90 63 57 64 41 65
REMARK SMILES IDX 42 66 50 67 43 68 44 69 48 70 51 71 45 72 46 73 49 74 47 75
REMARK SMILES IDX 73 76 74 77 82 78 75 79 76 80 80 81 83 82 77 83 78 84 81 85
REMARK SMILES IDX 79 86 58 87 59 88 67 89 60 90 61 91 65 92 68 93 62 94 63 95
REMARK SMILES IDX 66 96 64 97
REMARK H PARENT 11 12 88 50 56 61
REMARK Flexibility Score: inf
ROOT
ATOM      1  C   UNL A   1      32.850  31.106  26.538  1.00  0.00     0.275 C 
ENDROOT
BRANCH   1   2
ATOM      2  O   UNL A   1      32.183  29.827  26.537  1.00  0.00    -0.458 OA
BRANCH   2   3
ATOM      3  C   UNL A   1      32.691  29.023  25.559  1.00  0.00     0.340 C 
ATOM      4  O   UNL A   1      33.869  28.672  25.535  1.00  0.00    -0.246 OA
BRANCH   3   5
ATOM      5  C   UNL A   1      31.843  28.685  24.379  1.00  0.00     0.086 A 
ATOM      6  C   UNL A   1      32.050  27.760  23.347  1.00  0.00     0.064 A 
ATOM      7  C   UNL A   1      31.137  27.715  22.280  1.00  0.00     0.030 A 
ATOM      8  C   UNL A   1      30.005  28.537  22.256  1.00  0.00     0.028 A 
ATOM      9  C   UNL A   1      30.706  29.518  24.304  1.00  0.00     0.043 A 
ATOM     10  C   UNL A   1      29.778  29.466  23.266  1.00  0.00     0.038 A 
BRANCH   6  11
ATOM     11  N   UNL A   1      33.168  26.882  23.274  1.00  0.00    -0.279 N 
ATOM     12  H   UNL A   1      34.077  27.212  23.463  1.00  0.00     0.180 HD
BRANCH  11  13
ATOM     13  S   UNL A   1      32.910  25.251  22.852  1.00  0.00     0.262 S 
ATOM     14  O   UNL A   1      33.279  25.183  21.452  1.00  0.00    -0.201 OA
ATOM     15  O   UNL A   1      31.592  24.832  23.262  1.00  0.00    -0.201 OA
BRANCH  13  16
ATOM     16  C   UNL A   1      34.156  24.411  23.807  1.00  0.00     0.090 A 
ATOM     17  C   UNL A   1      33.347  25.267  26.126  1.00  0.00     0.046 C 
ATOM     18  C   UNL A   1      34.308  24.580  25.200  1.00  0.00    -0.031 A 
ATOM     19  C   UNL A   1      35.470  24.060  25.802  1.00  0.00     0.005 A 
ATOM     20  C   UNL A   1      36.396  23.319  25.073  1.00  0.00     0.000 A 
ATOM     21  C   UNL A   1      35.067  23.623  23.087  1.00  0.00     0.022 A 
ATOM     22  C   UNL A   1      36.169  23.062  23.726  1.00  0.00     0.001 A 
ENDBRANCH  13  16
ENDBRANCH  11  13
ENDBRANCH   6  11
BRANCH  10  23
ATOM     23  N   UNL A   1      28.683  30.305  23.221  1.00  0.00    -0.367 N 
ATOM     24  C   UNL A   1      27.759  30.275  22.073  1.00  0.00     0.145 C 
ATOM     25  C   UNL A   1      28.790  31.619  23.876  1.00  0.00     0.145 C 
ATOM     26  C   UNL A   1      28.028  31.442  21.109  1.00  0.00     0.181 C 
ATOM     27  C   UNL A   1      29.045  32.713  22.823  1.00  0.00     0.181 C 
ATOM     28  O   UNL A   1      28.038  32.705  21.794  1.00  0.00    -0.378 OA
ENDBRANCH  10  23
ENDBRANCH   3   5
ENDBRANCH   2   3
ENDBRANCH   1   2
BRANCH   1  29
ATOM     29  C   UNL A   1      33.884  31.416  27.638  1.00  0.00     0.275 C 
BRANCH  29  30
ATOM     30  O   UNL A   1      35.158  30.730  27.724  1.00  0.00    -0.458 OA
BRANCH  30  31
ATOM     31  C   UNL A   1      36.352  31.162  28.172  1.00  0.00     0.338 C 
ATOM     32  O   UNL A   1      36.593  32.337  28.413  1.00  0.00    -0.246 OA
BRANCH  31  33
ATOM     33  C   UNL A   1      37.361  30.144  28.417  1.00  0.00     0.060 A 
ATOM     34  C   UNL A   1      37.200  29.305  29.528  1.00  0.00     0.016 A 
ATOM     35  C   UNL A   1      38.395  29.981  27.503  1.00  0.00     0.016 A 
ATOM     36  C   UNL A   1      38.042  28.219  29.692  1.00  0.00     0.010 A 
ATOM     37  C   UNL A   1      39.185  28.865  27.615  1.00  0.00     0.010 A 
ATOM     38  C   UNL A   1      39.039  28.025  28.736  1.00  0.00    -0.014 A 
BRANCH  38  39
ATOM     39  C   UNL A   1      40.273  27.342  29.065  1.00  0.00     0.031 A 
ATOM     40  C   UNL A   1      40.609  25.990  28.614  1.00  0.00     0.074 A 
ATOM     41  C   UNL A   1      41.173  28.250  29.496  1.00  0.00     0.049 A 
ATOM     42  N   UNL A   1      41.655  25.363  29.024  1.00  0.00    -0.248 NA
ATOM     43  C   UNL A   1      39.800  25.199  27.694  1.00  0.00     0.031 C 
ATOM     44  C   UNL A   1      42.617  28.262  29.396  1.00  0.00     0.029 A 
ATOM     45  N   UNL A   1      40.865  29.439  30.185  1.00  0.00    -0.354 N 
ATOM     46  C   UNL A   1      41.832  24.279  28.196  1.00  0.00     0.074 A 
ATOM     47  C   UNL A   1      40.589  24.137  27.479  1.00  0.00     0.031 C 
ATOM     48  C   UNL A   1      43.086  29.229  30.210  1.00  0.00     0.029 A 
ATOM     49  C   UNL A   1      41.963  29.715  31.005  1.00  0.00     0.049 A 
ATOM     50  H   UNL A   1      40.039  29.969  30.105  1.00  0.00     0.167 HD
ATOM     51  C   UNL A   1      43.079  23.741  28.081  1.00  0.00     0.037 A 
ATOM     52  C   UNL A   1      41.792  29.516  32.348  1.00  0.00     0.037 A 
ATOM     53  C   UNL A   1      44.028  24.474  28.914  1.00  0.00     0.049 A 
ATOM     54  C   UNL A   1      42.576  28.327  32.874  1.00  0.00     0.074 A 
ATOM     55  C   UNL A   1      44.913  25.513  28.669  1.00  0.00     0.029 A 
ATOM     56  N   UNL A   1      43.860  24.439  30.283  1.00  0.00    -0.354 N 
ATOM     57  N   UNL A   1      43.221  27.477  32.122  1.00  0.00    -0.248 NA
ATOM     58  C   UNL A   1      42.626  27.960  34.286  1.00  0.00     0.031 C 
ATOM     59  C   UNL A   1      45.277  26.092  29.923  1.00  0.00     0.029 A 
ATOM     60  C   UNL A   1      44.618  25.400  30.922  1.00  0.00     0.049 A 
ATOM     61  H   UNL A   1      43.269  23.804  30.749  1.00  0.00     0.167 HD
ATOM     62  C   UNL A   1      43.772  26.497  32.892  1.00  0.00     0.074 A 
ATOM     63  C   UNL A   1      43.346  26.826  34.242  1.00  0.00     0.031 C 
ATOM     64  C   UNL A   1      44.522  25.482  32.368  1.00  0.00     0.037 A 
BRANCH  51  65
ATOM     65  C   UNL A   1      43.487  22.741  27.031  1.00  0.00     0.064 A 
ATOM     66  C   UNL A   1      44.392  23.103  26.010  1.00  0.00     0.173 A 
ATOM     67  C   UNL A   1      43.026  21.412  26.977  1.00  0.00     0.173 A 
ATOM     68  F   UNL A   1      44.954  24.317  25.971  1.00  0.00    -0.203 F 
ATOM     69  C   UNL A   1      44.748  22.233  24.978  1.00  0.00     0.198 A 
ATOM     70  C   UNL A   1      43.353  20.553  25.920  1.00  0.00     0.198 A 
ATOM     71  F   UNL A   1      42.278  20.898  27.963  1.00  0.00    -0.203 F 
ATOM     72  F   UNL A   1      45.610  22.640  24.036  1.00  0.00    -0.200 F 
ATOM     73  C   UNL A   1      44.210  20.966  24.918  1.00  0.00     0.200 A 
ATOM     74  F   UNL A   1      42.832  19.317  25.879  1.00  0.00    -0.200 F 
ATOM     75  F   UNL A   1      44.528  20.142  23.910  1.00  0.00    -0.200 F 
ENDBRANCH  51  65
BRANCH  52  76
ATOM     76  C   UNL A   1      40.427  29.922  32.827  1.00  0.00     0.064 A 
ATOM     77  C   UNL A   1      40.104  31.296  32.875  1.00  0.00     0.173 A 
ATOM     78  C   UNL A   1      39.359  29.018  32.895  1.00  0.00     0.173 A 
ATOM     79  F   UNL A   1      41.080  32.217  32.799  1.00  0.00    -0.203 F 
ATOM     80  C   UNL A   1      38.781  31.740  32.890  1.00  0.00     0.198 A 
ATOM     81  C   UNL A   1      38.033  29.467  32.920  1.00  0.00     0.198 A 
ATOM     82  F   UNL A   1      39.577  27.697  32.830  1.00  0.00    -0.203 F 
ATOM     83  F   UNL A   1      38.514  33.053  32.829  1.00  0.00    -0.200 F 
ATOM     84  C   UNL A   1      37.746  30.823  32.894  1.00  0.00     0.200 A 
ATOM     85  F   UNL A   1      37.028  28.579  32.865  1.00  0.00    -0.200 F 
ATOM     86  F   UNL A   1      36.473  31.236  32.819  1.00  0.00    -0.200 F 
ENDBRANCH  52  76
BRANCH  64  87
ATOM     87  C   UNL A   1      45.207  24.439  33.205  1.00  0.00     0.064 A 
ATOM     88  C   UNL A   1      46.551  24.556  33.588  1.00  0.00     0.173 A 
ATOM     89  C   UNL A   1      44.568  23.231  33.566  1.00  0.00     0.173 A 
ATOM     90  F   UNL A   1      47.295  25.596  33.183  1.00  0.00    -0.203 F 
ATOM     91  C   UNL A   1      47.173  23.591  34.379  1.00  0.00     0.198 A 
ATOM     92  C   UNL A   1      45.209  22.243  34.304  1.00  0.00     0.198 A 
ATOM     93  F   UNL A   1      43.296  22.968  33.238  1.00  0.00    -0.203 F 
ATOM     94  F   UNL A   1      48.432  23.787  34.792  1.00  0.00    -0.200 F 
ATOM     95  C   UNL A   1      46.503  22.436  34.737  1.00  0.00     0.200 A 
ATOM     96  F   UNL A   1      44.556  21.110  34.601  1.00  0.00    -0.200 F 
ATOM     97  F   UNL A   1      47.102  21.509  35.494  1.00  0.00    -0.200 F 
ENDBRANCH  64  87
ENDBRANCH  38  39
ENDBRANCH  31  33
ENDBRANCH  30  31
ENDBRANCH  29  30
ENDBRANCH   1  29
TORSDOF 15
ENDMDL
