MODEL 1
REMARK VINA RESULT:     -12.4      0.000      0.000
REMARK SMILES CC(C)(C)c1ccc(C(=O)C[C@H](C(=O)OCCOC(=O)c2ccc(-c3c4nc(c(-c5c(F)c(F)c(F)c(F)c5F)c5ccc([nH]5)c(-c5c(F)c(F)c(F)c(F)c5F)c5nc(c(-c6c(F)c(F)c(F)c(F)c6F)c6ccc3[nH]6)C=C5)C=C4)cc2)[NH+]2CCCC2)cc1
REMARK SMILES IDX 16 1 15 2 13 3 14 4 12 5 11 6 9 7 10 8 8 9 5 10 6 11 90 12
REMARK SMILES IDX 7 13 89 14 2 15 1 16 3 17 4 18 84 19 85 20 88 21 86 23 87 24
REMARK SMILES IDX 17 25 18 26 19 27 20 28 21 29 22 30 83 31 23 32 82 33 24 34
REMARK SMILES IDX 25 35 26 36 76 37 27 38 81 39 75 40 77 41 28 42 80 43 74 44
REMARK SMILES IDX 73 45 29 47 61 48 41 49 60 50 42 51 45 52 59 53 78 54 43 55
REMARK SMILES IDX 44 56 58 58 79 59 46 60 30 61 31 62 39 63 32 64 33 65 37 66
REMARK SMILES IDX 40 67 34 68 35 69 38 70 36 71 62 72 63 73 71 74 64 75 65 76
REMARK SMILES IDX 69 77 72 78 66 79 67 80 70 81 68 82 47 83 48 84 56 85 49 86
REMARK SMILES IDX 50 87 54 88 57 89 51 90 52 91 55 92 53 93
REMARK H PARENT 84 22 77 46 45 57
REMARK Flexibility Score: inf
ROOT
ATOM      1  C   UNL A   1      35.311  22.758  25.647  1.00  0.00     0.274 C 
ENDROOT
BRANCH   1   2
ATOM      2  O   UNL A   1      35.578  23.765  24.643  1.00  0.00    -0.458 OA
BRANCH   2   3
ATOM      3  C   UNL A   1      34.598  23.988  23.723  1.00  0.00     0.365 C 
ATOM      4  O   UNL A   1      34.532  23.401  22.647  1.00  0.00    -0.245 OA
BRANCH   3   5
ATOM      5  C   UNL A   1      33.538  25.020  24.185  1.00  0.00     0.302 C 
BRANCH   5   6
ATOM      6  C   UNL A   1      33.641  26.392  23.469  1.00  0.00     0.158 C 
BRANCH   6   7
ATOM      7  C   UNL A   1      33.298  27.700  24.171  1.00  0.00     0.169 C 
ATOM      8  O   UNL A   1      34.035  28.158  25.045  1.00  0.00    -0.294 OA
BRANCH   7   9
ATOM      9  C   UNL A   1      32.095  28.475  23.774  1.00  0.00     0.018 A 
ATOM     10  C   UNL A   1      29.602  29.663  23.141  1.00  0.00    -0.043 A 
ATOM     11  C   UNL A   1      30.274  29.986  24.331  1.00  0.00     0.005 A 
ATOM     12  C   UNL A   1      30.255  28.801  22.255  1.00  0.00     0.005 A 
ATOM     13  C   UNL A   1      31.511  29.395  24.648  1.00  0.00     0.012 A 
ATOM     14  C   UNL A   1      31.494  28.250  22.551  1.00  0.00     0.012 A 
BRANCH  10  15
ATOM     15  C   UNL A   1      28.201  30.167  22.768  1.00  0.00    -0.013 C 
ATOM     16  C   UNL A   1      28.116  30.455  21.250  1.00  0.00     0.016 C 
ATOM     17  C   UNL A   1      27.795  31.459  23.502  1.00  0.00     0.016 C 
ATOM     18  C   UNL A   1      27.175  29.069  23.126  1.00  0.00     0.016 C 
ENDBRANCH  10  15
ENDBRANCH   7   9
ENDBRANCH   6   7
ENDBRANCH   5   6
BRANCH   5  19
ATOM     19  N   UNL A   1      32.285  24.413  24.674  1.00  0.00    -0.323 N 
ATOM     20  C   UNL A   1      31.105  24.333  23.826  1.00  0.00     0.263 C 
ATOM     21  C   UNL A   1      31.823  24.848  25.990  1.00  0.00     0.263 C 
ATOM     22  H   UNL A   1      32.683  23.474  24.693  1.00  0.00     0.348 HD
ATOM     23  C   UNL A   1      30.216  25.469  24.275  1.00  0.00     0.067 C 
ATOM     24  C   UNL A   1      30.552  25.656  25.746  1.00  0.00     0.067 C 
ENDBRANCH   5  19
ENDBRANCH   3   5
ENDBRANCH   2   3
ENDBRANCH   1   2
BRANCH   1  25
ATOM     25  C   UNL A   1      36.322  21.615  25.572  1.00  0.00     0.275 C 
BRANCH  25  26
ATOM     26  O   UNL A   1      37.582  22.123  25.113  1.00  0.00    -0.458 OA
BRANCH  26  27
ATOM     27  C   UNL A   1      38.680  21.670  25.755  1.00  0.00     0.338 C 
ATOM     28  O   UNL A   1      39.129  20.533  25.733  1.00  0.00    -0.246 OA
BRANCH  27  29
ATOM     29  C   UNL A   1      39.289  22.769  26.528  1.00  0.00     0.060 A 
ATOM     30  C   UNL A   1      40.354  22.553  27.413  1.00  0.00     0.016 A 
ATOM     31  C   UNL A   1      38.779  24.053  26.342  1.00  0.00     0.016 A 
ATOM     32  C   UNL A   1      40.930  23.622  28.090  1.00  0.00     0.010 A 
ATOM     33  C   UNL A   1      39.408  25.132  26.951  1.00  0.00     0.010 A 
ATOM     34  C   UNL A   1      40.506  24.924  27.803  1.00  0.00    -0.014 A 
BRANCH  34  35
ATOM     35  C   UNL A   1      41.291  26.103  28.231  1.00  0.00     0.031 A 
ATOM     36  C   UNL A   1      40.618  27.235  28.936  1.00  0.00     0.074 A 
ATOM     37  C   UNL A   1      42.566  26.195  27.806  1.00  0.00     0.049 A 
ATOM     38  N   UNL A   1      41.035  28.459  29.119  1.00  0.00    -0.248 NA
ATOM     39  C   UNL A   1      39.278  26.963  29.480  1.00  0.00     0.031 C 
ATOM     40  C   UNL A   1      43.297  25.144  27.091  1.00  0.00     0.029 A 
ATOM     41  N   UNL A   1      43.456  27.235  27.861  1.00  0.00    -0.354 N 
ATOM     42  C   UNL A   1      39.999  29.116  29.769  1.00  0.00     0.074 A 
ATOM     43  C   UNL A   1      38.927  28.157  29.935  1.00  0.00     0.031 C 
ATOM     44  C   UNL A   1      44.513  25.597  26.758  1.00  0.00     0.029 A 
ATOM     45  C   UNL A   1      44.621  26.988  27.174  1.00  0.00     0.049 A 
ATOM     46  H   UNL A   1      43.280  28.075  28.344  1.00  0.00     0.167 HD
ATOM     47  C   UNL A   1      39.961  30.406  30.180  1.00  0.00     0.037 A 
ATOM     48  C   UNL A   1      45.639  27.808  26.866  1.00  0.00     0.037 A 
ATOM     49  C   UNL A   1      41.051  31.331  30.000  1.00  0.00     0.049 A 
ATOM     50  C   UNL A   1      45.560  29.239  27.312  1.00  0.00     0.074 A 
ATOM     51  C   UNL A   1      41.150  32.646  30.417  1.00  0.00     0.029 A 
ATOM     52  N   UNL A   1      42.234  31.031  29.336  1.00  0.00    -0.354 N 
ATOM     53  N   UNL A   1      44.592  29.848  27.952  1.00  0.00    -0.248 NA
ATOM     54  C   UNL A   1      46.707  30.094  26.988  1.00  0.00     0.031 C 
ATOM     55  C   UNL A   1      42.375  33.154  29.967  1.00  0.00     0.029 A 
ATOM     56  C   UNL A   1      43.060  32.144  29.311  1.00  0.00     0.049 A 
ATOM     57  H   UNL A   1      42.455  30.157  28.941  1.00  0.00     0.167 HD
ATOM     58  C   UNL A   1      45.014  31.157  28.122  1.00  0.00     0.074 A 
ATOM     59  C   UNL A   1      46.338  31.245  27.535  1.00  0.00     0.031 C 
ATOM     60  C   UNL A   1      44.368  32.196  28.706  1.00  0.00     0.037 A 
BRANCH  47  61
ATOM     61  C   UNL A   1      38.702  30.893  30.838  1.00  0.00     0.064 A 
ATOM     62  C   UNL A   1      37.611  31.366  30.091  1.00  0.00     0.173 A 
ATOM     63  C   UNL A   1      38.569  30.861  32.235  1.00  0.00     0.173 A 
ATOM     64  F   UNL A   1      37.687  31.428  28.753  1.00  0.00    -0.203 F 
ATOM     65  C   UNL A   1      36.451  31.814  30.717  1.00  0.00     0.198 A 
ATOM     66  C   UNL A   1      37.397  31.284  32.857  1.00  0.00     0.198 A 
ATOM     67  F   UNL A   1      39.578  30.415  33.000  1.00  0.00    -0.203 F 
ATOM     68  F   UNL A   1      35.442  32.305  29.984  1.00  0.00    -0.200 F 
ATOM     69  C   UNL A   1      36.342  31.767  32.099  1.00  0.00     0.200 A 
ATOM     70  F   UNL A   1      37.289  31.225  34.192  1.00  0.00    -0.200 F 
ATOM     71  F   UNL A   1      35.222  32.192  32.700  1.00  0.00    -0.200 F 
ENDBRANCH  47  61
BRANCH  48  72
ATOM     72  C   UNL A   1      46.796  27.290  26.092  1.00  0.00     0.064 A 
ATOM     73  C   UNL A   1      46.905  27.539  24.719  1.00  0.00     0.173 A 
ATOM     74  C   UNL A   1      47.838  26.580  26.711  1.00  0.00     0.173 A 
ATOM     75  F   UNL A   1      45.928  28.200  24.080  1.00  0.00    -0.203 F 
ATOM     76  C   UNL A   1      48.006  27.093  23.990  1.00  0.00     0.198 A 
ATOM     77  C   UNL A   1      48.951  26.158  25.987  1.00  0.00     0.198 A 
ATOM     78  F   UNL A   1      47.789  26.324  28.026  1.00  0.00    -0.203 F 
ATOM     79  F   UNL A   1      48.069  27.320  22.670  1.00  0.00    -0.200 F 
ATOM     80  C   UNL A   1      49.032  26.410  24.626  1.00  0.00     0.200 A 
ATOM     81  F   UNL A   1      49.950  25.517  26.610  1.00  0.00    -0.200 F 
ATOM     82  F   UNL A   1      50.097  25.995  23.927  1.00  0.00    -0.200 F 
ENDBRANCH  48  72
BRANCH  60  83
ATOM     83  C   UNL A   1      45.099  33.503  28.742  1.00  0.00     0.064 A 
ATOM     84  C   UNL A   1      45.981  33.819  29.786  1.00  0.00     0.173 A 
ATOM     85  C   UNL A   1      44.933  34.438  27.711  1.00  0.00     0.173 A 
ATOM     86  F   UNL A   1      46.154  32.964  30.805  1.00  0.00    -0.203 F 
ATOM     87  C   UNL A   1      46.650  35.039  29.809  1.00  0.00     0.198 A 
ATOM     88  C   UNL A   1      45.626  35.644  27.723  1.00  0.00     0.198 A 
ATOM     89  F   UNL A   1      44.101  34.179  26.690  1.00  0.00    -0.203 F 
ATOM     90  F   UNL A   1      47.448  35.343  30.841  1.00  0.00    -0.200 F 
ATOM     91  C   UNL A   1      46.478  35.946  28.775  1.00  0.00     0.200 A 
ATOM     92  F   UNL A   1      45.466  36.516  26.718  1.00  0.00    -0.200 F 
ATOM     93  F   UNL A   1      47.125  37.119  28.797  1.00  0.00    -0.200 F 
ENDBRANCH  60  83
ENDBRANCH  34  35
ENDBRANCH  27  29
ENDBRANCH  26  27
ENDBRANCH  25  26
ENDBRANCH   1  25
TORSDOF 16
ENDMDL
MODEL 2
REMARK VINA RESULT:     -12.3      1.425      2.232
REMARK SMILES CC(C)(C)c1ccc(C(=O)C[C@H](C(=O)OCCOC(=O)c2ccc(-c3c4nc(c(-c5c(F)c(F)c(F)c(F)c5F)c5ccc([nH]5)c(-c5c(F)c(F)c(F)c(F)c5F)c5nc(c(-c6c(F)c(F)c(F)c(F)c6F)c6ccc3[nH]6)C=C5)C=C4)cc2)[NH+]2CCCC2)cc1
REMARK SMILES IDX 16 1 15 2 13 3 14 4 12 5 11 6 9 7 10 8 8 9 5 10 6 11 90 12
REMARK SMILES IDX 7 13 89 14 2 15 1 16 3 17 4 18 84 19 85 20 88 21 86 23 87 24
REMARK SMILES IDX 17 25 18 26 19 27 20 28 21 29 22 30 83 31 23 32 82 33 24 34
REMARK SMILES IDX 25 35 26 36 76 37 27 38 81 39 75 40 77 41 28 42 80 43 74 44
REMARK SMILES IDX 73 45 29 47 61 48 41 49 60 50 42 51 45 52 59 53 78 54 43 55
REMARK SMILES IDX 44 56 58 58 79 59 46 60 30 61 31 62 39 63 32 64 33 65 37 66
REMARK SMILES IDX 40 67 34 68 35 69 38 70 36 71 62 72 63 73 71 74 64 75 65 76
REMARK SMILES IDX 69 77 72 78 66 79 67 80 70 81 68 82 47 83 48 84 56 85 49 86
REMARK SMILES IDX 50 87 54 88 57 89 51 90 52 91 55 92 53 93
REMARK H PARENT 84 22 77 46 45 57
REMARK Flexibility Score: inf
ROOT
ATOM      1  C   UNL A   1      35.423  22.036  25.485  1.00  0.00     0.274 C 
ENDROOT
BRANCH   1   2
ATOM      2  O   UNL A   1      34.895  22.374  24.181  1.00  0.00    -0.458 OA
BRANCH   2   3
ATOM      3  C   UNL A   1      33.611  21.997  23.922  1.00  0.00     0.365 C 
ATOM      4  O   UNL A   1      33.259  20.828  23.804  1.00  0.00    -0.245 OA
BRANCH   3   5
ATOM      5  C   UNL A   1      32.619  23.186  23.844  1.00  0.00     0.302 C 
BRANCH   5   6
ATOM      6  C   UNL A   1      32.496  23.810  22.430  1.00  0.00     0.158 C 
BRANCH   6   7
ATOM      7  C   UNL A   1      32.983  25.221  22.122  1.00  0.00     0.169 C 
ATOM      8  O   UNL A   1      33.278  25.550  20.973  1.00  0.00    -0.294 OA
BRANCH   7   9
ATOM      9  C   UNL A   1      33.059  26.243  23.198  1.00  0.00     0.018 A 
ATOM     10  C   UNL A   1      32.933  27.998  25.418  1.00  0.00    -0.043 A 
ATOM     11  C   UNL A   1      33.904  26.986  25.352  1.00  0.00     0.005 A 
ATOM     12  C   UNL A   1      32.095  28.149  24.309  1.00  0.00     0.005 A 
ATOM     13  C   UNL A   1      33.966  26.112  24.252  1.00  0.00     0.012 A 
ATOM     14  C   UNL A   1      32.184  27.311  23.206  1.00  0.00     0.012 A 
BRANCH  10  15
ATOM     15  C   UNL A   1      32.716  28.920  26.626  1.00  0.00    -0.013 C 
ATOM     16  C   UNL A   1      32.054  30.246  26.182  1.00  0.00     0.016 C 
ATOM     17  C   UNL A   1      34.017  29.283  27.366  1.00  0.00     0.016 C 
ATOM     18  C   UNL A   1      31.780  28.204  27.625  1.00  0.00     0.016 C 
ENDBRANCH  10  15
ENDBRANCH   7   9
ENDBRANCH   6   7
ENDBRANCH   5   6
BRANCH   5  19
ATOM     19  N   UNL A   1      31.532  23.126  24.840  1.00  0.00    -0.323 N 
ATOM     20  C   UNL A   1      30.411  24.052  24.787  1.00  0.00     0.263 C 
ATOM     21  C   UNL A   1      31.938  23.042  26.240  1.00  0.00     0.263 C 
ATOM     22  H   UNL A   1      31.181  22.237  24.483  1.00  0.00     0.348 HD
ATOM     23  C   UNL A   1      30.714  25.101  25.830  1.00  0.00     0.067 C 
ATOM     24  C   UNL A   1      31.542  24.371  26.875  1.00  0.00     0.067 C 
ENDBRANCH   5  19
ENDBRANCH   3   5
ENDBRANCH   2   3
ENDBRANCH   1   2
BRANCH   1  25
ATOM     25  C   UNL A   1      36.600  21.068  25.375  1.00  0.00     0.275 C 
BRANCH  25  26
ATOM     26  O   UNL A   1      37.799  21.805  25.103  1.00  0.00    -0.458 OA
BRANCH  26  27
ATOM     27  C   UNL A   1      38.910  21.405  25.758  1.00  0.00     0.338 C 
ATOM     28  O   UNL A   1      39.407  20.289  25.751  1.00  0.00    -0.246 OA
BRANCH  27  29
ATOM     29  C   UNL A   1      39.464  22.536  26.525  1.00  0.00     0.060 A 
ATOM     30  C   UNL A   1      40.479  22.362  27.476  1.00  0.00     0.016 A 
ATOM     31  C   UNL A   1      38.955  23.808  26.266  1.00  0.00     0.016 A 
ATOM     32  C   UNL A   1      41.007  23.460  28.147  1.00  0.00     0.010 A 
ATOM     33  C   UNL A   1      39.539  24.913  26.872  1.00  0.00     0.010 A 
ATOM     34  C   UNL A   1      40.590  24.747  27.791  1.00  0.00    -0.014 A 
BRANCH  34  35
ATOM     35  C   UNL A   1      41.338  25.947  28.222  1.00  0.00     0.031 A 
ATOM     36  C   UNL A   1      40.624  27.076  28.891  1.00  0.00     0.074 A 
ATOM     37  C   UNL A   1      42.622  26.059  27.828  1.00  0.00     0.049 A 
ATOM     38  N   UNL A   1      41.012  28.311  29.067  1.00  0.00    -0.248 NA
ATOM     39  C   UNL A   1      39.277  26.784  29.404  1.00  0.00     0.031 C 
ATOM     40  C   UNL A   1      43.393  25.013  27.149  1.00  0.00     0.029 A 
ATOM     41  N   UNL A   1      43.490  27.118  27.891  1.00  0.00    -0.354 N 
ATOM     42  C   UNL A   1      39.946  28.956  29.679  1.00  0.00     0.074 A 
ATOM     43  C   UNL A   1      38.889  27.978  29.832  1.00  0.00     0.031 C 
ATOM     44  C   UNL A   1      44.608  25.485  26.842  1.00  0.00     0.029 A 
ATOM     45  C   UNL A   1      44.677  26.884  27.239  1.00  0.00     0.049 A 
ATOM     46  H   UNL A   1      43.284  27.961  28.357  1.00  0.00     0.167 HD
ATOM     47  C   UNL A   1      39.871  30.251  30.069  1.00  0.00     0.037 A 
ATOM     48  C   UNL A   1      45.687  27.721  26.945  1.00  0.00     0.037 A 
ATOM     49  C   UNL A   1      40.947  31.195  29.903  1.00  0.00     0.049 A 
ATOM     50  C   UNL A   1      45.567  29.156  27.366  1.00  0.00     0.074 A 
ATOM     51  C   UNL A   1      41.009  32.518  30.303  1.00  0.00     0.029 A 
ATOM     52  N   UNL A   1      42.153  30.909  29.275  1.00  0.00    -0.354 N 
ATOM     53  N   UNL A   1      44.570  29.755  27.972  1.00  0.00    -0.248 NA
ATOM     54  C   UNL A   1      46.704  30.029  27.060  1.00  0.00     0.031 C 
ATOM     55  C   UNL A   1      42.234  33.044  29.877  1.00  0.00     0.029 A 
ATOM     56  C   UNL A   1      42.957  32.038  29.255  1.00  0.00     0.049 A 
ATOM     57  H   UNL A   1      42.402  30.034  28.900  1.00  0.00     0.167 HD
ATOM     58  C   UNL A   1      44.961  31.074  28.132  1.00  0.00     0.074 A 
ATOM     59  C   UNL A   1      46.298  31.180  27.579  1.00  0.00     0.031 C 
ATOM     60  C   UNL A   1      44.279  32.108  28.684  1.00  0.00     0.037 A 
BRANCH  47  61
ATOM     61  C   UNL A   1      38.586  30.721  30.686  1.00  0.00     0.064 A 
ATOM     62  C   UNL A   1      38.409  30.771  32.078  1.00  0.00     0.173 A 
ATOM     63  C   UNL A   1      37.524  31.156  29.878  1.00  0.00     0.173 A 
ATOM     64  F   UNL A   1      39.386  30.358  32.898  1.00  0.00    -0.203 F 
ATOM     65  C   UNL A   1      37.210  31.211  32.635  1.00  0.00     0.198 A 
ATOM     66  C   UNL A   1      36.336  31.621  30.438  1.00  0.00     0.198 A 
ATOM     67  F   UNL A   1      37.638  31.133  28.542  1.00  0.00    -0.203 F 
ATOM     68  F   UNL A   1      37.048  31.205  33.965  1.00  0.00    -0.200 F 
ATOM     69  C   UNL A   1      36.177  31.641  31.816  1.00  0.00     0.200 A 
ATOM     70  F   UNL A   1      35.345  32.048  29.644  1.00  0.00    -0.200 F 
ATOM     71  F   UNL A   1      35.026  32.069  32.352  1.00  0.00    -0.200 F 
ENDBRANCH  47  61
BRANCH  48  72
ATOM     72  C   UNL A   1      46.874  27.215  26.210  1.00  0.00     0.064 A 
ATOM     73  C   UNL A   1      47.004  27.428  24.832  1.00  0.00     0.173 A 
ATOM     74  C   UNL A   1      47.922  26.553  26.870  1.00  0.00     0.173 A 
ATOM     75  F   UNL A   1      46.022  28.042  24.155  1.00  0.00    -0.203 F 
ATOM     76  C   UNL A   1      48.132  26.994  24.139  1.00  0.00     0.198 A 
ATOM     77  C   UNL A   1      49.062  26.144  26.181  1.00  0.00     0.198 A 
ATOM     78  F   UNL A   1      47.853  26.333  28.191  1.00  0.00    -0.203 F 
ATOM     79  F   UNL A   1      48.216  27.185  22.815  1.00  0.00    -0.200 F 
ATOM     80  C   UNL A   1      49.164  26.360  24.815  1.00  0.00     0.200 A 
ATOM     81  F   UNL A   1      50.065  25.550  26.842  1.00  0.00    -0.200 F 
ATOM     82  F   UNL A   1      50.254  25.956  24.150  1.00  0.00    -0.200 F 
ENDBRANCH  48  72
BRANCH  60  83
ATOM     83  C   UNL A   1      44.983  33.430  28.719  1.00  0.00     0.064 A 
ATOM     84  C   UNL A   1      45.844  33.773  29.771  1.00  0.00     0.173 A 
ATOM     85  C   UNL A   1      44.811  34.354  27.678  1.00  0.00     0.173 A 
ATOM     86  F   UNL A   1      46.022  32.929  30.799  1.00  0.00    -0.203 F 
ATOM     87  C   UNL A   1      46.487  35.006  29.793  1.00  0.00     0.198 A 
ATOM     88  C   UNL A   1      45.479  35.574  27.689  1.00  0.00     0.198 A 
ATOM     89  F   UNL A   1      43.998  34.069  26.648  1.00  0.00    -0.203 F 
ATOM     90  F   UNL A   1      47.265  35.335  30.833  1.00  0.00    -0.200 F 
ATOM     91  C   UNL A   1      46.310  35.902  28.750  1.00  0.00     0.200 A 
ATOM     92  F   UNL A   1      45.315  36.435  26.675  1.00  0.00    -0.200 F 
ATOM     93  F   UNL A   1      46.933  37.088  28.770  1.00  0.00    -0.200 F 
ENDBRANCH  60  83
ENDBRANCH  34  35
ENDBRANCH  27  29
ENDBRANCH  26  27
ENDBRANCH  25  26
ENDBRANCH   1  25
TORSDOF 16
ENDMDL
MODEL 3
REMARK VINA RESULT:     -12.3      4.232     10.045
REMARK SMILES CC(C)(C)c1ccc(C(=O)C[C@H](C(=O)OCCOC(=O)c2ccc(-c3c4nc(c(-c5c(F)c(F)c(F)c(F)c5F)c5ccc([nH]5)c(-c5c(F)c(F)c(F)c(F)c5F)c5nc(c(-c6c(F)c(F)c(F)c(F)c6F)c6ccc3[nH]6)C=C5)C=C4)cc2)[NH+]2CCCC2)cc1
REMARK SMILES IDX 16 1 15 2 13 3 14 4 12 5 11 6 9 7 10 8 8 9 5 10 6 11 90 12
REMARK SMILES IDX 7 13 89 14 2 15 1 16 3 17 4 18 84 19 85 20 88 21 86 23 87 24
REMARK SMILES IDX 17 25 18 26 19 27 20 28 21 29 22 30 83 31 23 32 82 33 24 34
REMARK SMILES IDX 25 35 26 36 76 37 27 38 81 39 75 40 77 41 28 42 80 43 74 44
REMARK SMILES IDX 73 45 29 47 61 48 41 49 60 50 42 51 45 52 59 53 78 54 43 55
REMARK SMILES IDX 44 56 58 58 79 59 46 60 30 61 31 62 39 63 32 64 33 65 37 66
REMARK SMILES IDX 40 67 34 68 35 69 38 70 36 71 62 72 63 73 71 74 64 75 65 76
REMARK SMILES IDX 69 77 72 78 66 79 67 80 70 81 68 82 47 83 48 84 56 85 49 86
REMARK SMILES IDX 50 87 54 88 57 89 51 90 52 91 55 92 53 93
REMARK H PARENT 84 22 77 46 45 57
REMARK Flexibility Score: inf
ROOT
ATOM      1  C   UNL A   1      31.719  28.734  26.074  1.00  0.00     0.274 C 
ENDROOT
BRANCH   1   2
ATOM      2  O   UNL A   1      32.552  27.576  26.322  1.00  0.00    -0.458 OA
BRANCH   2   3
ATOM      3  C   UNL A   1      31.943  26.359  26.259  1.00  0.00     0.365 C 
ATOM      4  O   UNL A   1      30.824  26.136  26.712  1.00  0.00    -0.245 OA
BRANCH   3   5
ATOM      5  C   UNL A   1      32.775  25.287  25.512  1.00  0.00     0.302 C 
BRANCH   5   6
ATOM      6  C   UNL A   1      33.150  24.060  26.384  1.00  0.00     0.158 C 
BRANCH   6   7
ATOM      7  C   UNL A   1      34.337  23.162  26.053  1.00  0.00     0.169 C 
ATOM      8  O   UNL A   1      35.489  23.588  26.132  1.00  0.00    -0.294 OA
BRANCH   7   9
ATOM      9  C   UNL A   1      34.124  21.741  25.680  1.00  0.00     0.018 A 
ATOM     10  C   UNL A   1      33.601  19.157  24.643  1.00  0.00    -0.043 A 
ATOM     11  C   UNL A   1      34.899  19.692  24.627  1.00  0.00     0.005 A 
ATOM     12  C   UNL A   1      32.606  19.918  25.264  1.00  0.00     0.005 A 
ATOM     13  C   UNL A   1      35.160  20.975  25.140  1.00  0.00     0.012 A 
ATOM     14  C   UNL A   1      32.874  21.168  25.806  1.00  0.00     0.012 A 
BRANCH  10  15
ATOM     15  C   UNL A   1      33.203  17.819  24.003  1.00  0.00    -0.013 C 
ATOM     16  C   UNL A   1      32.381  16.967  25.000  1.00  0.00     0.016 C 
ATOM     17  C   UNL A   1      34.405  16.968  23.555  1.00  0.00     0.016 C 
ATOM     18  C   UNL A   1      32.332  18.111  22.761  1.00  0.00     0.016 C 
ENDBRANCH  10  15
ENDBRANCH   7   9
ENDBRANCH   6   7
ENDBRANCH   5   6
BRANCH   5  19
ATOM     19  N   UNL A   1      32.535  25.248  24.057  1.00  0.00    -0.323 N 
ATOM     20  C   UNL A   1      31.386  24.548  23.501  1.00  0.00     0.263 C 
ATOM     21  C   UNL A   1      33.679  24.901  23.218  1.00  0.00     0.263 C 
ATOM     22  H   UNL A   1      32.308  26.242  24.013  1.00  0.00     0.348 HD
ATOM     23  C   UNL A   1      31.928  23.229  23.003  1.00  0.00     0.067 C 
ATOM     24  C   UNL A   1      33.371  23.527  22.630  1.00  0.00     0.067 C 
ENDBRANCH   5  19
ENDBRANCH   3   5
ENDBRANCH   2   3
ENDBRANCH   1   2
BRANCH   1  25
ATOM     25  C   UNL A   1      32.018  29.857  27.066  1.00  0.00     0.275 C 
BRANCH  25  26
ATOM     26  O   UNL A   1      33.159  30.600  26.614  1.00  0.00    -0.458 OA
BRANCH  26  27
ATOM     27  C   UNL A   1      33.601  31.577  27.434  1.00  0.00     0.338 C 
ATOM     28  O   UNL A   1      32.977  32.557  27.814  1.00  0.00    -0.246 OA
BRANCH  27  29
ATOM     29  C   UNL A   1      34.997  31.302  27.822  1.00  0.00     0.060 A 
ATOM     30  C   UNL A   1      35.917  32.331  28.064  1.00  0.00     0.016 A 
ATOM     31  C   UNL A   1      35.382  29.969  27.959  1.00  0.00     0.016 A 
ATOM     32  C   UNL A   1      37.213  32.032  28.470  1.00  0.00     0.010 A 
ATOM     33  C   UNL A   1      36.648  29.672  28.448  1.00  0.00     0.010 A 
ATOM     34  C   UNL A   1      37.558  30.703  28.736  1.00  0.00    -0.014 A 
BRANCH  34  35
ATOM     35  C   UNL A   1      38.791  30.360  29.477  1.00  0.00     0.031 A 
ATOM     36  C   UNL A   1      39.726  29.327  28.938  1.00  0.00     0.074 A 
ATOM     37  C   UNL A   1      38.939  30.867  30.716  1.00  0.00     0.049 A 
ATOM     38  N   UNL A   1      40.674  28.669  29.552  1.00  0.00    -0.248 NA
ATOM     39  C   UNL A   1      39.550  28.959  27.525  1.00  0.00     0.031 C 
ATOM     40  C   UNL A   1      38.060  31.867  31.331  1.00  0.00     0.029 A 
ATOM     41  N   UNL A   1      39.845  30.576  31.702  1.00  0.00    -0.354 N 
ATOM     42  C   UNL A   1      41.186  27.785  28.613  1.00  0.00     0.074 A 
ATOM     43  C   UNL A   1      40.434  27.979  27.391  1.00  0.00     0.031 C 
ATOM     44  C   UNL A   1      38.457  32.092  32.591  1.00  0.00     0.029 A 
ATOM     45  C   UNL A   1      39.571  31.204  32.893  1.00  0.00     0.049 A 
ATOM     46  H   UNL A   1      40.616  29.977  31.571  1.00  0.00     0.167 HD
ATOM     47  C   UNL A   1      42.192  26.892  28.774  1.00  0.00     0.037 A 
ATOM     48  C   UNL A   1      40.120  31.042  34.109  1.00  0.00     0.037 A 
ATOM     49  C   UNL A   1      42.921  26.728  30.006  1.00  0.00     0.049 A 
ATOM     50  C   UNL A   1      41.216  30.030  34.264  1.00  0.00     0.074 A 
ATOM     51  C   UNL A   1      43.992  25.896  30.276  1.00  0.00     0.029 A 
ATOM     52  N   UNL A   1      42.641  27.415  31.182  1.00  0.00    -0.354 N 
ATOM     53  N   UNL A   1      41.718  29.217  33.367  1.00  0.00    -0.248 NA
ATOM     54  C   UNL A   1      41.816  29.908  35.597  1.00  0.00     0.031 C 
ATOM     55  C   UNL A   1      44.331  26.046  31.626  1.00  0.00     0.029 A 
ATOM     56  C   UNL A   1      43.504  27.007  32.186  1.00  0.00     0.049 A 
ATOM     57  H   UNL A   1      41.935  28.093  31.286  1.00  0.00     0.167 HD
ATOM     58  C   UNL A   1      42.703  28.492  34.019  1.00  0.00     0.074 A 
ATOM     59  C   UNL A   1      42.740  28.981  35.385  1.00  0.00     0.031 C 
ATOM     60  C   UNL A   1      43.503  27.509  33.538  1.00  0.00     0.037 A 
BRANCH  47  61
ATOM     61  C   UNL A   1      42.544  26.018  27.605  1.00  0.00     0.064 A 
ATOM     62  C   UNL A   1      43.562  26.365  26.701  1.00  0.00     0.173 A 
ATOM     63  C   UNL A   1      41.877  24.801  27.398  1.00  0.00     0.173 A 
ATOM     64  F   UNL A   1      44.225  27.521  26.845  1.00  0.00    -0.203 F 
ATOM     65  C   UNL A   1      43.876  25.542  25.622  1.00  0.00     0.198 A 
ATOM     66  C   UNL A   1      42.212  23.967  26.334  1.00  0.00     0.198 A 
ATOM     67  F   UNL A   1      40.898  24.417  28.232  1.00  0.00    -0.203 F 
ATOM     68  F   UNL A   1      44.819  25.917  24.747  1.00  0.00    -0.200 F 
ATOM     69  C   UNL A   1      43.206  24.341  25.443  1.00  0.00     0.200 A 
ATOM     70  F   UNL A   1      41.571  22.801  26.170  1.00  0.00    -0.200 F 
ATOM     71  F   UNL A   1      43.513  23.547  24.407  1.00  0.00    -0.200 F 
ENDBRANCH  47  61
BRANCH  48  72
ATOM     72  C   UNL A   1      39.628  31.849  35.254  1.00  0.00     0.064 A 
ATOM     73  C   UNL A   1      40.098  33.151  35.464  1.00  0.00     0.173 A 
ATOM     74  C   UNL A   1      38.647  31.360  36.133  1.00  0.00     0.173 A 
ATOM     75  F   UNL A   1      41.045  33.657  34.661  1.00  0.00    -0.203 F 
ATOM     76  C   UNL A   1      39.614  33.933  36.511  1.00  0.00     0.198 A 
ATOM     77  C   UNL A   1      38.145  32.152  37.163  1.00  0.00     0.198 A 
ATOM     78  F   UNL A   1      38.155  30.123  35.970  1.00  0.00    -0.203 F 
ATOM     79  F   UNL A   1      40.104  35.165  36.706  1.00  0.00    -0.200 F 
ATOM     80  C   UNL A   1      38.632  33.436  37.355  1.00  0.00     0.200 A 
ATOM     81  F   UNL A   1      37.181  31.675  37.964  1.00  0.00    -0.200 F 
ATOM     82  F   UNL A   1      38.157  34.193  38.352  1.00  0.00    -0.200 F 
ENDBRANCH  48  72
BRANCH  60  83
ATOM     83  C   UNL A   1      44.487  26.917  34.501  1.00  0.00     0.064 A 
ATOM     84  C   UNL A   1      45.753  27.488  34.696  1.00  0.00     0.173 A 
ATOM     85  C   UNL A   1      44.151  25.781  35.251  1.00  0.00     0.173 A 
ATOM     86  F   UNL A   1      46.125  28.562  33.984  1.00  0.00    -0.203 F 
ATOM     87  C   UNL A   1      46.658  26.924  35.589  1.00  0.00     0.198 A 
ATOM     88  C   UNL A   1      45.048  25.238  36.165  1.00  0.00     0.198 A 
ATOM     89  F   UNL A   1      42.949  25.202  35.099  1.00  0.00    -0.203 F 
ATOM     90  F   UNL A   1      47.881  27.454  35.723  1.00  0.00    -0.200 F 
ATOM     91  C   UNL A   1      46.302  25.806  36.328  1.00  0.00     0.200 A 
ATOM     92  F   UNL A   1      44.700  24.163  36.885  1.00  0.00    -0.200 F 
ATOM     93  F   UNL A   1      47.175  25.266  37.191  1.00  0.00    -0.200 F 
ENDBRANCH  60  83
ENDBRANCH  34  35
ENDBRANCH  27  29
ENDBRANCH  26  27
ENDBRANCH  25  26
ENDBRANCH   1  25
TORSDOF 16
ENDMDL
