MODEL 1
REMARK VINA RESULT:     -12.8      0.000      0.000
REMARK SMILES CC(C)N1C[C@@]2(CCCN(c3ccc(C(=O)OCCOC(=O)c4ccc(-c5c6nc(c(-c7c(F)c(F)c(F)c(F)c7F)c7ccc([nH]7)c(-c7c(F)c(F)c(F)c(F)c7F)c7nc(c(-c8c(F)c(F)c(F)c(F)c8F)c8ccc5[nH]8)C=C7)C=C6)cc4)cn3)C2)CCC1=O
REMARK SMILES IDX 18 1 17 2 15 3 16 4 14 5 11 6 12 7 87 8 13 9 86 10 10 11
REMARK SMILES IDX 4 12 5 13 91 14 6 15 90 16 92 17 7 18 88 19 89 20 8 21 9 22
REMARK SMILES IDX 2 23 1 24 3 25 19 26 20 27 21 28 22 29 23 30 24 31 85 32
REMARK SMILES IDX 25 33 84 34 26 35 27 36 28 37 78 38 29 39 83 40 77 41 79 42
REMARK SMILES IDX 30 43 82 44 76 45 75 46 31 48 63 49 43 50 62 51 44 52 47 53
REMARK SMILES IDX 61 54 80 55 45 56 46 57 60 59 81 60 48 61 32 62 33 63 41 64
REMARK SMILES IDX 34 65 35 66 39 67 42 68 36 69 37 70 40 71 38 72 64 73 65 74
REMARK SMILES IDX 73 75 66 76 67 77 71 78 74 79 68 80 69 81 72 82 70 83 49 84
REMARK SMILES IDX 50 85 58 86 51 87 52 88 56 89 59 90 53 91 54 92 57 93 55 94
REMARK H PARENT 79 47 47 58
REMARK Flexibility Score: inf
ROOT
ATOM      1  C   UNL A   1      32.676  29.687  24.918  1.00  0.00     0.275 C 
ENDROOT
BRANCH   1   2
ATOM      2  O   UNL A   1      32.082  28.567  24.234  1.00  0.00    -0.458 OA
BRANCH   2   3
ATOM      3  C   UNL A   1      32.805  28.072  23.208  1.00  0.00     0.339 C 
ATOM      4  O   UNL A   1      33.323  28.693  22.292  1.00  0.00    -0.246 OA
BRANCH   3   5
ATOM      5  C   UNL A   1      32.874  26.617  23.294  1.00  0.00     0.078 A 
ATOM      6  C   UNL A   1      32.912  23.850  23.256  1.00  0.00     0.128 A 
ATOM      7  C   UNL A   1      31.927  24.534  23.976  1.00  0.00     0.048 A 
ATOM      8  N   UNL A   1      33.818  24.538  22.531  1.00  0.00    -0.238 NA
ATOM      9  C   UNL A   1      31.921  25.927  24.019  1.00  0.00     0.021 A 
ATOM     10  C   UNL A   1      33.791  25.890  22.563  1.00  0.00     0.129 A 
BRANCH   6  11
ATOM     11  N   UNL A   1      33.096  22.484  23.357  1.00  0.00    -0.356 N 
ATOM     12  N   UNL A   1      36.960  22.148  25.607  1.00  0.00    -0.340 N 
ATOM     13  C   UNL A   1      35.761  21.344  25.841  1.00  0.00     0.128 C 
ATOM     14  C   UNL A   1      36.955  23.517  25.863  1.00  0.00     0.222 C 
ATOM     15  C   UNL A   1      34.448  21.992  25.367  1.00  0.00     0.006 C 
ATOM     16  C   UNL A   1      35.623  24.217  25.691  1.00  0.00     0.101 C 
ATOM     17  O   UNL A   1      37.958  24.192  26.086  1.00  0.00    -0.275 OA
ATOM     18  C   UNL A   1      33.259  21.106  25.850  1.00  0.00     0.012 C 
ATOM     19  C   UNL A   1      34.423  22.051  23.811  1.00  0.00     0.127 C 
ATOM     20  C   UNL A   1      34.417  23.372  26.060  1.00  0.00     0.020 C 
ATOM     21  C   UNL A   1      31.907  21.389  25.177  1.00  0.00     0.022 C 
ATOM     22  C   UNL A   1      32.018  21.560  23.663  1.00  0.00     0.118 C 
BRANCH  12  23
ATOM     23  C   UNL A   1      38.176  21.410  25.204  1.00  0.00     0.078 C 
ATOM     24  C   UNL A   1      39.239  21.558  26.298  1.00  0.00     0.031 C 
ATOM     25  C   UNL A   1      38.012  19.927  24.862  1.00  0.00     0.031 C 
ENDBRANCH  12  23
ENDBRANCH   6  11
ENDBRANCH   3   5
ENDBRANCH   2   3
ENDBRANCH   1   2
BRANCH   1  26
ATOM     26  C   UNL A   1      31.758  30.235  26.013  1.00  0.00     0.275 C 
BRANCH  26  27
ATOM     27  O   UNL A   1      32.469  30.422  27.252  1.00  0.00    -0.458 OA
BRANCH  27  28
ATOM     28  C   UNL A   1      33.186  31.567  27.315  1.00  0.00     0.338 C 
ATOM     29  O   UNL A   1      32.785  32.704  27.141  1.00  0.00    -0.246 OA
BRANCH  28  30
ATOM     30  C   UNL A   1      34.555  31.304  27.776  1.00  0.00     0.060 A 
ATOM     31  C   UNL A   1      34.869  29.998  28.131  1.00  0.00     0.016 A 
ATOM     32  C   UNL A   1      35.424  32.344  28.094  1.00  0.00     0.016 A 
ATOM     33  C   UNL A   1      35.970  29.736  28.929  1.00  0.00     0.010 A 
ATOM     34  C   UNL A   1      36.620  32.054  28.765  1.00  0.00     0.010 A 
ATOM     35  C   UNL A   1      36.891  30.748  29.218  1.00  0.00    -0.014 A 
BRANCH  35  36
ATOM     36  C   UNL A   1      38.125  30.409  29.976  1.00  0.00     0.031 A 
ATOM     37  C   UNL A   1      39.204  29.568  29.352  1.00  0.00     0.074 A 
ATOM     38  C   UNL A   1      38.289  30.889  31.227  1.00  0.00     0.049 A 
ATOM     39  N   UNL A   1      40.256  29.024  29.912  1.00  0.00    -0.248 NA
ATOM     40  C   UNL A   1      39.081  29.289  27.914  1.00  0.00     0.031 C 
ATOM     41  C   UNL A   1      37.347  31.765  31.930  1.00  0.00     0.029 A 
ATOM     42  N   UNL A   1      39.309  30.720  32.131  1.00  0.00    -0.354 N 
ATOM     43  C   UNL A   1      40.885  28.294  28.911  1.00  0.00     0.074 A 
ATOM     44  C   UNL A   1      40.097  28.460  27.709  1.00  0.00     0.031 C 
ATOM     45  C   UNL A   1      37.853  32.099  33.123  1.00  0.00     0.029 A 
ATOM     46  C   UNL A   1      39.091  31.360  33.327  1.00  0.00     0.049 A 
ATOM     47  H   UNL A   1      40.118  30.193  31.940  1.00  0.00     0.167 HD
ATOM     48  C   UNL A   1      42.014  27.549  28.998  1.00  0.00     0.037 A 
ATOM     49  C   UNL A   1      39.770  31.312  34.488  1.00  0.00     0.037 A 
ATOM     50  C   UNL A   1      42.815  27.435  30.193  1.00  0.00     0.049 A 
ATOM     51  C   UNL A   1      40.982  30.433  34.574  1.00  0.00     0.074 A 
ATOM     52  C   UNL A   1      43.984  26.721  30.383  1.00  0.00     0.029 A 
ATOM     53  N   UNL A   1      42.529  28.062  31.399  1.00  0.00    -0.354 N 
ATOM     54  N   UNL A   1      41.539  29.699  33.641  1.00  0.00    -0.248 NA
ATOM     55  C   UNL A   1      41.648  30.356  35.879  1.00  0.00     0.031 C 
ATOM     56  C   UNL A   1      44.377  26.872  31.718  1.00  0.00     0.029 A 
ATOM     57  C   UNL A   1      43.488  27.730  32.345  1.00  0.00     0.049 A 
ATOM     58  H   UNL A   1      41.760  28.655  31.558  1.00  0.00     0.167 HD
ATOM     59  C   UNL A   1      42.627  29.084  34.240  1.00  0.00     0.074 A 
ATOM     60  C   UNL A   1      42.666  29.552  35.611  1.00  0.00     0.031 C 
ATOM     61  C   UNL A   1      43.510  28.207  33.704  1.00  0.00     0.037 A 
BRANCH  48  62
ATOM     62  C   UNL A   1      42.430  26.760  27.789  1.00  0.00     0.064 A 
ATOM     63  C   UNL A   1      43.347  27.254  26.849  1.00  0.00     0.173 A 
ATOM     64  C   UNL A   1      41.930  25.463  27.592  1.00  0.00     0.173 A 
ATOM     65  F   UNL A   1      43.850  28.490  26.982  1.00  0.00    -0.203 F 
ATOM     66  C   UNL A   1      43.725  26.492  25.745  1.00  0.00     0.198 A 
ATOM     67  C   UNL A   1      42.334  24.691  26.506  1.00  0.00     0.198 A 
ATOM     68  F   UNL A   1      41.056  24.936  28.463  1.00  0.00    -0.203 F 
ATOM     69  F   UNL A   1      44.567  27.003  24.836  1.00  0.00    -0.200 F 
ATOM     70  C   UNL A   1      43.225  25.208  25.579  1.00  0.00     0.200 A 
ATOM     71  F   UNL A   1      41.862  23.445  26.358  1.00  0.00    -0.200 F 
ATOM     72  F   UNL A   1      43.598  24.473  24.523  1.00  0.00    -0.200 F 
ENDBRANCH  48  62
BRANCH  49  73
ATOM     73  C   UNL A   1      39.273  32.066  35.669  1.00  0.00     0.064 A 
ATOM     74  C   UNL A   1      38.412  31.469  36.599  1.00  0.00     0.173 A 
ATOM     75  C   UNL A   1      39.656  33.398  35.898  1.00  0.00     0.173 A 
ATOM     76  F   UNL A   1      37.996  30.207  36.414  1.00  0.00    -0.203 F 
ATOM     77  C   UNL A   1      37.945  32.177  37.705  1.00  0.00     0.198 A 
ATOM     78  C   UNL A   1      39.221  34.092  37.023  1.00  0.00     0.198 A 
ATOM     79  F   UNL A   1      40.479  34.019  35.039  1.00  0.00    -0.203 F 
ATOM     80  F   UNL A   1      37.086  31.599  38.554  1.00  0.00    -0.200 F 
ATOM     81  C   UNL A   1      38.357  33.484  37.922  1.00  0.00     0.200 A 
ATOM     82  F   UNL A   1      39.638  35.346  37.238  1.00  0.00    -0.200 F 
ATOM     83  F   UNL A   1      37.917  34.159  38.991  1.00  0.00    -0.200 F 
ENDBRANCH  49  73
BRANCH  61  84
ATOM     84  C   UNL A   1      44.615  27.727  34.599  1.00  0.00     0.064 A 
ATOM     85  C   UNL A   1      45.824  28.430  34.720  1.00  0.00     0.173 A 
ATOM     86  C   UNL A   1      44.454  26.558  35.358  1.00  0.00     0.173 A 
ATOM     87  F   UNL A   1      46.033  29.541  34.001  1.00  0.00    -0.203 F 
ATOM     88  C   UNL A   1      46.841  27.961  35.545  1.00  0.00     0.198 A 
ATOM     89  C   UNL A   1      45.461  26.112  36.208  1.00  0.00     0.198 A 
ATOM     90  F   UNL A   1      43.316  25.852  35.281  1.00  0.00    -0.203 F 
ATOM     91  F   UNL A   1      48.010  28.615  35.602  1.00  0.00    -0.200 F 
ATOM     92  C   UNL A   1      46.657  26.808  36.294  1.00  0.00     0.200 A 
ATOM     93  F   UNL A   1      45.276  25.004  36.940  1.00  0.00    -0.200 F 
ATOM     94  F   UNL A   1      47.637  26.360  37.091  1.00  0.00    -0.200 F 
ENDBRANCH  61  84
ENDBRANCH  35  36
ENDBRANCH  28  30
ENDBRANCH  27  28
ENDBRANCH  26  27
ENDBRANCH   1  26
TORSDOF 13
ENDMDL
MODEL 2
REMARK VINA RESULT:     -12.7      1.513      2.259
REMARK SMILES CC(C)N1C[C@@]2(CCCN(c3ccc(C(=O)OCCOC(=O)c4ccc(-c5c6nc(c(-c7c(F)c(F)c(F)c(F)c7F)c7ccc([nH]7)c(-c7c(F)c(F)c(F)c(F)c7F)c7nc(c(-c8c(F)c(F)c(F)c(F)c8F)c8ccc5[nH]8)C=C7)C=C6)cc4)cn3)C2)CCC1=O
REMARK SMILES IDX 18 1 17 2 15 3 16 4 14 5 11 6 12 7 87 8 13 9 86 10 10 11
REMARK SMILES IDX 4 12 5 13 91 14 6 15 90 16 92 17 7 18 88 19 89 20 8 21 9 22
REMARK SMILES IDX 2 23 1 24 3 25 19 26 20 27 21 28 22 29 23 30 24 31 85 32
REMARK SMILES IDX 25 33 84 34 26 35 27 36 28 37 78 38 29 39 83 40 77 41 79 42
REMARK SMILES IDX 30 43 82 44 76 45 75 46 31 48 63 49 43 50 62 51 44 52 47 53
REMARK SMILES IDX 61 54 80 55 45 56 46 57 60 59 81 60 48 61 32 62 33 63 41 64
REMARK SMILES IDX 34 65 35 66 39 67 42 68 36 69 37 70 40 71 38 72 64 73 65 74
REMARK SMILES IDX 73 75 66 76 67 77 71 78 74 79 68 80 69 81 72 82 70 83 49 84
REMARK SMILES IDX 50 85 58 86 51 87 52 88 56 89 59 90 53 91 54 92 57 93 55 94
REMARK H PARENT 79 47 47 58
REMARK Flexibility Score: inf
ROOT
ATOM      1  C   UNL A   1      31.507  29.397  24.891  1.00  0.00     0.275 C 
ENDROOT
BRANCH   1   2
ATOM      2  O   UNL A   1      31.031  28.251  25.624  1.00  0.00    -0.458 OA
BRANCH   2   3
ATOM      3  C   UNL A   1      30.777  27.157  24.876  1.00  0.00     0.339 C 
ATOM      4  O   UNL A   1      30.080  27.084  23.875  1.00  0.00    -0.246 OA
BRANCH   3   5
ATOM      5  C   UNL A   1      31.435  25.988  25.450  1.00  0.00     0.078 A 
ATOM      6  C   UNL A   1      32.718  23.701  26.332  1.00  0.00     0.128 A 
ATOM      7  C   UNL A   1      31.322  23.778  26.347  1.00  0.00     0.048 A 
ATOM      8  N   UNL A   1      33.446  24.722  25.836  1.00  0.00    -0.238 NA
ATOM      9  C   UNL A   1      30.673  24.939  25.928  1.00  0.00     0.021 A 
ATOM     10  C   UNL A   1      32.806  25.836  25.413  1.00  0.00     0.129 A 
BRANCH   6  11
ATOM     11  N   UNL A   1      33.413  22.669  26.935  1.00  0.00    -0.356 N 
ATOM     12  N   UNL A   1      33.082  19.343  23.946  1.00  0.00    -0.340 N 
ATOM     13  C   UNL A   1      34.289  19.713  24.684  1.00  0.00     0.128 C 
ATOM     14  C   UNL A   1      32.532  20.213  23.007  1.00  0.00     0.222 C 
ATOM     15  C   UNL A   1      34.314  21.166  25.192  1.00  0.00     0.006 C 
ATOM     16  C   UNL A   1      32.741  21.689  23.271  1.00  0.00     0.101 C 
ATOM     17  O   UNL A   1      31.802  19.871  22.080  1.00  0.00    -0.275 OA
ATOM     18  C   UNL A   1      35.726  21.456  25.787  1.00  0.00     0.012 C 
ATOM     19  C   UNL A   1      33.253  21.347  26.319  1.00  0.00     0.127 C 
ATOM     20  C   UNL A   1      34.064  22.027  23.935  1.00  0.00     0.020 C 
ATOM     21  C   UNL A   1      35.830  22.718  26.657  1.00  0.00     0.022 C 
ATOM     22  C   UNL A   1      34.669  22.864  27.638  1.00  0.00     0.118 C 
BRANCH  12  23
ATOM     23  C   UNL A   1      32.569  17.975  24.173  1.00  0.00     0.078 C 
ATOM     24  C   UNL A   1      33.426  16.980  23.385  1.00  0.00     0.031 C 
ATOM     25  C   UNL A   1      32.458  17.503  25.625  1.00  0.00     0.031 C 
ENDBRANCH  12  23
ENDBRANCH   6  11
ENDBRANCH   3   5
ENDBRANCH   2   3
ENDBRANCH   1   2
BRANCH   1  26
ATOM     26  C   UNL A   1      31.628  30.632  25.787  1.00  0.00     0.275 C 
BRANCH  26  27
ATOM     27  O   UNL A   1      32.601  30.433  26.831  1.00  0.00    -0.458 OA
BRANCH  27  28
ATOM     28  C   UNL A   1      33.237  31.560  27.222  1.00  0.00     0.338 C 
ATOM     29  O   UNL A   1      32.769  32.680  27.319  1.00  0.00    -0.246 OA
BRANCH  28  30
ATOM     30  C   UNL A   1      34.600  31.263  27.677  1.00  0.00     0.060 A 
ATOM     31  C   UNL A   1      34.870  29.959  28.074  1.00  0.00     0.016 A 
ATOM     32  C   UNL A   1      35.511  32.280  27.951  1.00  0.00     0.016 A 
ATOM     33  C   UNL A   1      35.970  29.683  28.869  1.00  0.00     0.010 A 
ATOM     34  C   UNL A   1      36.702  31.968  28.620  1.00  0.00     0.010 A 
ATOM     35  C   UNL A   1      36.931  30.669  29.113  1.00  0.00    -0.014 A 
BRANCH  35  36
ATOM     36  C   UNL A   1      38.161  30.310  29.870  1.00  0.00     0.031 A 
ATOM     37  C   UNL A   1      39.205  29.418  29.261  1.00  0.00     0.074 A 
ATOM     38  C   UNL A   1      38.352  30.819  31.106  1.00  0.00     0.049 A 
ATOM     39  N   UNL A   1      40.244  28.855  29.826  1.00  0.00    -0.248 NA
ATOM     40  C   UNL A   1      39.060  29.104  27.831  1.00  0.00     0.031 C 
ATOM     41  C   UNL A   1      37.446  31.745  31.792  1.00  0.00     0.029 A 
ATOM     42  N   UNL A   1      39.374  30.642  32.005  1.00  0.00    -0.354 N 
ATOM     43  C   UNL A   1      40.839  28.077  28.841  1.00  0.00     0.074 A 
ATOM     44  C   UNL A   1      40.045  28.236  27.641  1.00  0.00     0.031 C 
ATOM     45  C   UNL A   1      37.974  32.094  32.971  1.00  0.00     0.029 A 
ATOM     46  C   UNL A   1      39.189  31.321  33.185  1.00  0.00     0.049 A 
ATOM     47  H   UNL A   1      40.164  30.083  31.822  1.00  0.00     0.167 HD
ATOM     48  C   UNL A   1      41.944  27.298  28.938  1.00  0.00     0.037 A 
ATOM     49  C   UNL A   1      39.877  31.282  34.341  1.00  0.00     0.037 A 
ATOM     50  C   UNL A   1      42.752  27.191  30.128  1.00  0.00     0.049 A 
ATOM     51  C   UNL A   1      41.060  30.366  34.441  1.00  0.00     0.074 A 
ATOM     52  C   UNL A   1      43.899  26.444  30.329  1.00  0.00     0.029 A 
ATOM     53  N   UNL A   1      42.499  27.859  31.320  1.00  0.00    -0.354 N 
ATOM     54  N   UNL A   1      41.584  29.589  33.524  1.00  0.00    -0.248 NA
ATOM     55  C   UNL A   1      41.735  30.303  35.741  1.00  0.00     0.031 C 
ATOM     56  C   UNL A   1      44.309  26.618  31.655  1.00  0.00     0.029 A 
ATOM     57  C   UNL A   1      43.454  27.521  32.266  1.00  0.00     0.049 A 
ATOM     58  H   UNL A   1      41.751  28.482  31.469  1.00  0.00     0.167 HD
ATOM     59  C   UNL A   1      42.656  28.955  34.130  1.00  0.00     0.074 A 
ATOM     60  C   UNL A   1      42.724  29.459  35.487  1.00  0.00     0.031 C 
ATOM     61  C   UNL A   1      43.506  28.035  33.611  1.00  0.00     0.037 A 
BRANCH  48  62
ATOM     62  C   UNL A   1      42.323  26.463  27.748  1.00  0.00     0.064 A 
ATOM     63  C   UNL A   1      43.305  26.865  26.831  1.00  0.00     0.173 A 
ATOM     64  C   UNL A   1      41.715  25.213  27.547  1.00  0.00     0.173 A 
ATOM     65  F   UNL A   1      43.912  28.053  26.969  1.00  0.00    -0.203 F 
ATOM     66  C   UNL A   1      43.646  26.061  25.745  1.00  0.00     0.198 A 
ATOM     67  C   UNL A   1      42.080  24.397  26.479  1.00  0.00     0.198 A 
ATOM     68  F   UNL A   1      40.775  24.774  28.396  1.00  0.00    -0.203 F 
ATOM     69  F   UNL A   1      44.554  26.486  24.856  1.00  0.00    -0.200 F 
ATOM     70  C   UNL A   1      43.039  24.825  25.574  1.00  0.00     0.200 A 
ATOM     71  F   UNL A   1      41.504  23.197  26.327  1.00  0.00    -0.200 F 
ATOM     72  F   UNL A   1      43.375  24.048  24.535  1.00  0.00    -0.200 F 
ENDBRANCH  48  62
BRANCH  49  73
ATOM     73  C   UNL A   1      39.416  32.084  35.505  1.00  0.00     0.064 A 
ATOM     74  C   UNL A   1      38.537  31.545  36.453  1.00  0.00     0.173 A 
ATOM     75  C   UNL A   1      39.853  33.404  35.699  1.00  0.00     0.173 A 
ATOM     76  F   UNL A   1      38.070  30.296  36.301  1.00  0.00    -0.203 F 
ATOM     77  C   UNL A   1      38.104  32.298  37.543  1.00  0.00     0.198 A 
ATOM     78  C   UNL A   1      39.451  34.143  36.809  1.00  0.00     0.198 A 
ATOM     79  F   UNL A   1      40.695  33.971  34.822  1.00  0.00    -0.203 F 
ATOM     80  F   UNL A   1      37.226  31.775  38.410  1.00  0.00    -0.200 F 
ATOM     81  C   UNL A   1      38.568  33.592  37.726  1.00  0.00     0.200 A 
ATOM     82  F   UNL A   1      39.919  35.385  36.990  1.00  0.00    -0.200 F 
ATOM     83  F   UNL A   1      38.161  34.311  38.780  1.00  0.00    -0.200 F 
ENDBRANCH  49  73
BRANCH  61  84
ATOM     84  C   UNL A   1      44.602  27.543  34.510  1.00  0.00     0.064 A 
ATOM     85  C   UNL A   1      45.857  28.170  34.552  1.00  0.00     0.173 A 
ATOM     86  C   UNL A   1      44.388  26.441  35.352  1.00  0.00     0.173 A 
ATOM     87  F   UNL A   1      46.118  29.214  33.752  1.00  0.00    -0.203 F 
ATOM     88  C   UNL A   1      46.866  27.691  35.382  1.00  0.00     0.198 A 
ATOM     89  C   UNL A   1      45.388  25.987  36.205  1.00  0.00     0.198 A 
ATOM     90  F   UNL A   1      43.205  25.809  35.351  1.00  0.00    -0.203 F 
ATOM     91  F   UNL A   1      48.076  28.268  35.365  1.00  0.00    -0.200 F 
ATOM     92  C   UNL A   1      46.629  26.606  36.213  1.00  0.00     0.200 A 
ATOM     93  F   UNL A   1      45.153  24.946  37.016  1.00  0.00    -0.200 F 
ATOM     94  F   UNL A   1      47.601  26.148  37.014  1.00  0.00    -0.200 F 
ENDBRANCH  61  84
ENDBRANCH  35  36
ENDBRANCH  28  30
ENDBRANCH  27  28
ENDBRANCH  26  27
ENDBRANCH   1  26
TORSDOF 13
ENDMDL
MODEL 3
REMARK VINA RESULT:     -12.6      4.140      9.839
REMARK SMILES CC(C)N1C[C@@]2(CCCN(c3ccc(C(=O)OCCOC(=O)c4ccc(-c5c6nc(c(-c7c(F)c(F)c(F)c(F)c7F)c7ccc([nH]7)c(-c7c(F)c(F)c(F)c(F)c7F)c7nc(c(-c8c(F)c(F)c(F)c(F)c8F)c8ccc5[nH]8)C=C7)C=C6)cc4)cn3)C2)CCC1=O
REMARK SMILES IDX 18 1 17 2 15 3 16 4 14 5 11 6 12 7 87 8 13 9 86 10 10 11
REMARK SMILES IDX 4 12 5 13 91 14 6 15 90 16 92 17 7 18 88 19 89 20 8 21 9 22
REMARK SMILES IDX 2 23 1 24 3 25 19 26 20 27 21 28 22 29 23 30 24 31 85 32
REMARK SMILES IDX 25 33 84 34 26 35 27 36 28 37 78 38 29 39 83 40 77 41 79 42
REMARK SMILES IDX 30 43 82 44 76 45 75 46 31 48 63 49 43 50 62 51 44 52 47 53
REMARK SMILES IDX 61 54 80 55 45 56 46 57 60 59 81 60 48 61 32 62 33 63 41 64
REMARK SMILES IDX 34 65 35 66 39 67 42 68 36 69 37 70 40 71 38 72 64 73 65 74
REMARK SMILES IDX 73 75 66 76 67 77 71 78 74 79 68 80 69 81 72 82 70 83 49 84
REMARK SMILES IDX 50 85 58 86 51 87 52 88 56 89 59 90 53 91 54 92 57 93 55 94
REMARK H PARENT 79 47 47 58
REMARK Flexibility Score: inf
ROOT
ATOM      1  C   UNL A   1      35.525  20.860  25.010  1.00  0.00     0.275 C 
ENDROOT
BRANCH   1   2
ATOM      2  O   UNL A   1      35.140  22.080  25.674  1.00  0.00    -0.458 OA
BRANCH   2   3
ATOM      3  C   UNL A   1      33.976  22.020  26.354  1.00  0.00     0.339 C 
ATOM      4  O   UNL A   1      33.631  21.177  27.168  1.00  0.00    -0.246 OA
BRANCH   3   5
ATOM      5  C   UNL A   1      33.102  23.119  25.957  1.00  0.00     0.078 A 
ATOM      6  C   UNL A   1      31.273  25.081  25.275  1.00  0.00     0.128 A 
ATOM      7  C   UNL A   1      31.820  24.251  24.291  1.00  0.00     0.048 A 
ATOM      8  N   UNL A   1      31.595  24.894  26.571  1.00  0.00    -0.238 NA
ATOM      9  C   UNL A   1      32.761  23.279  24.628  1.00  0.00     0.021 A 
ATOM     10  C   UNL A   1      32.494  23.935  26.890  1.00  0.00     0.129 A 
BRANCH   6  11
ATOM     11  N   UNL A   1      30.511  26.193  24.971  1.00  0.00    -0.356 N 
ATOM     12  N   UNL A   1      33.112  29.594  26.303  1.00  0.00    -0.340 N 
ATOM     13  C   UNL A   1      32.345  29.540  25.059  1.00  0.00     0.128 C 
ATOM     14  C   UNL A   1      34.179  28.724  26.514  1.00  0.00     0.222 C 
ATOM     15  C   UNL A   1      32.007  28.120  24.571  1.00  0.00     0.006 C 
ATOM     16  C   UNL A   1      34.074  27.373  25.839  1.00  0.00     0.101 C 
ATOM     17  O   UNL A   1      35.107  28.930  27.293  1.00  0.00    -0.275 OA
ATOM     18  C   UNL A   1      31.358  28.226  23.157  1.00  0.00     0.012 C 
ATOM     19  C   UNL A   1      30.980  27.462  25.541  1.00  0.00     0.127 C 
ATOM     20  C   UNL A   1      33.369  27.396  24.494  1.00  0.00     0.020 C 
ATOM     21  C   UNL A   1      30.634  26.963  22.666  1.00  0.00     0.022 C 
ATOM     22  C   UNL A   1      29.755  26.324  23.738  1.00  0.00     0.118 C 
BRANCH  12  23
ATOM     23  C   UNL A   1      32.763  30.682  27.241  1.00  0.00     0.078 C 
ATOM     24  C   UNL A   1      34.019  31.505  27.545  1.00  0.00     0.031 C 
ATOM     25  C   UNL A   1      31.632  31.627  26.827  1.00  0.00     0.031 C 
ENDBRANCH  12  23
ENDBRANCH   6  11
ENDBRANCH   3   5
ENDBRANCH   2   3
ENDBRANCH   1   2
BRANCH   1  26
ATOM     26  C   UNL A   1      37.044  20.685  24.983  1.00  0.00     0.275 C 
BRANCH  26  27
ATOM     27  O   UNL A   1      37.717  21.821  25.561  1.00  0.00    -0.458 OA
BRANCH  27  28
ATOM     28  C   UNL A   1      38.931  21.542  26.086  1.00  0.00     0.338 C 
ATOM     29  O   UNL A   1      39.568  20.510  25.975  1.00  0.00    -0.246 OA
BRANCH  28  30
ATOM     30  C   UNL A   1      39.508  22.727  26.732  1.00  0.00     0.060 A 
ATOM     31  C   UNL A   1      39.108  23.971  26.259  1.00  0.00     0.016 A 
ATOM     32  C   UNL A   1      40.595  22.624  27.596  1.00  0.00     0.016 A 
ATOM     33  C   UNL A   1      39.870  25.097  26.521  1.00  0.00     0.010 A 
ATOM     34  C   UNL A   1      41.269  23.789  27.987  1.00  0.00     0.010 A 
ATOM     35  C   UNL A   1      40.932  25.037  27.428  1.00  0.00    -0.014 A 
BRANCH  35  36
ATOM     36  C   UNL A   1      41.656  26.289  27.780  1.00  0.00     0.031 A 
ATOM     37  C   UNL A   1      41.003  27.339  28.634  1.00  0.00     0.074 A 
ATOM     38  C   UNL A   1      42.924  26.466  27.352  1.00  0.00     0.049 A 
ATOM     39  N   UNL A   1      41.402  28.560  28.894  1.00  0.00    -0.248 NA
ATOM     40  C   UNL A   1      39.727  26.980  29.272  1.00  0.00     0.031 C 
ATOM     41  C   UNL A   1      43.696  25.499  26.566  1.00  0.00     0.029 A 
ATOM     42  N   UNL A   1      43.794  27.512  27.523  1.00  0.00    -0.354 N 
ATOM     43  C   UNL A   1      40.403  29.130  29.672  1.00  0.00     0.074 A 
ATOM     44  C   UNL A   1      39.375  28.125  29.842  1.00  0.00     0.031 C 
ATOM     45  C   UNL A   1      44.933  25.970  26.371  1.00  0.00     0.029 A 
ATOM     46  C   UNL A   1      45.005  27.323  26.903  1.00  0.00     0.049 A 
ATOM     47  H   UNL A   1      43.574  28.320  28.041  1.00  0.00     0.167 HD
ATOM     48  C   UNL A   1      40.352  30.382  30.189  1.00  0.00     0.037 A 
ATOM     49  C   UNL A   1      46.041  28.163  26.718  1.00  0.00     0.037 A 
ATOM     50  C   UNL A   1      41.409  31.354  30.051  1.00  0.00     0.049 A 
ATOM     51  C   UNL A   1      45.933  29.562  27.248  1.00  0.00     0.074 A 
ATOM     52  C   UNL A   1      41.466  32.644  30.548  1.00  0.00     0.029 A 
ATOM     53  N   UNL A   1      42.600  31.137  29.370  1.00  0.00    -0.354 N 
ATOM     54  N   UNL A   1      44.961  30.114  27.933  1.00  0.00    -0.248 NA
ATOM     55  C   UNL A   1      47.054  30.463  26.960  1.00  0.00     0.031 C 
ATOM     56  C   UNL A   1      42.666  33.225  30.124  1.00  0.00     0.029 A 
ATOM     57  C   UNL A   1      43.386  32.278  29.413  1.00  0.00     0.049 A 
ATOM     58  H   UNL A   1      42.849  30.296  28.923  1.00  0.00     0.167 HD
ATOM     59  C   UNL A   1      45.358  31.420  28.171  1.00  0.00     0.074 A 
ATOM     60  C   UNL A   1      46.672  31.571  27.578  1.00  0.00     0.031 C 
ATOM     61  C   UNL A   1      44.692  32.408  28.818  1.00  0.00     0.037 A 
BRANCH  48  62
ATOM     62  C   UNL A   1      39.100  30.795  30.910  1.00  0.00     0.064 A 
ATOM     63  C   UNL A   1      38.004  31.362  30.245  1.00  0.00     0.173 A 
ATOM     64  C   UNL A   1      38.983  30.577  32.292  1.00  0.00     0.173 A 
ATOM     65  F   UNL A   1      38.063  31.602  28.926  1.00  0.00    -0.203 F 
ATOM     66  C   UNL A   1      36.849  31.721  30.939  1.00  0.00     0.198 A 
ATOM     67  C   UNL A   1      37.816  30.906  32.978  1.00  0.00     0.198 A 
ATOM     68  F   UNL A   1      39.997  30.030  32.979  1.00  0.00    -0.203 F 
ATOM     69  F   UNL A   1      35.832  32.304  30.290  1.00  0.00    -0.200 F 
ATOM     70  C   UNL A   1      36.754  31.485  32.303  1.00  0.00     0.200 A 
ATOM     71  F   UNL A   1      37.722  30.661  34.292  1.00  0.00    -0.200 F 
ATOM     72  F   UNL A   1      35.639  31.820  32.967  1.00  0.00    -0.200 F 
ENDBRANCH  48  62
BRANCH  49  73
ATOM     73  C   UNL A   1      47.228  27.718  25.940  1.00  0.00     0.064 A 
ATOM     74  C   UNL A   1      47.234  27.761  24.541  1.00  0.00     0.173 A 
ATOM     75  C   UNL A   1      48.384  27.247  26.583  1.00  0.00     0.173 A 
ATOM     76  F   UNL A   1      46.145  28.178  23.878  1.00  0.00    -0.203 F 
ATOM     77  C   UNL A   1      48.346  27.341  23.813  1.00  0.00     0.198 A 
ATOM     78  C   UNL A   1      49.509  26.864  25.856  1.00  0.00     0.198 A 
ATOM     79  F   UNL A   1      48.433  27.184  27.922  1.00  0.00    -0.203 F 
ATOM     80  F   UNL A   1      48.309  27.348  22.474  1.00  0.00    -0.200 F 
ATOM     81  C   UNL A   1      49.486  26.902  24.471  1.00  0.00     0.200 A 
ATOM     82  F   UNL A   1      50.614  26.462  26.498  1.00  0.00    -0.200 F 
ATOM     83  F   UNL A   1      50.558  26.510  23.771  1.00  0.00    -0.200 F 
ENDBRANCH  49  73
BRANCH  61  84
ATOM     84  C   UNL A   1      45.395  33.727  28.946  1.00  0.00     0.064 A 
ATOM     85  C   UNL A   1      46.260  34.001  30.017  1.00  0.00     0.173 A 
ATOM     86  C   UNL A   1      45.214  34.724  27.974  1.00  0.00     0.173 A 
ATOM     87  F   UNL A   1      46.450  33.090  30.981  1.00  0.00    -0.203 F 
ATOM     88  C   UNL A   1      46.892  35.236  30.125  1.00  0.00     0.198 A 
ATOM     89  C   UNL A   1      45.875  35.943  28.068  1.00  0.00     0.198 A 
ATOM     90  F   UNL A   1      44.401  34.510  26.929  1.00  0.00    -0.203 F 
ATOM     91  F   UNL A   1      47.668  35.499  31.186  1.00  0.00    -0.200 F 
ATOM     92  C   UNL A   1      46.705  36.203  29.147  1.00  0.00     0.200 A 
ATOM     93  F   UNL A   1      45.704  36.872  27.116  1.00  0.00    -0.200 F 
ATOM     94  F   UNL A   1      47.318  37.390  29.252  1.00  0.00    -0.200 F 
ENDBRANCH  61  84
ENDBRANCH  35  36
ENDBRANCH  28  30
ENDBRANCH  27  28
ENDBRANCH  26  27
ENDBRANCH   1  26
TORSDOF 13
ENDMDL
