MODEL 1
REMARK VINA RESULT:     -11.7      0.000      0.000
REMARK SMILES O=C(OCCOC(=O)[C@H](c1ccccc1)N1C(=O)/C(=C\c2ccc(Br)cc2)SC1=S)c1ccc(-c2c3nc(c(-c4c(F)c(F)c(F)c(F)c4F)c4ccc([nH]4)c(-c4c(F)c(F)c(F)c(F)c4F)c4nc(c(-c5c(F)c(F)c(F)c(F)c5F)c5ccc2[nH]5)C=C4)C=C3)cc1
REMARK SMILES IDX 4 1 3 2 2 3 1 4 31 5 32 6 93 7 33 8 92 9 34 10 35 11 36 12
REMARK SMILES IDX 86 13 37 14 91 15 85 16 87 17 38 18 90 19 84 20 83 21 39 23
REMARK SMILES IDX 71 24 51 25 70 26 52 27 55 28 69 29 88 30 53 31 54 32 68 34
REMARK SMILES IDX 89 35 56 36 40 37 41 38 49 39 42 40 43 41 47 42 50 43 44 44
REMARK SMILES IDX 45 45 48 46 46 47 72 48 73 49 81 50 74 51 75 52 79 53 82 54
REMARK SMILES IDX 76 55 77 56 80 57 78 58 57 59 58 60 66 61 59 62 60 63 64 64
REMARK SMILES IDX 67 65 61 66 62 67 65 68 63 69 5 70 6 71 7 72 8 73 9 74 16 75
REMARK SMILES IDX 17 76 29 77 18 78 19 79 28 80 30 81 20 82 21 83 22 84 27 85
REMARK SMILES IDX 23 86 26 87 24 88 25 89 10 90 11 91 15 92 12 93 14 94 13 95
REMARK H PARENT 87 22 55 33
REMARK Flexibility Score: inf
ROOT
ATOM      1  C   UNL A   1      38.160  20.294  25.607  1.00  0.00     0.275 C 
ENDROOT
BRANCH   1   2
ATOM      2  O   UNL A   1      39.582  20.197  25.823  1.00  0.00    -0.458 OA
BRANCH   2   3
ATOM      3  C   UNL A   1      40.353  20.671  26.830  1.00  0.00     0.338 C 
ATOM      4  O   UNL A   1      40.786  19.864  27.652  1.00  0.00    -0.246 OA
BRANCH   3   5
ATOM      5  C   UNL A   1      40.692  22.121  27.047  1.00  0.00     0.060 A 
ATOM      6  C   UNL A   1      40.161  23.217  26.356  1.00  0.00     0.016 A 
ATOM      7  C   UNL A   1      41.627  22.392  28.062  1.00  0.00     0.016 A 
ATOM      8  C   UNL A   1      40.468  24.534  26.725  1.00  0.00     0.010 A 
ATOM      9  C   UNL A   1      41.962  23.704  28.414  1.00  0.00     0.010 A 
ATOM     10  C   UNL A   1      41.370  24.787  27.757  1.00  0.00    -0.014 A 
BRANCH  10  11
ATOM     11  C   UNL A   1      41.850  26.165  28.008  1.00  0.00     0.031 A 
ATOM     12  C   UNL A   1      43.203  26.526  27.479  1.00  0.00     0.074 A 
ATOM     13  C   UNL A   1      41.108  27.070  28.672  1.00  0.00     0.049 A 
ATOM     14  N   UNL A   1      43.866  27.645  27.586  1.00  0.00    -0.248 NA
ATOM     15  C   UNL A   1      43.910  25.466  26.743  1.00  0.00     0.031 C 
ATOM     16  C   UNL A   1      39.772  26.828  29.204  1.00  0.00     0.029 A 
ATOM     17  N   UNL A   1      41.365  28.375  29.014  1.00  0.00    -0.354 N 
ATOM     18  C   UNL A   1      45.069  27.419  26.936  1.00  0.00     0.074 A 
ATOM     19  C   UNL A   1      45.075  26.041  26.501  1.00  0.00     0.031 C 
ATOM     20  C   UNL A   1      39.321  27.941  29.806  1.00  0.00     0.029 A 
ATOM     21  C   UNL A   1      40.347  28.975  29.718  1.00  0.00     0.049 A 
ATOM     22  H   UNL A   1      42.202  28.837  28.779  1.00  0.00     0.167 HD
ATOM     23  C   UNL A   1      46.072  28.294  26.695  1.00  0.00     0.037 A 
ATOM     24  C   UNL A   1      40.263  30.221  30.226  1.00  0.00     0.037 A 
ATOM     25  C   UNL A   1      46.053  29.659  27.137  1.00  0.00     0.049 A 
ATOM     26  C   UNL A   1      41.416  31.166  29.994  1.00  0.00     0.074 A 
ATOM     27  C   UNL A   1      47.012  30.637  26.964  1.00  0.00     0.029 A 
ATOM     28  N   UNL A   1      45.009  30.234  27.853  1.00  0.00    -0.354 N 
ATOM     29  N   UNL A   1      42.536  30.958  29.343  1.00  0.00    -0.248 NA
ATOM     30  C   UNL A   1      41.293  32.519  30.554  1.00  0.00     0.031 C 
ATOM     31  C   UNL A   1      46.569  31.794  27.615  1.00  0.00     0.029 A 
ATOM     32  C   UNL A   1      45.307  31.553  28.143  1.00  0.00     0.049 A 
ATOM     33  H   UNL A   1      44.181  29.771  28.114  1.00  0.00     0.167 HD
ATOM     34  C   UNL A   1      43.233  32.158  29.381  1.00  0.00     0.074 A 
ATOM     35  C   UNL A   1      42.404  33.094  30.115  1.00  0.00     0.031 C 
ATOM     36  C   UNL A   1      44.446  32.462  28.856  1.00  0.00     0.037 A 
BRANCH  23  37
ATOM     37  C   UNL A   1      47.259  27.758  25.953  1.00  0.00     0.064 A 
ATOM     38  C   UNL A   1      48.424  27.352  26.626  1.00  0.00     0.173 A 
ATOM     39  C   UNL A   1      47.269  27.738  24.552  1.00  0.00     0.173 A 
ATOM     40  F   UNL A   1      48.476  27.383  27.966  1.00  0.00    -0.203 F 
ATOM     41  C   UNL A   1      49.572  27.003  25.921  1.00  0.00     0.198 A 
ATOM     42  C   UNL A   1      48.407  27.353  23.851  1.00  0.00     0.198 A 
ATOM     43  F   UNL A   1      46.184  28.122  23.862  1.00  0.00    -0.203 F 
ATOM     44  F   UNL A   1      50.700  26.712  26.584  1.00  0.00    -0.200 F 
ATOM     45  C   UNL A   1      49.563  27.003  24.535  1.00  0.00     0.200 A 
ATOM     46  F   UNL A   1      48.397  27.350  22.511  1.00  0.00    -0.200 F 
ATOM     47  F   UNL A   1      50.675  26.688  23.857  1.00  0.00    -0.200 F 
ENDBRANCH  23  37
BRANCH  24  48
ATOM     48  C   UNL A   1      39.051  30.659  30.973  1.00  0.00     0.064 A 
ATOM     49  C   UNL A   1      37.976  31.277  30.315  1.00  0.00     0.173 A 
ATOM     50  C   UNL A   1      38.948  30.497  32.363  1.00  0.00     0.173 A 
ATOM     51  F   UNL A   1      38.026  31.473  28.990  1.00  0.00    -0.203 F 
ATOM     52  C   UNL A   1      36.863  31.737  31.020  1.00  0.00     0.198 A 
ATOM     53  C   UNL A   1      37.823  30.933  33.063  1.00  0.00     0.198 A 
ATOM     54  F   UNL A   1      39.942  29.909  33.044  1.00  0.00    -0.203 F 
ATOM     55  F   UNL A   1      35.873  32.364  30.369  1.00  0.00    -0.200 F 
ATOM     56  C   UNL A   1      36.785  31.561  32.392  1.00  0.00     0.200 A 
ATOM     57  F   UNL A   1      37.747  30.750  34.389  1.00  0.00    -0.200 F 
ATOM     58  F   UNL A   1      35.716  32.003  33.068  1.00  0.00    -0.200 F 
ENDBRANCH  24  48
BRANCH  36  59
ATOM     59  C   UNL A   1      44.929  33.875  29.005  1.00  0.00     0.064 A 
ATOM     60  C   UNL A   1      45.751  34.267  30.070  1.00  0.00     0.173 A 
ATOM     61  C   UNL A   1      44.629  34.827  28.018  1.00  0.00     0.173 A 
ATOM     62  F   UNL A   1      46.053  33.397  31.047  1.00  0.00    -0.203 F 
ATOM     63  C   UNL A   1      46.247  35.565  30.148  1.00  0.00     0.198 A 
ATOM     64  C   UNL A   1      45.153  36.113  28.082  1.00  0.00     0.198 A 
ATOM     65  F   UNL A   1      43.852  34.496  26.975  1.00  0.00    -0.203 F 
ATOM     66  F   UNL A   1      47.002  35.929  31.192  1.00  0.00    -0.200 F 
ATOM     67  C   UNL A   1      45.958  36.482  29.149  1.00  0.00     0.200 A 
ATOM     68  F   UNL A   1      44.887  36.992  27.106  1.00  0.00    -0.200 F 
ATOM     69  F   UNL A   1      46.454  37.725  29.215  1.00  0.00    -0.200 F 
ENDBRANCH  36  59
ENDBRANCH  10  11
ENDBRANCH   3   5
ENDBRANCH   2   3
ENDBRANCH   1   2
BRANCH   1  70
ATOM     70  C   UNL A   1      37.754  21.486  24.737  1.00  0.00     0.274 C 
BRANCH  70  71
ATOM     71  O   UNL A   1      36.501  22.023  25.183  1.00  0.00    -0.460 OA
BRANCH  71  72
ATOM     72  C   UNL A   1      35.517  22.239  24.265  1.00  0.00     0.334 C 
ATOM     73  O   UNL A   1      35.703  22.704  23.145  1.00  0.00    -0.249 OA
BRANCH  72  74
ATOM     74  C   UNL A   1      34.124  21.945  24.900  1.00  0.00     0.232 C 
BRANCH  74  75
ATOM     75  N   UNL A   1      33.128  22.816  24.218  1.00  0.00    -0.274 N 
ATOM     76  C   UNL A   1      32.972  24.060  24.819  1.00  0.00     0.267 C 
ATOM     77  C   UNL A   1      32.185  22.526  23.254  1.00  0.00     0.149 C 
ATOM     78  O   UNL A   1      33.464  24.378  25.893  1.00  0.00    -0.268 OA
ATOM     79  C   UNL A   1      32.038  24.921  24.058  1.00  0.00     0.081 C 
ATOM     80  S   UNL A   1      31.242  23.978  22.873  1.00  0.00    -0.054 SA
ATOM     81  S   UNL A   1      31.783  21.109  22.478  1.00  0.00    -0.052 S 
ATOM     82  C   UNL A   1      31.814  26.229  24.241  1.00  0.00     0.029 C 
BRANCH  82  83
ATOM     83  C   UNL A   1      32.519  27.074  25.209  1.00  0.00    -0.024 A 
ATOM     84  C   UNL A   1      33.741  27.659  24.858  1.00  0.00     0.009 A 
ATOM     85  C   UNL A   1      31.989  27.303  26.488  1.00  0.00     0.009 A 
ATOM     86  C   UNL A   1      34.408  28.489  25.763  1.00  0.00     0.016 A 
ATOM     87  C   UNL A   1      32.648  28.142  27.387  1.00  0.00     0.016 A 
ATOM     88  C   UNL A   1      33.853  28.733  27.019  1.00  0.00     0.018 A 
ATOM     89  Br  UNL A   1      34.741  29.879  28.232  1.00  0.00    -0.051 Br
ENDBRANCH  82  83
ENDBRANCH  74  75
BRANCH  74  90
ATOM     90  C   UNL A   1      33.843  20.455  25.004  1.00  0.00    -0.014 A 
ATOM     91  C   UNL A   1      32.776  19.930  25.747  1.00  0.00     0.006 A 
ATOM     92  C   UNL A   1      34.709  19.548  24.363  1.00  0.00     0.006 A 
ATOM     93  C   UNL A   1      32.584  18.547  25.835  1.00  0.00     0.000 A 
ATOM     94  C   UNL A   1      34.503  18.170  24.430  1.00  0.00     0.000 A 
ATOM     95  C   UNL A   1      33.441  17.669  25.174  1.00  0.00     0.000 A 
ENDBRANCH  74  90
ENDBRANCH  72  74
ENDBRANCH  71  72
ENDBRANCH  70  71
ENDBRANCH   1  70
TORSDOF 14
ENDMDL
MODEL 2
REMARK VINA RESULT:     -11.3     10.464     17.826
REMARK SMILES O=C(OCCOC(=O)[C@H](c1ccccc1)N1C(=O)/C(=C\c2ccc(Br)cc2)SC1=S)c1ccc(-c2c3nc(c(-c4c(F)c(F)c(F)c(F)c4F)c4ccc([nH]4)c(-c4c(F)c(F)c(F)c(F)c4F)c4nc(c(-c5c(F)c(F)c(F)c(F)c5F)c5ccc2[nH]5)C=C4)C=C3)cc1
REMARK SMILES IDX 4 1 3 2 2 3 1 4 31 5 32 6 93 7 33 8 92 9 34 10 35 11 36 12
REMARK SMILES IDX 86 13 37 14 91 15 85 16 87 17 38 18 90 19 84 20 83 21 39 23
REMARK SMILES IDX 71 24 51 25 70 26 52 27 55 28 69 29 88 30 53 31 54 32 68 34
REMARK SMILES IDX 89 35 56 36 40 37 41 38 49 39 42 40 43 41 47 42 50 43 44 44
REMARK SMILES IDX 45 45 48 46 46 47 72 48 73 49 81 50 74 51 75 52 79 53 82 54
REMARK SMILES IDX 76 55 77 56 80 57 78 58 57 59 58 60 66 61 59 62 60 63 64 64
REMARK SMILES IDX 67 65 61 66 62 67 65 68 63 69 5 70 6 71 7 72 8 73 9 74 16 75
REMARK SMILES IDX 17 76 29 77 18 78 19 79 28 80 30 81 20 82 21 83 22 84 27 85
REMARK SMILES IDX 23 86 26 87 24 88 25 89 10 90 11 91 15 92 12 93 14 94 13 95
REMARK H PARENT 87 22 55 33
REMARK Flexibility Score: inf
ROOT
ATOM      1  C   UNL A   1      43.299  43.042  21.708  1.00  0.00     0.275 C 
ENDROOT
BRANCH   1   2
ATOM      2  O   UNL A   1      42.977  42.061  22.714  1.00  0.00    -0.458 OA
BRANCH   2   3
ATOM      3  C   UNL A   1      42.055  42.088  23.705  1.00  0.00     0.338 C 
ATOM      4  O   UNL A   1      41.071  42.813  23.556  1.00  0.00    -0.246 OA
BRANCH   3   5
ATOM      5  C   UNL A   1      42.159  41.329  25.001  1.00  0.00     0.060 A 
ATOM      6  C   UNL A   1      41.101  40.953  25.837  1.00  0.00     0.016 A 
ATOM      7  C   UNL A   1      43.455  40.950  25.393  1.00  0.00     0.016 A 
ATOM      8  C   UNL A   1      41.309  40.147  26.964  1.00  0.00     0.010 A 
ATOM      9  C   UNL A   1      43.673  40.171  26.535  1.00  0.00     0.010 A 
ATOM     10  C   UNL A   1      42.596  39.749  27.321  1.00  0.00    -0.014 A 
BRANCH  10  11
ATOM     11  C   UNL A   1      42.838  39.075  28.617  1.00  0.00     0.031 A 
ATOM     12  C   UNL A   1      43.175  39.944  29.788  1.00  0.00     0.074 A 
ATOM     13  C   UNL A   1      42.750  37.739  28.755  1.00  0.00     0.049 A 
ATOM     14  N   UNL A   1      43.459  39.610  31.017  1.00  0.00    -0.248 NA
ATOM     15  C   UNL A   1      43.212  41.392  29.526  1.00  0.00     0.031 C 
ATOM     16  C   UNL A   1      42.404  36.809  27.687  1.00  0.00     0.029 A 
ATOM     17  N   UNL A   1      42.941  36.929  29.846  1.00  0.00    -0.354 N 
ATOM     18  C   UNL A   1      43.714  40.806  31.670  1.00  0.00     0.074 A 
ATOM     19  C   UNL A   1      43.622  41.863  30.690  1.00  0.00     0.031 C 
ATOM     20  C   UNL A   1      42.407  35.554  28.167  1.00  0.00     0.029 A 
ATOM     21  C   UNL A   1      42.772  35.590  29.580  1.00  0.00     0.049 A 
ATOM     22  H   UNL A   1      43.179  37.274  30.737  1.00  0.00     0.167 HD
ATOM     23  C   UNL A   1      43.975  41.008  32.982  1.00  0.00     0.037 A 
ATOM     24  C   UNL A   1      42.898  34.522  30.393  1.00  0.00     0.037 A 
ATOM     25  C   UNL A   1      44.068  39.946  33.942  1.00  0.00     0.049 A 
ATOM     26  C   UNL A   1      43.244  34.765  31.842  1.00  0.00     0.074 A 
ATOM     27  C   UNL A   1      44.337  40.024  35.294  1.00  0.00     0.029 A 
ATOM     28  N   UNL A   1      43.897  38.601  33.638  1.00  0.00    -0.354 N 
ATOM     29  N   UNL A   1      43.446  35.903  32.463  1.00  0.00    -0.248 NA
ATOM     30  C   UNL A   1      43.368  33.583  32.705  1.00  0.00     0.031 C 
ATOM     31  C   UNL A   1      44.374  38.721  35.801  1.00  0.00     0.029 A 
ATOM     32  C   UNL A   1      44.071  37.835  34.776  1.00  0.00     0.049 A 
ATOM     33  H   UNL A   1      43.685  38.246  32.745  1.00  0.00     0.167 HD
ATOM     34  C   UNL A   1      43.682  35.580  33.792  1.00  0.00     0.074 A 
ATOM     35  C   UNL A   1      43.592  34.136  33.889  1.00  0.00     0.031 C 
ATOM     36  C   UNL A   1      43.948  36.399  34.839  1.00  0.00     0.037 A 
BRANCH  23  37
ATOM     37  C   UNL A   1      44.205  42.428  33.403  1.00  0.00     0.064 A 
ATOM     38  C   UNL A   1      43.137  43.326  33.571  1.00  0.00     0.173 A 
ATOM     39  C   UNL A   1      45.508  42.921  33.551  1.00  0.00     0.173 A 
ATOM     40  F   UNL A   1      41.873  42.910  33.409  1.00  0.00    -0.203 F 
ATOM     41  C   UNL A   1      43.371  44.677  33.811  1.00  0.00     0.198 A 
ATOM     42  C   UNL A   1      45.736  44.266  33.827  1.00  0.00     0.198 A 
ATOM     43  F   UNL A   1      46.562  42.106  33.395  1.00  0.00    -0.203 F 
ATOM     44  F   UNL A   1      42.340  45.532  33.872  1.00  0.00    -0.200 F 
ATOM     45  C   UNL A   1      44.669  45.146  33.939  1.00  0.00     0.200 A 
ATOM     46  F   UNL A   1      46.991  44.718  33.954  1.00  0.00    -0.200 F 
ATOM     47  F   UNL A   1      44.893  46.450  34.148  1.00  0.00    -0.200 F 
ENDBRANCH  23  37
BRANCH  24  48
ATOM     48  C   UNL A   1      42.675  33.142  29.879  1.00  0.00     0.064 A 
ATOM     49  C   UNL A   1      41.478  32.455  30.136  1.00  0.00     0.173 A 
ATOM     50  C   UNL A   1      43.660  32.466  29.143  1.00  0.00     0.173 A 
ATOM     51  F   UNL A   1      40.508  33.046  30.848  1.00  0.00    -0.203 F 
ATOM     52  C   UNL A   1      41.288  31.144  29.702  1.00  0.00     0.198 A 
ATOM     53  C   UNL A   1      43.459  31.163  28.687  1.00  0.00     0.198 A 
ATOM     54  F   UNL A   1      44.822  33.074  28.863  1.00  0.00    -0.203 F 
ATOM     55  F   UNL A   1      40.152  30.499  30.003  1.00  0.00    -0.200 F 
ATOM     56  C   UNL A   1      42.276  30.500  28.975  1.00  0.00     0.200 A 
ATOM     57  F   UNL A   1      44.412  30.549  27.973  1.00  0.00    -0.200 F 
ATOM     58  F   UNL A   1      42.092  29.239  28.558  1.00  0.00    -0.200 F 
ENDBRANCH  24  48
BRANCH  36  59
ATOM     59  C   UNL A   1      44.106  35.766  36.190  1.00  0.00     0.064 A 
ATOM     60  C   UNL A   1      43.014  35.565  37.045  1.00  0.00     0.173 A 
ATOM     61  C   UNL A   1      45.358  35.277  36.594  1.00  0.00     0.173 A 
ATOM     62  F   UNL A   1      41.799  36.028  36.709  1.00  0.00    -0.203 F 
ATOM     63  C   UNL A   1      43.172  34.910  38.262  1.00  0.00     0.198 A 
ATOM     64  C   UNL A   1      45.506  34.593  37.796  1.00  0.00     0.198 A 
ATOM     65  F   UNL A   1      46.433  35.439  35.806  1.00  0.00    -0.203 F 
ATOM     66  F   UNL A   1      42.122  34.759  39.081  1.00  0.00    -0.200 F 
ATOM     67  C   UNL A   1      44.414  34.414  38.630  1.00  0.00     0.200 A 
ATOM     68  F   UNL A   1      46.703  34.100  38.141  1.00  0.00    -0.200 F 
ATOM     69  F   UNL A   1      44.559  33.763  39.793  1.00  0.00    -0.200 F 
ENDBRANCH  36  59
ENDBRANCH  10  11
ENDBRANCH   3   5
ENDBRANCH   2   3
ENDBRANCH   1   2
BRANCH   1  70
ATOM     70  C   UNL A   1      42.655  42.758  20.349  1.00  0.00     0.274 C 
BRANCH  70  71
ATOM     71  O   UNL A   1      42.528  43.972  19.596  1.00  0.00    -0.460 OA
BRANCH  71  72
ATOM     72  C   UNL A   1      43.511  44.300  18.711  1.00  0.00     0.334 C 
ATOM     73  O   UNL A   1      43.887  43.578  17.793  1.00  0.00    -0.249 OA
BRANCH  72  74
ATOM     74  C   UNL A   1      44.171  45.649  19.126  1.00  0.00     0.232 C 
BRANCH  74  75
ATOM     75  N   UNL A   1      45.634  45.409  19.261  1.00  0.00    -0.274 N 
ATOM     76  C   UNL A   1      46.054  45.258  20.578  1.00  0.00     0.267 C 
ATOM     77  C   UNL A   1      46.659  45.538  18.347  1.00  0.00     0.149 C 
ATOM     78  O   UNL A   1      45.350  45.460  21.558  1.00  0.00    -0.268 OA
ATOM     79  C   UNL A   1      47.498  44.936  20.658  1.00  0.00     0.081 C 
ATOM     80  S   UNL A   1      48.210  45.162  19.119  1.00  0.00    -0.054 SA
ATOM     81  S   UNL A   1      46.676  46.009  16.750  1.00  0.00    -0.052 S 
ATOM     82  C   UNL A   1      48.178  44.537  21.741  1.00  0.00     0.029 C 
BRANCH  82  83
ATOM     83  C   UNL A   1      47.585  44.282  23.057  1.00  0.00    -0.024 A 
ATOM     84  C   UNL A   1      47.592  45.288  24.028  1.00  0.00     0.009 A 
ATOM     85  C   UNL A   1      47.014  43.036  23.361  1.00  0.00     0.009 A 
ATOM     86  C   UNL A   1      47.005  45.064  25.277  1.00  0.00     0.016 A 
ATOM     87  C   UNL A   1      46.417  42.816  24.603  1.00  0.00     0.016 A 
ATOM     88  C   UNL A   1      46.412  43.833  25.553  1.00  0.00     0.018 A 
ATOM     89  Br  UNL A   1      45.593  43.540  27.231  1.00  0.00    -0.051 Br
ENDBRANCH  82  83
ENDBRANCH  74  75
BRANCH  74  90
ATOM     90  C   UNL A   1      43.697  46.810  18.267  1.00  0.00    -0.014 A 
ATOM     91  C   UNL A   1      44.058  48.142  18.516  1.00  0.00     0.006 A 
ATOM     92  C   UNL A   1      42.824  46.554  17.192  1.00  0.00     0.006 A 
ATOM     93  C   UNL A   1      43.566  49.174  17.711  1.00  0.00     0.000 A 
ATOM     94  C   UNL A   1      42.352  47.581  16.374  1.00  0.00     0.000 A 
ATOM     95  C   UNL A   1      42.720  48.895  16.639  1.00  0.00     0.000 A 
ENDBRANCH  74  90
ENDBRANCH  72  74
ENDBRANCH  71  72
ENDBRANCH  70  71
ENDBRANCH   1  70
TORSDOF 14
ENDMDL
MODEL 3
REMARK VINA RESULT:     -11.2      6.149     10.211
REMARK SMILES O=C(OCCOC(=O)[C@H](c1ccccc1)N1C(=O)/C(=C\c2ccc(Br)cc2)SC1=S)c1ccc(-c2c3nc(c(-c4c(F)c(F)c(F)c(F)c4F)c4ccc([nH]4)c(-c4c(F)c(F)c(F)c(F)c4F)c4nc(c(-c5c(F)c(F)c(F)c(F)c5F)c5ccc2[nH]5)C=C4)C=C3)cc1
REMARK SMILES IDX 4 1 3 2 2 3 1 4 31 5 32 6 93 7 33 8 92 9 34 10 35 11 36 12
REMARK SMILES IDX 86 13 37 14 91 15 85 16 87 17 38 18 90 19 84 20 83 21 39 23
REMARK SMILES IDX 71 24 51 25 70 26 52 27 55 28 69 29 88 30 53 31 54 32 68 34
REMARK SMILES IDX 89 35 56 36 40 37 41 38 49 39 42 40 43 41 47 42 50 43 44 44
REMARK SMILES IDX 45 45 48 46 46 47 72 48 73 49 81 50 74 51 75 52 79 53 82 54
REMARK SMILES IDX 76 55 77 56 80 57 78 58 57 59 58 60 66 61 59 62 60 63 64 64
REMARK SMILES IDX 67 65 61 66 62 67 65 68 63 69 5 70 6 71 7 72 8 73 9 74 16 75
REMARK SMILES IDX 17 76 29 77 18 78 19 79 28 80 30 81 20 82 21 83 22 84 27 85
REMARK SMILES IDX 23 86 26 87 24 88 25 89 10 90 11 91 15 92 12 93 14 94 13 95
REMARK H PARENT 87 22 55 33
REMARK Flexibility Score: inf
ROOT
ATOM      1  C   UNL A   1      46.128  23.477  24.621  1.00  0.00     0.275 C 
ENDROOT
BRANCH   1   2
ATOM      2  O   UNL A   1      44.877  24.135  24.333  1.00  0.00    -0.458 OA
BRANCH   2   3
ATOM      3  C   UNL A   1      43.684  24.072  24.968  1.00  0.00     0.338 C 
ATOM      4  O   UNL A   1      42.898  23.187  24.631  1.00  0.00    -0.246 OA
BRANCH   3   5
ATOM      5  C   UNL A   1      43.222  25.031  26.033  1.00  0.00     0.060 A 
ATOM      6  C   UNL A   1      43.663  26.346  26.224  1.00  0.00     0.016 A 
ATOM      7  C   UNL A   1      42.234  24.549  26.911  1.00  0.00     0.016 A 
ATOM      8  C   UNL A   1      43.076  27.184  27.181  1.00  0.00     0.010 A 
ATOM      9  C   UNL A   1      41.666  25.371  27.891  1.00  0.00     0.010 A 
ATOM     10  C   UNL A   1      42.072  26.703  28.021  1.00  0.00    -0.014 A 
BRANCH  10  11
ATOM     11  C   UNL A   1      41.599  27.519  29.163  1.00  0.00     0.031 A 
ATOM     12  C   UNL A   1      42.350  27.393  30.452  1.00  0.00     0.074 A 
ATOM     13  C   UNL A   1      40.548  28.352  29.058  1.00  0.00     0.049 A 
ATOM     14  N   UNL A   1      42.129  27.967  31.603  1.00  0.00    -0.248 NA
ATOM     15  C   UNL A   1      43.501  26.476  30.440  1.00  0.00     0.031 C 
ATOM     16  C   UNL A   1      39.768  28.567  27.845  1.00  0.00     0.029 A 
ATOM     17  N   UNL A   1      39.952  29.176  29.981  1.00  0.00    -0.354 N 
ATOM     18  C   UNL A   1      43.108  27.474  32.450  1.00  0.00     0.074 A 
ATOM     19  C   UNL A   1      43.879  26.505  31.705  1.00  0.00     0.031 C 
ATOM     20  C   UNL A   1      38.794  29.460  28.090  1.00  0.00     0.029 A 
ATOM     21  C   UNL A   1      38.872  29.872  29.488  1.00  0.00     0.049 A 
ATOM     22  H   UNL A   1      40.267  29.260  30.909  1.00  0.00     0.167 HD
ATOM     23  C   UNL A   1      43.362  27.822  33.732  1.00  0.00     0.037 A 
ATOM     24  C   UNL A   1      38.048  30.742  30.105  1.00  0.00     0.037 A 
ATOM     25  C   UNL A   1      42.585  28.784  34.459  1.00  0.00     0.049 A 
ATOM     26  C   UNL A   1      38.315  31.075  31.552  1.00  0.00     0.074 A 
ATOM     27  C   UNL A   1      42.738  29.210  35.764  1.00  0.00     0.029 A 
ATOM     28  N   UNL A   1      41.494  29.465  33.934  1.00  0.00    -0.354 N 
ATOM     29  N   UNL A   1      39.269  30.635  32.339  1.00  0.00    -0.248 NA
ATOM     30  C   UNL A   1      37.404  32.031  32.196  1.00  0.00     0.031 C 
ATOM     31  C   UNL A   1      41.711  30.118  36.043  1.00  0.00     0.029 A 
ATOM     32  C   UNL A   1      40.953  30.301  34.893  1.00  0.00     0.049 A 
ATOM     33  H   UNL A   1      41.157  29.368  33.014  1.00  0.00     0.167 HD
ATOM     34  C   UNL A   1      39.098  31.285  33.553  1.00  0.00     0.074 A 
ATOM     35  C   UNL A   1      37.951  32.157  33.398  1.00  0.00     0.031 C 
ATOM     36  C   UNL A   1      39.823  31.174  34.694  1.00  0.00     0.037 A 
BRANCH  23  37
ATOM     37  C   UNL A   1      44.505  27.117  34.399  1.00  0.00     0.064 A 
ATOM     38  C   UNL A   1      45.807  27.645  34.377  1.00  0.00     0.173 A 
ATOM     39  C   UNL A   1      44.316  25.857  34.984  1.00  0.00     0.173 A 
ATOM     40  F   UNL A   1      46.046  28.832  33.801  1.00  0.00    -0.203 F 
ATOM     41  C   UNL A   1      46.885  26.909  34.863  1.00  0.00     0.198 A 
ATOM     42  C   UNL A   1      45.391  25.142  35.501  1.00  0.00     0.198 A 
ATOM     43  F   UNL A   1      43.094  25.307  35.024  1.00  0.00    -0.203 F 
ATOM     44  F   UNL A   1      48.130  27.392  34.744  1.00  0.00    -0.200 F 
ATOM     45  C   UNL A   1      46.676  25.660  35.424  1.00  0.00     0.200 A 
ATOM     46  F   UNL A   1      45.189  23.935  36.047  1.00  0.00    -0.200 F 
ATOM     47  F   UNL A   1      47.717  24.943  35.872  1.00  0.00    -0.200 F 
ENDBRANCH  23  37
BRANCH  24  48
ATOM     48  C   UNL A   1      36.919  31.376  29.368  1.00  0.00     0.064 A 
ATOM     49  C   UNL A   1      36.939  32.742  29.046  1.00  0.00     0.173 A 
ATOM     50  C   UNL A   1      35.784  30.642  28.993  1.00  0.00     0.173 A 
ATOM     51  F   UNL A   1      37.992  33.497  29.394  1.00  0.00    -0.203 F 
ATOM     52  C   UNL A   1      35.862  33.351  28.403  1.00  0.00     0.198 A 
ATOM     53  C   UNL A   1      34.718  31.247  28.327  1.00  0.00     0.198 A 
ATOM     54  F   UNL A   1      35.712  29.333  29.270  1.00  0.00    -0.203 F 
ATOM     55  F   UNL A   1      35.891  34.666  28.150  1.00  0.00    -0.200 F 
ATOM     56  C   UNL A   1      34.753  32.602  28.041  1.00  0.00     0.200 A 
ATOM     57  F   UNL A   1      33.653  30.516  27.967  1.00  0.00    -0.200 F 
ATOM     58  F   UNL A   1      33.718  33.188  27.423  1.00  0.00    -0.200 F 
ENDBRANCH  24  48
BRANCH  36  59
ATOM     59  C   UNL A   1      39.437  32.054  35.846  1.00  0.00     0.064 A 
ATOM     60  C   UNL A   1      40.011  33.318  36.037  1.00  0.00     0.173 A 
ATOM     61  C   UNL A   1      38.415  31.655  36.722  1.00  0.00     0.173 A 
ATOM     62  F   UNL A   1      41.002  33.738  35.235  1.00  0.00    -0.203 F 
ATOM     63  C   UNL A   1      39.584  34.147  37.070  1.00  0.00     0.198 A 
ATOM     64  C   UNL A   1      37.968  32.498  37.733  1.00  0.00     0.198 A 
ATOM     65  F   UNL A   1      37.829  30.456  36.575  1.00  0.00    -0.203 F 
ATOM     66  F   UNL A   1      40.170  35.337  37.257  1.00  0.00    -0.200 F 
ATOM     67  C   UNL A   1      38.556  33.742  37.909  1.00  0.00     0.200 A 
ATOM     68  F   UNL A   1      36.963  32.113  38.530  1.00  0.00    -0.200 F 
ATOM     69  F   UNL A   1      38.132  34.551  38.890  1.00  0.00    -0.200 F 
ENDBRANCH  36  59
ENDBRANCH  10  11
ENDBRANCH   3   5
ENDBRANCH   2   3
ENDBRANCH   1   2
BRANCH   1  70
ATOM     70  C   UNL A   1      46.295  23.101  26.095  1.00  0.00     0.274 C 
BRANCH  70  71
ATOM     71  O   UNL A   1      47.194  24.012  26.741  1.00  0.00    -0.460 OA
BRANCH  71  72
ATOM     72  C   UNL A   1      46.717  24.802  27.744  1.00  0.00     0.334 C 
ATOM     73  O   UNL A   1      46.025  24.401  28.674  1.00  0.00    -0.249 OA
BRANCH  72  74
ATOM     74  C   UNL A   1      47.061  26.295  27.452  1.00  0.00     0.232 C 
BRANCH  74  75
ATOM     75  N   UNL A   1      47.688  26.858  28.679  1.00  0.00    -0.274 N 
ATOM     76  C   UNL A   1      47.213  28.120  29.018  1.00  0.00     0.267 C 
ATOM     77  C   UNL A   1      48.800  26.457  29.391  1.00  0.00     0.149 C 
ATOM     78  O   UNL A   1      46.477  28.797  28.314  1.00  0.00    -0.268 OA
ATOM     79  C   UNL A   1      47.801  28.601  30.290  1.00  0.00     0.081 C 
ATOM     80  S   UNL A   1      49.089  27.569  30.740  1.00  0.00    -0.054 SA
ATOM     81  S   UNL A   1      49.874  25.204  29.169  1.00  0.00    -0.052 S 
ATOM     82  C   UNL A   1      47.422  29.672  31.001  1.00  0.00     0.029 C 
BRANCH  82  83
ATOM     83  C   UNL A   1      46.289  30.541  30.670  1.00  0.00    -0.024 A 
ATOM     84  C   UNL A   1      46.513  31.747  29.999  1.00  0.00     0.009 A 
ATOM     85  C   UNL A   1      44.979  30.183  31.022  1.00  0.00     0.009 A 
ATOM     86  C   UNL A   1      45.437  32.570  29.654  1.00  0.00     0.016 A 
ATOM     87  C   UNL A   1      43.903  30.998  30.668  1.00  0.00     0.016 A 
ATOM     88  C   UNL A   1      44.137  32.186  29.983  1.00  0.00     0.018 A 
ATOM     89  Br  UNL A   1      42.681  33.285  29.491  1.00  0.00    -0.051 Br
ENDBRANCH  82  83
ENDBRANCH  74  75
BRANCH  74  90
ATOM     90  C   UNL A   1      47.772  26.471  26.121  1.00  0.00    -0.014 A 
ATOM     91  C   UNL A   1      49.114  26.117  25.918  1.00  0.00     0.006 A 
ATOM     92  C   UNL A   1      47.075  27.051  25.043  1.00  0.00     0.006 A 
ATOM     93  C   UNL A   1      49.726  26.332  24.679  1.00  0.00     0.000 A 
ATOM     94  C   UNL A   1      47.678  27.244  23.801  1.00  0.00     0.000 A 
ATOM     95  C   UNL A   1      49.010  26.888  23.621  1.00  0.00     0.000 A 
ENDBRANCH  74  90
ENDBRANCH  72  74
ENDBRANCH  71  72
ENDBRANCH  70  71
ENDBRANCH   1  70
TORSDOF 14
ENDMDL
