MODEL 1
REMARK VINA RESULT:     -11.1      0.000      0.000
REMARK SMILES O=C(OCCOC(=O)[C@H](Cc1cccc(Br)c1)CC1CCC1)c1ccc(-c2c3nc(c(-c4c(F)c(F)c(F)c(F)c4F)c4ccc([nH]4)c(-c4c(F)c(F)c(F)c(F)c4F)c4nc(c(-c5c(F)c(F)c(F)c(F)c5F)c5ccc2[nH]5)C=C4)C=C3)cc1
REMARK SMILES IDX 4 1 3 2 2 3 1 4 23 5 24 6 85 7 25 8 84 9 26 10 27 11 28 12
REMARK SMILES IDX 78 13 29 14 83 15 77 16 79 17 30 18 82 19 76 20 75 21 31 23
REMARK SMILES IDX 63 24 43 25 62 26 44 27 47 28 61 29 80 30 45 31 46 32 60 34
REMARK SMILES IDX 81 35 48 36 32 37 33 38 41 39 34 40 35 41 39 42 42 43 36 44
REMARK SMILES IDX 37 45 40 46 38 47 64 48 65 49 73 50 66 51 67 52 71 53 74 54
REMARK SMILES IDX 68 55 69 56 72 57 70 58 49 59 50 60 58 61 51 62 52 63 56 64
REMARK SMILES IDX 59 65 53 66 54 67 57 68 55 69 5 70 6 71 7 72 8 73 9 74 18 75
REMARK SMILES IDX 19 76 20 77 22 78 21 79 10 80 11 81 12 82 17 83 13 84 15 85
REMARK SMILES IDX 14 86 16 87
REMARK H PARENT 79 22 47 33
REMARK Flexibility Score: inf
ROOT
ATOM      1  C   UNL A   1      31.606  32.127  26.877  1.00  0.00     0.275 C 
ENDROOT
BRANCH   1   2
ATOM      2  O   UNL A   1      32.551  33.213  26.915  1.00  0.00    -0.458 OA
BRANCH   2   3
ATOM      3  C   UNL A   1      33.143  33.794  27.986  1.00  0.00     0.338 C 
ATOM      4  O   UNL A   1      32.699  34.857  28.417  1.00  0.00    -0.246 OA
BRANCH   3   5
ATOM      5  C   UNL A   1      34.411  33.282  28.582  1.00  0.00     0.060 A 
ATOM      6  C   UNL A   1      35.695  33.547  28.101  1.00  0.00     0.016 A 
ATOM      7  C   UNL A   1      34.284  32.456  29.710  1.00  0.00     0.016 A 
ATOM      8  C   UNL A   1      36.825  33.088  28.780  1.00  0.00     0.010 A 
ATOM      9  C   UNL A   1      35.409  32.001  30.401  1.00  0.00     0.010 A 
ATOM     10  C   UNL A   1      36.693  32.309  29.930  1.00  0.00    -0.014 A 
BRANCH  10  11
ATOM     11  C   UNL A   1      37.895  31.649  30.492  1.00  0.00     0.031 A 
ATOM     12  C   UNL A   1      38.358  32.094  31.849  1.00  0.00     0.074 A 
ATOM     13  C   UNL A   1      38.503  30.626  29.861  1.00  0.00     0.049 A 
ATOM     14  N   UNL A   1      39.298  31.591  32.605  1.00  0.00    -0.248 NA
ATOM     15  C   UNL A   1      37.642  33.230  32.453  1.00  0.00     0.031 C 
ATOM     16  C   UNL A   1      38.096  30.054  28.579  1.00  0.00     0.029 A 
ATOM     17  N   UNL A   1      39.614  29.899  30.205  1.00  0.00    -0.354 N 
ATOM     18  C   UNL A   1      39.234  32.304  33.792  1.00  0.00     0.074 A 
ATOM     19  C   UNL A   1      38.251  33.348  33.620  1.00  0.00     0.031 C 
ATOM     20  C   UNL A   1      38.988  29.119  28.207  1.00  0.00     0.029 A 
ATOM     21  C   UNL A   1      40.014  29.009  29.237  1.00  0.00     0.049 A 
ATOM     22  H   UNL A   1      40.081  30.004  31.066  1.00  0.00     0.167 HD
ATOM     23  C   UNL A   1      39.888  32.065  34.951  1.00  0.00     0.037 A 
ATOM     24  C   UNL A   1      41.092  28.204  29.191  1.00  0.00     0.037 A 
ATOM     25  C   UNL A   1      40.889  31.047  35.100  1.00  0.00     0.049 A 
ATOM     26  C   UNL A   1      41.947  28.090  30.423  1.00  0.00     0.074 A 
ATOM     27  C   UNL A   1      41.621  30.711  36.221  1.00  0.00     0.029 A 
ATOM     28  N   UNL A   1      41.316  30.217  34.072  1.00  0.00    -0.354 N 
ATOM     29  N   UNL A   1      41.821  28.706  31.574  1.00  0.00    -0.248 NA
ATOM     30  C   UNL A   1      43.050  27.123  30.376  1.00  0.00     0.031 C 
ATOM     31  C   UNL A   1      42.536  29.717  35.855  1.00  0.00     0.029 A 
ATOM     32  C   UNL A   1      42.329  29.389  34.523  1.00  0.00     0.049 A 
ATOM     33  H   UNL A   1      40.952  30.217  33.158  1.00  0.00     0.167 HD
ATOM     34  C   UNL A   1      42.770  28.144  32.414  1.00  0.00     0.074 A 
ATOM     35  C   UNL A   1      43.484  27.156  31.629  1.00  0.00     0.031 C 
ATOM     36  C   UNL A   1      43.007  28.398  33.726  1.00  0.00     0.037 A 
BRANCH  23  37
ATOM     37  C   UNL A   1      39.525  32.935  36.116  1.00  0.00     0.064 A 
ATOM     38  C   UNL A   1      40.224  34.125  36.387  1.00  0.00     0.173 A 
ATOM     39  C   UNL A   1      38.513  32.551  37.005  1.00  0.00     0.173 A 
ATOM     40  F   UNL A   1      41.221  34.521  35.580  1.00  0.00    -0.203 F 
ATOM     41  C   UNL A   1      39.951  34.872  37.528  1.00  0.00     0.198 A 
ATOM     42  C   UNL A   1      38.223  33.319  38.130  1.00  0.00     0.198 A 
ATOM     43  F   UNL A   1      37.822  31.422  36.796  1.00  0.00    -0.203 F 
ATOM     44  F   UNL A   1      40.681  35.962  37.804  1.00  0.00    -0.200 F 
ATOM     45  C   UNL A   1      38.949  34.470  38.397  1.00  0.00     0.200 A 
ATOM     46  F   UNL A   1      37.253  32.931  38.970  1.00  0.00    -0.200 F 
ATOM     47  F   UNL A   1      38.696  35.182  39.505  1.00  0.00    -0.200 F 
ENDBRANCH  23  37
BRANCH  24  48
ATOM     48  C   UNL A   1      41.397  27.414  27.968  1.00  0.00     0.064 A 
ATOM     49  C   UNL A   1      40.926  26.104  27.803  1.00  0.00     0.173 A 
ATOM     50  C   UNL A   1      42.207  27.945  26.951  1.00  0.00     0.173 A 
ATOM     51  F   UNL A   1      40.167  25.543  28.756  1.00  0.00    -0.203 F 
ATOM     52  C   UNL A   1      41.274  25.347  26.686  1.00  0.00     0.198 A 
ATOM     53  C   UNL A   1      42.535  27.195  25.822  1.00  0.00     0.198 A 
ATOM     54  F   UNL A   1      42.692  29.189  27.060  1.00  0.00    -0.203 F 
ATOM     55  F   UNL A   1      40.852  24.079  26.580  1.00  0.00    -0.200 F 
ATOM     56  C   UNL A   1      42.077  25.893  25.695  1.00  0.00     0.200 A 
ATOM     57  F   UNL A   1      43.308  27.728  24.866  1.00  0.00    -0.200 F 
ATOM     58  F   UNL A   1      42.418  25.161  24.625  1.00  0.00    -0.200 F 
ENDBRANCH  24  48
BRANCH  36  59
ATOM     59  C   UNL A   1      44.019  27.533  34.417  1.00  0.00     0.064 A 
ATOM     60  C   UNL A   1      45.361  27.915  34.547  1.00  0.00     0.173 A 
ATOM     61  C   UNL A   1      43.620  26.316  34.992  1.00  0.00     0.173 A 
ATOM     62  F   UNL A   1      45.794  29.061  33.999  1.00  0.00    -0.203 F 
ATOM     63  C   UNL A   1      46.275  27.094  35.200  1.00  0.00     0.198 A 
ATOM     64  C   UNL A   1      44.528  25.516  35.677  1.00  0.00     0.198 A 
ATOM     65  F   UNL A   1      42.345  25.910  34.900  1.00  0.00    -0.203 F 
ATOM     66  F   UNL A   1      47.566  27.449  35.263  1.00  0.00    -0.200 F 
ATOM     67  C   UNL A   1      45.856  25.901  35.772  1.00  0.00     0.200 A 
ATOM     68  F   UNL A   1      44.117  24.373  36.242  1.00  0.00    -0.200 F 
ATOM     69  F   UNL A   1      46.736  25.117  36.409  1.00  0.00    -0.200 F 
ENDBRANCH  36  59
ENDBRANCH  10  11
ENDBRANCH   3   5
ENDBRANCH   2   3
ENDBRANCH   1   2
BRANCH   1  70
ATOM     70  C   UNL A   1      32.208  30.744  27.126  1.00  0.00     0.274 C 
BRANCH  70  71
ATOM     71  O   UNL A   1      31.882  29.793  26.096  1.00  0.00    -0.462 OA
BRANCH  71  72
ATOM     72  C   UNL A   1      31.807  28.488  26.490  1.00  0.00     0.309 C 
ATOM     73  O   UNL A   1      31.340  28.122  27.563  1.00  0.00    -0.252 OA
BRANCH  72  74
ATOM     74  C   UNL A   1      32.406  27.548  25.442  1.00  0.00     0.104 C 
BRANCH  74  75
ATOM     75  C   UNL A   1      32.860  28.381  24.227  1.00  0.00     0.019 C 
BRANCH  75  76
ATOM     76  C   UNL A   1      32.421  27.809  22.874  1.00  0.00    -0.010 C 
ATOM     77  C   UNL A   1      33.278  26.728  22.164  1.00  0.00     0.003 C 
ATOM     78  C   UNL A   1      31.305  26.729  22.970  1.00  0.00     0.003 C 
ATOM     79  C   UNL A   1      31.975  26.008  21.787  1.00  0.00     0.001 C 
ENDBRANCH  75  76
ENDBRANCH  74  75
BRANCH  74  80
ATOM     80  C   UNL A   1      33.517  26.687  26.089  1.00  0.00     0.050 C 
BRANCH  80  81
ATOM     81  C   UNL A   1      33.612  25.292  25.500  1.00  0.00    -0.046 A 
ATOM     82  C   UNL A   1      32.505  24.432  25.533  1.00  0.00     0.004 A 
ATOM     83  C   UNL A   1      34.796  24.836  24.905  1.00  0.00     0.019 A 
ATOM     84  C   UNL A   1      32.582  23.134  25.024  1.00  0.00     0.001 A 
ATOM     85  C   UNL A   1      34.856  23.549  24.360  1.00  0.00     0.018 A 
ATOM     86  C   UNL A   1      33.760  22.692  24.431  1.00  0.00     0.016 A 
ATOM     87  Br  UNL A   1      36.434  22.965  23.497  1.00  0.00    -0.051 Br
ENDBRANCH  80  81
ENDBRANCH  74  80
ENDBRANCH  72  74
ENDBRANCH  71  72
ENDBRANCH  70  71
ENDBRANCH   1  70
TORSDOF 15
ENDMDL
MODEL 2
REMARK VINA RESULT:     -11.0      3.994      6.414
REMARK SMILES O=C(OCCOC(=O)[C@H](Cc1cccc(Br)c1)CC1CCC1)c1ccc(-c2c3nc(c(-c4c(F)c(F)c(F)c(F)c4F)c4ccc([nH]4)c(-c4c(F)c(F)c(F)c(F)c4F)c4nc(c(-c5c(F)c(F)c(F)c(F)c5F)c5ccc2[nH]5)C=C4)C=C3)cc1
REMARK SMILES IDX 4 1 3 2 2 3 1 4 23 5 24 6 85 7 25 8 84 9 26 10 27 11 28 12
REMARK SMILES IDX 78 13 29 14 83 15 77 16 79 17 30 18 82 19 76 20 75 21 31 23
REMARK SMILES IDX 63 24 43 25 62 26 44 27 47 28 61 29 80 30 45 31 46 32 60 34
REMARK SMILES IDX 81 35 48 36 32 37 33 38 41 39 34 40 35 41 39 42 42 43 36 44
REMARK SMILES IDX 37 45 40 46 38 47 64 48 65 49 73 50 66 51 67 52 71 53 74 54
REMARK SMILES IDX 68 55 69 56 72 57 70 58 49 59 50 60 58 61 51 62 52 63 56 64
REMARK SMILES IDX 59 65 53 66 54 67 57 68 55 69 5 70 6 71 7 72 8 73 9 74 18 75
REMARK SMILES IDX 19 76 20 77 22 78 21 79 10 80 11 81 12 82 17 83 13 84 15 85
REMARK SMILES IDX 14 86 16 87
REMARK H PARENT 79 22 47 33
REMARK Flexibility Score: inf
ROOT
ATOM      1  C   UNL A   1      33.467  33.226  27.882  1.00  0.00     0.275 C 
ENDROOT
BRANCH   1   2
ATOM      2  O   UNL A   1      34.027  32.074  28.540  1.00  0.00    -0.458 OA
BRANCH   2   3
ATOM      3  C   UNL A   1      34.499  30.925  27.999  1.00  0.00     0.338 C 
ATOM      4  O   UNL A   1      33.780  30.275  27.243  1.00  0.00    -0.246 OA
BRANCH   3   5
ATOM      5  C   UNL A   1      35.806  30.326  28.397  1.00  0.00     0.060 A 
ATOM      6  C   UNL A   1      36.096  29.778  29.649  1.00  0.00     0.016 A 
ATOM      7  C   UNL A   1      36.820  30.335  27.426  1.00  0.00     0.016 A 
ATOM      8  C   UNL A   1      37.326  29.165  29.896  1.00  0.00     0.010 A 
ATOM      9  C   UNL A   1      38.050  29.714  27.662  1.00  0.00     0.010 A 
ATOM     10  C   UNL A   1      38.312  29.131  28.910  1.00  0.00    -0.014 A 
BRANCH  10  11
ATOM     11  C   UNL A   1      39.677  28.684  29.274  1.00  0.00     0.031 A 
ATOM     12  C   UNL A   1      40.481  29.576  30.174  1.00  0.00     0.074 A 
ATOM     13  C   UNL A   1      40.155  27.483  28.894  1.00  0.00     0.049 A 
ATOM     14  N   UNL A   1      41.641  29.353  30.734  1.00  0.00    -0.248 NA
ATOM     15  C   UNL A   1      39.883  30.875  30.524  1.00  0.00     0.031 C 
ATOM     16  C   UNL A   1      39.438  26.497  28.086  1.00  0.00     0.029 A 
ATOM     17  N   UNL A   1      41.375  26.896  29.116  1.00  0.00    -0.354 N 
ATOM     18  C   UNL A   1      41.870  30.450  31.551  1.00  0.00     0.074 A 
ATOM     19  C   UNL A   1      40.797  31.390  31.328  1.00  0.00     0.031 C 
ATOM     20  C   UNL A   1      40.255  25.464  27.818  1.00  0.00     0.029 A 
ATOM     21  C   UNL A   1      41.544  25.704  28.454  1.00  0.00     0.049 A 
ATOM     22  H   UNL A   1      42.065  27.292  29.698  1.00  0.00     0.167 HD
ATOM     23  C   UNL A   1      42.855  30.628  32.460  1.00  0.00     0.037 A 
ATOM     24  C   UNL A   1      42.624  24.904  28.370  1.00  0.00     0.037 A 
ATOM     25  C   UNL A   1      43.936  29.703  32.647  1.00  0.00     0.049 A 
ATOM     26  C   UNL A   1      43.811  25.219  29.239  1.00  0.00     0.074 A 
ATOM     27  C   UNL A   1      44.992  29.774  33.535  1.00  0.00     0.029 A 
ATOM     28  N   UNL A   1      44.109  28.543  31.903  1.00  0.00    -0.354 N 
ATOM     29  N   UNL A   1      43.979  26.214  30.076  1.00  0.00    -0.248 NA
ATOM     30  C   UNL A   1      44.928  24.267  29.204  1.00  0.00     0.031 C 
ATOM     31  C   UNL A   1      45.838  28.687  33.284  1.00  0.00     0.029 A 
ATOM     32  C   UNL A   1      45.276  27.905  32.286  1.00  0.00     0.049 A 
ATOM     33  H   UNL A   1      43.493  28.222  31.206  1.00  0.00     0.167 HD
ATOM     34  C   UNL A   1      45.177  25.967  30.729  1.00  0.00     0.074 A 
ATOM     35  C   UNL A   1      45.708  24.740  30.167  1.00  0.00     0.031 C 
ATOM     36  C   UNL A   1      45.768  26.672  31.726  1.00  0.00     0.037 A 
BRANCH  23  37
ATOM     37  C   UNL A   1      42.781  31.871  33.292  1.00  0.00     0.064 A 
ATOM     38  C   UNL A   1      43.356  33.078  32.858  1.00  0.00     0.173 A 
ATOM     39  C   UNL A   1      42.183  31.848  34.559  1.00  0.00     0.173 A 
ATOM     40  F   UNL A   1      43.965  33.144  31.663  1.00  0.00    -0.203 F 
ATOM     41  C   UNL A   1      43.375  34.200  33.680  1.00  0.00     0.198 A 
ATOM     42  C   UNL A   1      42.177  32.982  35.367  1.00  0.00     0.198 A 
ATOM     43  F   UNL A   1      41.626  30.720  35.023  1.00  0.00    -0.203 F 
ATOM     44  F   UNL A   1      43.996  35.317  33.274  1.00  0.00    -0.200 F 
ATOM     45  C   UNL A   1      42.783  34.152  34.933  1.00  0.00     0.200 A 
ATOM     46  F   UNL A   1      41.603  32.936  36.577  1.00  0.00    -0.200 F 
ATOM     47  F   UNL A   1      42.814  35.229  35.731  1.00  0.00    -0.200 F 
ENDBRANCH  23  37
BRANCH  24  48
ATOM     48  C   UNL A   1      42.619  23.715  27.476  1.00  0.00     0.064 A 
ATOM     49  C   UNL A   1      42.212  22.455  27.932  1.00  0.00     0.173 A 
ATOM     50  C   UNL A   1      43.067  23.811  26.148  1.00  0.00     0.173 A 
ATOM     51  F   UNL A   1      41.798  22.306  29.199  1.00  0.00    -0.203 F 
ATOM     52  C   UNL A   1      42.277  21.332  27.108  1.00  0.00     0.198 A 
ATOM     53  C   UNL A   1      43.108  22.693  25.316  1.00  0.00     0.198 A 
ATOM     54  F   UNL A   1      43.477  24.991  25.661  1.00  0.00    -0.203 F 
ATOM     55  F   UNL A   1      41.930  20.130  27.588  1.00  0.00    -0.200 F 
ATOM     56  C   UNL A   1      42.723  21.452  25.800  1.00  0.00     0.200 A 
ATOM     57  F   UNL A   1      43.537  22.814  24.053  1.00  0.00    -0.200 F 
ATOM     58  F   UNL A   1      42.793  20.371  25.010  1.00  0.00    -0.200 F 
ENDBRANCH  24  48
BRANCH  36  59
ATOM     59  C   UNL A   1      47.008  26.086  32.335  1.00  0.00     0.064 A 
ATOM     60  C   UNL A   1      48.290  26.423  31.884  1.00  0.00     0.173 A 
ATOM     61  C   UNL A   1      46.901  25.198  33.417  1.00  0.00     0.173 A 
ATOM     62  F   UNL A   1      48.444  27.254  30.841  1.00  0.00    -0.203 F 
ATOM     63  C   UNL A   1      49.422  25.868  32.474  1.00  0.00     0.198 A 
ATOM     64  C   UNL A   1      48.034  24.675  34.029  1.00  0.00     0.198 A 
ATOM     65  F   UNL A   1      45.694  24.849  33.890  1.00  0.00    -0.203 F 
ATOM     66  F   UNL A   1      50.638  26.158  31.991  1.00  0.00    -0.200 F 
ATOM     67  C   UNL A   1      49.293  25.003  33.551  1.00  0.00     0.200 A 
ATOM     68  F   UNL A   1      47.907  23.853  35.080  1.00  0.00    -0.200 F 
ATOM     69  F   UNL A   1      50.384  24.477  34.124  1.00  0.00    -0.200 F 
ENDBRANCH  36  59
ENDBRANCH  10  11
ENDBRANCH   3   5
ENDBRANCH   2   3
ENDBRANCH   1   2
BRANCH   1  70
ATOM     70  C   UNL A   1      33.344  34.471  28.761  1.00  0.00     0.274 C 
BRANCH  70  71
ATOM     71  O   UNL A   1      34.474  34.662  29.630  1.00  0.00    -0.462 OA
BRANCH  71  72
ATOM     72  C   UNL A   1      34.301  34.280  30.930  1.00  0.00     0.309 C 
ATOM     73  O   UNL A   1      33.336  34.600  31.614  1.00  0.00    -0.252 OA
BRANCH  72  74
ATOM     74  C   UNL A   1      35.475  33.436  31.429  1.00  0.00     0.104 C 
BRANCH  74  75
ATOM     75  C   UNL A   1      36.732  34.324  31.507  1.00  0.00     0.019 C 
BRANCH  75  76
ATOM     76  C   UNL A   1      37.907  33.825  30.658  1.00  0.00    -0.010 C 
ATOM     77  C   UNL A   1      37.724  33.563  29.139  1.00  0.00     0.003 C 
ATOM     78  C   UNL A   1      38.917  34.936  30.250  1.00  0.00     0.003 C 
ATOM     79  C   UNL A   1      39.100  34.204  28.910  1.00  0.00     0.001 C 
ENDBRANCH  75  76
ENDBRANCH  74  75
BRANCH  74  80
ATOM     80  C   UNL A   1      35.089  32.740  32.756  1.00  0.00     0.050 C 
BRANCH  80  81
ATOM     81  C   UNL A   1      36.290  32.281  33.563  1.00  0.00    -0.046 A 
ATOM     82  C   UNL A   1      37.061  31.194  33.130  1.00  0.00     0.004 A 
ATOM     83  C   UNL A   1      36.660  32.936  34.744  1.00  0.00     0.019 A 
ATOM     84  C   UNL A   1      38.151  30.737  33.874  1.00  0.00     0.001 A 
ATOM     85  C   UNL A   1      37.778  32.502  35.466  1.00  0.00     0.018 A 
ATOM     86  C   UNL A   1      38.514  31.397  35.045  1.00  0.00     0.016 A 
ATOM     87  Br  UNL A   1      38.314  33.432  37.023  1.00  0.00    -0.051 Br
ENDBRANCH  80  81
ENDBRANCH  74  80
ENDBRANCH  72  74
ENDBRANCH  71  72
ENDBRANCH  70  71
ENDBRANCH   1  70
TORSDOF 15
ENDMDL
MODEL 3
REMARK VINA RESULT:     -11.0      3.741      6.460
REMARK SMILES O=C(OCCOC(=O)[C@H](Cc1cccc(Br)c1)CC1CCC1)c1ccc(-c2c3nc(c(-c4c(F)c(F)c(F)c(F)c4F)c4ccc([nH]4)c(-c4c(F)c(F)c(F)c(F)c4F)c4nc(c(-c5c(F)c(F)c(F)c(F)c5F)c5ccc2[nH]5)C=C4)C=C3)cc1
REMARK SMILES IDX 4 1 3 2 2 3 1 4 23 5 24 6 85 7 25 8 84 9 26 10 27 11 28 12
REMARK SMILES IDX 78 13 29 14 83 15 77 16 79 17 30 18 82 19 76 20 75 21 31 23
REMARK SMILES IDX 63 24 43 25 62 26 44 27 47 28 61 29 80 30 45 31 46 32 60 34
REMARK SMILES IDX 81 35 48 36 32 37 33 38 41 39 34 40 35 41 39 42 42 43 36 44
REMARK SMILES IDX 37 45 40 46 38 47 64 48 65 49 73 50 66 51 67 52 71 53 74 54
REMARK SMILES IDX 68 55 69 56 72 57 70 58 49 59 50 60 58 61 51 62 52 63 56 64
REMARK SMILES IDX 59 65 53 66 54 67 57 68 55 69 5 70 6 71 7 72 8 73 9 74 18 75
REMARK SMILES IDX 19 76 20 77 22 78 21 79 10 80 11 81 12 82 17 83 13 84 15 85
REMARK SMILES IDX 14 86 16 87
REMARK H PARENT 79 22 47 33
REMARK Flexibility Score: inf
ROOT
ATOM      1  C   UNL A   1      33.473  33.367  28.004  1.00  0.00     0.275 C 
ENDROOT
BRANCH   1   2
ATOM      2  O   UNL A   1      34.041  32.157  28.540  1.00  0.00    -0.458 OA
BRANCH   2   3
ATOM      3  C   UNL A   1      34.612  31.117  27.886  1.00  0.00     0.338 C 
ATOM      4  O   UNL A   1      34.024  30.608  26.934  1.00  0.00    -0.246 OA
BRANCH   3   5
ATOM      5  C   UNL A   1      35.862  30.455  28.361  1.00  0.00     0.060 A 
ATOM      6  C   UNL A   1      35.975  29.676  29.515  1.00  0.00     0.016 A 
ATOM      7  C   UNL A   1      37.011  30.655  27.581  1.00  0.00     0.016 A 
ATOM      8  C   UNL A   1      37.172  29.030  29.830  1.00  0.00     0.010 A 
ATOM      9  C   UNL A   1      38.210  30.004  27.883  1.00  0.00     0.010 A 
ATOM     10  C   UNL A   1      38.298  29.191  29.022  1.00  0.00    -0.014 A 
BRANCH  10  11
ATOM     11  C   UNL A   1      39.605  28.685  29.503  1.00  0.00     0.031 A 
ATOM     12  C   UNL A   1      40.286  29.454  30.597  1.00  0.00     0.074 A 
ATOM     13  C   UNL A   1      40.130  27.531  29.048  1.00  0.00     0.049 A 
ATOM     14  N   UNL A   1      41.364  29.152  31.271  1.00  0.00    -0.248 NA
ATOM     15  C   UNL A   1      39.646  30.712  31.018  1.00  0.00     0.031 C 
ATOM     16  C   UNL A   1      39.523  26.656  28.046  1.00  0.00     0.029 A 
ATOM     17  N   UNL A   1      41.312  26.905  29.355  1.00  0.00    -0.354 N 
ATOM     18  C   UNL A   1      41.485  30.142  32.233  1.00  0.00     0.074 A 
ATOM     19  C   UNL A   1      40.448  31.117  31.987  1.00  0.00     0.031 C 
ATOM     20  C   UNL A   1      40.370  25.649  27.764  1.00  0.00     0.029 A 
ATOM     21  C   UNL A   1      41.566  25.796  28.584  1.00  0.00     0.049 A 
ATOM     22  H   UNL A   1      41.920  27.220  30.062  1.00  0.00     0.167 HD
ATOM     23  C   UNL A   1      42.344  30.199  33.276  1.00  0.00     0.037 A 
ATOM     24  C   UNL A   1      42.649  24.996  28.545  1.00  0.00     0.037 A 
ATOM     25  C   UNL A   1      43.393  29.244  33.490  1.00  0.00     0.049 A 
ATOM     26  C   UNL A   1      43.713  25.190  29.590  1.00  0.00     0.074 A 
ATOM     27  C   UNL A   1      44.326  29.196  34.507  1.00  0.00     0.029 A 
ATOM     28  N   UNL A   1      43.661  28.177  32.643  1.00  0.00    -0.354 N 
ATOM     29  N   UNL A   1      43.771  26.079  30.554  1.00  0.00    -0.248 NA
ATOM     30  C   UNL A   1      44.826  24.234  29.587  1.00  0.00     0.031 C 
ATOM     31  C   UNL A   1      45.198  28.134  34.241  1.00  0.00     0.029 A 
ATOM     32  C   UNL A   1      44.770  27.482  33.094  1.00  0.00     0.049 A 
ATOM     33  H   UNL A   1      43.141  27.948  31.839  1.00  0.00     0.167 HD
ATOM     34  C   UNL A   1      44.875  25.740  31.320  1.00  0.00     0.074 A 
ATOM     35  C   UNL A   1      45.475  24.580  30.691  1.00  0.00     0.031 C 
ATOM     36  C   UNL A   1      45.332  26.316  32.461  1.00  0.00     0.037 A 
BRANCH  23  37
ATOM     37  C   UNL A   1      42.161  31.338  34.232  1.00  0.00     0.064 A 
ATOM     38  C   UNL A   1      42.933  32.509  34.131  1.00  0.00     0.173 A 
ATOM     39  C   UNL A   1      41.252  31.241  35.293  1.00  0.00     0.173 A 
ATOM     40  F   UNL A   1      43.838  32.639  33.148  1.00  0.00    -0.203 F 
ATOM     41  C   UNL A   1      42.832  33.518  35.084  1.00  0.00     0.198 A 
ATOM     42  C   UNL A   1      41.132  32.266  36.227  1.00  0.00     0.198 A 
ATOM     43  F   UNL A   1      40.498  30.142  35.438  1.00  0.00    -0.203 F 
ATOM     44  F   UNL A   1      43.632  34.591  35.009  1.00  0.00    -0.200 F 
ATOM     45  C   UNL A   1      41.930  33.397  36.129  1.00  0.00     0.200 A 
ATOM     46  F   UNL A   1      40.259  32.150  37.237  1.00  0.00    -0.200 F 
ATOM     47  F   UNL A   1      41.843  34.363  37.055  1.00  0.00    -0.200 F 
ENDBRANCH  23  37
BRANCH  24  48
ATOM     48  C   UNL A   1      42.761  23.920  27.525  1.00  0.00     0.064 A 
ATOM     49  C   UNL A   1      42.350  22.608  27.793  1.00  0.00     0.173 A 
ATOM     50  C   UNL A   1      43.325  24.178  26.265  1.00  0.00     0.173 A 
ATOM     51  F   UNL A   1      41.825  22.304  28.990  1.00  0.00    -0.203 F 
ATOM     52  C   UNL A   1      42.523  21.590  26.855  1.00  0.00     0.198 A 
ATOM     53  C   UNL A   1      43.476  23.165  25.319  1.00  0.00     0.198 A 
ATOM     54  F   UNL A   1      43.745  25.413  25.958  1.00  0.00    -0.203 F 
ATOM     55  F   UNL A   1      42.167  20.334  27.159  1.00  0.00    -0.200 F 
ATOM     56  C   UNL A   1      43.083  21.870  25.618  1.00  0.00     0.200 A 
ATOM     57  F   UNL A   1      44.016  23.441  24.123  1.00  0.00    -0.200 F 
ATOM     58  F   UNL A   1      43.257  20.890  24.720  1.00  0.00    -0.200 F 
ENDBRANCH  24  48
BRANCH  36  59
ATOM     59  C   UNL A   1      46.484  25.646  33.150  1.00  0.00     0.064 A 
ATOM     60  C   UNL A   1      46.296  24.636  34.103  1.00  0.00     0.173 A 
ATOM     61  C   UNL A   1      47.800  26.002  32.816  1.00  0.00     0.173 A 
ATOM     62  F   UNL A   1      45.057  24.273  34.469  1.00  0.00    -0.203 F 
ATOM     63  C   UNL A   1      47.386  24.028  34.721  1.00  0.00     0.198 A 
ATOM     64  C   UNL A   1      48.886  25.366  33.406  1.00  0.00     0.198 A 
ATOM     65  F   UNL A   1      48.031  26.959  31.904  1.00  0.00    -0.203 F 
ATOM     66  F   UNL A   1      47.185  23.106  35.672  1.00  0.00    -0.200 F 
ATOM     67  C   UNL A   1      48.678  24.387  34.366  1.00  0.00     0.200 A 
ATOM     68  F   UNL A   1      50.133  25.703  33.049  1.00  0.00    -0.200 F 
ATOM     69  F   UNL A   1      49.725  23.794  34.955  1.00  0.00    -0.200 F 
ENDBRANCH  36  59
ENDBRANCH  10  11
ENDBRANCH   3   5
ENDBRANCH   2   3
ENDBRANCH   1   2
BRANCH   1  70
ATOM     70  C   UNL A   1      33.604  34.592  28.908  1.00  0.00     0.274 C 
BRANCH  70  71
ATOM     71  O   UNL A   1      34.847  34.631  29.632  1.00  0.00    -0.462 OA
BRANCH  71  72
ATOM     72  C   UNL A   1      34.811  34.146  30.908  1.00  0.00     0.309 C 
ATOM     73  O   UNL A   1      33.808  34.146  31.612  1.00  0.00    -0.252 OA
BRANCH  72  74
ATOM     74  C   UNL A   1      36.183  33.636  31.354  1.00  0.00     0.104 C 
BRANCH  74  75
ATOM     75  C   UNL A   1      36.044  32.175  31.822  1.00  0.00     0.019 C 
BRANCH  75  76
ATOM     76  C   UNL A   1      36.205  31.982  33.334  1.00  0.00    -0.010 C 
ATOM     77  C   UNL A   1      37.577  31.567  33.931  1.00  0.00     0.003 C 
ATOM     78  C   UNL A   1      36.362  33.307  34.134  1.00  0.00     0.003 C 
ATOM     79  C   UNL A   1      37.330  32.565  35.072  1.00  0.00     0.001 C 
ENDBRANCH  75  76
ENDBRANCH  74  75
BRANCH  74  80
ATOM     80  C   UNL A   1      37.214  33.859  30.222  1.00  0.00     0.050 C 
BRANCH  80  81
ATOM     81  C   UNL A   1      38.614  34.140  30.735  1.00  0.00    -0.046 A 
ATOM     82  C   UNL A   1      38.843  34.329  32.105  1.00  0.00     0.004 A 
ATOM     83  C   UNL A   1      39.706  34.205  29.860  1.00  0.00     0.019 A 
ATOM     84  C   UNL A   1      40.119  34.619  32.593  1.00  0.00     0.001 A 
ATOM     85  C   UNL A   1      40.990  34.455  30.357  1.00  0.00     0.018 A 
ATOM     86  C   UNL A   1      41.198  34.677  31.717  1.00  0.00     0.016 A 
ATOM     87  Br  UNL A   1      42.470  34.473  29.180  1.00  0.00    -0.051 Br
ENDBRANCH  80  81
ENDBRANCH  74  80
ENDBRANCH  72  74
ENDBRANCH  71  72
ENDBRANCH  70  71
ENDBRANCH   1  70
TORSDOF 15
ENDMDL
