MODEL 1
REMARK VINA RESULT:     -11.8      0.000      0.000
REMARK SMILES O=C(OCCOC(=O)[C@@H](CCO)NC(=O)c1c(F)ccc([N+](=O)[O-])c1F)c1ccc(-c2c3nc(c(-c4c(F)c(F)c(F)c(F)c4F)c4ccc([nH]4)c(-c4c(F)c(F)c(F)c(F)c4F)c4nc(c(-c5c(F)c(F)c(F)c(F)c5F)c5ccc2[nH]5)C=C4)C=C3)cc1
REMARK SMILES IDX 5 1 4 2 3 3 2 4 1 5 27 6 28 7 89 8 29 9 88 10 30 11 31 12
REMARK SMILES IDX 32 13 82 14 33 15 87 16 81 17 83 18 34 19 86 20 80 21 79 22
REMARK SMILES IDX 35 24 67 25 47 26 66 27 48 28 51 29 65 30 84 31 49 32 50 33
REMARK SMILES IDX 64 35 85 36 52 37 36 38 37 39 45 40 38 41 39 42 43 43 46 44
REMARK SMILES IDX 40 45 41 46 44 47 42 48 68 49 69 50 77 51 70 52 71 53 75 54
REMARK SMILES IDX 78 55 72 56 73 57 76 58 74 59 53 60 54 61 62 62 55 63 56 64
REMARK SMILES IDX 60 65 63 66 57 67 58 68 61 69 59 70 6 71 7 72 8 73 9 74
REMARK SMILES IDX 10 75 11 76 12 77 13 79 14 80 15 82 16 83 17 84 25 85 18 86
REMARK SMILES IDX 19 87 21 88 26 89 20 90 22 91 23 92 24 93
REMARK H PARENT 83 23 51 34 12 78 13 81
REMARK Flexibility Score: inf
ROOT
ATOM      1  C   UNL A   1      31.706  29.560  26.379  1.00  0.00     0.274 C 
ENDROOT
BRANCH   1   2
ATOM      2  C   UNL A   1      32.598  30.666  26.985  1.00  0.00     0.275 C 
BRANCH   2   3
ATOM      3  O   UNL A   1      33.739  30.118  27.647  1.00  0.00    -0.458 OA
BRANCH   3   4
ATOM      4  C   UNL A   1      34.577  30.813  28.430  1.00  0.00     0.338 C 
ATOM      5  O   UNL A   1      34.289  31.942  28.817  1.00  0.00    -0.246 OA
BRANCH   4   6
ATOM      6  C   UNL A   1      35.926  30.320  28.801  1.00  0.00     0.060 A 
ATOM      7  C   UNL A   1      36.526  29.582  30.366  1.00  0.00     0.016 A 
ATOM      8  C   UNL A   1      37.068  30.393  27.405  1.00  0.00     0.016 A 
ATOM      9  C   UNL A   1      38.155  28.797  30.451  1.00  0.00     0.010 A 
ATOM     10  C   UNL A   1      38.690  29.632  27.513  1.00  0.00     0.010 A 
ATOM     11  C   UNL A   1      39.270  28.914  29.041  1.00  0.00    -0.014 A 
BRANCH  11  12
ATOM     12  C   UNL A   1      40.711  28.594  29.220  1.00  0.00     0.031 A 
ATOM     13  C   UNL A   1      41.606  29.546  29.985  1.00  0.00     0.074 A 
ATOM     14  C   UNL A   1      41.163  27.400  28.794  1.00  0.00     0.049 A 
ATOM     15  N   UNL A   1      42.853  29.396  30.354  1.00  0.00    -0.248 NA
ATOM     16  C   UNL A   1      41.031  30.816  30.452  1.00  0.00     0.031 C 
ATOM     17  C   UNL A   1      40.361  26.402  28.089  1.00  0.00     0.029 A 
ATOM     18  N   UNL A   1      42.397  26.810  28.886  1.00  0.00    -0.354 N 
ATOM     19  C   UNL A   1      43.170  30.525  31.108  1.00  0.00     0.074 A 
ATOM     20  C   UNL A   1      42.004  31.355  31.162  1.00  0.00     0.031 C 
ATOM     21  C   UNL A   1      41.105  25.316  27.836  1.00  0.00     0.029 A 
ATOM     22  C   UNL A   1      42.462  25.571  28.289  1.00  0.00     0.049 A 
ATOM     23  H   UNL A   1      43.163  27.233  29.337  1.00  0.00     0.167 HD
ATOM     24  C   UNL A   1      44.345  30.868  31.678  1.00  0.00     0.037 A 
ATOM     25  C   UNL A   1      43.517  24.757  28.095  1.00  0.00     0.037 A 
ATOM     26  C   UNL A   1      45.532  30.091  31.504  1.00  0.00     0.049 A 
ATOM     27  C   UNL A   1      44.845  25.227  28.621  1.00  0.00     0.074 A 
ATOM     28  C   UNL A   1      46.818  30.371  31.921  1.00  0.00     0.029 A 
ATOM     29  N   UNL A   1      45.572  28.885  30.820  1.00  0.00    -0.354 N 
ATOM     30  N   UNL A   1      45.124  26.311  29.310  1.00  0.00    -0.248 NA
ATOM     31  C   UNL A   1      46.006  24.380  28.335  1.00  0.00     0.031 C 
ATOM     32  C   UNL A   1      47.648  29.362  31.429  1.00  0.00     0.029 A 
ATOM     33  C   UNL A   1      46.868  28.416  30.779  1.00  0.00     0.049 A 
ATOM     34  H   UNL A   1      44.792  28.433  30.423  1.00  0.00     0.167 HD
ATOM     35  C   UNL A   1      46.488  26.273  29.549  1.00  0.00     0.074 A 
ATOM     36  C   UNL A   1      46.970  25.035  28.966  1.00  0.00     0.031 C 
ATOM     37  C   UNL A   1      47.283  27.176  30.175  1.00  0.00     0.037 A 
BRANCH  24  38
ATOM     38  C   UNL A   1      44.412  32.156  32.448  1.00  0.00     0.064 A 
ATOM     39  C   UNL A   1      44.755  33.355  31.804  1.00  0.00     0.173 A 
ATOM     40  C   UNL A   1      44.166  32.204  33.829  1.00  0.00     0.173 A 
ATOM     41  F   UNL A   1      44.965  33.374  30.480  1.00  0.00    -0.203 F 
ATOM     42  C   UNL A   1      44.887  34.544  32.519  1.00  0.00     0.198 A 
ATOM     43  C   UNL A   1      44.275  33.401  34.537  1.00  0.00     0.198 A 
ATOM     44  F   UNL A   1      43.784  31.098  34.485  1.00  0.00    -0.203 F 
ATOM     45  F   UNL A   1      45.243  35.669  31.884  1.00  0.00    -0.200 F 
ATOM     46  C   UNL A   1      44.651  34.565  33.885  1.00  0.00     0.200 A 
ATOM     47  F   UNL A   1      44.010  33.427  35.851  1.00  0.00    -0.200 F 
ATOM     48  F   UNL A   1      44.778  35.710  34.571  1.00  0.00    -0.200 F 
ENDBRANCH  24  38
BRANCH  25  49
ATOM     49  C   UNL A   1      43.365  23.477  27.342  1.00  0.00     0.064 A 
ATOM     50  C   UNL A   1      43.826  23.349  26.019  1.00  0.00     0.173 A 
ATOM     51  C   UNL A   1      42.758  22.353  27.919  1.00  0.00     0.173 A 
ATOM     52  F   UNL A   1      44.430  24.381  25.414  1.00  0.00    -0.203 F 
ATOM     53  C   UNL A   1      43.659  22.165  25.301  1.00  0.00     0.198 A 
ATOM     54  C   UNL A   1      42.629  21.155  27.213  1.00  0.00     0.198 A 
ATOM     55  F   UNL A   1      42.321  22.403  29.186  1.00  0.00    -0.203 F 
ATOM     56  F   UNL A   1      44.076  22.091  24.029  1.00  0.00    -0.200 F 
ATOM     57  C   UNL A   1      43.069  21.066  25.902  1.00  0.00     0.200 A 
ATOM     58  F   UNL A   1      42.094  20.082  27.812  1.00  0.00    -0.200 F 
ATOM     59  F   UNL A   1      42.938  19.917  25.223  1.00  0.00    -0.200 F 
ENDBRANCH  25  49
BRANCH  37  60
ATOM     60  C   UNL A   1      48.737  26.841  30.266  1.00  0.00     0.064 A 
ATOM     61  C   UNL A   1      49.625  27.287  29.276  1.00  0.00     0.173 A 
ATOM     62  C   UNL A   1      49.239  26.040  31.300  1.00  0.00     0.173 A 
ATOM     63  F   UNL A   1      49.181  28.036  28.254  1.00  0.00    -0.203 F 
ATOM     64  C   UNL A   1      50.968  26.941  29.321  1.00  0.00     0.198 A 
ATOM     65  C   UNL A   1      50.593  25.738  31.367  1.00  0.00     0.198 A 
ATOM     66  F   UNL A   1      48.422  25.595  32.268  1.00  0.00    -0.203 F 
ATOM     67  F   UNL A   1      51.793  27.343  28.345  1.00  0.00    -0.200 F 
ATOM     68  C   UNL A   1      51.454  26.181  30.374  1.00  0.00     0.200 A 
ATOM     69  F   UNL A   1      51.066  25.031  32.401  1.00  0.00    -0.200 F 
ATOM     70  F   UNL A   1      52.757  25.878  30.435  1.00  0.00    -0.200 F 
ENDBRANCH  37  60
ENDBRANCH  11  12
ENDBRANCH   4   6
ENDBRANCH   3   4
ENDBRANCH   2   3
ENDBRANCH   1   2
BRANCH   1  71
ATOM     71  O   UNL A   1      31.275  29.800  25.007  1.00  0.00    -0.461 OA
BRANCH  71  72
ATOM     72  C   UNL A   1      31.831  29.055  24.013  1.00  0.00     0.328 C 
ATOM     73  O   UNL A   1      33.008  29.139  23.686  1.00  0.00    -0.250 OA
BRANCH  72  74
ATOM     74  C   UNL A   1      30.847  27.963  23.416  1.00  0.00     0.194 C 
BRANCH  74  75
ATOM     75  C   UNL A   1      29.093  28.179  23.070  1.00  0.00     0.065 C 
BRANCH  75  76
ATOM     76  C   UNL A   1      27.856  29.751  22.193  1.00  0.00     0.159 C 
BRANCH  76  77
ATOM     77  O   UNL A   1      27.783  30.272  20.736  1.00  0.00    -0.396 OA
ATOM     78  H   UNL A   1      27.588  31.221  20.742  1.00  0.00     0.210 HD
ENDBRANCH  76  77
ENDBRANCH  75  76
ENDBRANCH  74  75
BRANCH  74  79
ATOM     79  N   UNL A   1      31.458  27.093  22.395  1.00  0.00    -0.338 N 
ATOM     80  C   UNL A   1      32.001  25.835  22.549  1.00  0.00     0.258 C 
ATOM     81  H   UNL A   1      31.481  27.458  21.482  1.00  0.00     0.164 HD
ATOM     82  O   UNL A   1      32.295  25.165  21.565  1.00  0.00    -0.269 OA
BRANCH  80  83
ATOM     83  C   UNL A   1      32.285  25.290  23.887  1.00  0.00     0.118 A 
ATOM     84  C   UNL A   1      33.465  25.566  24.576  1.00  0.00     0.139 A 
ATOM     85  C   UNL A   1      31.306  24.492  24.481  1.00  0.00     0.216 A 
ATOM     86  F   UNL A   1      34.392  26.384  24.064  1.00  0.00    -0.206 F 
ATOM     87  C   UNL A   1      33.718  24.980  25.818  1.00  0.00     0.047 A 
ATOM     88  C   UNL A   1      31.540  23.922  25.735  1.00  0.00     0.305 A 
ATOM     89  F   UNL A   1      30.165  24.269  23.813  1.00  0.00    -0.198 F 
ATOM     90  C   UNL A   1      32.759  24.148  26.399  1.00  0.00     0.092 A 
BRANCH  88  91
ATOM     91  N   UNL A   1      30.525  23.082  26.371  1.00  0.00     0.065 N 
ATOM     92  O   UNL A   1      29.777  23.587  27.214  1.00  0.00    -0.258 OA
ATOM     93  O   UNL A   1      30.482  21.892  26.027  1.00  0.00    -0.258 OA
ENDBRANCH  88  91
ENDBRANCH  80  83
ENDBRANCH  74  79
ENDBRANCH  72  74
ENDBRANCH  71  72
ENDBRANCH   1  71
TORSDOF 17
ENDMDL
MODEL 2
REMARK VINA RESULT:     -11.7      3.403      8.206
REMARK SMILES O=C(OCCOC(=O)[C@@H](CCO)NC(=O)c1c(F)ccc([N+](=O)[O-])c1F)c1ccc(-c2c3nc(c(-c4c(F)c(F)c(F)c(F)c4F)c4ccc([nH]4)c(-c4c(F)c(F)c(F)c(F)c4F)c4nc(c(-c5c(F)c(F)c(F)c(F)c5F)c5ccc2[nH]5)C=C4)C=C3)cc1
REMARK SMILES IDX 5 1 4 2 3 3 2 4 1 5 27 6 28 7 89 8 29 9 88 10 30 11 31 12
REMARK SMILES IDX 32 13 82 14 33 15 87 16 81 17 83 18 34 19 86 20 80 21 79 22
REMARK SMILES IDX 35 24 67 25 47 26 66 27 48 28 51 29 65 30 84 31 49 32 50 33
REMARK SMILES IDX 64 35 85 36 52 37 36 38 37 39 45 40 38 41 39 42 43 43 46 44
REMARK SMILES IDX 40 45 41 46 44 47 42 48 68 49 69 50 77 51 70 52 71 53 75 54
REMARK SMILES IDX 78 55 72 56 73 57 76 58 74 59 53 60 54 61 62 62 55 63 56 64
REMARK SMILES IDX 60 65 63 66 57 67 58 68 61 69 59 70 6 71 7 72 8 73 9 74
REMARK SMILES IDX 10 75 11 76 12 77 13 79 14 80 15 82 16 83 17 84 25 85 18 86
REMARK SMILES IDX 19 87 21 88 26 89 20 90 22 91 23 92 24 93
REMARK H PARENT 83 23 51 34 12 78 13 81
REMARK Flexibility Score: inf
ROOT
ATOM      1  C   UNL A   1      37.928  19.656  24.619  1.00  0.00     0.274 C 
ENDROOT
BRANCH   1   2
ATOM      2  C   UNL A   1      38.951  19.887  25.754  1.00  0.00     0.275 C 
BRANCH   2   3
ATOM      3  O   UNL A   1      40.011  18.930  25.711  1.00  0.00    -0.458 OA
BRANCH   3   4
ATOM      4  C   UNL A   1      41.297  19.200  25.977  1.00  0.00     0.338 C 
ATOM      5  O   UNL A   1      42.164  18.342  25.835  1.00  0.00    -0.246 OA
BRANCH   4   6
ATOM      6  C   UNL A   1      41.746  20.496  26.541  1.00  0.00     0.060 A 
ATOM      7  C   UNL A   1      41.781  21.081  28.276  1.00  0.00     0.016 A 
ATOM      8  C   UNL A   1      42.455  21.565  25.272  1.00  0.00     0.016 A 
ATOM      9  C   UNL A   1      42.652  22.604  28.720  1.00  0.00     0.010 A 
ATOM     10  C   UNL A   1      43.294  23.086  25.725  1.00  0.00     0.010 A 
ATOM     11  C   UNL A   1      43.325  23.651  27.418  1.00  0.00    -0.014 A 
BRANCH  11  12
ATOM     12  C   UNL A   1      43.719  25.049  27.734  1.00  0.00     0.031 A 
ATOM     13  C   UNL A   1      42.655  26.082  28.042  1.00  0.00     0.074 A 
ATOM     14  C   UNL A   1      45.028  25.338  27.855  1.00  0.00     0.049 A 
ATOM     15  N   UNL A   1      42.791  27.316  28.457  1.00  0.00    -0.248 NA
ATOM     16  C   UNL A   1      41.244  25.682  27.925  1.00  0.00     0.031 C 
ATOM     17  C   UNL A   1      46.121  24.395  27.623  1.00  0.00     0.029 A 
ATOM     18  N   UNL A   1      45.675  26.495  28.203  1.00  0.00    -0.354 N 
ATOM     19  C   UNL A   1      41.500  27.795  28.672  1.00  0.00     0.074 A 
ATOM     20  C   UNL A   1      40.585  26.740  28.357  1.00  0.00     0.031 C 
ATOM     21  C   UNL A   1      47.296  24.993  27.859  1.00  0.00     0.029 A 
ATOM     22  C   UNL A   1      47.048  26.388  28.183  1.00  0.00     0.049 A 
ATOM     23  H   UNL A   1      45.202  27.324  28.445  1.00  0.00     0.167 HD
ATOM     24  C   UNL A   1      41.101  29.025  29.062  1.00  0.00     0.037 A 
ATOM     25  C   UNL A   1      47.993  27.329  28.362  1.00  0.00     0.037 A 
ATOM     26  C   UNL A   1      42.021  30.103  29.247  1.00  0.00     0.049 A 
ATOM     27  C   UNL A   1      47.517  28.724  28.661  1.00  0.00     0.074 A 
ATOM     28  C   UNL A   1      41.757  31.429  29.526  1.00  0.00     0.029 A 
ATOM     29  N   UNL A   1      43.398  29.970  29.132  1.00  0.00    -0.354 N 
ATOM     30  N   UNL A   1      46.288  29.158  28.836  1.00  0.00    -0.248 NA
ATOM     31  C   UNL A   1      48.544  29.764  28.773  1.00  0.00     0.031 C 
ATOM     32  C   UNL A   1      42.974  32.112  29.514  1.00  0.00     0.029 A 
ATOM     33  C   UNL A   1      43.999  31.198  29.310  1.00  0.00     0.049 A 
ATOM     34  H   UNL A   1      43.872  29.127  28.951  1.00  0.00     0.167 HD
ATOM     35  C   UNL A   1      46.393  30.516  29.087  1.00  0.00     0.074 A 
ATOM     36  C   UNL A   1      47.811  30.823  29.085  1.00  0.00     0.031 C 
ATOM     37  C   UNL A   1      45.419  31.438  29.288  1.00  0.00     0.037 A 
BRANCH  24  38
ATOM     38  C   UNL A   1      39.628  29.276  29.222  1.00  0.00     0.064 A 
ATOM     39  C   UNL A   1      39.025  29.199  30.487  1.00  0.00     0.173 A 
ATOM     40  C   UNL A   1      38.805  29.567  28.123  1.00  0.00     0.173 A 
ATOM     41  F   UNL A   1      39.770  28.961  31.576  1.00  0.00    -0.203 F 
ATOM     42  C   UNL A   1      37.650  29.363  30.640  1.00  0.00     0.198 A 
ATOM     43  C   UNL A   1      37.432  29.755  28.283  1.00  0.00     0.198 A 
ATOM     44  F   UNL A   1      39.337  29.703  26.899  1.00  0.00    -0.203 F 
ATOM     45  F   UNL A   1      37.096  29.256  31.855  1.00  0.00    -0.200 F 
ATOM     46  C   UNL A   1      36.854  29.637  29.538  1.00  0.00     0.200 A 
ATOM     47  F   UNL A   1      36.670  30.057  27.223  1.00  0.00    -0.200 F 
ATOM     48  F   UNL A   1      35.532  29.796  29.688  1.00  0.00    -0.200 F 
ENDBRANCH  24  38
BRANCH  25  49
ATOM     49  C   UNL A   1      49.440  26.996  28.213  1.00  0.00     0.064 A 
ATOM     50  C   UNL A   1      50.219  26.607  29.318  1.00  0.00     0.173 A 
ATOM     51  C   UNL A   1      50.084  27.058  26.969  1.00  0.00     0.173 A 
ATOM     52  F   UNL A   1      49.661  26.512  30.534  1.00  0.00    -0.203 F 
ATOM     53  C   UNL A   1      51.578  26.324  29.189  1.00  0.00     0.198 A 
ATOM     54  C   UNL A   1      51.436  26.733  26.834  1.00  0.00     0.198 A 
ATOM     55  F   UNL A   1      49.391  27.397  25.872  1.00  0.00    -0.203 F 
ATOM     56  F   UNL A   1      52.297  25.994  30.271  1.00  0.00    -0.200 F 
ATOM     57  C   UNL A   1      52.183  26.379  27.945  1.00  0.00     0.200 A 
ATOM     58  F   UNL A   1      52.007  26.749  25.622  1.00  0.00    -0.200 F 
ATOM     59  F   UNL A   1      53.483  26.076  27.815  1.00  0.00    -0.200 F 
ENDBRANCH  25  49
BRANCH  37  60
ATOM     60  C   UNL A   1      45.865  32.844  29.531  1.00  0.00     0.064 A 
ATOM     61  C   UNL A   1      46.035  33.724  28.453  1.00  0.00     0.173 A 
ATOM     62  C   UNL A   1      46.171  33.301  30.820  1.00  0.00     0.173 A 
ATOM     63  F   UNL A   1      45.777  33.320  27.199  1.00  0.00    -0.203 F 
ATOM     64  C   UNL A   1      46.497  35.017  28.659  1.00  0.00     0.198 A 
ATOM     65  C   UNL A   1      46.585  34.610  31.026  1.00  0.00     0.198 A 
ATOM     66  F   UNL A   1      46.020  32.490  31.878  1.00  0.00    -0.203 F 
ATOM     67  F   UNL A   1      46.691  35.831  27.612  1.00  0.00    -0.200 F 
ATOM     68  C   UNL A   1      46.756  35.464  29.946  1.00  0.00     0.200 A 
ATOM     69  F   UNL A   1      46.804  35.050  32.272  1.00  0.00    -0.200 F 
ATOM     70  F   UNL A   1      47.167  36.723  30.147  1.00  0.00    -0.200 F 
ENDBRANCH  37  60
ENDBRANCH  11  12
ENDBRANCH   4   6
ENDBRANCH   3   4
ENDBRANCH   2   3
ENDBRANCH   1   2
BRANCH   1  71
ATOM     71  O   UNL A   1      36.537  19.598  25.046  1.00  0.00    -0.461 OA
BRANCH  71  72
ATOM     72  C   UNL A   1      35.747  20.687  24.834  1.00  0.00     0.328 C 
ATOM     73  O   UNL A   1      36.130  21.693  24.251  1.00  0.00    -0.250 OA
BRANCH  72  74
ATOM     74  C   UNL A   1      34.241  20.472  25.285  1.00  0.00     0.194 C 
BRANCH  74  75
ATOM     75  C   UNL A   1      33.176  19.092  24.833  1.00  0.00     0.065 C 
BRANCH  75  76
ATOM     76  C   UNL A   1      32.988  17.762  23.111  1.00  0.00     0.159 C 
BRANCH  76  77
ATOM     77  O   UNL A   1      31.907  17.704  22.004  1.00  0.00    -0.396 OA
ATOM     78  H   UNL A   1      31.845  16.799  21.661  1.00  0.00     0.210 HD
ENDBRANCH  76  77
ENDBRANCH  75  76
ENDBRANCH  74  75
BRANCH  74  79
ATOM     79  N   UNL A   1      33.959  20.893  26.670  1.00  0.00    -0.338 N 
ATOM     80  C   UNL A   1      33.426  22.084  27.115  1.00  0.00     0.258 C 
ATOM     81  H   UNL A   1      34.181  20.237  27.368  1.00  0.00     0.164 HD
ATOM     82  O   UNL A   1      33.076  22.204  28.284  1.00  0.00    -0.269 OA
BRANCH  80  83
ATOM     83  C   UNL A   1      33.311  23.247  26.220  1.00  0.00     0.118 A 
ATOM     84  C   UNL A   1      34.385  24.091  25.942  1.00  0.00     0.139 A 
ATOM     85  C   UNL A   1      32.076  23.475  25.611  1.00  0.00     0.216 A 
ATOM     86  F   UNL A   1      35.600  23.859  26.454  1.00  0.00    -0.206 F 
ATOM     87  C   UNL A   1      34.216  25.216  25.133  1.00  0.00     0.047 A 
ATOM     88  C   UNL A   1      31.905  24.583  24.779  1.00  0.00     0.305 A 
ATOM     89  F   UNL A   1      31.067  22.628  25.866  1.00  0.00    -0.198 F 
ATOM     90  C   UNL A   1      32.972  25.472  24.555  1.00  0.00     0.092 A 
BRANCH  88  91
ATOM     91  N   UNL A   1      30.616  24.838  24.135  1.00  0.00     0.065 N 
ATOM     92  O   UNL A   1      30.309  24.179  23.136  1.00  0.00    -0.258 OA
ATOM     93  O   UNL A   1      29.901  25.719  24.634  1.00  0.00    -0.258 OA
ENDBRANCH  88  91
ENDBRANCH  80  83
ENDBRANCH  74  79
ENDBRANCH  72  74
ENDBRANCH  71  72
ENDBRANCH   1  71
TORSDOF 17
ENDMDL
MODEL 3
REMARK VINA RESULT:     -11.6      0.906      2.162
REMARK SMILES O=C(OCCOC(=O)[C@@H](CCO)NC(=O)c1c(F)ccc([N+](=O)[O-])c1F)c1ccc(-c2c3nc(c(-c4c(F)c(F)c(F)c(F)c4F)c4ccc([nH]4)c(-c4c(F)c(F)c(F)c(F)c4F)c4nc(c(-c5c(F)c(F)c(F)c(F)c5F)c5ccc2[nH]5)C=C4)C=C3)cc1
REMARK SMILES IDX 5 1 4 2 3 3 2 4 1 5 27 6 28 7 89 8 29 9 88 10 30 11 31 12
REMARK SMILES IDX 32 13 82 14 33 15 87 16 81 17 83 18 34 19 86 20 80 21 79 22
REMARK SMILES IDX 35 24 67 25 47 26 66 27 48 28 51 29 65 30 84 31 49 32 50 33
REMARK SMILES IDX 64 35 85 36 52 37 36 38 37 39 45 40 38 41 39 42 43 43 46 44
REMARK SMILES IDX 40 45 41 46 44 47 42 48 68 49 69 50 77 51 70 52 71 53 75 54
REMARK SMILES IDX 78 55 72 56 73 57 76 58 74 59 53 60 54 61 62 62 55 63 56 64
REMARK SMILES IDX 60 65 63 66 57 67 58 68 61 69 59 70 6 71 7 72 8 73 9 74
REMARK SMILES IDX 10 75 11 76 12 77 13 79 14 80 15 82 16 83 17 84 25 85 18 86
REMARK SMILES IDX 19 87 21 88 26 89 20 90 22 91 23 92 24 93
REMARK H PARENT 83 23 51 34 12 78 13 81
REMARK Flexibility Score: inf
ROOT
ATOM      1  C   UNL A   1      33.513  29.169  25.510  1.00  0.00     0.274 C 
ENDROOT
BRANCH   1   2
ATOM      2  C   UNL A   1      33.381  28.814  27.008  1.00  0.00     0.275 C 
BRANCH   2   3
ATOM      3  O   UNL A   1      33.275  29.985  27.819  1.00  0.00    -0.458 OA
BRANCH   3   4
ATOM      4  C   UNL A   1      34.290  30.813  28.105  1.00  0.00     0.338 C 
ATOM      5  O   UNL A   1      34.183  32.024  27.937  1.00  0.00    -0.246 OA
BRANCH   4   6
ATOM      6  C   UNL A   1      35.621  30.329  28.545  1.00  0.00     0.060 A 
ATOM      7  C   UNL A   1      36.158  29.650  30.160  1.00  0.00     0.016 A 
ATOM      8  C   UNL A   1      36.816  30.342  27.193  1.00  0.00     0.016 A 
ATOM      9  C   UNL A   1      37.778  28.863  30.338  1.00  0.00     0.010 A 
ATOM     10  C   UNL A   1      38.428  29.580  27.392  1.00  0.00     0.010 A 
ATOM     11  C   UNL A   1      38.945  28.920  28.968  1.00  0.00    -0.014 A 
BRANCH  11  12
ATOM     12  C   UNL A   1      40.377  28.601  29.213  1.00  0.00     0.031 A 
ATOM     13  C   UNL A   1      41.231  29.546  30.032  1.00  0.00     0.074 A 
ATOM     14  C   UNL A   1      40.852  27.413  28.797  1.00  0.00     0.049 A 
ATOM     15  N   UNL A   1      42.458  29.395  30.460  1.00  0.00    -0.248 NA
ATOM     16  C   UNL A   1      40.630  30.810  30.485  1.00  0.00     0.031 C 
ATOM     17  C   UNL A   1      40.090  26.421  28.042  1.00  0.00     0.029 A 
ATOM     18  N   UNL A   1      42.082  26.825  28.943  1.00  0.00    -0.354 N 
ATOM     19  C   UNL A   1      42.735  30.516  31.242  1.00  0.00     0.074 A 
ATOM     20  C   UNL A   1      41.566  31.343  31.247  1.00  0.00     0.031 C 
ATOM     21  C   UNL A   1      40.847  25.340  27.815  1.00  0.00     0.029 A 
ATOM     22  C   UNL A   1      42.180  25.592  28.337  1.00  0.00     0.049 A 
ATOM     23  H   UNL A   1      42.824  27.245  29.436  1.00  0.00     0.167 HD
ATOM     24  C   UNL A   1      43.879  30.855  31.872  1.00  0.00     0.037 A 
ATOM     25  C   UNL A   1      43.245  24.783  28.186  1.00  0.00     0.037 A 
ATOM     26  C   UNL A   1      45.076  30.083  31.749  1.00  0.00     0.049 A 
ATOM     27  C   UNL A   1      44.545  25.250  28.781  1.00  0.00     0.074 A 
ATOM     28  C   UNL A   1      46.339  30.361  32.231  1.00  0.00     0.029 A 
ATOM     29  N   UNL A   1      45.152  28.885  31.054  1.00  0.00    -0.354 N 
ATOM     30  N   UNL A   1      44.786  26.327  29.496  1.00  0.00    -0.248 NA
ATOM     31  C   UNL A   1      45.721  24.409  28.543  1.00  0.00     0.031 C 
ATOM     32  C   UNL A   1      47.195  29.360  31.770  1.00  0.00     0.029 A 
ATOM     33  C   UNL A   1      46.450  28.419  31.071  1.00  0.00     0.049 A 
ATOM     34  H   UNL A   1      44.394  28.435  30.614  1.00  0.00     0.167 HD
ATOM     35  C   UNL A   1      46.137  26.290  29.800  1.00  0.00     0.074 A 
ATOM     36  C   UNL A   1      46.651  25.060  29.229  1.00  0.00     0.031 C 
ATOM     37  C   UNL A   1      46.898  27.187  30.475  1.00  0.00     0.037 A 
BRANCH  24  38
ATOM     38  C   UNL A   1      43.905  32.135  32.659  1.00  0.00     0.064 A 
ATOM     39  C   UNL A   1      43.602  32.135  34.030  1.00  0.00     0.173 A 
ATOM     40  C   UNL A   1      44.201  33.367  32.057  1.00  0.00     0.173 A 
ATOM     41  F   UNL A   1      43.347  30.981  34.665  1.00  0.00    -0.203 F 
ATOM     42  C   UNL A   1      43.556  33.323  34.757  1.00  0.00     0.198 A 
ATOM     43  C   UNL A   1      44.178  34.551  32.793  1.00  0.00     0.198 A 
ATOM     44  F   UNL A   1      44.548  33.419  30.762  1.00  0.00    -0.203 F 
ATOM     45  F   UNL A   1      43.236  33.297  36.058  1.00  0.00    -0.200 F 
ATOM     46  C   UNL A   1      43.840  34.530  34.138  1.00  0.00     0.200 A 
ATOM     47  F   UNL A   1      44.490  35.713  32.202  1.00  0.00    -0.200 F 
ATOM     48  F   UNL A   1      43.797  35.671  34.840  1.00  0.00    -0.200 F 
ENDBRANCH  24  38
BRANCH  25  49
ATOM     49  C   UNL A   1      43.135  23.512  27.412  1.00  0.00     0.064 A 
ATOM     50  C   UNL A   1      42.527  22.370  27.964  1.00  0.00     0.173 A 
ATOM     51  C   UNL A   1      43.632  23.402  26.105  1.00  0.00     0.173 A 
ATOM     52  F   UNL A   1      42.018  22.412  29.203  1.00  0.00    -0.203 F 
ATOM     53  C   UNL A   1      42.449  21.171  27.256  1.00  0.00     0.198 A 
ATOM     54  C   UNL A   1      43.515  22.213  25.382  1.00  0.00     0.198 A 
ATOM     55  F   UNL A   1      44.199  24.463  25.512  1.00  0.00    -0.203 F 
ATOM     56  F   UNL A   1      41.898  20.092  27.829  1.00  0.00    -0.200 F 
ATOM     57  C   UNL A   1      42.935  21.096  25.962  1.00  0.00     0.200 A 
ATOM     58  F   UNL A   1      43.951  22.158  24.115  1.00  0.00    -0.200 F 
ATOM     59  F   UNL A   1      42.831  19.953  25.269  1.00  0.00    -0.200 F 
ENDBRANCH  25  49
BRANCH  37  60
ATOM     60  C   UNL A   1      48.347  26.854  30.633  1.00  0.00     0.064 A 
ATOM     61  C   UNL A   1      48.778  26.092  31.729  1.00  0.00     0.173 A 
ATOM     62  C   UNL A   1      49.309  27.329  29.732  1.00  0.00     0.173 A 
ATOM     63  F   UNL A   1      47.892  25.637  32.629  1.00  0.00    -0.203 F 
ATOM     64  C   UNL A   1      50.125  25.818  31.915  1.00  0.00     0.198 A 
ATOM     65  C   UNL A   1      50.650  27.011  29.896  1.00  0.00     0.198 A 
ATOM     66  F   UNL A   1      48.937  28.060  28.670  1.00  0.00    -0.203 F 
ATOM     67  F   UNL A   1      50.522  25.122  32.990  1.00  0.00    -0.200 F 
ATOM     68  C   UNL A   1      51.059  26.263  30.991  1.00  0.00     0.200 A 
ATOM     69  F   UNL A   1      51.546  27.414  28.986  1.00  0.00    -0.200 F 
ATOM     70  F   UNL A   1      52.354  25.967  31.153  1.00  0.00    -0.200 F 
ENDBRANCH  37  60
ENDBRANCH  11  12
ENDBRANCH   4   6
ENDBRANCH   3   4
ENDBRANCH   2   3
ENDBRANCH   1   2
BRANCH   1  71
ATOM     71  O   UNL A   1      34.076  28.115  24.675  1.00  0.00    -0.461 OA
BRANCH  71  72
ATOM     72  C   UNL A   1      33.745  28.086  23.355  1.00  0.00     0.328 C 
ATOM     73  O   UNL A   1      34.402  28.641  22.484  1.00  0.00    -0.250 OA
BRANCH  72  74
ATOM     74  C   UNL A   1      32.509  27.144  23.034  1.00  0.00     0.194 C 
BRANCH  74  75
ATOM     75  C   UNL A   1      30.828  27.673  22.665  1.00  0.00     0.065 C 
BRANCH  75  76
ATOM     76  C   UNL A   1      29.823  29.590  22.367  1.00  0.00     0.159 C 
BRANCH  76  77
ATOM     77  O   UNL A   1      29.587  30.406  21.073  1.00  0.00    -0.396 OA
ATOM     78  H   UNL A   1      29.988  29.943  20.322  1.00  0.00     0.210 HD
ENDBRANCH  76  77
ENDBRANCH  75  76
ENDBRANCH  74  75
BRANCH  74  79
ATOM     79  N   UNL A   1      32.849  25.953  22.235  1.00  0.00    -0.338 N 
ATOM     80  C   UNL A   1      32.910  24.635  22.637  1.00  0.00     0.258 C 
ATOM     81  H   UNL A   1      33.061  26.120  21.289  1.00  0.00     0.164 HD
ATOM     82  O   UNL A   1      33.021  23.741  21.806  1.00  0.00    -0.269 OA
BRANCH  80  83
ATOM     83  C   UNL A   1      32.895  24.276  24.064  1.00  0.00     0.118 A 
ATOM     84  C   UNL A   1      34.029  24.353  24.872  1.00  0.00     0.139 A 
ATOM     85  C   UNL A   1      31.678  23.873  24.617  1.00  0.00     0.216 A 
ATOM     86  F   UNL A   1      35.194  24.803  24.390  1.00  0.00    -0.206 F 
ATOM     87  C   UNL A   1      33.982  23.947  26.206  1.00  0.00     0.047 A 
ATOM     88  C   UNL A   1      31.616  23.489  25.958  1.00  0.00     0.305 A 
ATOM     89  F   UNL A   1      30.594  23.840  23.829  1.00  0.00    -0.198 F 
ATOM     90  C   UNL A   1      32.777  23.504  26.753  1.00  0.00     0.092 A 
BRANCH  88  91
ATOM     91  N   UNL A   1      30.349  23.063  26.552  1.00  0.00     0.065 N 
ATOM     92  O   UNL A   1      29.754  23.839  27.306  1.00  0.00    -0.258 OA
ATOM     93  O   UNL A   1      29.947  21.926  26.266  1.00  0.00    -0.258 OA
ENDBRANCH  88  91
ENDBRANCH  80  83
ENDBRANCH  74  79
ENDBRANCH  72  74
ENDBRANCH  71  72
ENDBRANCH   1  71
TORSDOF 17
ENDMDL
