MODEL 1
REMARK VINA RESULT:     -11.0      0.000      0.000
REMARK SMILES CCSCc1cc(F)cc(/C=C/C(=O)OCCOC(=O)c2ccc(-c3c4nc(c(-c5c(F)c(F)c(F)c(F)c5F)c5ccc([nH]5)c(-c5c(F)c(F)c(F)c(F)c5F)c5nc(c(-c6c(F)c(F)c(F)c(F)c6F)c6ccc3[nH]6)C=C5)C=C4)cc2)c1
REMARK SMILES IDX 16 1 15 2 13 3 14 4 12 5 11 6 10 7 5 8 6 9 84 10 7 11 8 12
REMARK SMILES IDX 9 13 4 14 3 15 2 16 1 17 17 18 18 19 19 20 20 21 21 22 22 23
REMARK SMILES IDX 83 24 23 25 82 26 24 27 25 28 26 29 76 30 27 31 81 32 75 33
REMARK SMILES IDX 77 34 28 35 80 36 74 37 73 38 29 40 61 41 41 42 60 43 42 44
REMARK SMILES IDX 45 45 59 46 78 47 43 48 44 49 58 51 79 52 46 53 30 54 31 55
REMARK SMILES IDX 39 56 32 57 33 58 37 59 40 60 34 61 35 62 38 63 36 64 62 65
REMARK SMILES IDX 63 66 71 67 64 68 65 69 69 70 72 71 66 72 67 73 70 74 68 75
REMARK SMILES IDX 47 76 48 77 56 78 49 79 50 80 54 81 57 82 51 83 52 84 55 85
REMARK SMILES IDX 53 86
REMARK H PARENT 77 39 45 50
REMARK Flexibility Score: inf
ROOT
ATOM      1  C   UNL A   1      42.694  21.330  25.852  1.00  0.00     0.275 C 
ENDROOT
BRANCH   1   2
ATOM      2  O   UNL A   1      41.318  21.671  25.606  1.00  0.00    -0.459 OA
BRANCH   2   3
ATOM      3  C   UNL A   1      40.424  21.246  26.528  1.00  0.00     0.330 C 
ATOM      4  O   UNL A   1      40.666  20.932  27.684  1.00  0.00    -0.247 OA
BRANCH   3   5
ATOM      5  C   UNL A   1      39.045  21.218  26.000  1.00  0.00     0.094 C 
ATOM      6  C   UNL A   1      38.336  22.311  25.679  1.00  0.00     0.016 C 
BRANCH   6   7
ATOM      7  C   UNL A   1      36.957  22.239  25.183  1.00  0.00    -0.022 A 
ATOM      8  C   UNL A   1      34.927  20.891  24.893  1.00  0.00    -0.035 A 
ATOM      9  C   UNL A   1      34.331  21.986  24.250  1.00  0.00     0.043 A 
ATOM     10  C   UNL A   1      36.255  21.033  25.326  1.00  0.00     0.013 A 
ATOM     11  C   UNL A   1      35.037  23.173  24.076  1.00  0.00     0.124 A 
ATOM     12  F   UNL A   1      34.453  24.197  23.440  1.00  0.00    -0.207 F 
ATOM     13  C   UNL A   1      36.339  23.311  24.537  1.00  0.00     0.047 A 
BRANCH   8  14
ATOM     14  C   UNL A   1      34.161  19.592  25.002  1.00  0.00     0.105 C 
BRANCH  14  15
ATOM     15  S   UNL A   1      32.649  19.449  23.999  1.00  0.00    -0.157 SA
BRANCH  15  16
ATOM     16  C   UNL A   1      32.915  17.918  23.033  1.00  0.00     0.066 C 
ATOM     17  C   UNL A   1      33.505  16.743  23.789  1.00  0.00     0.015 C 
ENDBRANCH  15  16
ENDBRANCH  14  15
ENDBRANCH   8  14
ENDBRANCH   6   7
ENDBRANCH   3   5
ENDBRANCH   2   3
ENDBRANCH   1   2
BRANCH   1  18
ATOM     18  C   UNL A   1      43.638  22.233  25.052  1.00  0.00     0.275 C 
BRANCH  18  19
ATOM     19  O   UNL A   1      43.068  23.537  24.833  1.00  0.00    -0.458 OA
BRANCH  19  20
ATOM     20  C   UNL A   1      43.869  24.576  25.170  1.00  0.00     0.338 C 
ATOM     21  O   UNL A   1      44.903  24.919  24.623  1.00  0.00    -0.246 OA
BRANCH  20  22
ATOM     22  C   UNL A   1      43.243  25.358  26.252  1.00  0.00     0.060 A 
ATOM     23  C   UNL A   1      43.737  26.645  26.494  1.00  0.00     0.016 A 
ATOM     24  C   UNL A   1      42.232  24.826  27.056  1.00  0.00     0.016 A 
ATOM     25  C   UNL A   1      43.220  27.405  27.541  1.00  0.00     0.010 A 
ATOM     26  C   UNL A   1      41.719  25.588  28.112  1.00  0.00     0.010 A 
ATOM     27  C   UNL A   1      42.216  26.878  28.366  1.00  0.00    -0.014 A 
BRANCH  27  28
ATOM     28  C   UNL A   1      41.723  27.673  29.514  1.00  0.00     0.031 A 
ATOM     29  C   UNL A   1      42.446  27.623  30.829  1.00  0.00     0.074 A 
ATOM     30  C   UNL A   1      40.655  28.477  29.362  1.00  0.00     0.049 A 
ATOM     31  N   UNL A   1      42.171  28.244  31.948  1.00  0.00    -0.248 NA
ATOM     32  C   UNL A   1      43.638  26.764  30.893  1.00  0.00     0.031 C 
ATOM     33  C   UNL A   1      39.896  28.638  28.122  1.00  0.00     0.029 A 
ATOM     34  N   UNL A   1      40.030  29.314  30.252  1.00  0.00    -0.354 N 
ATOM     35  C   UNL A   1      43.153  27.853  32.848  1.00  0.00     0.074 A 
ATOM     36  C   UNL A   1      44.017  26.922  32.154  1.00  0.00     0.031 C 
ATOM     37  C   UNL A   1      38.912  29.529  28.327  1.00  0.00     0.029 A 
ATOM     38  C   UNL A   1      38.952  29.976  29.717  1.00  0.00     0.049 A 
ATOM     39  H   UNL A   1      40.326  29.429  31.183  1.00  0.00     0.167 HD
ATOM     40  C   UNL A   1      43.320  28.246  34.133  1.00  0.00     0.037 A 
ATOM     41  C   UNL A   1      38.087  30.835  30.290  1.00  0.00     0.037 A 
ATOM     42  C   UNL A   1      42.464  29.177  34.820  1.00  0.00     0.049 A 
ATOM     43  C   UNL A   1      38.260  31.206  31.738  1.00  0.00     0.074 A 
ATOM     44  C   UNL A   1      42.564  29.641  36.120  1.00  0.00     0.029 A 
ATOM     45  N   UNL A   1      41.351  29.788  34.261  1.00  0.00    -0.354 N 
ATOM     46  N   UNL A   1      39.192  30.832  32.580  1.00  0.00    -0.248 NA
ATOM     47  C   UNL A   1      37.259  32.114  32.317  1.00  0.00     0.031 C 
ATOM     48  C   UNL A   1      41.487  30.501  36.362  1.00  0.00     0.029 A 
ATOM     49  C   UNL A   1      40.743  30.607  35.199  1.00  0.00     0.049 A 
ATOM     50  H   UNL A   1      41.040  29.658  33.337  1.00  0.00     0.167 HD
ATOM     51  C   UNL A   1      38.901  31.467  33.779  1.00  0.00     0.074 A 
ATOM     52  C   UNL A   1      37.713  32.264  33.554  1.00  0.00     0.031 C 
ATOM     53  C   UNL A   1      39.559  31.394  34.961  1.00  0.00     0.037 A 
BRANCH  40  54
ATOM     54  C   UNL A   1      44.471  27.663  34.897  1.00  0.00     0.064 A 
ATOM     55  C   UNL A   1      45.727  28.287  34.874  1.00  0.00     0.173 A 
ATOM     56  C   UNL A   1      44.350  26.448  35.586  1.00  0.00     0.173 A 
ATOM     57  F   UNL A   1      45.893  29.449  34.224  1.00  0.00    -0.203 F 
ATOM     58  C   UNL A   1      46.825  27.708  35.504  1.00  0.00     0.198 A 
ATOM     59  C   UNL A   1      45.446  25.882  36.233  1.00  0.00     0.198 A 
ATOM     60  F   UNL A   1      43.167  25.819  35.644  1.00  0.00    -0.203 F 
ATOM     61  F   UNL A   1      48.022  28.307  35.445  1.00  0.00    -0.200 F 
ATOM     62  C   UNL A   1      46.683  26.508  36.183  1.00  0.00     0.200 A 
ATOM     63  F   UNL A   1      45.305  24.732  36.906  1.00  0.00    -0.200 F 
ATOM     64  F   UNL A   1      47.740  25.953  36.793  1.00  0.00    -0.200 F 
ENDBRANCH  40  54
BRANCH  41  65
ATOM     65  C   UNL A   1      36.977  31.404  29.484  1.00  0.00     0.064 A 
ATOM     66  C   UNL A   1      36.958  32.762  29.132  1.00  0.00     0.173 A 
ATOM     67  C   UNL A   1      35.907  30.605  29.065  1.00  0.00     0.173 A 
ATOM     68  F   UNL A   1      37.963  33.566  29.506  1.00  0.00    -0.203 F 
ATOM     69  C   UNL A   1      35.898  33.302  28.408  1.00  0.00     0.198 A 
ATOM     70  C   UNL A   1      34.859  31.141  28.319  1.00  0.00     0.198 A 
ATOM     71  F   UNL A   1      35.895  29.295  29.355  1.00  0.00    -0.203 F 
ATOM     72  F   UNL A   1      35.891  34.608  28.108  1.00  0.00    -0.200 F 
ATOM     73  C   UNL A   1      34.851  32.491  27.999  1.00  0.00     0.200 A 
ATOM     74  F   UNL A   1      33.862  30.348  27.903  1.00  0.00    -0.200 F 
ATOM     75  F   UNL A   1      33.838  33.007  27.289  1.00  0.00    -0.200 F 
ENDBRANCH  41  65
BRANCH  53  76
ATOM     76  C   UNL A   1      39.024  32.200  36.106  1.00  0.00     0.064 A 
ATOM     77  C   UNL A   1      39.430  33.531  36.292  1.00  0.00     0.173 A 
ATOM     78  C   UNL A   1      38.169  31.633  37.061  1.00  0.00     0.173 A 
ATOM     79  F   UNL A   1      40.254  34.117  35.410  1.00  0.00    -0.203 F 
ATOM     80  C   UNL A   1      39.008  34.260  37.401  1.00  0.00     0.198 A 
ATOM     81  C   UNL A   1      37.730  32.372  38.157  1.00  0.00     0.198 A 
ATOM     82  F   UNL A   1      37.744  30.368  36.920  1.00  0.00    -0.203 F 
ATOM     83  F   UNL A   1      39.431  35.519  37.574  1.00  0.00    -0.200 F 
ATOM     84  C   UNL A   1      38.156  33.680  38.330  1.00  0.00     0.200 A 
ATOM     85  F   UNL A   1      36.891  31.819  39.044  1.00  0.00    -0.200 F 
ATOM     86  F   UNL A   1      37.745  34.385  39.393  1.00  0.00    -0.200 F 
ENDBRANCH  53  76
ENDBRANCH  27  28
ENDBRANCH  20  22
ENDBRANCH  19  20
ENDBRANCH  18  19
ENDBRANCH   1  18
TORSDOF 15
ENDMDL
MODEL 2
REMARK VINA RESULT:     -10.9      0.391      7.513
REMARK SMILES CCSCc1cc(F)cc(/C=C/C(=O)OCCOC(=O)c2ccc(-c3c4nc(c(-c5c(F)c(F)c(F)c(F)c5F)c5ccc([nH]5)c(-c5c(F)c(F)c(F)c(F)c5F)c5nc(c(-c6c(F)c(F)c(F)c(F)c6F)c6ccc3[nH]6)C=C5)C=C4)cc2)c1
REMARK SMILES IDX 16 1 15 2 13 3 14 4 12 5 11 6 10 7 5 8 6 9 84 10 7 11 8 12
REMARK SMILES IDX 9 13 4 14 3 15 2 16 1 17 17 18 18 19 19 20 20 21 21 22 22 23
REMARK SMILES IDX 83 24 23 25 82 26 24 27 25 28 26 29 76 30 27 31 81 32 75 33
REMARK SMILES IDX 77 34 28 35 80 36 74 37 73 38 29 40 61 41 41 42 60 43 42 44
REMARK SMILES IDX 45 45 59 46 78 47 43 48 44 49 58 51 79 52 46 53 30 54 31 55
REMARK SMILES IDX 39 56 32 57 33 58 37 59 40 60 34 61 35 62 38 63 36 64 62 65
REMARK SMILES IDX 63 66 71 67 64 68 65 69 69 70 72 71 66 72 67 73 70 74 68 75
REMARK SMILES IDX 47 76 48 77 56 78 49 79 50 80 54 81 57 82 51 83 52 84 55 85
REMARK SMILES IDX 53 86
REMARK H PARENT 77 39 45 50
REMARK Flexibility Score: inf
ROOT
ATOM      1  C   UNL A   1      42.810  21.124  26.152  1.00  0.00     0.275 C 
ENDROOT
BRANCH   1   2
ATOM      2  O   UNL A   1      41.457  21.334  25.709  1.00  0.00    -0.459 OA
BRANCH   2   3
ATOM      3  C   UNL A   1      40.484  21.038  26.601  1.00  0.00     0.330 C 
ATOM      4  O   UNL A   1      40.638  20.794  27.789  1.00  0.00    -0.247 OA
BRANCH   3   5
ATOM      5  C   UNL A   1      39.138  21.066  25.993  1.00  0.00     0.094 C 
ATOM      6  C   UNL A   1      38.439  22.186  25.755  1.00  0.00     0.016 C 
BRANCH   6   7
ATOM      7  C   UNL A   1      37.092  22.166  25.174  1.00  0.00    -0.022 A 
ATOM      8  C   UNL A   1      34.921  21.032  25.012  1.00  0.00    -0.035 A 
ATOM      9  C   UNL A   1      34.511  22.018  24.102  1.00  0.00     0.043 A 
ATOM     10  C   UNL A   1      36.231  21.111  25.513  1.00  0.00     0.013 A 
ATOM     11  C   UNL A   1      35.376  23.046  23.738  1.00  0.00     0.124 A 
ATOM     12  F   UNL A   1      34.967  23.964  22.852  1.00  0.00    -0.207 F 
ATOM     13  C   UNL A   1      36.657  23.131  24.265  1.00  0.00     0.047 A 
BRANCH   8  14
ATOM     14  C   UNL A   1      33.987  19.888  25.332  1.00  0.00     0.105 C 
BRANCH  14  15
ATOM     15  S   UNL A   1      32.524  19.705  24.265  1.00  0.00    -0.157 SA
BRANCH  15  16
ATOM     16  C   UNL A   1      32.643  17.983  23.660  1.00  0.00     0.066 C 
ATOM     17  C   UNL A   1      34.045  17.423  23.502  1.00  0.00     0.015 C 
ENDBRANCH  15  16
ENDBRANCH  14  15
ENDBRANCH   8  14
ENDBRANCH   6   7
ENDBRANCH   3   5
ENDBRANCH   2   3
ENDBRANCH   1   2
BRANCH   1  18
ATOM     18  C   UNL A   1      43.777  22.081  25.446  1.00  0.00     0.275 C 
BRANCH  18  19
ATOM     19  O   UNL A   1      43.127  23.308  25.067  1.00  0.00    -0.458 OA
BRANCH  19  20
ATOM     20  C   UNL A   1      43.862  24.429  25.263  1.00  0.00     0.338 C 
ATOM     21  O   UNL A   1      44.818  24.809  24.608  1.00  0.00    -0.246 OA
BRANCH  20  22
ATOM     22  C   UNL A   1      43.260  25.240  26.337  1.00  0.00     0.060 A 
ATOM     23  C   UNL A   1      43.796  26.510  26.573  1.00  0.00     0.016 A 
ATOM     24  C   UNL A   1      42.228  24.748  27.141  1.00  0.00     0.016 A 
ATOM     25  C   UNL A   1      43.303  27.295  27.612  1.00  0.00     0.010 A 
ATOM     26  C   UNL A   1      41.738  25.534  28.191  1.00  0.00     0.010 A 
ATOM     27  C   UNL A   1      42.279  26.808  28.437  1.00  0.00    -0.014 A 
BRANCH  27  28
ATOM     28  C   UNL A   1      41.810  27.628  29.579  1.00  0.00     0.031 A 
ATOM     29  C   UNL A   1      40.578  28.475  29.440  1.00  0.00     0.074 A 
ATOM     30  C   UNL A   1      42.463  27.574  30.753  1.00  0.00     0.049 A 
ATOM     31  N   UNL A   1      40.011  29.259  30.322  1.00  0.00    -0.248 NA
ATOM     32  C   UNL A   1      39.891  28.431  28.141  1.00  0.00     0.031 C 
ATOM     33  C   UNL A   1      43.648  26.758  31.019  1.00  0.00     0.029 A 
ATOM     34  N   UNL A   1      42.219  28.210  31.945  1.00  0.00    -0.354 N 
ATOM     35  C   UNL A   1      38.903  29.802  29.686  1.00  0.00     0.074 A 
ATOM     36  C   UNL A   1      38.889  29.277  28.337  1.00  0.00     0.031 C 
ATOM     37  C   UNL A   1      44.021  26.935  32.296  1.00  0.00     0.029 A 
ATOM     38  C   UNL A   1      43.124  27.900  32.929  1.00  0.00     0.049 A 
ATOM     39  H   UNL A   1      41.466  28.830  32.079  1.00  0.00     0.167 HD
ATOM     40  C   UNL A   1      37.977  30.652  30.190  1.00  0.00     0.037 A 
ATOM     41  C   UNL A   1      43.225  28.352  34.194  1.00  0.00     0.037 A 
ATOM     42  C   UNL A   1      37.987  31.167  31.534  1.00  0.00     0.049 A 
ATOM     43  C   UNL A   1      42.218  29.344  34.708  1.00  0.00     0.074 A 
ATOM     44  C   UNL A   1      37.083  32.027  32.134  1.00  0.00     0.029 A 
ATOM     45  N   UNL A   1      38.950  30.869  32.487  1.00  0.00    -0.354 N 
ATOM     46  N   UNL A   1      41.172  29.851  34.099  1.00  0.00    -0.248 NA
ATOM     47  C   UNL A   1      42.406  29.834  36.081  1.00  0.00     0.031 C 
ATOM     48  C   UNL A   1      37.522  32.282  33.437  1.00  0.00     0.029 A 
ATOM     49  C   UNL A   1      38.673  31.547  33.664  1.00  0.00     0.049 A 
ATOM     50  H   UNL A   1      39.716  30.267  32.348  1.00  0.00     0.167 HD
ATOM     51  C   UNL A   1      40.572  30.702  35.016  1.00  0.00     0.074 A 
ATOM     52  C   UNL A   1      41.360  30.636  36.229  1.00  0.00     0.031 C 
ATOM     53  C   UNL A   1      39.468  31.472  34.863  1.00  0.00     0.037 A 
BRANCH  40  54
ATOM     54  C   UNL A   1      36.870  31.096  29.282  1.00  0.00     0.064 A 
ATOM     55  C   UNL A   1      36.826  32.416  28.810  1.00  0.00     0.173 A 
ATOM     56  C   UNL A   1      35.815  30.238  28.940  1.00  0.00     0.173 A 
ATOM     57  F   UNL A   1      37.809  33.276  29.113  1.00  0.00    -0.203 F 
ATOM     58  C   UNL A   1      35.756  32.866  28.040  1.00  0.00     0.198 A 
ATOM     59  C   UNL A   1      34.757  30.685  28.152  1.00  0.00     0.198 A 
ATOM     60  F   UNL A   1      35.819  28.963  29.359  1.00  0.00    -0.203 F 
ATOM     61  F   UNL A   1      35.720  34.139  27.625  1.00  0.00    -0.200 F 
ATOM     62  C   UNL A   1      34.725  31.999  27.711  1.00  0.00     0.200 A 
ATOM     63  F   UNL A   1      33.770  29.842  27.818  1.00  0.00    -0.200 F 
ATOM     64  F   UNL A   1      33.697  32.432  26.966  1.00  0.00    -0.200 F 
ENDBRANCH  40  54
BRANCH  41  65
ATOM     65  C   UNL A   1      44.326  27.864  35.061  1.00  0.00     0.064 A 
ATOM     66  C   UNL A   1      44.153  26.749  35.895  1.00  0.00     0.173 A 
ATOM     67  C   UNL A   1      45.567  28.512  35.085  1.00  0.00     0.173 A 
ATOM     68  F   UNL A   1      42.984  26.092  35.903  1.00  0.00    -0.203 F 
ATOM     69  C   UNL A   1      45.175  26.314  36.736  1.00  0.00     0.198 A 
ATOM     70  C   UNL A   1      46.597  28.062  35.908  1.00  0.00     0.198 A 
ATOM     71  F   UNL A   1      45.787  29.566  34.285  1.00  0.00    -0.203 F 
ATOM     72  F   UNL A   1      44.975  25.264  37.543  1.00  0.00    -0.200 F 
ATOM     73  C   UNL A   1      46.397  26.969  36.739  1.00  0.00     0.200 A 
ATOM     74  F   UNL A   1      47.786  28.680  35.890  1.00  0.00    -0.200 F 
ATOM     75  F   UNL A   1      47.385  26.542  37.538  1.00  0.00    -0.200 F 
ENDBRANCH  41  65
BRANCH  53  76
ATOM     76  C   UNL A   1      39.030  32.300  36.034  1.00  0.00     0.064 A 
ATOM     77  C   UNL A   1      39.538  33.595  36.220  1.00  0.00     0.173 A 
ATOM     78  C   UNL A   1      38.166  31.785  37.011  1.00  0.00     0.173 A 
ATOM     79  F   UNL A   1      40.375  34.131  35.318  1.00  0.00    -0.203 F 
ATOM     80  C   UNL A   1      39.207  34.339  37.350  1.00  0.00     0.198 A 
ATOM     81  C   UNL A   1      37.819  32.540  38.128  1.00  0.00     0.198 A 
ATOM     82  F   UNL A   1      37.646  30.557  36.870  1.00  0.00    -0.203 F 
ATOM     83  F   UNL A   1      39.727  35.561  37.523  1.00  0.00    -0.200 F 
ATOM     84  C   UNL A   1      38.345  33.811  38.301  1.00  0.00     0.200 A 
ATOM     85  F   UNL A   1      36.970  32.039  39.036  1.00  0.00    -0.200 F 
ATOM     86  F   UNL A   1      38.021  34.531  39.384  1.00  0.00    -0.200 F 
ENDBRANCH  53  76
ENDBRANCH  27  28
ENDBRANCH  20  22
ENDBRANCH  19  20
ENDBRANCH  18  19
ENDBRANCH   1  18
TORSDOF 15
ENDMDL
MODEL 3
REMARK VINA RESULT:     -10.9      4.821      9.537
REMARK SMILES CCSCc1cc(F)cc(/C=C/C(=O)OCCOC(=O)c2ccc(-c3c4nc(c(-c5c(F)c(F)c(F)c(F)c5F)c5ccc([nH]5)c(-c5c(F)c(F)c(F)c(F)c5F)c5nc(c(-c6c(F)c(F)c(F)c(F)c6F)c6ccc3[nH]6)C=C5)C=C4)cc2)c1
REMARK SMILES IDX 16 1 15 2 13 3 14 4 12 5 11 6 10 7 5 8 6 9 84 10 7 11 8 12
REMARK SMILES IDX 9 13 4 14 3 15 2 16 1 17 17 18 18 19 19 20 20 21 21 22 22 23
REMARK SMILES IDX 83 24 23 25 82 26 24 27 25 28 26 29 76 30 27 31 81 32 75 33
REMARK SMILES IDX 77 34 28 35 80 36 74 37 73 38 29 40 61 41 41 42 60 43 42 44
REMARK SMILES IDX 45 45 59 46 78 47 43 48 44 49 58 51 79 52 46 53 30 54 31 55
REMARK SMILES IDX 39 56 32 57 33 58 37 59 40 60 34 61 35 62 38 63 36 64 62 65
REMARK SMILES IDX 63 66 71 67 64 68 65 69 69 70 72 71 66 72 67 73 70 74 68 75
REMARK SMILES IDX 47 76 48 77 56 78 49 79 50 80 54 81 57 82 51 83 52 84 55 85
REMARK SMILES IDX 53 86
REMARK H PARENT 77 39 45 50
REMARK Flexibility Score: inf
ROOT
ATOM      1  C   UNL A   1      38.918  20.727  25.377  1.00  0.00     0.275 C 
ENDROOT
BRANCH   1   2
ATOM      2  O   UNL A   1      38.796  21.829  26.295  1.00  0.00    -0.459 OA
BRANCH   2   3
ATOM      3  C   UNL A   1      38.009  22.855  25.895  1.00  0.00     0.330 C 
ATOM      4  O   UNL A   1      38.217  24.044  26.083  1.00  0.00    -0.247 OA
BRANCH   3   5
ATOM      5  C   UNL A   1      36.826  22.394  25.142  1.00  0.00     0.094 C 
ATOM      6  C   UNL A   1      35.667  22.023  25.708  1.00  0.00     0.016 C 
BRANCH   6   7
ATOM      7  C   UNL A   1      34.524  21.544  24.923  1.00  0.00    -0.022 A 
ATOM      8  C   UNL A   1      33.011  19.688  24.385  1.00  0.00    -0.035 A 
ATOM      9  C   UNL A   1      32.369  20.522  23.458  1.00  0.00     0.043 A 
ATOM     10  C   UNL A   1      34.108  20.214  25.087  1.00  0.00     0.013 A 
ATOM     11  C   UNL A   1      32.802  21.832  23.269  1.00  0.00     0.124 A 
ATOM     12  F   UNL A   1      32.186  22.602  22.363  1.00  0.00    -0.207 F 
ATOM     13  C   UNL A   1      33.868  22.350  23.992  1.00  0.00     0.047 A 
BRANCH   8  14
ATOM     14  C   UNL A   1      32.566  18.249  24.516  1.00  0.00     0.105 C 
BRANCH  14  15
ATOM     15  S   UNL A   1      33.579  17.000  23.664  1.00  0.00    -0.157 SA
BRANCH  15  16
ATOM     16  C   UNL A   1      34.058  15.847  25.002  1.00  0.00     0.066 C 
ATOM     17  C   UNL A   1      35.528  15.828  25.376  1.00  0.00     0.015 C 
ENDBRANCH  15  16
ENDBRANCH  14  15
ENDBRANCH   8  14
ENDBRANCH   6   7
ENDBRANCH   3   5
ENDBRANCH   2   3
ENDBRANCH   1   2
BRANCH   1  18
ATOM     18  C   UNL A   1      39.613  19.533  26.038  1.00  0.00     0.275 C 
BRANCH  18  19
ATOM     19  O   UNL A   1      40.848  19.203  25.376  1.00  0.00    -0.458 OA
BRANCH  19  20
ATOM     20  C   UNL A   1      41.952  19.268  26.158  1.00  0.00     0.338 C 
ATOM     21  O   UNL A   1      42.670  18.343  26.500  1.00  0.00    -0.246 OA
BRANCH  20  22
ATOM     22  C   UNL A   1      42.271  20.676  26.457  1.00  0.00     0.060 A 
ATOM     23  C   UNL A   1      42.533  21.527  25.378  1.00  0.00     0.016 A 
ATOM     24  C   UNL A   1      42.371  21.147  27.769  1.00  0.00     0.016 A 
ATOM     25  C   UNL A   1      42.895  22.852  25.606  1.00  0.00     0.010 A 
ATOM     26  C   UNL A   1      42.742  22.477  27.997  1.00  0.00     0.010 A 
ATOM     27  C   UNL A   1      43.014  23.334  26.917  1.00  0.00    -0.014 A 
BRANCH  27  28
ATOM     28  C   UNL A   1      43.463  24.728  27.144  1.00  0.00     0.031 A 
ATOM     29  C   UNL A   1      42.506  25.746  27.693  1.00  0.00     0.074 A 
ATOM     30  C   UNL A   1      44.743  25.065  26.902  1.00  0.00     0.049 A 
ATOM     31  N   UNL A   1      42.709  27.012  27.959  1.00  0.00    -0.248 NA
ATOM     32  C   UNL A   1      41.143  25.279  27.984  1.00  0.00     0.031 C 
ATOM     33  C   UNL A   1      45.773  24.153  26.406  1.00  0.00     0.029 A 
ATOM     34  N   UNL A   1      45.397  26.263  27.050  1.00  0.00    -0.354 N 
ATOM     35  C   UNL A   1      41.503  27.493  28.448  1.00  0.00     0.074 A 
ATOM     36  C   UNL A   1      40.565  26.390  28.420  1.00  0.00     0.031 C 
ATOM     37  C   UNL A   1      46.933  24.822  26.300  1.00  0.00     0.029 A 
ATOM     38  C   UNL A   1      46.720  26.214  26.689  1.00  0.00     0.049 A 
ATOM     39  H   UNL A   1      44.957  27.079  27.383  1.00  0.00     0.167 HD
ATOM     40  C   UNL A   1      41.211  28.739  28.890  1.00  0.00     0.037 A 
ATOM     41  C   UNL A   1      47.653  27.186  26.663  1.00  0.00     0.037 A 
ATOM     42  C   UNL A   1      42.146  29.832  28.925  1.00  0.00     0.049 A 
ATOM     43  C   UNL A   1      47.284  28.577  27.102  1.00  0.00     0.074 A 
ATOM     44  C   UNL A   1      41.941  31.128  29.365  1.00  0.00     0.029 A 
ATOM     45  N   UNL A   1      43.466  29.757  28.502  1.00  0.00    -0.354 N 
ATOM     46  N   UNL A   1      46.140  29.022  27.564  1.00  0.00    -0.248 NA
ATOM     47  C   UNL A   1      48.332  29.604  27.010  1.00  0.00     0.031 C 
ATOM     48  C   UNL A   1      43.124  31.849  29.171  1.00  0.00     0.029 A 
ATOM     49  C   UNL A   1      44.079  30.991  28.652  1.00  0.00     0.049 A 
ATOM     50  H   UNL A   1      43.901  28.949  28.149  1.00  0.00     0.167 HD
ATOM     51  C   UNL A   1      46.334  30.370  27.831  1.00  0.00     0.074 A 
ATOM     52  C   UNL A   1      47.710  30.671  27.494  1.00  0.00     0.031 C 
ATOM     53  C   UNL A   1      45.449  31.276  28.311  1.00  0.00     0.037 A 
BRANCH  40  54
ATOM     54  C   UNL A   1      39.814  29.001  29.366  1.00  0.00     0.064 A 
ATOM     55  C   UNL A   1      39.460  28.746  30.700  1.00  0.00     0.173 A 
ATOM     56  C   UNL A   1      38.810  29.431  28.488  1.00  0.00     0.173 A 
ATOM     57  F   UNL A   1      40.384  28.329  31.577  1.00  0.00    -0.203 F 
ATOM     58  C   UNL A   1      38.145  28.899  31.132  1.00  0.00     0.198 A 
ATOM     59  C   UNL A   1      37.500  29.603  28.929  1.00  0.00     0.198 A 
ATOM     60  F   UNL A   1      39.103  29.698  27.206  1.00  0.00    -0.203 F 
ATOM     61  F   UNL A   1      37.823  28.621  32.403  1.00  0.00    -0.200 F 
ATOM     62  C   UNL A   1      37.168  29.328  30.247  1.00  0.00     0.200 A 
ATOM     63  F   UNL A   1      36.560  30.037  28.079  1.00  0.00    -0.200 F 
ATOM     64  F   UNL A   1      35.903  29.479  30.666  1.00  0.00    -0.200 F 
ENDBRANCH  40  54
BRANCH  41  65
ATOM     65  C   UNL A   1      49.029  26.870  26.205  1.00  0.00     0.064 A 
ATOM     66  C   UNL A   1      49.403  27.036  24.863  1.00  0.00     0.173 A 
ATOM     67  C   UNL A   1      49.992  26.381  27.096  1.00  0.00     0.173 A 
ATOM     68  F   UNL A   1      48.517  27.506  23.973  1.00  0.00    -0.203 F 
ATOM     69  C   UNL A   1      50.683  26.704  24.427  1.00  0.00     0.198 A 
ATOM     70  C   UNL A   1      51.280  26.073  26.664  1.00  0.00     0.198 A 
ATOM     71  F   UNL A   1      49.688  26.232  28.394  1.00  0.00    -0.203 F 
ATOM     72  F   UNL A   1      51.006  26.846  23.135  1.00  0.00    -0.200 F 
ATOM     73  C   UNL A   1      51.622  26.226  25.328  1.00  0.00     0.200 A 
ATOM     74  F   UNL A   1      52.192  25.637  27.543  1.00  0.00    -0.200 F 
ATOM     75  F   UNL A   1      52.858  25.921  24.912  1.00  0.00    -0.200 F 
ENDBRANCH  41  65
BRANCH  53  76
ATOM     76  C   UNL A   1      45.933  32.681  28.514  1.00  0.00     0.064 A 
ATOM     77  C   UNL A   1      45.850  33.621  27.475  1.00  0.00     0.173 A 
ATOM     78  C   UNL A   1      46.547  33.075  29.711  1.00  0.00     0.173 A 
ATOM     79  F   UNL A   1      45.279  33.290  26.307  1.00  0.00    -0.203 F 
ATOM     80  C   UNL A   1      46.377  34.901  27.624  1.00  0.00     0.198 A 
ATOM     81  C   UNL A   1      47.052  34.364  29.865  1.00  0.00     0.198 A 
ATOM     82  F   UNL A   1      46.639  32.216  30.737  1.00  0.00    -0.203 F 
ATOM     83  F   UNL A   1      46.314  35.773  26.608  1.00  0.00    -0.200 F 
ATOM     84  C   UNL A   1      46.975  35.272  28.820  1.00  0.00     0.200 A 
ATOM     85  F   UNL A   1      47.611  34.728  31.028  1.00  0.00    -0.200 F 
ATOM     86  F   UNL A   1      47.474  36.507  28.964  1.00  0.00    -0.200 F 
ENDBRANCH  53  76
ENDBRANCH  27  28
ENDBRANCH  20  22
ENDBRANCH  19  20
ENDBRANCH  18  19
ENDBRANCH   1  18
TORSDOF 15
ENDMDL
