MODEL 1
REMARK VINA RESULT:     -12.1      0.000      0.000
REMARK SMILES CC[C@@H](C)[C@H](NC(=O)[C@H](C)N1C(=O)N2CCC3=c4cc(OC)ccc4=N[C@H]3[C@@]2(C)C1=O)C(=O)OCCOC(=O)c1ccc(-c2c3nc(c(-c4c(F)c(F)c(F)c(F)c4F)c4ccc([nH]4)c(-c4c(F)c(F)c(F)c(F)c4F)c4nc(c(-c5c(F)c(F)c(F)c(F)c5F)c5ccc2[nH]5)C=C4)C=C3)cc1
REMARK SMILES IDX 35 1 34 2 32 3 33 4 5 5 3 6 4 7 2 8 1 9 6 10 7 11 8 13 9 14
REMARK SMILES IDX 10 15 11 16 12 17 30 18 14 19 13 20 28 21 31 22 15 23 27 24
REMARK SMILES IDX 29 25 16 26 17 27 26 28 18 29 25 30 19 31 24 32 20 33 23 34
REMARK SMILES IDX 21 35 22 36 36 37 37 38 38 39 39 40 40 41 41 42 102 43 42 44
REMARK SMILES IDX 101 45 43 46 44 47 45 48 95 49 46 50 100 51 94 52 96 53
REMARK SMILES IDX 47 54 99 55 93 56 92 57 48 59 80 60 60 61 79 62 61 63 64 64
REMARK SMILES IDX 78 65 97 66 62 67 63 68 77 70 98 71 65 72 49 73 50 74 58 75
REMARK SMILES IDX 51 76 52 77 56 78 59 79 53 80 54 81 57 82 55 83 81 84 82 85
REMARK SMILES IDX 90 86 83 87 84 88 88 89 91 90 85 91 86 92 89 93 87 94 66 95
REMARK SMILES IDX 67 96 75 97 68 98 69 99 73 100 76 101 70 102 71 103 74 104
REMARK SMILES IDX 72 105
REMARK H PARENT 6 12 96 58 64 69
REMARK Flexibility Score: inf
ROOT
ATOM      1  C   UNL A   1      32.882  31.424  27.243  1.00  0.00     0.274 C 
ENDROOT
BRANCH   1   2
ATOM      2  O   UNL A   1      31.847  30.468  26.854  1.00  0.00    -0.461 OA
BRANCH   2   3
ATOM      3  C   UNL A   1      32.197  29.161  26.955  1.00  0.00     0.329 C 
ATOM      4  O   UNL A   1      32.972  28.756  27.823  1.00  0.00    -0.250 OA
BRANCH   3   5
ATOM      5  C   UNL A   1      31.758  28.216  25.785  1.00  0.00     0.195 C 
BRANCH   5   6
ATOM      6  C   UNL A   1      31.572  29.073  24.493  1.00  0.00     0.019 C 
ATOM      7  C   UNL A   1      30.219  28.828  23.808  1.00  0.00     0.010 C 
BRANCH   6   8
ATOM      8  C   UNL A   1      32.681  28.837  23.462  1.00  0.00     0.002 C 
ATOM      9  C   UNL A   1      34.021  28.566  24.135  1.00  0.00     0.004 C 
ENDBRANCH   6   8
ENDBRANCH   5   6
BRANCH   5  10
ATOM     10  N   UNL A   1      30.859  27.009  25.719  1.00  0.00    -0.341 N 
ATOM     11  C   UNL A   1      30.742  25.769  26.302  1.00  0.00     0.243 C 
ATOM     12  H   UNL A   1      30.140  27.151  25.062  1.00  0.00     0.164 HD
ATOM     13  O   UNL A   1      29.622  25.254  26.347  1.00  0.00    -0.273 OA
BRANCH  11  14
ATOM     14  C   UNL A   1      32.011  24.963  26.616  1.00  0.00     0.181 C 
ATOM     15  C   UNL A   1      33.092  25.956  26.191  1.00  0.00     0.042 C 
BRANCH  14  16
ATOM     16  N   UNL A   1      31.862  23.426  26.513  1.00  0.00    -0.250 N 
ATOM     17  C   UNL A   1      31.531  22.198  25.818  1.00  0.00     0.328 C 
ATOM     18  C   UNL A   1      32.782  22.945  27.323  1.00  0.00     0.259 C 
ATOM     19  N   UNL A   1      32.825  21.174  26.117  1.00  0.00    -0.307 N 
ATOM     20  O   UNL A   1      30.560  21.916  25.137  1.00  0.00    -0.248 OA
ATOM     21  C   UNL A   1      33.703  22.204  26.442  1.00  0.00     0.147 C 
ATOM     22  O   UNL A   1      32.757  23.043  28.538  1.00  0.00    -0.271 OA
ATOM     23  C   UNL A   1      33.815  20.136  25.181  1.00  0.00     0.127 C 
ATOM     24  C   UNL A   1      33.837  22.774  24.873  1.00  0.00     0.168 C 
ATOM     25  C   UNL A   1      34.833  21.677  27.341  1.00  0.00     0.048 C 
ATOM     26  C   UNL A   1      35.320  21.024  24.501  1.00  0.00     0.055 C 
ATOM     27  C   UNL A   1      35.112  22.657  24.179  1.00  0.00    -0.032 C 
ATOM     28  N   UNL A   1      32.747  22.716  23.659  1.00  0.00    -0.274 NA
ATOM     29  C   UNL A   1      34.833  23.453  23.077  1.00  0.00     0.005 A 
ATOM     30  C   UNL A   1      33.563  22.815  22.614  1.00  0.00     0.066 A 
ATOM     31  C   UNL A   1      34.156  24.892  23.265  1.00  0.00     0.056 A 
ATOM     32  C   UNL A   1      33.148  23.192  21.243  1.00  0.00     0.032 A 
ATOM     33  C   UNL A   1      33.027  25.196  22.521  1.00  0.00     0.119 A 
ATOM     34  C   UNL A   1      32.831  24.496  21.268  1.00  0.00     0.048 A 
BRANCH  33  35
ATOM     35  O   UNL A   1      31.873  25.730  23.077  1.00  0.00    -0.497 OA
ATOM     36  C   UNL A   1      30.583  25.108  22.816  1.00  0.00     0.278 C 
ENDBRANCH  33  35
ENDBRANCH  14  16
ENDBRANCH  11  14
ENDBRANCH   5  10
ENDBRANCH   3   5
ENDBRANCH   2   3
ENDBRANCH   1   2
BRANCH   1  37
ATOM     37  C   UNL A   1      32.375  32.872  27.362  1.00  0.00     0.275 C 
BRANCH  37  38
ATOM     38  O   UNL A   1      33.446  33.778  27.572  1.00  0.00    -0.458 OA
BRANCH  38  39
ATOM     39  C   UNL A   1      33.343  34.506  28.716  1.00  0.00     0.338 C 
ATOM     40  O   UNL A   1      32.415  35.140  29.140  1.00  0.00    -0.246 OA
BRANCH  39  41
ATOM     41  C   UNL A   1      34.527  34.131  29.476  1.00  0.00     0.060 A 
ATOM     42  C   UNL A   1      35.775  34.582  29.051  1.00  0.00     0.016 A 
ATOM     43  C   UNL A   1      34.364  33.178  30.484  1.00  0.00     0.016 A 
ATOM     44  C   UNL A   1      36.895  33.998  29.597  1.00  0.00     0.010 A 
ATOM     45  C   UNL A   1      35.486  32.593  31.032  1.00  0.00     0.010 A 
ATOM     46  C   UNL A   1      36.742  32.991  30.565  1.00  0.00    -0.014 A 
BRANCH  46  47
ATOM     47  C   UNL A   1      37.945  32.402  31.139  1.00  0.00     0.031 A 
ATOM     48  C   UNL A   1      38.388  32.809  32.501  1.00  0.00     0.074 A 
ATOM     49  C   UNL A   1      38.545  31.461  30.396  1.00  0.00     0.049 A 
ATOM     50  N   UNL A   1      39.328  32.286  33.236  1.00  0.00    -0.248 NA
ATOM     51  C   UNL A   1      37.692  33.949  33.125  1.00  0.00     0.031 C 
ATOM     52  C   UNL A   1      38.130  31.080  29.041  1.00  0.00     0.029 A 
ATOM     53  N   UNL A   1      39.592  30.637  30.673  1.00  0.00    -0.354 N 
ATOM     54  C   UNL A   1      39.326  33.015  34.416  1.00  0.00     0.074 A 
ATOM     55  C   UNL A   1      38.326  34.049  34.286  1.00  0.00     0.031 C 
ATOM     56  C   UNL A   1      38.891  30.061  28.622  1.00  0.00     0.029 A 
ATOM     57  C   UNL A   1      39.853  29.742  29.667  1.00  0.00     0.049 A 
ATOM     58  H   UNL A   1      40.109  30.680  31.509  1.00  0.00     0.167 HD
ATOM     59  C   UNL A   1      40.093  32.797  35.505  1.00  0.00     0.037 A 
ATOM     60  C   UNL A   1      40.768  28.762  29.623  1.00  0.00     0.037 A 
ATOM     61  C   UNL A   1      41.074  31.745  35.565  1.00  0.00     0.049 A 
ATOM     62  C   UNL A   1      41.606  28.557  30.851  1.00  0.00     0.074 A 
ATOM     63  C   UNL A   1      41.908  31.399  36.610  1.00  0.00     0.029 A 
ATOM     64  N   UNL A   1      41.350  30.869  34.519  1.00  0.00    -0.354 N 
ATOM     65  N   UNL A   1      41.562  29.204  31.995  1.00  0.00    -0.248 NA
ATOM     66  C   UNL A   1      42.607  27.491  30.797  1.00  0.00     0.031 C 
ATOM     67  C   UNL A   1      42.719  30.344  36.180  1.00  0.00     0.029 A 
ATOM     68  C   UNL A   1      42.357  29.997  34.886  1.00  0.00     0.049 A 
ATOM     69  H   UNL A   1      40.894  30.872  33.646  1.00  0.00     0.167 HD
ATOM     70  C   UNL A   1      42.523  28.620  32.801  1.00  0.00     0.074 A 
ATOM     71  C   UNL A   1      43.109  27.543  32.024  1.00  0.00     0.031 C 
ATOM     72  C   UNL A   1      42.900  28.945  34.062  1.00  0.00     0.037 A 
BRANCH  59  73
ATOM     73  C   UNL A   1      39.906  33.678  36.703  1.00  0.00     0.064 A 
ATOM     74  C   UNL A   1      40.552  34.919  36.808  1.00  0.00     0.173 A 
ATOM     75  C   UNL A   1      38.999  33.325  37.715  1.00  0.00     0.173 A 
ATOM     76  F   UNL A   1      41.443  35.297  35.878  1.00  0.00    -0.203 F 
ATOM     77  C   UNL A   1      40.294  35.776  37.875  1.00  0.00     0.198 A 
ATOM     78  C   UNL A   1      38.725  34.194  38.768  1.00  0.00     0.198 A 
ATOM     79  F   UNL A   1      38.359  32.147  37.668  1.00  0.00    -0.203 F 
ATOM     80  F   UNL A   1      40.934  36.950  37.960  1.00  0.00    -0.200 F 
ATOM     81  C   UNL A   1      39.371  35.419  38.845  1.00  0.00     0.200 A 
ATOM     82  F   UNL A   1      37.826  33.852  39.701  1.00  0.00    -0.200 F 
ATOM     83  F   UNL A   1      39.100  36.257  39.856  1.00  0.00    -0.200 F 
ENDBRANCH  59  73
BRANCH  60  84
ATOM     84  C   UNL A   1      40.884  27.916  28.411  1.00  0.00     0.064 A 
ATOM     85  C   UNL A   1      41.704  28.291  27.339  1.00  0.00     0.173 A 
ATOM     86  C   UNL A   1      40.222  26.680  28.323  1.00  0.00     0.173 A 
ATOM     87  F   UNL A   1      42.362  29.459  27.376  1.00  0.00    -0.203 F 
ATOM     88  C   UNL A   1      41.840  27.475  26.217  1.00  0.00     0.198 A 
ATOM     89  C   UNL A   1      40.384  25.851  27.216  1.00  0.00     0.198 A 
ATOM     90  F   UNL A   1      39.442  26.263  29.332  1.00  0.00    -0.203 F 
ATOM     91  F   UNL A   1      42.603  27.874  25.191  1.00  0.00    -0.200 F 
ATOM     92  C   UNL A   1      41.185  26.253  26.160  1.00  0.00     0.200 A 
ATOM     93  F   UNL A   1      39.771  24.660  27.179  1.00  0.00    -0.200 F 
ATOM     94  F   UNL A   1      41.328  25.464  25.087  1.00  0.00    -0.200 F 
ENDBRANCH  60  84
BRANCH  72  95
ATOM     95  C   UNL A   1      44.000  28.124  34.661  1.00  0.00     0.064 A 
ATOM     96  C   UNL A   1      43.721  26.957  35.384  1.00  0.00     0.173 A 
ATOM     97  C   UNL A   1      45.342  28.471  34.447  1.00  0.00     0.173 A 
ATOM     98  F   UNL A   1      42.450  26.597  35.622  1.00  0.00    -0.203 F 
ATOM     99  C   UNL A   1      44.749  26.172  35.891  1.00  0.00     0.198 A 
ATOM    100  C   UNL A   1      46.368  27.665  34.926  1.00  0.00     0.198 A 
ATOM    101  F   UNL A   1      45.654  29.575  33.751  1.00  0.00    -0.203 F 
ATOM    102  F   UNL A   1      44.462  25.083  36.615  1.00  0.00    -0.200 F 
ATOM    103  C   UNL A   1      46.071  26.520  35.651  1.00  0.00     0.200 A 
ATOM    104  F   UNL A   1      47.643  27.991  34.678  1.00  0.00    -0.200 F 
ATOM    105  F   UNL A   1      47.061  25.752  36.125  1.00  0.00    -0.200 F 
ENDBRANCH  72  95
ENDBRANCH  46  47
ENDBRANCH  39  41
ENDBRANCH  38  39
ENDBRANCH  37  38
ENDBRANCH   1  37
TORSDOF 17
ENDMDL
MODEL 2
REMARK VINA RESULT:     -11.9      4.394     10.045
REMARK SMILES CC[C@@H](C)[C@H](NC(=O)[C@H](C)N1C(=O)N2CCC3=c4cc(OC)ccc4=N[C@H]3[C@@]2(C)C1=O)C(=O)OCCOC(=O)c1ccc(-c2c3nc(c(-c4c(F)c(F)c(F)c(F)c4F)c4ccc([nH]4)c(-c4c(F)c(F)c(F)c(F)c4F)c4nc(c(-c5c(F)c(F)c(F)c(F)c5F)c5ccc2[nH]5)C=C4)C=C3)cc1
REMARK SMILES IDX 35 1 34 2 32 3 33 4 5 5 3 6 4 7 2 8 1 9 6 10 7 11 8 13 9 14
REMARK SMILES IDX 10 15 11 16 12 17 30 18 14 19 13 20 28 21 31 22 15 23 27 24
REMARK SMILES IDX 29 25 16 26 17 27 26 28 18 29 25 30 19 31 24 32 20 33 23 34
REMARK SMILES IDX 21 35 22 36 36 37 37 38 38 39 39 40 40 41 41 42 102 43 42 44
REMARK SMILES IDX 101 45 43 46 44 47 45 48 95 49 46 50 100 51 94 52 96 53
REMARK SMILES IDX 47 54 99 55 93 56 92 57 48 59 80 60 60 61 79 62 61 63 64 64
REMARK SMILES IDX 78 65 97 66 62 67 63 68 77 70 98 71 65 72 49 73 50 74 58 75
REMARK SMILES IDX 51 76 52 77 56 78 59 79 53 80 54 81 57 82 55 83 81 84 82 85
REMARK SMILES IDX 90 86 83 87 84 88 88 89 91 90 85 91 86 92 89 93 87 94 66 95
REMARK SMILES IDX 67 96 75 97 68 98 69 99 73 100 76 101 70 102 71 103 74 104
REMARK SMILES IDX 72 105
REMARK H PARENT 6 12 96 58 64 69
REMARK Flexibility Score: inf
ROOT
ATOM      1  C   UNL A   1      37.068  21.316  24.812  1.00  0.00     0.274 C 
ENDROOT
BRANCH   1   2
ATOM      2  O   UNL A   1      35.837  21.018  25.541  1.00  0.00    -0.461 OA
BRANCH   2   3
ATOM      3  C   UNL A   1      34.735  21.687  25.118  1.00  0.00     0.329 C 
ATOM      4  O   UNL A   1      34.764  22.454  24.153  1.00  0.00    -0.250 OA
BRANCH   3   5
ATOM      5  C   UNL A   1      33.470  21.627  26.039  1.00  0.00     0.195 C 
BRANCH   5   6
ATOM      6  C   UNL A   1      32.474  20.576  25.453  1.00  0.00     0.019 C 
ATOM      7  C   UNL A   1      32.887  19.129  25.763  1.00  0.00     0.010 C 
BRANCH   6   8
ATOM      8  C   UNL A   1      32.297  20.710  23.937  1.00  0.00     0.002 C 
ATOM      9  C   UNL A   1      32.427  19.363  23.238  1.00  0.00     0.004 C 
ENDBRANCH   6   8
ENDBRANCH   5   6
BRANCH   5  10
ATOM     10  N   UNL A   1      32.700  22.675  26.800  1.00  0.00    -0.341 N 
ATOM     11  C   UNL A   1      31.962  23.808  26.547  1.00  0.00     0.243 C 
ATOM     12  H   UNL A   1      32.736  22.495  27.767  1.00  0.00     0.164 HD
ATOM     13  O   UNL A   1      31.098  24.131  27.367  1.00  0.00    -0.273 OA
BRANCH  11  14
ATOM     14  C   UNL A   1      32.411  24.766  25.434  1.00  0.00     0.181 C 
ATOM     15  C   UNL A   1      33.643  25.398  26.081  1.00  0.00     0.042 C 
BRANCH  14  16
ATOM     16  N   UNL A   1      31.279  25.302  24.525  1.00  0.00    -0.250 N 
ATOM     17  C   UNL A   1      30.185  26.198  24.206  1.00  0.00     0.328 C 
ATOM     18  C   UNL A   1      31.691  25.061  23.299  1.00  0.00     0.259 C 
ATOM     19  N   UNL A   1      30.493  26.711  22.640  1.00  0.00    -0.307 N 
ATOM     20  O   UNL A   1      29.237  26.555  24.885  1.00  0.00    -0.248 OA
ATOM     21  C   UNL A   1      31.847  26.394  22.689  1.00  0.00     0.147 C 
ATOM     22  O   UNL A   1      31.799  23.950  22.808  1.00  0.00    -0.271 OA
ATOM     23  C   UNL A   1      30.501  28.213  21.816  1.00  0.00     0.127 C 
ATOM     24  C   UNL A   1      32.245  27.639  23.737  1.00  0.00     0.168 C 
ATOM     25  C   UNL A   1      32.392  26.161  21.270  1.00  0.00     0.048 C 
ATOM     26  C   UNL A   1      32.181  29.043  21.885  1.00  0.00     0.055 C 
ATOM     27  C   UNL A   1      33.087  28.728  23.262  1.00  0.00    -0.032 C 
ATOM     28  N   UNL A   1      31.328  28.352  24.883  1.00  0.00    -0.274 NA
ATOM     29  C   UNL A   1      33.348  29.346  24.476  1.00  0.00     0.005 A 
ATOM     30  C   UNL A   1      31.952  29.522  24.980  1.00  0.00     0.066 A 
ATOM     31  C   UNL A   1      33.801  28.483  25.746  1.00  0.00     0.056 A 
ATOM     32  C   UNL A   1      31.820  30.466  26.114  1.00  0.00     0.032 A 
ATOM     33  C   UNL A   1      33.118  28.651  26.940  1.00  0.00     0.119 A 
ATOM     34  C   UNL A   1      32.445  29.914  27.165  1.00  0.00     0.048 A 
BRANCH  33  35
ATOM     35  O   UNL A   1      32.634  27.590  27.694  1.00  0.00    -0.497 OA
ATOM     36  C   UNL A   1      31.226  27.537  28.057  1.00  0.00     0.278 C 
ENDBRANCH  33  35
ENDBRANCH  14  16
ENDBRANCH  11  14
ENDBRANCH   5  10
ENDBRANCH   3   5
ENDBRANCH   2   3
ENDBRANCH   1   2
BRANCH   1  37
ATOM     37  C   UNL A   1      38.307  20.592  25.365  1.00  0.00     0.275 C 
BRANCH  37  38
ATOM     38  O   UNL A   1      39.357  21.504  25.643  1.00  0.00    -0.458 OA
BRANCH  38  39
ATOM     39  C   UNL A   1      40.029  21.244  26.796  1.00  0.00     0.338 C 
ATOM     40  O   UNL A   1      40.430  20.198  27.231  1.00  0.00    -0.246 OA
BRANCH  39  41
ATOM     41  C   UNL A   1      40.414  22.563  27.281  1.00  0.00     0.060 A 
ATOM     42  C   UNL A   1      39.928  23.692  26.625  1.00  0.00     0.016 A 
ATOM     43  C   UNL A   1      41.406  22.618  28.262  1.00  0.00     0.016 A 
ATOM     44  C   UNL A   1      40.516  24.905  26.905  1.00  0.00     0.010 A 
ATOM     45  C   UNL A   1      41.994  23.833  28.543  1.00  0.00     0.010 A 
ATOM     46  C   UNL A   1      41.559  24.963  27.844  1.00  0.00    -0.014 A 
BRANCH  46  47
ATOM     47  C   UNL A   1      42.152  26.263  28.133  1.00  0.00     0.031 A 
ATOM     48  C   UNL A   1      43.498  26.596  27.593  1.00  0.00     0.074 A 
ATOM     49  C   UNL A   1      41.385  27.109  28.835  1.00  0.00     0.049 A 
ATOM     50  N   UNL A   1      44.114  27.744  27.607  1.00  0.00    -0.248 NA
ATOM     51  C   UNL A   1      44.258  25.507  26.954  1.00  0.00     0.031 C 
ATOM     52  C   UNL A   1      40.071  26.773  29.396  1.00  0.00     0.029 A 
ATOM     53  N   UNL A   1      41.571  28.416  29.167  1.00  0.00    -0.354 N 
ATOM     54  C   UNL A   1      45.323  27.525  26.962  1.00  0.00     0.074 A 
ATOM     55  C   UNL A   1      45.380  26.125  26.610  1.00  0.00     0.031 C 
ATOM     56  C   UNL A   1      39.548  27.866  29.967  1.00  0.00     0.029 A 
ATOM     57  C   UNL A   1      40.500  28.960  29.830  1.00  0.00     0.049 A 
ATOM     58  H   UNL A   1      42.390  28.919  28.955  1.00  0.00     0.167 HD
ATOM     59  C   UNL A   1      46.272  28.444  26.685  1.00  0.00     0.037 A 
ATOM     60  C   UNL A   1      40.320  30.219  30.256  1.00  0.00     0.037 A 
ATOM     61  C   UNL A   1      46.149  29.826  27.068  1.00  0.00     0.049 A 
ATOM     62  C   UNL A   1      41.402  31.208  29.934  1.00  0.00     0.074 A 
ATOM     63  C   UNL A   1      47.025  30.869  26.836  1.00  0.00     0.029 A 
ATOM     64  N   UNL A   1      45.070  30.351  27.772  1.00  0.00    -0.354 N 
ATOM     65  N   UNL A   1      42.518  31.019  29.267  1.00  0.00    -0.248 NA
ATOM     66  C   UNL A   1      41.204  32.580  30.406  1.00  0.00     0.031 C 
ATOM     67  C   UNL A   1      46.497  32.014  27.440  1.00  0.00     0.029 A 
ATOM     68  C   UNL A   1      45.268  31.700  28.003  1.00  0.00     0.049 A 
ATOM     69  H   UNL A   1      44.282  29.837  28.063  1.00  0.00     0.167 HD
ATOM     70  C   UNL A   1      43.155  32.247  29.232  1.00  0.00     0.074 A 
ATOM     71  C   UNL A   1      42.280  33.181  29.916  1.00  0.00     0.031 C 
ATOM     72  C   UNL A   1      44.356  32.577  28.697  1.00  0.00     0.037 A 
BRANCH  59  73
ATOM     73  C   UNL A   1      47.496  28.008  25.937  1.00  0.00     0.064 A 
ATOM     74  C   UNL A   1      48.684  27.678  26.606  1.00  0.00     0.173 A 
ATOM     75  C   UNL A   1      47.457  27.828  24.546  1.00  0.00     0.173 A 
ATOM     76  F   UNL A   1      48.781  27.849  27.934  1.00  0.00    -0.203 F 
ATOM     77  C   UNL A   1      49.783  27.177  25.914  1.00  0.00     0.198 A 
ATOM     78  C   UNL A   1      48.549  27.305  23.859  1.00  0.00     0.198 A 
ATOM     79  F   UNL A   1      46.348  28.135  23.856  1.00  0.00    -0.203 F 
ATOM     80  F   UNL A   1      50.911  26.880  26.573  1.00  0.00    -0.200 F 
ATOM     81  C   UNL A   1      49.710  26.977  24.544  1.00  0.00     0.200 A 
ATOM     82  F   UNL A   1      48.475  27.104  22.536  1.00  0.00    -0.200 F 
ATOM     83  F   UNL A   1      50.759  26.467  23.882  1.00  0.00    -0.200 F 
ENDBRANCH  59  73
BRANCH  60  84
ATOM     84  C   UNL A   1      39.074  30.584  30.973  1.00  0.00     0.064 A 
ATOM     85  C   UNL A   1      38.994  30.519  32.370  1.00  0.00     0.173 A 
ATOM     86  C   UNL A   1      37.951  31.063  30.278  1.00  0.00     0.173 A 
ATOM     87  F   UNL A   1      40.040  30.072  33.080  1.00  0.00    -0.203 F 
ATOM     88  C   UNL A   1      37.834  30.898  33.042  1.00  0.00     0.198 A 
ATOM     89  C   UNL A   1      36.805  31.472  30.953  1.00  0.00     0.198 A 
ATOM     90  F   UNL A   1      37.983  31.167  28.940  1.00  0.00    -0.203 F 
ATOM     91  F   UNL A   1      37.772  30.793  34.377  1.00  0.00    -0.200 F 
ATOM     92  C   UNL A   1      36.743  31.380  32.334  1.00  0.00     0.200 A 
ATOM     93  F   UNL A   1      35.764  31.963  30.266  1.00  0.00    -0.200 F 
ATOM     94  F   UNL A   1      35.633  31.757  32.984  1.00  0.00    -0.200 F 
ENDBRANCH  60  84
BRANCH  72  95
ATOM     95  C   UNL A   1      44.781  34.005  28.844  1.00  0.00     0.064 A 
ATOM     96  C   UNL A   1      45.579  34.416  29.920  1.00  0.00     0.173 A 
ATOM     97  C   UNL A   1      44.447  34.950  27.863  1.00  0.00     0.173 A 
ATOM     98  F   UNL A   1      45.910  33.546  30.886  1.00  0.00    -0.203 F 
ATOM     99  C   UNL A   1      46.014  35.732  30.020  1.00  0.00     0.198 A 
ATOM    100  C   UNL A   1      44.913  36.256  27.948  1.00  0.00     0.198 A 
ATOM    101  F   UNL A   1      43.694  34.596  26.810  1.00  0.00    -0.203 F 
ATOM    102  F   UNL A   1      46.741  36.115  31.077  1.00  0.00    -0.200 F 
ATOM    103  C   UNL A   1      45.690  36.647  29.028  1.00  0.00     0.200 A 
ATOM    104  F   UNL A   1      44.616  37.135  26.981  1.00  0.00    -0.200 F 
ATOM    105  F   UNL A   1      46.126  37.911  29.117  1.00  0.00    -0.200 F 
ENDBRANCH  72  95
ENDBRANCH  46  47
ENDBRANCH  39  41
ENDBRANCH  38  39
ENDBRANCH  37  38
ENDBRANCH   1  37
TORSDOF 17
ENDMDL
MODEL 3
REMARK VINA RESULT:     -11.7      4.669     10.007
REMARK SMILES CC[C@@H](C)[C@H](NC(=O)[C@H](C)N1C(=O)N2CCC3=c4cc(OC)ccc4=N[C@H]3[C@@]2(C)C1=O)C(=O)OCCOC(=O)c1ccc(-c2c3nc(c(-c4c(F)c(F)c(F)c(F)c4F)c4ccc([nH]4)c(-c4c(F)c(F)c(F)c(F)c4F)c4nc(c(-c5c(F)c(F)c(F)c(F)c5F)c5ccc2[nH]5)C=C4)C=C3)cc1
REMARK SMILES IDX 35 1 34 2 32 3 33 4 5 5 3 6 4 7 2 8 1 9 6 10 7 11 8 13 9 14
REMARK SMILES IDX 10 15 11 16 12 17 30 18 14 19 13 20 28 21 31 22 15 23 27 24
REMARK SMILES IDX 29 25 16 26 17 27 26 28 18 29 25 30 19 31 24 32 20 33 23 34
REMARK SMILES IDX 21 35 22 36 36 37 37 38 38 39 39 40 40 41 41 42 102 43 42 44
REMARK SMILES IDX 101 45 43 46 44 47 45 48 95 49 46 50 100 51 94 52 96 53
REMARK SMILES IDX 47 54 99 55 93 56 92 57 48 59 80 60 60 61 79 62 61 63 64 64
REMARK SMILES IDX 78 65 97 66 62 67 63 68 77 70 98 71 65 72 49 73 50 74 58 75
REMARK SMILES IDX 51 76 52 77 56 78 59 79 53 80 54 81 57 82 55 83 81 84 82 85
REMARK SMILES IDX 90 86 83 87 84 88 88 89 91 90 85 91 86 92 89 93 87 94 66 95
REMARK SMILES IDX 67 96 75 97 68 98 69 99 73 100 76 101 70 102 71 103 74 104
REMARK SMILES IDX 72 105
REMARK H PARENT 6 12 96 58 64 69
REMARK Flexibility Score: inf
ROOT
ATOM      1  C   UNL A   1      38.556  21.703  25.900  1.00  0.00     0.274 C 
ENDROOT
BRANCH   1   2
ATOM      2  O   UNL A   1      37.124  21.515  25.684  1.00  0.00    -0.461 OA
BRANCH   2   3
ATOM      3  C   UNL A   1      36.351  22.602  25.932  1.00  0.00     0.329 C 
ATOM      4  O   UNL A   1      36.834  23.722  26.113  1.00  0.00    -0.250 OA
BRANCH   3   5
ATOM      5  C   UNL A   1      34.831  22.346  26.210  1.00  0.00     0.195 C 
BRANCH   5   6
ATOM      6  C   UNL A   1      34.215  21.611  24.977  1.00  0.00     0.019 C 
ATOM      7  C   UNL A   1      34.367  22.409  23.673  1.00  0.00     0.010 C 
BRANCH   6   8
ATOM      8  C   UNL A   1      32.730  21.281  25.167  1.00  0.00     0.002 C 
ATOM      9  C   UNL A   1      32.365  19.954  24.514  1.00  0.00     0.004 C 
ENDBRANCH   6   8
ENDBRANCH   5   6
BRANCH   5  10
ATOM     10  N   UNL A   1      33.760  23.151  26.899  1.00  0.00    -0.341 N 
ATOM     11  C   UNL A   1      32.694  23.955  26.569  1.00  0.00     0.243 C 
ATOM     12  H   UNL A   1      33.851  23.080  27.876  1.00  0.00     0.164 HD
ATOM     13  O   UNL A   1      31.769  24.052  27.381  1.00  0.00    -0.273 OA
BRANCH  11  14
ATOM     14  C   UNL A   1      32.809  24.902  25.366  1.00  0.00     0.181 C 
ATOM     15  C   UNL A   1      34.094  25.652  25.715  1.00  0.00     0.042 C 
BRANCH  14  16
ATOM     16  N   UNL A   1      31.466  25.315  24.717  1.00  0.00    -0.250 N 
ATOM     17  C   UNL A   1      30.248  26.097  24.638  1.00  0.00     0.328 C 
ATOM     18  C   UNL A   1      31.633  25.094  23.430  1.00  0.00     0.259 C 
ATOM     19  N   UNL A   1      30.171  26.613  23.045  1.00  0.00    -0.307 N 
ATOM     20  O   UNL A   1      29.433  26.374  25.502  1.00  0.00    -0.248 OA
ATOM     21  C   UNL A   1      31.530  26.426  22.807  1.00  0.00     0.147 C 
ATOM     22  O   UNL A   1      31.742  23.990  22.923  1.00  0.00    -0.271 OA
ATOM     23  C   UNL A   1      29.863  28.095  22.243  1.00  0.00     0.127 C 
ATOM     24  C   UNL A   1      32.017  27.720  23.753  1.00  0.00     0.168 C 
ATOM     25  C   UNL A   1      31.786  26.223  21.304  1.00  0.00     0.048 C 
ATOM     26  C   UNL A   1      31.433  29.082  21.962  1.00  0.00     0.055 C 
ATOM     27  C   UNL A   1      32.632  28.876  23.117  1.00  0.00    -0.032 C 
ATOM     28  N   UNL A   1      31.296  28.361  25.070  1.00  0.00    -0.274 NA
ATOM     29  C   UNL A   1      33.081  29.534  24.252  1.00  0.00     0.005 A 
ATOM     30  C   UNL A   1      31.811  29.586  25.038  1.00  0.00     0.066 A 
ATOM     31  C   UNL A   1      33.870  28.738  25.396  1.00  0.00     0.056 A 
ATOM     32  C   UNL A   1      31.829  30.531  26.179  1.00  0.00     0.032 A 
ATOM     33  C   UNL A   1      33.439  28.860  26.707  1.00  0.00     0.119 A 
ATOM     34  C   UNL A   1      32.710  30.057  27.073  1.00  0.00     0.048 A 
BRANCH  33  35
ATOM     35  O   UNL A   1      33.227  27.770  27.541  1.00  0.00    -0.497 OA
ATOM     36  C   UNL A   1      31.902  27.518  28.089  1.00  0.00     0.278 C 
ENDBRANCH  33  35
ENDBRANCH  14  16
ENDBRANCH  11  14
ENDBRANCH   5  10
ENDBRANCH   3   5
ENDBRANCH   2   3
ENDBRANCH   1   2
BRANCH   1  37
ATOM     37  C   UNL A   1      39.418  20.535  25.392  1.00  0.00     0.275 C 
BRANCH  37  38
ATOM     38  O   UNL A   1      40.177  19.958  26.442  1.00  0.00    -0.458 OA
BRANCH  38  39
ATOM     39  C   UNL A   1      41.484  19.747  26.134  1.00  0.00     0.338 C 
ATOM     40  O   UNL A   1      41.981  18.908  25.431  1.00  0.00    -0.246 OA
BRANCH  39  41
ATOM     41  C   UNL A   1      42.156  20.942  26.626  1.00  0.00     0.060 A 
ATOM     42  C   UNL A   1      42.160  21.199  27.995  1.00  0.00     0.016 A 
ATOM     43  C   UNL A   1      42.597  21.864  25.675  1.00  0.00     0.016 A 
ATOM     44  C   UNL A   1      42.540  22.454  28.416  1.00  0.00     0.010 A 
ATOM     45  C   UNL A   1      42.978  23.121  26.097  1.00  0.00     0.010 A 
ATOM     46  C   UNL A   1      42.923  23.412  27.462  1.00  0.00    -0.014 A 
BRANCH  46  47
ATOM     47  C   UNL A   1      43.337  24.726  27.937  1.00  0.00     0.031 A 
ATOM     48  C   UNL A   1      44.784  25.074  27.977  1.00  0.00     0.074 A 
ATOM     49  C   UNL A   1      42.345  25.570  28.254  1.00  0.00     0.049 A 
ATOM     50  N   UNL A   1      45.332  26.232  28.212  1.00  0.00    -0.248 NA
ATOM     51  C   UNL A   1      45.747  23.988  27.720  1.00  0.00     0.031 C 
ATOM     52  C   UNL A   1      40.919  25.221  28.248  1.00  0.00     0.029 A 
ATOM     53  N   UNL A   1      42.369  26.885  28.605  1.00  0.00    -0.354 N 
ATOM     54  C   UNL A   1      46.699  26.024  28.112  1.00  0.00     0.074 A 
ATOM     55  C   UNL A   1      46.906  24.620  27.843  1.00  0.00     0.031 C 
ATOM     56  C   UNL A   1      40.201  26.313  28.537  1.00  0.00     0.029 A 
ATOM     57  C   UNL A   1      41.117  27.421  28.770  1.00  0.00     0.049 A 
ATOM     58  H   UNL A   1      43.200  27.399  28.729  1.00  0.00     0.167 HD
ATOM     59  C   UNL A   1      47.671  26.954  28.220  1.00  0.00     0.037 A 
ATOM     60  C   UNL A   1      40.769  28.683  29.061  1.00  0.00     0.037 A 
ATOM     61  C   UNL A   1      47.392  28.340  28.492  1.00  0.00     0.049 A 
ATOM     62  C   UNL A   1      41.880  29.686  29.180  1.00  0.00     0.074 A 
ATOM     63  C   UNL A   1      48.277  29.394  28.609  1.00  0.00     0.029 A 
ATOM     64  N   UNL A   1      46.115  28.858  28.692  1.00  0.00    -0.354 N 
ATOM     65  N   UNL A   1      43.172  29.505  29.022  1.00  0.00    -0.248 NA
ATOM     66  C   UNL A   1      41.496  31.061  29.503  1.00  0.00     0.031 C 
ATOM     67  C   UNL A   1      47.540  30.540  28.926  1.00  0.00     0.029 A 
ATOM     68  C   UNL A   1      46.191  30.213  28.954  1.00  0.00     0.049 A 
ATOM     69  H   UNL A   1      45.282  28.335  28.653  1.00  0.00     0.167 HD
ATOM     70  C   UNL A   1      43.758  30.743  29.219  1.00  0.00     0.074 A 
ATOM     71  C   UNL A   1      42.673  31.673  29.474  1.00  0.00     0.031 C 
ATOM     72  C   UNL A   1      45.070  31.085  29.204  1.00  0.00     0.037 A 
BRANCH  59  73
ATOM     73  C   UNL A   1      49.097  26.528  28.036  1.00  0.00     0.064 A 
ATOM     74  C   UNL A   1      49.666  26.407  26.760  1.00  0.00     0.173 A 
ATOM     75  C   UNL A   1      49.932  26.330  29.147  1.00  0.00     0.173 A 
ATOM     76  F   UNL A   1      48.908  26.569  25.664  1.00  0.00    -0.203 F 
ATOM     77  C   UNL A   1      51.018  26.111  26.602  1.00  0.00     0.198 A 
ATOM     78  C   UNL A   1      51.287  26.057  28.986  1.00  0.00     0.198 A 
ATOM     79  F   UNL A   1      49.437  26.426  30.390  1.00  0.00    -0.203 F 
ATOM     80  F   UNL A   1      51.536  25.988  25.372  1.00  0.00    -0.200 F 
ATOM     81  C   UNL A   1      51.830  25.951  27.713  1.00  0.00     0.200 A 
ATOM     82  F   UNL A   1      52.073  25.910  30.061  1.00  0.00    -0.200 F 
ATOM     83  F   UNL A   1      53.137  25.695  27.560  1.00  0.00    -0.200 F 
ENDBRANCH  59  73
BRANCH  60  84
ATOM     84  C   UNL A   1      39.337  29.038  29.209  1.00  0.00     0.064 A 
ATOM     85  C   UNL A   1      38.711  29.024  30.462  1.00  0.00     0.173 A 
ATOM     86  C   UNL A   1      38.576  29.456  28.105  1.00  0.00     0.173 A 
ATOM     87  F   UNL A   1      39.396  28.637  31.548  1.00  0.00    -0.203 F 
ATOM     88  C   UNL A   1      37.375  29.394  30.603  1.00  0.00     0.198 A 
ATOM     89  C   UNL A   1      37.250  29.856  28.252  1.00  0.00     0.198 A 
ATOM     90  F   UNL A   1      39.133  29.510  26.886  1.00  0.00    -0.203 F 
ATOM     91  F   UNL A   1      36.791  29.339  31.808  1.00  0.00    -0.200 F 
ATOM     92  C   UNL A   1      36.647  29.816  29.499  1.00  0.00     0.200 A 
ATOM     93  F   UNL A   1      36.561  30.289  27.187  1.00  0.00    -0.200 F 
ATOM     94  F   UNL A   1      35.367  30.184  29.639  1.00  0.00    -0.200 F 
ENDBRANCH  60  84
BRANCH  72  95
ATOM     95  C   UNL A   1      45.387  32.523  29.479  1.00  0.00     0.064 A 
ATOM     96  C   UNL A   1      45.763  32.949  30.760  1.00  0.00     0.173 A 
ATOM     97  C   UNL A   1      45.382  33.462  28.438  1.00  0.00     0.173 A 
ATOM     98  F   UNL A   1      45.767  32.085  31.785  1.00  0.00    -0.203 F 
ATOM     99  C   UNL A   1      46.107  34.274  30.994  1.00  0.00     0.198 A 
ATOM    100  C   UNL A   1      45.761  34.779  28.669  1.00  0.00     0.198 A 
ATOM    101  F   UNL A   1      45.039  33.093  27.195  1.00  0.00    -0.203 F 
ATOM    102  F   UNL A   1      46.424  34.672  32.233  1.00  0.00    -0.200 F 
ATOM    103  C   UNL A   1      46.117  35.185  29.947  1.00  0.00     0.200 A 
ATOM    104  F   UNL A   1      45.789  35.653  27.655  1.00  0.00    -0.200 F 
ATOM    105  F   UNL A   1      46.468  36.458  30.171  1.00  0.00    -0.200 F 
ENDBRANCH  72  95
ENDBRANCH  46  47
ENDBRANCH  39  41
ENDBRANCH  38  39
ENDBRANCH  37  38
ENDBRANCH   1  37
TORSDOF 17
ENDMDL
