MODEL 1
REMARK VINA RESULT:     -11.5      0.000      0.000
REMARK SMILES [N-]=[N+]=NC[C@@H](Nc1ccccc1Br)C(=O)OCCOC(=O)c1ccc(-c2c3nc(c(-c4c(F)c(F)c(F)c(F)c4F)c4ccc([nH]4)c(-c4c(F)c(F)c(F)c(F)c4F)c4nc(c(-c5c(F)c(F)c(F)c(F)c5F)c5ccc2[nH]5)C=C4)C=C3)cc1
REMARK SMILES IDX 17 1 16 2 14 3 15 4 5 5 4 6 3 7 1 8 2 9 6 10 7 12 8 13 12 14
REMARK SMILES IDX 9 15 11 16 13 17 10 18 18 19 19 20 20 21 21 22 22 23 23 24
REMARK SMILES IDX 84 25 24 26 83 27 25 28 26 29 27 30 77 31 28 32 82 33 76 34
REMARK SMILES IDX 78 35 29 36 81 37 75 38 74 39 30 41 62 42 42 43 61 44 43 45
REMARK SMILES IDX 46 46 60 47 79 48 44 49 45 50 59 52 80 53 47 54 31 55 32 56
REMARK SMILES IDX 40 57 33 58 34 59 38 60 41 61 35 62 36 63 39 64 37 65 63 66
REMARK SMILES IDX 64 67 72 68 65 69 66 70 70 71 73 72 67 73 68 74 71 75 69 76
REMARK SMILES IDX 48 77 49 78 57 79 50 80 51 81 55 82 58 83 52 84 53 85 56 86
REMARK SMILES IDX 54 87
REMARK H PARENT 6 11 78 40 46 51
REMARK Flexibility Score: inf
ROOT
ATOM      1  C   UNL A   1      36.236  20.166  24.996  1.00  0.00     0.274 C 
ENDROOT
BRANCH   1   2
ATOM      2  O   UNL A   1      35.694  21.103  25.953  1.00  0.00    -0.461 OA
BRANCH   2   3
ATOM      3  C   UNL A   1      34.545  21.720  25.555  1.00  0.00     0.328 C 
ATOM      4  O   UNL A   1      34.507  22.529  24.633  1.00  0.00    -0.250 OA
BRANCH   3   5
ATOM      5  C   UNL A   1      33.297  21.310  26.367  1.00  0.00     0.195 C 
BRANCH   5   6
ATOM      6  C   UNL A   1      32.707  22.514  27.127  1.00  0.00     0.127 C 
BRANCH   6   7
ATOM      7  N   UNL A   1      31.632  23.165  26.345  1.00  0.00    -0.091 NA
ATOM      8  N   UNL A   1      29.529  23.348  27.443  1.00  0.00    -0.003 NA
ATOM      9  N   UNL A   1      30.523  23.254  26.901  1.00  0.00     0.001 N 
ENDBRANCH   6   7
ENDBRANCH   5   6
BRANCH   5  10
ATOM     10  N   UNL A   1      32.256  20.562  25.613  1.00  0.00    -0.371 N 
ATOM     11  H   UNL A   1      31.307  20.798  25.721  1.00  0.00     0.161 HD
BRANCH  10  12
ATOM     12  C   UNL A   1      32.622  19.530  24.759  1.00  0.00     0.049 A 
ATOM     13  C   UNL A   1      33.130  18.357  25.329  1.00  0.00     0.027 A 
ATOM     14  C   UNL A   1      32.397  19.553  23.369  1.00  0.00     0.041 A 
ATOM     15  C   UNL A   1      33.318  17.210  24.556  1.00  0.00     0.002 A 
ATOM     16  C   UNL A   1      32.532  18.392  22.606  1.00  0.00     0.018 A 
ATOM     17  Br  UNL A   1      32.021  21.176  22.442  1.00  0.00    -0.049 Br
ATOM     18  C   UNL A   1      32.979  17.216  23.206  1.00  0.00     0.001 A 
ENDBRANCH  10  12
ENDBRANCH   5  10
ENDBRANCH   3   5
ENDBRANCH   2   3
ENDBRANCH   1   2
BRANCH   1  19
ATOM     19  C   UNL A   1      37.775  20.149  24.936  1.00  0.00     0.275 C 
BRANCH  19  20
ATOM     20  O   UNL A   1      38.387  21.360  25.427  1.00  0.00    -0.458 OA
BRANCH  20  21
ATOM     21  C   UNL A   1      39.495  21.162  26.178  1.00  0.00     0.338 C 
ATOM     22  O   UNL A   1      40.205  20.167  26.175  1.00  0.00    -0.246 OA
BRANCH  21  23
ATOM     23  C   UNL A   1      39.892  22.380  26.909  1.00  0.00     0.060 A 
ATOM     24  C   UNL A   1      39.251  23.566  26.544  1.00  0.00     0.016 A 
ATOM     25  C   UNL A   1      40.967  22.414  27.794  1.00  0.00     0.016 A 
ATOM     26  C   UNL A   1      39.686  24.794  27.019  1.00  0.00     0.010 A 
ATOM     27  C   UNL A   1      41.415  23.656  28.273  1.00  0.00     0.010 A 
ATOM     28  C   UNL A   1      40.799  24.854  27.857  1.00  0.00    -0.014 A 
BRANCH  28  29
ATOM     29  C   UNL A   1      41.386  26.187  28.142  1.00  0.00     0.031 A 
ATOM     30  C   UNL A   1      42.761  26.510  27.622  1.00  0.00     0.074 A 
ATOM     31  C   UNL A   1      40.657  27.137  28.757  1.00  0.00     0.049 A 
ATOM     32  N   UNL A   1      43.475  27.596  27.772  1.00  0.00    -0.248 NA
ATOM     33  C   UNL A   1      43.421  25.465  26.822  1.00  0.00     0.031 C 
ATOM     34  C   UNL A   1      39.283  26.973  29.229  1.00  0.00     0.029 A 
ATOM     35  N   UNL A   1      40.969  28.434  29.078  1.00  0.00    -0.354 N 
ATOM     36  C   UNL A   1      44.675  27.354  27.115  1.00  0.00     0.074 A 
ATOM     37  C   UNL A   1      44.605  26.009  26.587  1.00  0.00     0.031 C 
ATOM     38  C   UNL A   1      38.868  28.127  29.779  1.00  0.00     0.029 A 
ATOM     39  C   UNL A   1      39.964  29.092  29.743  1.00  0.00     0.049 A 
ATOM     40  H   UNL A   1      41.832  28.854  28.854  1.00  0.00     0.167 HD
ATOM     41  C   UNL A   1      45.735  28.182  26.961  1.00  0.00     0.037 A 
ATOM     42  C   UNL A   1      39.942  30.324  30.287  1.00  0.00     0.037 A 
ATOM     43  C   UNL A   1      45.787  29.529  27.469  1.00  0.00     0.049 A 
ATOM     44  C   UNL A   1      41.162  31.199  30.161  1.00  0.00     0.074 A 
ATOM     45  C   UNL A   1      46.812  30.453  27.365  1.00  0.00     0.029 A 
ATOM     46  N   UNL A   1      44.766  30.146  28.180  1.00  0.00    -0.354 N 
ATOM     47  N   UNL A   1      42.300  30.959  29.553  1.00  0.00    -0.248 NA
ATOM     48  C   UNL A   1      41.092  32.522  30.794  1.00  0.00     0.031 C 
ATOM     49  C   UNL A   1      46.437  31.604  28.065  1.00  0.00     0.029 A 
ATOM     50  C   UNL A   1      45.148  31.428  28.541  1.00  0.00     0.049 A 
ATOM     51  H   UNL A   1      43.899  29.733  28.395  1.00  0.00     0.167 HD
ATOM     52  C   UNL A   1      43.063  32.109  29.699  1.00  0.00     0.074 A 
ATOM     53  C   UNL A   1      42.250  33.055  30.434  1.00  0.00     0.031 C 
ATOM     54  C   UNL A   1      44.323  32.363  29.265  1.00  0.00     0.037 A 
BRANCH  41  55
ATOM     55  C   UNL A   1      46.943  27.643  26.249  1.00  0.00     0.064 A 
ATOM     56  C   UNL A   1      48.009  27.041  26.934  1.00  0.00     0.173 A 
ATOM     57  C   UNL A   1      47.018  27.704  24.848  1.00  0.00     0.173 A 
ATOM     58  F   UNL A   1      47.997  26.970  28.274  1.00  0.00    -0.203 F 
ATOM     59  C   UNL A   1      49.117  26.549  26.247  1.00  0.00     0.198 A 
ATOM     60  C   UNL A   1      48.110  27.179  24.162  1.00  0.00     0.198 A 
ATOM     61  F   UNL A   1      46.026  28.265  24.141  1.00  0.00    -0.203 F 
ATOM     62  F   UNL A   1      50.148  26.028  26.927  1.00  0.00    -0.200 F 
ATOM     63  C   UNL A   1      49.163  26.610  24.862  1.00  0.00     0.200 A 
ATOM     64  F   UNL A   1      48.144  27.226  22.823  1.00  0.00    -0.200 F 
ATOM     65  F   UNL A   1      50.225  26.127  24.202  1.00  0.00    -0.200 F 
ENDBRANCH  41  55
BRANCH  42  66
ATOM     66  C   UNL A   1      38.740  30.797  31.026  1.00  0.00     0.064 A 
ATOM     67  C   UNL A   1      37.677  31.425  30.360  1.00  0.00     0.173 A 
ATOM     68  C   UNL A   1      38.648  30.668  32.420  1.00  0.00     0.173 A 
ATOM     69  F   UNL A   1      37.726  31.597  29.031  1.00  0.00    -0.203 F 
ATOM     70  C   UNL A   1      36.586  31.934  31.064  1.00  0.00     0.198 A 
ATOM     71  C   UNL A   1      37.540  31.143  33.118  1.00  0.00     0.198 A 
ATOM     72  F   UNL A   1      39.638  30.079  33.107  1.00  0.00    -0.203 F 
ATOM     73  F   UNL A   1      35.618  32.591  30.411  1.00  0.00    -0.200 F 
ATOM     74  C   UNL A   1      36.516  31.788  32.442  1.00  0.00     0.200 A 
ATOM     75  F   UNL A   1      37.471  30.988  34.447  1.00  0.00    -0.200 F 
ATOM     76  F   UNL A   1      35.470  32.282  33.118  1.00  0.00    -0.200 F 
ENDBRANCH  42  66
BRANCH  54  77
ATOM     77  C   UNL A   1      44.874  33.739  29.523  1.00  0.00     0.064 A 
ATOM     78  C   UNL A   1      45.613  34.041  30.677  1.00  0.00     0.173 A 
ATOM     79  C   UNL A   1      44.663  34.770  28.593  1.00  0.00     0.173 A 
ATOM     80  F   UNL A   1      45.836  33.098  31.604  1.00  0.00    -0.203 F 
ATOM     81  C   UNL A   1      46.073  35.335  30.915  1.00  0.00     0.198 A 
ATOM     82  C   UNL A   1      45.161  36.050  28.815  1.00  0.00     0.198 A 
ATOM     83  F   UNL A   1      43.975  34.535  27.465  1.00  0.00    -0.203 F 
ATOM     84  F   UNL A   1      46.708  35.617  32.061  1.00  0.00    -0.200 F 
ATOM     85  C   UNL A   1      45.851  36.335  29.981  1.00  0.00     0.200 A 
ATOM     86  F   UNL A   1      44.964  37.011  27.900  1.00  0.00    -0.200 F 
ATOM     87  F   UNL A   1      46.293  37.579  30.213  1.00  0.00    -0.200 F 
ENDBRANCH  54  77
ENDBRANCH  28  29
ENDBRANCH  21  23
ENDBRANCH  20  21
ENDBRANCH  19  20
ENDBRANCH   1  19
TORSDOF 15
ENDMDL
MODEL 2
REMARK VINA RESULT:     -11.3      5.358     10.196
REMARK SMILES [N-]=[N+]=NC[C@@H](Nc1ccccc1Br)C(=O)OCCOC(=O)c1ccc(-c2c3nc(c(-c4c(F)c(F)c(F)c(F)c4F)c4ccc([nH]4)c(-c4c(F)c(F)c(F)c(F)c4F)c4nc(c(-c5c(F)c(F)c(F)c(F)c5F)c5ccc2[nH]5)C=C4)C=C3)cc1
REMARK SMILES IDX 17 1 16 2 14 3 15 4 5 5 4 6 3 7 1 8 2 9 6 10 7 12 8 13 12 14
REMARK SMILES IDX 9 15 11 16 13 17 10 18 18 19 19 20 20 21 21 22 22 23 23 24
REMARK SMILES IDX 84 25 24 26 83 27 25 28 26 29 27 30 77 31 28 32 82 33 76 34
REMARK SMILES IDX 78 35 29 36 81 37 75 38 74 39 30 41 62 42 42 43 61 44 43 45
REMARK SMILES IDX 46 46 60 47 79 48 44 49 45 50 59 52 80 53 47 54 31 55 32 56
REMARK SMILES IDX 40 57 33 58 34 59 38 60 41 61 35 62 36 63 39 64 37 65 63 66
REMARK SMILES IDX 64 67 72 68 65 69 66 70 70 71 73 72 67 73 68 74 71 75 69 76
REMARK SMILES IDX 48 77 49 78 57 79 50 80 51 81 55 82 58 83 52 84 53 85 56 86
REMARK SMILES IDX 54 87
REMARK H PARENT 6 11 78 40 46 51
REMARK Flexibility Score: inf
ROOT
ATOM      1  C   UNL A   1      32.547  29.632  25.016  1.00  0.00     0.274 C 
ENDROOT
BRANCH   1   2
ATOM      2  O   UNL A   1      32.759  28.256  25.403  1.00  0.00    -0.461 OA
BRANCH   2   3
ATOM      3  C   UNL A   1      32.299  27.337  24.507  1.00  0.00     0.328 C 
ATOM      4  O   UNL A   1      31.862  26.239  24.843  1.00  0.00    -0.250 OA
BRANCH   3   5
ATOM      5  C   UNL A   1      32.376  27.797  23.036  1.00  0.00     0.195 C 
BRANCH   5   6
ATOM      6  C   UNL A   1      33.595  27.181  22.322  1.00  0.00     0.127 C 
BRANCH   6   7
ATOM      7  N   UNL A   1      33.222  25.943  21.600  1.00  0.00    -0.091 NA
ATOM      8  N   UNL A   1      34.101  23.924  22.503  1.00  0.00    -0.003 NA
ATOM      9  N   UNL A   1      33.687  24.881  22.052  1.00  0.00     0.001 N 
ENDBRANCH   6   7
ENDBRANCH   5   6
BRANCH   5  10
ATOM     10  N   UNL A   1      31.127  27.637  22.245  1.00  0.00    -0.371 N 
ATOM     11  H   UNL A   1      31.054  26.911  21.584  1.00  0.00     0.161 HD
BRANCH  10  12
ATOM     12  C   UNL A   1      30.065  28.511  22.437  1.00  0.00     0.049 A 
ATOM     13  C   UNL A   1      30.197  29.819  21.958  1.00  0.00     0.027 A 
ATOM     14  C   UNL A   1      28.823  28.120  22.974  1.00  0.00     0.041 A 
ATOM     15  C   UNL A   1      29.103  30.683  21.927  1.00  0.00     0.002 A 
ATOM     16  C   UNL A   1      27.714  28.963  22.892  1.00  0.00     0.018 A 
ATOM     17  Br  UNL A   1      28.619  26.490  23.942  1.00  0.00    -0.049 Br
ATOM     18  C   UNL A   1      27.853  30.241  22.353  1.00  0.00     0.001 A 
ENDBRANCH  10  12
ENDBRANCH   5  10
ENDBRANCH   3   5
ENDBRANCH   2   3
ENDBRANCH   1   2
BRANCH   1  19
ATOM     19  C   UNL A   1      31.923  30.506  26.120  1.00  0.00     0.275 C 
BRANCH  19  20
ATOM     20  O   UNL A   1      32.671  30.501  27.354  1.00  0.00    -0.458 OA
BRANCH  20  21
ATOM     21  C   UNL A   1      33.452  31.590  27.540  1.00  0.00     0.338 C 
ATOM     22  O   UNL A   1      33.075  32.751  27.599  1.00  0.00    -0.246 OA
BRANCH  21  23
ATOM     23  C   UNL A   1      34.845  31.224  27.856  1.00  0.00     0.060 A 
ATOM     24  C   UNL A   1      35.089  29.879  28.146  1.00  0.00     0.016 A 
ATOM     25  C   UNL A   1      35.853  32.168  28.039  1.00  0.00     0.016 A 
ATOM     26  C   UNL A   1      36.311  29.463  28.650  1.00  0.00     0.010 A 
ATOM     27  C   UNL A   1      37.090  31.752  28.554  1.00  0.00     0.010 A 
ATOM     28  C   UNL A   1      37.312  30.403  28.898  1.00  0.00    -0.014 A 
BRANCH  28  29
ATOM     29  C   UNL A   1      38.505  29.965  29.665  1.00  0.00     0.031 A 
ATOM     30  C   UNL A   1      38.697  30.465  31.071  1.00  0.00     0.074 A 
ATOM     31  C   UNL A   1      39.344  29.044  29.155  1.00  0.00     0.049 A 
ATOM     32  N   UNL A   1      39.673  30.235  31.911  1.00  0.00    -0.248 NA
ATOM     33  C   UNL A   1      37.644  31.346  31.603  1.00  0.00     0.031 C 
ATOM     34  C   UNL A   1      39.214  28.419  27.839  1.00  0.00     0.029 A 
ATOM     35  N   UNL A   1      40.466  28.464  29.692  1.00  0.00    -0.354 N 
ATOM     36  C   UNL A   1      39.368  30.963  33.054  1.00  0.00     0.074 A 
ATOM     37  C   UNL A   1      38.130  31.664  32.793  1.00  0.00     0.031 C 
ATOM     38  C   UNL A   1      40.217  27.542  27.671  1.00  0.00     0.029 A 
ATOM     39  C   UNL A   1      41.086  27.580  28.844  1.00  0.00     0.049 A 
ATOM     40  H   UNL A   1      40.796  28.664  30.598  1.00  0.00     0.167 HD
ATOM     41  C   UNL A   1      40.057  31.034  34.218  1.00  0.00     0.037 A 
ATOM     42  C   UNL A   1      42.241  26.902  28.987  1.00  0.00     0.037 A 
ATOM     43  C   UNL A   1      41.276  30.313  34.480  1.00  0.00     0.049 A 
ATOM     44  C   UNL A   1      43.022  27.054  30.267  1.00  0.00     0.074 A 
ATOM     45  C   UNL A   1      42.050  30.312  35.627  1.00  0.00     0.029 A 
ATOM     46  N   UNL A   1      41.900  29.462  33.578  1.00  0.00    -0.354 N 
ATOM     47  N   UNL A   1      42.738  27.757  31.337  1.00  0.00    -0.248 NA
ATOM     48  C   UNL A   1      44.285  26.311  30.359  1.00  0.00     0.031 C 
ATOM     49  C   UNL A   1      43.173  29.511  35.397  1.00  0.00     0.029 A 
ATOM     50  C   UNL A   1      43.062  28.951  34.135  1.00  0.00     0.049 A 
ATOM     51  H   UNL A   1      41.566  29.252  32.676  1.00  0.00     0.167 HD
ATOM     52  C   UNL A   1      43.764  27.512  32.240  1.00  0.00     0.074 A 
ATOM     53  C   UNL A   1      44.667  26.579  31.599  1.00  0.00     0.031 C 
ATOM     54  C   UNL A   1      43.945  28.014  33.487  1.00  0.00     0.037 A 
BRANCH  41  55
ATOM     55  C   UNL A   1      39.530  31.953  35.284  1.00  0.00     0.064 A 
ATOM     56  C   UNL A   1      38.625  31.520  36.265  1.00  0.00     0.173 A 
ATOM     57  C   UNL A   1      39.965  33.287  35.339  1.00  0.00     0.173 A 
ATOM     58  F   UNL A   1      38.165  30.260  36.251  1.00  0.00    -0.203 F 
ATOM     59  C   UNL A   1      38.154  32.394  37.243  1.00  0.00     0.198 A 
ATOM     60  C   UNL A   1      39.519  34.148  36.338  1.00  0.00     0.198 A 
ATOM     61  F   UNL A   1      40.831  33.755  34.429  1.00  0.00    -0.203 F 
ATOM     62  F   UNL A   1      37.249  31.973  38.136  1.00  0.00    -0.200 F 
ATOM     63  C   UNL A   1      38.608  33.704  37.283  1.00  0.00     0.200 A 
ATOM     64  F   UNL A   1      39.970  35.409  36.384  1.00  0.00    -0.200 F 
ATOM     65  F   UNL A   1      38.160  34.542  38.230  1.00  0.00    -0.200 F 
ENDBRANCH  41  55
BRANCH  42  66
ATOM     66  C   UNL A   1      42.747  26.041  27.884  1.00  0.00     0.064 A 
ATOM     67  C   UNL A   1      43.619  26.545  26.908  1.00  0.00     0.173 A 
ATOM     68  C   UNL A   1      42.335  24.705  27.759  1.00  0.00     0.173 A 
ATOM     69  F   UNL A   1      44.023  27.823  26.966  1.00  0.00    -0.203 F 
ATOM     70  C   UNL A   1      44.033  25.758  25.834  1.00  0.00     0.198 A 
ATOM     71  C   UNL A   1      42.778  23.908  26.707  1.00  0.00     0.198 A 
ATOM     72  F   UNL A   1      41.499  24.173  28.662  1.00  0.00    -0.203 F 
ATOM     73  F   UNL A   1      44.810  26.286  24.880  1.00  0.00    -0.200 F 
ATOM     74  C   UNL A   1      43.616  24.438  25.737  1.00  0.00     0.200 A 
ATOM     75  F   UNL A   1      42.384  22.630  26.625  1.00  0.00    -0.200 F 
ATOM     76  F   UNL A   1      44.010  23.684  24.703  1.00  0.00    -0.200 F 
ENDBRANCH  42  66
BRANCH  54  77
ATOM     77  C   UNL A   1      45.136  27.515  34.262  1.00  0.00     0.064 A 
ATOM     78  C   UNL A   1      46.378  28.166  34.220  1.00  0.00     0.173 A 
ATOM     79  C   UNL A   1      45.025  26.368  35.064  1.00  0.00     0.173 A 
ATOM     80  F   UNL A   1      46.543  29.260  33.462  1.00  0.00    -0.203 F 
ATOM     81  C   UNL A   1      47.477  27.658  34.909  1.00  0.00     0.198 A 
ATOM     82  C   UNL A   1      46.114  25.888  35.784  1.00  0.00     0.198 A 
ATOM     83  F   UNL A   1      43.858  25.712  35.152  1.00  0.00    -0.203 F 
ATOM     84  F   UNL A   1      48.672  28.252  34.791  1.00  0.00    -0.200 F 
ATOM     85  C   UNL A   1      47.342  26.523  35.694  1.00  0.00     0.200 A 
ATOM     86  F   UNL A   1      45.977  24.803  36.560  1.00  0.00    -0.200 F 
ATOM     87  F   UNL A   1      48.401  26.035  36.355  1.00  0.00    -0.200 F 
ENDBRANCH  54  77
ENDBRANCH  28  29
ENDBRANCH  21  23
ENDBRANCH  20  21
ENDBRANCH  19  20
ENDBRANCH   1  19
TORSDOF 15
ENDMDL
MODEL 3
REMARK VINA RESULT:     -11.3      0.667      7.648
REMARK SMILES [N-]=[N+]=NC[C@@H](Nc1ccccc1Br)C(=O)OCCOC(=O)c1ccc(-c2c3nc(c(-c4c(F)c(F)c(F)c(F)c4F)c4ccc([nH]4)c(-c4c(F)c(F)c(F)c(F)c4F)c4nc(c(-c5c(F)c(F)c(F)c(F)c5F)c5ccc2[nH]5)C=C4)C=C3)cc1
REMARK SMILES IDX 17 1 16 2 14 3 15 4 5 5 4 6 3 7 1 8 2 9 6 10 7 12 8 13 12 14
REMARK SMILES IDX 9 15 11 16 13 17 10 18 18 19 19 20 20 21 21 22 22 23 23 24
REMARK SMILES IDX 84 25 24 26 83 27 25 28 26 29 27 30 77 31 28 32 82 33 76 34
REMARK SMILES IDX 78 35 29 36 81 37 75 38 74 39 30 41 62 42 42 43 61 44 43 45
REMARK SMILES IDX 46 46 60 47 79 48 44 49 45 50 59 52 80 53 47 54 31 55 32 56
REMARK SMILES IDX 40 57 33 58 34 59 38 60 41 61 35 62 36 63 39 64 37 65 63 66
REMARK SMILES IDX 64 67 72 68 65 69 66 70 70 71 73 72 67 73 68 74 71 75 69 76
REMARK SMILES IDX 48 77 49 78 57 79 50 80 51 81 55 82 58 83 52 84 53 85 56 86
REMARK SMILES IDX 54 87
REMARK H PARENT 6 11 78 40 46 51
REMARK Flexibility Score: inf
ROOT
ATOM      1  C   UNL A   1      36.112  20.153  25.001  1.00  0.00     0.274 C 
ENDROOT
BRANCH   1   2
ATOM      2  O   UNL A   1      35.618  21.105  25.969  1.00  0.00    -0.461 OA
BRANCH   2   3
ATOM      3  C   UNL A   1      34.579  21.872  25.533  1.00  0.00     0.328 C 
ATOM      4  O   UNL A   1      34.671  22.640  24.579  1.00  0.00    -0.250 OA
BRANCH   3   5
ATOM      5  C   UNL A   1      33.277  21.689  26.342  1.00  0.00     0.195 C 
BRANCH   5   6
ATOM      6  C   UNL A   1      32.761  23.037  26.881  1.00  0.00     0.127 C 
BRANCH   6   7
ATOM      7  N   UNL A   1      31.329  22.954  27.247  1.00  0.00    -0.091 NA
ATOM      8  N   UNL A   1      29.973  24.761  26.500  1.00  0.00    -0.003 NA
ATOM      9  N   UNL A   1      30.611  23.900  26.876  1.00  0.00     0.001 N 
ENDBRANCH   6   7
ENDBRANCH   5   6
BRANCH   5  10
ATOM     10  N   UNL A   1      32.204  20.910  25.668  1.00  0.00    -0.371 N 
ATOM     11  H   UNL A   1      31.264  21.186  25.762  1.00  0.00     0.161 HD
BRANCH  10  12
ATOM     12  C   UNL A   1      32.527  19.795  24.906  1.00  0.00     0.049 A 
ATOM     13  C   UNL A   1      32.919  18.633  25.580  1.00  0.00     0.027 A 
ATOM     14  C   UNL A   1      32.364  19.733  23.509  1.00  0.00     0.041 A 
ATOM     15  C   UNL A   1      33.052  17.422  24.899  1.00  0.00     0.002 A 
ATOM     16  C   UNL A   1      32.443  18.513  22.835  1.00  0.00     0.018 A 
ATOM     17  Br  UNL A   1      32.153  21.307  22.454  1.00  0.00    -0.049 Br
ATOM     18  C   UNL A   1      32.773  17.354  23.537  1.00  0.00     0.001 A 
ENDBRANCH  10  12
ENDBRANCH   5  10
ENDBRANCH   3   5
ENDBRANCH   2   3
ENDBRANCH   1   2
BRANCH   1  19
ATOM     19  C   UNL A   1      37.621  20.268  24.719  1.00  0.00     0.275 C 
BRANCH  19  20
ATOM     20  O   UNL A   1      38.228  21.448  25.288  1.00  0.00    -0.458 OA
BRANCH  20  21
ATOM     21  C   UNL A   1      39.258  21.197  26.128  1.00  0.00     0.338 C 
ATOM     22  O   UNL A   1      39.829  20.127  26.277  1.00  0.00    -0.246 OA
BRANCH  21  23
ATOM     23  C   UNL A   1      39.774  22.430  26.753  1.00  0.00     0.060 A 
ATOM     24  C   UNL A   1      39.225  23.635  26.308  1.00  0.00     0.016 A 
ATOM     25  C   UNL A   1      40.870  22.440  27.612  1.00  0.00     0.016 A 
ATOM     26  C   UNL A   1      39.774  24.853  26.675  1.00  0.00     0.010 A 
ATOM     27  C   UNL A   1      41.433  23.672  27.983  1.00  0.00     0.010 A 
ATOM     28  C   UNL A   1      40.909  24.883  27.485  1.00  0.00    -0.014 A 
BRANCH  28  29
ATOM     29  C   UNL A   1      41.613  26.179  27.652  1.00  0.00     0.031 A 
ATOM     30  C   UNL A   1      40.960  27.270  28.457  1.00  0.00     0.074 A 
ATOM     31  C   UNL A   1      42.866  26.340  27.188  1.00  0.00     0.049 A 
ATOM     32  N   UNL A   1      41.379  28.483  28.710  1.00  0.00    -0.248 NA
ATOM     33  C   UNL A   1      39.657  26.948  29.061  1.00  0.00     0.031 C 
ATOM     34  C   UNL A   1      43.637  25.327  26.469  1.00  0.00     0.029 A 
ATOM     35  N   UNL A   1      43.716  27.415  27.265  1.00  0.00    -0.354 N 
ATOM     36  C   UNL A   1      40.381  29.077  29.473  1.00  0.00     0.074 A 
ATOM     37  C   UNL A   1      39.324  28.101  29.621  1.00  0.00     0.031 C 
ATOM     38  C   UNL A   1      44.848  25.828  26.172  1.00  0.00     0.029 A 
ATOM     39  C   UNL A   1      44.918  27.211  26.634  1.00  0.00     0.049 A 
ATOM     40  H   UNL A   1      43.486  28.253  27.729  1.00  0.00     0.167 HD
ATOM     41  C   UNL A   1      40.354  30.322  30.007  1.00  0.00     0.037 A 
ATOM     42  C   UNL A   1      45.946  28.057  26.427  1.00  0.00     0.037 A 
ATOM     43  C   UNL A   1      41.423  31.279  29.876  1.00  0.00     0.049 A 
ATOM     44  C   UNL A   1      45.859  29.459  26.972  1.00  0.00     0.074 A 
ATOM     45  C   UNL A   1      41.497  32.565  30.380  1.00  0.00     0.029 A 
ATOM     46  N   UNL A   1      42.607  31.053  29.188  1.00  0.00    -0.354 N 
ATOM     47  N   UNL A   1      44.906  30.020  27.678  1.00  0.00    -0.248 NA
ATOM     48  C   UNL A   1      46.997  30.345  26.696  1.00  0.00     0.031 C 
ATOM     49  C   UNL A   1      42.696  33.138  29.946  1.00  0.00     0.029 A 
ATOM     50  C   UNL A   1      43.405  32.185  29.234  1.00  0.00     0.049 A 
ATOM     51  H   UNL A   1      42.844  30.212  28.733  1.00  0.00     0.167 HD
ATOM     52  C   UNL A   1      45.344  31.306  27.960  1.00  0.00     0.074 A 
ATOM     53  C   UNL A   1      46.659  31.436  27.366  1.00  0.00     0.031 C 
ATOM     54  C   UNL A   1      44.717  32.294  28.647  1.00  0.00     0.037 A 
BRANCH  41  55
ATOM     55  C   UNL A   1      39.114  30.735  30.747  1.00  0.00     0.064 A 
ATOM     56  C   UNL A   1      38.019  31.327  30.101  1.00  0.00     0.173 A 
ATOM     57  C   UNL A   1      39.012  30.506  32.129  1.00  0.00     0.173 A 
ATOM     58  F   UNL A   1      38.068  31.583  28.785  1.00  0.00    -0.203 F 
ATOM     59  C   UNL A   1      36.881  31.700  30.813  1.00  0.00     0.198 A 
ATOM     60  C   UNL A   1      37.859  30.847  32.832  1.00  0.00     0.198 A 
ATOM     61  F   UNL A   1      40.027  29.940  32.799  1.00  0.00    -0.203 F 
ATOM     62  F   UNL A   1      35.869  32.313  30.184  1.00  0.00    -0.200 F 
ATOM     63  C   UNL A   1      36.798  31.451  32.175  1.00  0.00     0.200 A 
ATOM     64  F   UNL A   1      37.777  30.592  34.145  1.00  0.00    -0.200 F 
ATOM     65  F   UNL A   1      35.699  31.802  32.857  1.00  0.00    -0.200 F 
ENDBRANCH  41  55
BRANCH  42  66
ATOM     66  C   UNL A   1      47.133  27.617  25.645  1.00  0.00     0.064 A 
ATOM     67  C   UNL A   1      48.279  27.116  26.281  1.00  0.00     0.173 A 
ATOM     68  C   UNL A   1      47.163  27.728  24.246  1.00  0.00     0.173 A 
ATOM     69  F   UNL A   1      48.313  27.013  27.618  1.00  0.00    -0.203 F 
ATOM     70  C   UNL A   1      49.417  26.775  25.551  1.00  0.00     0.198 A 
ATOM     71  C   UNL A   1      48.287  27.352  23.515  1.00  0.00     0.198 A 
ATOM     72  F   UNL A   1      46.096  28.205  23.587  1.00  0.00    -0.203 F 
ATOM     73  F   UNL A   1      50.520  26.365  26.190  1.00  0.00    -0.200 F 
ATOM     74  C   UNL A   1      49.418  26.889  24.169  1.00  0.00     0.200 A 
ATOM     75  F   UNL A   1      48.278  27.451  22.179  1.00  0.00    -0.200 F 
ATOM     76  F   UNL A   1      50.514  26.566  23.469  1.00  0.00    -0.200 F 
ENDBRANCH  42  66
BRANCH  54  77
ATOM     77  C   UNL A   1      45.474  33.580  28.844  1.00  0.00     0.064 A 
ATOM     78  C   UNL A   1      46.321  33.786  29.943  1.00  0.00     0.173 A 
ATOM     79  C   UNL A   1      45.350  34.622  27.911  1.00  0.00     0.173 A 
ATOM     80  F   UNL A   1      46.470  32.829  30.871  1.00  0.00    -0.203 F 
ATOM     81  C   UNL A   1      46.974  35.003  30.127  1.00  0.00     0.198 A 
ATOM     82  C   UNL A   1      46.037  35.820  28.076  1.00  0.00     0.198 A 
ATOM     83  F   UNL A   1      44.563  34.477  26.833  1.00  0.00    -0.203 F 
ATOM     84  F   UNL A   1      47.717  35.203  31.224  1.00  0.00    -0.200 F 
ATOM     85  C   UNL A   1      46.835  36.016  29.191  1.00  0.00     0.200 A 
ATOM     86  F   UNL A   1      45.918  36.791  27.158  1.00  0.00    -0.200 F 
ATOM     87  F   UNL A   1      47.463  37.186  29.370  1.00  0.00    -0.200 F 
ENDBRANCH  54  77
ENDBRANCH  28  29
ENDBRANCH  21  23
ENDBRANCH  20  21
ENDBRANCH  19  20
ENDBRANCH   1  19
TORSDOF 15
ENDMDL
