MODEL 1
REMARK VINA RESULT:     -11.5      0.000      0.000
REMARK SMILES COC[C@H]1CC[N@@H+](Cc2ccc(C(=O)OCCOC(=O)c3ccc(-c4c5nc(c(-c6c(F)c(F)c(F)c(F)c6F)c6ccc([nH]6)c(-c6c(F)c(F)c(F)c(F)c6F)c6nc(c(-c7c(F)c(F)c(F)c(F)c7F)c7ccc4[nH]7)C=C6)C=C5)cc3)cn2)C1
REMARK SMILES IDX 16 1 15 2 13 3 14 4 12 5 9 6 10 7 85 8 11 9 84 10 8 11 7 12
REMARK SMILES IDX 4 13 5 14 86 15 6 16 3 18 2 19 1 20 17 21 18 22 19 23 20 24
REMARK SMILES IDX 21 25 22 26 83 27 23 28 82 29 24 30 25 31 26 32 76 33 27 34
REMARK SMILES IDX 81 35 75 36 77 37 28 38 80 39 74 40 73 41 29 43 61 44 41 45
REMARK SMILES IDX 60 46 42 47 45 48 59 49 78 50 43 51 44 52 58 54 79 55 46 56
REMARK SMILES IDX 30 57 31 58 39 59 32 60 33 61 37 62 40 63 34 64 35 65 38 66
REMARK SMILES IDX 36 67 62 68 63 69 71 70 64 71 65 72 69 73 72 74 66 75 67 76
REMARK SMILES IDX 70 77 68 78 47 79 48 80 56 81 49 82 50 83 54 84 57 85 51 86
REMARK SMILES IDX 52 87 55 88 53 89
REMARK H PARENT 7 17 77 42 45 53
REMARK Flexibility Score: inf
ROOT
ATOM      1  C   UNL A   1      31.429  29.651  24.968  1.00  0.00     0.275 C 
ENDROOT
BRANCH   1   2
ATOM      2  O   UNL A   1      31.438  28.272  24.549  1.00  0.00    -0.458 OA
BRANCH   2   3
ATOM      3  C   UNL A   1      32.129  28.038  23.408  1.00  0.00     0.339 C 
ATOM      4  O   UNL A   1      32.004  28.645  22.361  1.00  0.00    -0.246 OA
BRANCH   3   5
ATOM      5  C   UNL A   1      33.085  26.918  23.544  1.00  0.00     0.078 A 
ATOM      6  C   UNL A   1      34.339  24.470  23.606  1.00  0.00     0.095 A 
ATOM      7  C   UNL A   1      34.197  25.196  24.792  1.00  0.00     0.031 A 
ATOM      8  N   UNL A   1      34.003  24.992  22.402  1.00  0.00    -0.254 NA
ATOM      9  C   UNL A   1      33.570  26.446  24.759  1.00  0.00     0.019 A 
ATOM     10  C   UNL A   1      33.362  26.179  22.400  1.00  0.00     0.127 A 
BRANCH   6  11
ATOM     11  C   UNL A   1      34.719  22.995  23.628  1.00  0.00     0.319 C 
BRANCH  11  12
ATOM     12  N   UNL A   1      34.376  22.238  24.857  1.00  0.00    -0.330 N 
ATOM     13  C   UNL A   1      33.479  20.004  25.118  1.00  0.00     0.076 C 
ATOM     14  C   UNL A   1      34.990  19.928  24.971  1.00  0.00     0.073 C 
ATOM     15  C   UNL A   1      33.135  21.458  24.769  1.00  0.00     0.268 C 
ATOM     16  C   UNL A   1      35.441  21.336  25.321  1.00  0.00     0.263 C 
ATOM     17  H   UNL A   1      34.246  22.989  25.535  1.00  0.00     0.348 HD
BRANCH  13  18
ATOM     18  C   UNL A   1      32.626  18.988  24.346  1.00  0.00     0.169 C 
BRANCH  18  19
ATOM     19  O   UNL A   1      32.154  17.917  25.163  1.00  0.00    -0.384 OA
ATOM     20  C   UNL A   1      33.146  16.915  25.340  1.00  0.00     0.194 C 
ENDBRANCH  18  19
ENDBRANCH  13  18
ENDBRANCH  11  12
ENDBRANCH   6  11
ENDBRANCH   3   5
ENDBRANCH   2   3
ENDBRANCH   1   2
BRANCH   1  21
ATOM     21  C   UNL A   1      32.762  30.034  25.610  1.00  0.00     0.275 C 
BRANCH  21  22
ATOM     22  O   UNL A   1      32.560  30.509  26.955  1.00  0.00    -0.458 OA
BRANCH  22  23
ATOM     23  C   UNL A   1      33.256  31.622  27.282  1.00  0.00     0.338 C 
ATOM     24  O   UNL A   1      32.869  32.780  27.244  1.00  0.00    -0.246 OA
BRANCH  23  25
ATOM     25  C   UNL A   1      34.590  31.261  27.784  1.00  0.00     0.060 A 
ATOM     26  C   UNL A   1      34.821  29.960  28.220  1.00  0.00     0.016 A 
ATOM     27  C   UNL A   1      35.553  32.243  27.993  1.00  0.00     0.016 A 
ATOM     28  C   UNL A   1      35.951  29.654  28.968  1.00  0.00     0.010 A 
ATOM     29  C   UNL A   1      36.751  31.905  28.634  1.00  0.00     0.010 A 
ATOM     30  C   UNL A   1      36.947  30.615  29.165  1.00  0.00    -0.014 A 
BRANCH  30  31
ATOM     31  C   UNL A   1      38.168  30.283  29.951  1.00  0.00     0.031 A 
ATOM     32  C   UNL A   1      39.216  29.378  29.362  1.00  0.00     0.074 A 
ATOM     33  C   UNL A   1      38.350  30.795  31.185  1.00  0.00     0.049 A 
ATOM     34  N   UNL A   1      40.228  28.787  29.947  1.00  0.00    -0.248 NA
ATOM     35  C   UNL A   1      39.100  29.082  27.925  1.00  0.00     0.031 C 
ATOM     36  C   UNL A   1      37.452  31.738  31.856  1.00  0.00     0.029 A 
ATOM     37  N   UNL A   1      39.355  30.594  32.099  1.00  0.00    -0.354 N 
ATOM     38  C   UNL A   1      40.826  28.003  28.968  1.00  0.00     0.074 A 
ATOM     39  C   UNL A   1      40.063  28.188  27.753  1.00  0.00     0.031 C 
ATOM     40  C   UNL A   1      37.960  32.057  33.054  1.00  0.00     0.029 A 
ATOM     41  C   UNL A   1      39.161  31.264  33.283  1.00  0.00     0.049 A 
ATOM     42  H   UNL A   1      40.139  30.025  31.924  1.00  0.00     0.167 HD
ATOM     43  C   UNL A   1      41.912  27.200  29.080  1.00  0.00     0.037 A 
ATOM     44  C   UNL A   1      39.836  31.205  34.447  1.00  0.00     0.037 A 
ATOM     45  C   UNL A   1      42.700  27.070  30.279  1.00  0.00     0.049 A 
ATOM     46  C   UNL A   1      41.007  30.270  34.561  1.00  0.00     0.074 A 
ATOM     47  C   UNL A   1      43.830  26.300  30.491  1.00  0.00     0.029 A 
ATOM     48  N   UNL A   1      42.447  27.742  31.466  1.00  0.00    -0.354 N 
ATOM     49  N   UNL A   1      41.531  29.484  33.652  1.00  0.00    -0.248 NA
ATOM     50  C   UNL A   1      41.668  30.197  35.871  1.00  0.00     0.031 C 
ATOM     51  C   UNL A   1      44.234  26.471  31.820  1.00  0.00     0.029 A 
ATOM     52  C   UNL A   1      43.387  27.389  32.421  1.00  0.00     0.049 A 
ATOM     53  H   UNL A   1      41.707  28.376  31.610  1.00  0.00     0.167 HD
ATOM     54  C   UNL A   1      42.588  28.836  34.273  1.00  0.00     0.074 A 
ATOM     55  C   UNL A   1      42.647  29.338  35.631  1.00  0.00     0.031 C 
ATOM     56  C   UNL A   1      43.432  27.902  33.766  1.00  0.00     0.037 A 
BRANCH  43  57
ATOM     57  C   UNL A   1      42.290  26.365  27.889  1.00  0.00     0.064 A 
ATOM     58  C   UNL A   1      41.685  25.130  27.618  1.00  0.00     0.173 A 
ATOM     59  C   UNL A   1      43.259  26.831  26.985  1.00  0.00     0.173 A 
ATOM     60  F   UNL A   1      40.763  24.630  28.455  1.00  0.00    -0.203 F 
ATOM     61  C   UNL A   1      42.057  24.378  26.505  1.00  0.00     0.198 A 
ATOM     62  C   UNL A   1      43.605  26.093  25.856  1.00  0.00     0.198 A 
ATOM     63  F   UNL A   1      43.866  28.009  27.192  1.00  0.00    -0.203 F 
ATOM     64  F   UNL A   1      41.502  23.176  26.294  1.00  0.00    -0.200 F 
ATOM     65  C   UNL A   1      43.010  24.863  25.622  1.00  0.00     0.200 A 
ATOM     66  F   UNL A   1      44.516  26.571  24.997  1.00  0.00    -0.200 F 
ATOM     67  F   UNL A   1      43.360  24.141  24.547  1.00  0.00    -0.200 F 
ENDBRANCH  43  57
BRANCH  44  68
ATOM     68  C   UNL A   1      39.385  32.015  35.609  1.00  0.00     0.064 A 
ATOM     69  C   UNL A   1      39.862  33.317  35.812  1.00  0.00     0.173 A 
ATOM     70  C   UNL A   1      38.466  31.505  36.541  1.00  0.00     0.173 A 
ATOM     71  F   UNL A   1      40.762  33.838  34.967  1.00  0.00    -0.203 F 
ATOM     72  C   UNL A   1      39.447  34.072  36.907  1.00  0.00     0.198 A 
ATOM     73  C   UNL A   1      38.026  32.275  37.615  1.00  0.00     0.198 A 
ATOM     74  F   UNL A   1      37.980  30.264  36.396  1.00  0.00    -0.203 F 
ATOM     75  F   UNL A   1      39.955  35.297  37.104  1.00  0.00    -0.200 F 
ATOM     76  C   UNL A   1      38.522  33.555  37.802  1.00  0.00     0.200 A 
ATOM     77  F   UNL A   1      37.120  31.776  38.467  1.00  0.00    -0.200 F 
ATOM     78  F   UNL A   1      38.118  34.286  38.849  1.00  0.00    -0.200 F 
ENDBRANCH  44  68
BRANCH  56  79
ATOM     79  C   UNL A   1      44.510  27.392  34.677  1.00  0.00     0.064 A 
ATOM     80  C   UNL A   1      44.329  26.239  35.456  1.00  0.00     0.173 A 
ATOM     81  C   UNL A   1      45.747  28.049  34.748  1.00  0.00     0.173 A 
ATOM     82  F   UNL A   1      43.158  25.587  35.436  1.00  0.00    -0.203 F 
ATOM     83  C   UNL A   1      45.341  25.780  36.295  1.00  0.00     0.198 A 
ATOM     84  C   UNL A   1      46.766  27.568  35.564  1.00  0.00     0.198 A 
ATOM     85  F   UNL A   1      45.971  29.152  34.019  1.00  0.00    -0.203 F 
ATOM     86  F   UNL A   1      45.130  24.708  37.069  1.00  0.00    -0.200 F 
ATOM     87  C   UNL A   1      46.561  26.439  36.342  1.00  0.00     0.200 A 
ATOM     88  F   UNL A   1      47.949  28.199  35.600  1.00  0.00    -0.200 F 
ATOM     89  F   UNL A   1      47.535  25.992  37.147  1.00  0.00    -0.200 F 
ENDBRANCH  56  79
ENDBRANCH  30  31
ENDBRANCH  23  25
ENDBRANCH  22  23
ENDBRANCH  21  22
ENDBRANCH   1  21
TORSDOF 15
ENDMDL
MODEL 2
REMARK VINA RESULT:     -11.4      3.444      8.274
REMARK SMILES COC[C@H]1CC[N@@H+](Cc2ccc(C(=O)OCCOC(=O)c3ccc(-c4c5nc(c(-c6c(F)c(F)c(F)c(F)c6F)c6ccc([nH]6)c(-c6c(F)c(F)c(F)c(F)c6F)c6nc(c(-c7c(F)c(F)c(F)c(F)c7F)c7ccc4[nH]7)C=C6)C=C5)cc3)cn2)C1
REMARK SMILES IDX 16 1 15 2 13 3 14 4 12 5 9 6 10 7 85 8 11 9 84 10 8 11 7 12
REMARK SMILES IDX 4 13 5 14 86 15 6 16 3 18 2 19 1 20 17 21 18 22 19 23 20 24
REMARK SMILES IDX 21 25 22 26 83 27 23 28 82 29 24 30 25 31 26 32 76 33 27 34
REMARK SMILES IDX 81 35 75 36 77 37 28 38 80 39 74 40 73 41 29 43 61 44 41 45
REMARK SMILES IDX 60 46 42 47 45 48 59 49 78 50 43 51 44 52 58 54 79 55 46 56
REMARK SMILES IDX 30 57 31 58 39 59 32 60 33 61 37 62 40 63 34 64 35 65 38 66
REMARK SMILES IDX 36 67 62 68 63 69 71 70 64 71 65 72 69 73 72 74 66 75 67 76
REMARK SMILES IDX 70 77 68 78 47 79 48 80 56 81 49 82 50 83 54 84 57 85 51 86
REMARK SMILES IDX 52 87 55 88 53 89
REMARK H PARENT 7 17 77 42 45 53
REMARK Flexibility Score: inf
ROOT
ATOM      1  C   UNL A   1      42.431  20.432  26.131  1.00  0.00     0.275 C 
ENDROOT
BRANCH   1   2
ATOM      2  O   UNL A   1      41.162  21.050  26.422  1.00  0.00    -0.458 OA
BRANCH   2   3
ATOM      3  C   UNL A   1      40.087  20.359  25.972  1.00  0.00     0.339 C 
ATOM      4  O   UNL A   1      40.066  19.176  25.689  1.00  0.00    -0.246 OA
BRANCH   3   5
ATOM      5  C   UNL A   1      38.886  21.209  25.832  1.00  0.00     0.078 A 
ATOM      6  C   UNL A   1      36.820  22.785  24.926  1.00  0.00     0.095 A 
ATOM      7  C   UNL A   1      37.754  23.325  25.815  1.00  0.00     0.031 A 
ATOM      8  N   UNL A   1      36.818  21.470  24.601  1.00  0.00    -0.254 NA
ATOM      9  C   UNL A   1      38.797  22.521  26.284  1.00  0.00     0.019 A 
ATOM     10  C   UNL A   1      37.857  20.725  25.032  1.00  0.00     0.127 A 
BRANCH   6  11
ATOM     11  C   UNL A   1      35.866  23.682  24.148  1.00  0.00     0.319 C 
BRANCH  11  12
ATOM     12  N   UNL A   1      34.428  23.586  24.498  1.00  0.00    -0.330 N 
ATOM     13  C   UNL A   1      33.030  21.639  24.845  1.00  0.00     0.076 C 
ATOM     14  C   UNL A   1      33.767  21.967  26.133  1.00  0.00     0.073 C 
ATOM     15  C   UNL A   1      33.694  22.530  23.788  1.00  0.00     0.268 C 
ATOM     16  C   UNL A   1      34.172  23.419  25.937  1.00  0.00     0.263 C 
ATOM     17  H   UNL A   1      34.078  24.493  24.192  1.00  0.00     0.348 HD
BRANCH  13  18
ATOM     18  C   UNL A   1      32.946  20.167  24.417  1.00  0.00     0.169 C 
BRANCH  18  19
ATOM     19  O   UNL A   1      33.204  19.257  25.485  1.00  0.00    -0.384 OA
ATOM     20  C   UNL A   1      32.563  18.006  25.276  1.00  0.00     0.194 C 
ENDBRANCH  18  19
ENDBRANCH  13  18
ENDBRANCH  11  12
ENDBRANCH   6  11
ENDBRANCH   3   5
ENDBRANCH   2   3
ENDBRANCH   1   2
BRANCH   1  21
ATOM     21  C   UNL A   1      43.393  21.435  25.494  1.00  0.00     0.275 C 
BRANCH  21  22
ATOM     22  O   UNL A   1      42.680  22.601  25.037  1.00  0.00    -0.458 OA
BRANCH  22  23
ATOM     23  C   UNL A   1      43.399  23.747  25.030  1.00  0.00     0.338 C 
ATOM     24  O   UNL A   1      44.376  24.009  24.346  1.00  0.00    -0.246 OA
BRANCH  23  25
ATOM     25  C   UNL A   1      42.800  24.731  25.944  1.00  0.00     0.060 A 
ATOM     26  C   UNL A   1      43.183  26.066  25.848  1.00  0.00     0.016 A 
ATOM     27  C   UNL A   1      42.006  24.313  27.007  1.00  0.00     0.016 A 
ATOM     28  C   UNL A   1      42.880  26.964  26.863  1.00  0.00     0.010 A 
ATOM     29  C   UNL A   1      41.592  25.247  27.964  1.00  0.00     0.010 A 
ATOM     30  C   UNL A   1      42.058  26.576  27.926  1.00  0.00    -0.014 A 
BRANCH  30  31
ATOM     31  C   UNL A   1      41.717  27.543  29.006  1.00  0.00     0.031 A 
ATOM     32  C   UNL A   1      42.570  27.617  30.243  1.00  0.00     0.074 A 
ATOM     33  C   UNL A   1      40.654  28.364  28.882  1.00  0.00     0.049 A 
ATOM     34  N   UNL A   1      42.330  28.213  31.384  1.00  0.00    -0.248 NA
ATOM     35  C   UNL A   1      43.859  26.907  30.199  1.00  0.00     0.031 C 
ATOM     36  C   UNL A   1      39.779  28.450  27.711  1.00  0.00     0.029 A 
ATOM     37  N   UNL A   1      40.128  29.285  29.753  1.00  0.00    -0.354 N 
ATOM     38  C   UNL A   1      43.402  27.898  32.210  1.00  0.00     0.074 A 
ATOM     39  C   UNL A   1      44.293  27.054  31.443  1.00  0.00     0.031 C 
ATOM     40  C   UNL A   1      38.849  29.392  27.922  1.00  0.00     0.029 A 
ATOM     41  C   UNL A   1      38.994  29.901  29.280  1.00  0.00     0.049 A 
ATOM     42  H   UNL A   1      40.524  29.486  30.632  1.00  0.00     0.167 HD
ATOM     43  C   UNL A   1      43.617  28.278  33.493  1.00  0.00     0.037 A 
ATOM     44  C   UNL A   1      38.130  30.736  29.888  1.00  0.00     0.037 A 
ATOM     45  C   UNL A   1      42.753  29.168  34.226  1.00  0.00     0.049 A 
ATOM     46  C   UNL A   1      38.363  31.104  31.325  1.00  0.00     0.074 A 
ATOM     47  C   UNL A   1      42.892  29.632  35.523  1.00  0.00     0.029 A 
ATOM     48  N   UNL A   1      41.597  29.741  33.719  1.00  0.00    -0.354 N 
ATOM     49  N   UNL A   1      39.345  30.754  32.121  1.00  0.00    -0.248 NA
ATOM     50  C   UNL A   1      37.357  31.967  31.958  1.00  0.00     0.031 C 
ATOM     51  C   UNL A   1      41.795  30.449  35.815  1.00  0.00     0.029 A 
ATOM     52  C   UNL A   1      41.000  30.538  34.683  1.00  0.00     0.049 A 
ATOM     53  H   UNL A   1      41.250  29.602  32.808  1.00  0.00     0.167 HD
ATOM     54  C   UNL A   1      39.083  31.362  33.340  1.00  0.00     0.074 A 
ATOM     55  C   UNL A   1      37.861  32.124  33.173  1.00  0.00     0.031 C 
ATOM     56  C   UNL A   1      39.786  31.292  34.497  1.00  0.00     0.037 A 
BRANCH  43  57
ATOM     57  C   UNL A   1      44.810  27.702  34.202  1.00  0.00     0.064 A 
ATOM     58  C   UNL A   1      46.047  28.360  34.242  1.00  0.00     0.173 A 
ATOM     59  C   UNL A   1      44.699  26.476  34.880  1.00  0.00     0.173 A 
ATOM     60  F   UNL A   1      46.213  29.527  33.601  1.00  0.00    -0.203 F 
ATOM     61  C   UNL A   1      47.136  27.800  34.908  1.00  0.00     0.198 A 
ATOM     62  C   UNL A   1      45.780  25.936  35.572  1.00  0.00     0.198 A 
ATOM     63  F   UNL A   1      43.537  25.805  34.879  1.00  0.00    -0.203 F 
ATOM     64  F   UNL A   1      48.323  28.423  34.890  1.00  0.00    -0.200 F 
ATOM     65  C   UNL A   1      46.999  26.593  35.578  1.00  0.00     0.200 A 
ATOM     66  F   UNL A   1      45.641  24.776  36.229  1.00  0.00    -0.200 F 
ATOM     67  F   UNL A   1      48.047  26.061  36.224  1.00  0.00    -0.200 F 
ENDBRANCH  43  57
BRANCH  44  68
ATOM     68  C   UNL A   1      36.937  31.234  29.152  1.00  0.00     0.064 A 
ATOM     69  C   UNL A   1      35.846  30.394  28.892  1.00  0.00     0.173 A 
ATOM     70  C   UNL A   1      36.862  32.560  28.695  1.00  0.00     0.173 A 
ATOM     71  F   UNL A   1      35.880  29.112  29.283  1.00  0.00    -0.203 F 
ATOM     72  C   UNL A   1      34.732  30.858  28.195  1.00  0.00     0.198 A 
ATOM     73  C   UNL A   1      35.733  33.031  28.030  1.00  0.00     0.198 A 
ATOM     74  F   UNL A   1      37.880  33.406  28.915  1.00  0.00    -0.203 F 
ATOM     75  F   UNL A   1      33.722  30.021  27.918  1.00  0.00    -0.200 F 
ATOM     76  C   UNL A   1      34.672  32.177  27.772  1.00  0.00     0.200 A 
ATOM     77  F   UNL A   1      35.674  34.311  27.637  1.00  0.00    -0.200 F 
ATOM     78  F   UNL A   1      33.597  32.623  27.109  1.00  0.00    -0.200 F 
ENDBRANCH  44  68
BRANCH  56  79
ATOM     79  C   UNL A   1      39.268  32.086  35.659  1.00  0.00     0.064 A 
ATOM     80  C   UNL A   1      38.399  31.524  36.606  1.00  0.00     0.173 A 
ATOM     81  C   UNL A   1      39.669  33.418  35.843  1.00  0.00     0.173 A 
ATOM     82  F   UNL A   1      37.973  30.260  36.464  1.00  0.00    -0.203 F 
ATOM     83  C   UNL A   1      37.929  32.276  37.679  1.00  0.00     0.198 A 
ATOM     84  C   UNL A   1      39.222  34.157  36.934  1.00  0.00     0.198 A 
ATOM     85  F   UNL A   1      40.503  34.000  34.968  1.00  0.00    -0.203 F 
ATOM     86  F   UNL A   1      37.059  31.735  38.542  1.00  0.00    -0.200 F 
ATOM     87  C   UNL A   1      38.347  33.588  37.846  1.00  0.00     0.200 A 
ATOM     88  F   UNL A   1      39.636  35.421  37.101  1.00  0.00    -0.200 F 
ATOM     89  F   UNL A   1      37.897  34.308  38.883  1.00  0.00    -0.200 F 
ENDBRANCH  56  79
ENDBRANCH  30  31
ENDBRANCH  23  25
ENDBRANCH  22  23
ENDBRANCH  21  22
ENDBRANCH   1  21
TORSDOF 15
ENDMDL
MODEL 3
REMARK VINA RESULT:     -11.3      3.509      8.186
REMARK SMILES COC[C@H]1CC[N@@H+](Cc2ccc(C(=O)OCCOC(=O)c3ccc(-c4c5nc(c(-c6c(F)c(F)c(F)c(F)c6F)c6ccc([nH]6)c(-c6c(F)c(F)c(F)c(F)c6F)c6nc(c(-c7c(F)c(F)c(F)c(F)c7F)c7ccc4[nH]7)C=C6)C=C5)cc3)cn2)C1
REMARK SMILES IDX 16 1 15 2 13 3 14 4 12 5 9 6 10 7 85 8 11 9 84 10 8 11 7 12
REMARK SMILES IDX 4 13 5 14 86 15 6 16 3 18 2 19 1 20 17 21 18 22 19 23 20 24
REMARK SMILES IDX 21 25 22 26 83 27 23 28 82 29 24 30 25 31 26 32 76 33 27 34
REMARK SMILES IDX 81 35 75 36 77 37 28 38 80 39 74 40 73 41 29 43 61 44 41 45
REMARK SMILES IDX 60 46 42 47 45 48 59 49 78 50 43 51 44 52 58 54 79 55 46 56
REMARK SMILES IDX 30 57 31 58 39 59 32 60 33 61 37 62 40 63 34 64 35 65 38 66
REMARK SMILES IDX 36 67 62 68 63 69 71 70 64 71 65 72 69 73 72 74 66 75 67 76
REMARK SMILES IDX 70 77 68 78 47 79 48 80 56 81 49 82 50 83 54 84 57 85 51 86
REMARK SMILES IDX 52 87 55 88 53 89
REMARK H PARENT 7 17 77 42 45 53
REMARK Flexibility Score: inf
ROOT
ATOM      1  C   UNL A   1      43.046  20.592  26.375  1.00  0.00     0.275 C 
ENDROOT
BRANCH   1   2
ATOM      2  O   UNL A   1      41.692  20.955  26.715  1.00  0.00    -0.458 OA
BRANCH   2   3
ATOM      3  C   UNL A   1      40.744  20.189  26.125  1.00  0.00     0.339 C 
ATOM      4  O   UNL A   1      40.885  19.042  25.747  1.00  0.00    -0.246 OA
BRANCH   3   5
ATOM      5  C   UNL A   1      39.462  20.907  25.957  1.00  0.00     0.078 A 
ATOM      6  C   UNL A   1      37.233  22.204  24.997  1.00  0.00     0.095 A 
ATOM      7  C   UNL A   1      38.127  22.896  25.818  1.00  0.00     0.031 A 
ATOM      8  N   UNL A   1      37.353  20.874  24.768  1.00  0.00    -0.254 NA
ATOM      9  C   UNL A   1      39.254  22.234  26.316  1.00  0.00     0.019 A 
ATOM     10  C   UNL A   1      38.469  20.267  25.223  1.00  0.00     0.127 A 
BRANCH   6  11
ATOM     11  C   UNL A   1      36.179  22.944  24.182  1.00  0.00     0.319 C 
BRANCH  11  12
ATOM     12  N   UNL A   1      34.817  23.014  24.764  1.00  0.00    -0.330 N 
ATOM     13  C   UNL A   1      33.128  21.295  24.999  1.00  0.00     0.076 C 
ATOM     14  C   UNL A   1      34.093  21.217  26.170  1.00  0.00     0.073 C 
ATOM     15  C   UNL A   1      33.794  22.267  24.019  1.00  0.00     0.268 C 
ATOM     16  C   UNL A   1      34.744  22.591  26.171  1.00  0.00     0.263 C 
ATOM     17  H   UNL A   1      34.613  24.010  24.697  1.00  0.00     0.348 HD
BRANCH  13  18
ATOM     18  C   UNL A   1      32.693  19.981  24.334  1.00  0.00     0.169 C 
BRANCH  18  19
ATOM     19  O   UNL A   1      32.037  19.088  25.233  1.00  0.00    -0.384 OA
ATOM     20  C   UNL A   1      32.745  17.863  25.366  1.00  0.00     0.194 C 
ENDBRANCH  18  19
ENDBRANCH  13  18
ENDBRANCH  11  12
ENDBRANCH   6  11
ENDBRANCH   3   5
ENDBRANCH   2   3
ENDBRANCH   1   2
BRANCH   1  21
ATOM     21  C   UNL A   1      43.552  21.424  25.197  1.00  0.00     0.275 C 
BRANCH  21  22
ATOM     22  O   UNL A   1      42.764  22.620  25.043  1.00  0.00    -0.458 OA
BRANCH  22  23
ATOM     23  C   UNL A   1      43.468  23.775  25.032  1.00  0.00     0.338 C 
ATOM     24  O   UNL A   1      44.438  24.050  24.342  1.00  0.00    -0.246 OA
BRANCH  23  25
ATOM     25  C   UNL A   1      42.862  24.752  25.950  1.00  0.00     0.060 A 
ATOM     26  C   UNL A   1      43.232  26.090  25.857  1.00  0.00     0.016 A 
ATOM     27  C   UNL A   1      42.073  24.324  27.013  1.00  0.00     0.016 A 
ATOM     28  C   UNL A   1      42.924  26.983  26.875  1.00  0.00     0.010 A 
ATOM     29  C   UNL A   1      41.653  25.252  27.973  1.00  0.00     0.010 A 
ATOM     30  C   UNL A   1      42.107  26.585  27.938  1.00  0.00    -0.014 A 
BRANCH  30  31
ATOM     31  C   UNL A   1      41.760  27.546  29.021  1.00  0.00     0.031 A 
ATOM     32  C   UNL A   1      42.610  27.619  30.260  1.00  0.00     0.074 A 
ATOM     33  C   UNL A   1      40.693  28.362  28.898  1.00  0.00     0.049 A 
ATOM     34  N   UNL A   1      42.365  28.210  31.403  1.00  0.00    -0.248 NA
ATOM     35  C   UNL A   1      43.902  26.916  30.215  1.00  0.00     0.031 C 
ATOM     36  C   UNL A   1      39.820  28.449  27.726  1.00  0.00     0.029 A 
ATOM     37  N   UNL A   1      40.161  29.278  29.772  1.00  0.00    -0.354 N 
ATOM     38  C   UNL A   1      43.437  27.896  32.230  1.00  0.00     0.074 A 
ATOM     39  C   UNL A   1      44.333  27.059  31.461  1.00  0.00     0.031 C 
ATOM     40  C   UNL A   1      38.885  29.386  27.939  1.00  0.00     0.029 A 
ATOM     41  C   UNL A   1      39.025  29.890  29.299  1.00  0.00     0.049 A 
ATOM     42  H   UNL A   1      40.554  29.477  30.652  1.00  0.00     0.167 HD
ATOM     43  C   UNL A   1      43.647  28.272  33.514  1.00  0.00     0.037 A 
ATOM     44  C   UNL A   1      38.156  30.719  29.908  1.00  0.00     0.037 A 
ATOM     45  C   UNL A   1      42.778  29.155  34.250  1.00  0.00     0.049 A 
ATOM     46  C   UNL A   1      38.385  31.082  31.348  1.00  0.00     0.074 A 
ATOM     47  C   UNL A   1      42.912  29.615  35.548  1.00  0.00     0.029 A 
ATOM     48  N   UNL A   1      41.620  29.725  33.742  1.00  0.00    -0.354 N 
ATOM     49  N   UNL A   1      39.366  30.733  32.144  1.00  0.00    -0.248 NA
ATOM     50  C   UNL A   1      37.372  31.937  31.982  1.00  0.00     0.031 C 
ATOM     51  C   UNL A   1      41.810  30.426  35.842  1.00  0.00     0.029 A 
ATOM     52  C   UNL A   1      41.017  30.515  34.709  1.00  0.00     0.049 A 
ATOM     53  H   UNL A   1      41.275  29.588  32.830  1.00  0.00     0.167 HD
ATOM     54  C   UNL A   1      39.099  31.336  33.365  1.00  0.00     0.074 A 
ATOM     55  C   UNL A   1      37.874  32.092  33.198  1.00  0.00     0.031 C 
ATOM     56  C   UNL A   1      39.801  31.264  34.523  1.00  0.00     0.037 A 
BRANCH  43  57
ATOM     57  C   UNL A   1      44.842  27.699  34.223  1.00  0.00     0.064 A 
ATOM     58  C   UNL A   1      44.814  26.440  34.838  1.00  0.00     0.173 A 
ATOM     59  C   UNL A   1      46.048  28.418  34.261  1.00  0.00     0.173 A 
ATOM     60  F   UNL A   1      43.685  25.715  34.845  1.00  0.00    -0.203 F 
ATOM     61  C   UNL A   1      45.939  25.934  35.489  1.00  0.00     0.198 A 
ATOM     62  C   UNL A   1      47.179  27.897  34.883  1.00  0.00     0.198 A 
ATOM     63  F   UNL A   1      46.132  29.627  33.683  1.00  0.00    -0.203 F 
ATOM     64  F   UNL A   1      45.874  24.750  36.114  1.00  0.00    -0.200 F 
ATOM     65  C   UNL A   1      47.121  26.659  35.504  1.00  0.00     0.200 A 
ATOM     66  F   UNL A   1      48.324  28.594  34.884  1.00  0.00    -0.200 F 
ATOM     67  F   UNL A   1      48.203  26.168  36.124  1.00  0.00    -0.200 F 
ENDBRANCH  43  57
BRANCH  44  68
ATOM     68  C   UNL A   1      36.962  31.214  29.173  1.00  0.00     0.064 A 
ATOM     69  C   UNL A   1      36.889  32.538  28.720  1.00  0.00     0.173 A 
ATOM     70  C   UNL A   1      35.869  30.373  28.905  1.00  0.00     0.173 A 
ATOM     71  F   UNL A   1      37.894  33.388  28.975  1.00  0.00    -0.203 F 
ATOM     72  C   UNL A   1      35.766  33.005  28.039  1.00  0.00     0.198 A 
ATOM     73  C   UNL A   1      34.763  30.832  28.194  1.00  0.00     0.198 A 
ATOM     74  F   UNL A   1      35.885  29.097  29.317  1.00  0.00    -0.203 F 
ATOM     75  F   UNL A   1      35.702  34.288  27.660  1.00  0.00    -0.200 F 
ATOM     76  C   UNL A   1      34.708  32.150  27.768  1.00  0.00     0.200 A 
ATOM     77  F   UNL A   1      33.751  29.997  27.920  1.00  0.00    -0.200 F 
ATOM     78  F   UNL A   1      33.634  32.598  27.106  1.00  0.00    -0.200 F 
ENDBRANCH  44  68
BRANCH  56  79
ATOM     79  C   UNL A   1      39.277  32.052  35.687  1.00  0.00     0.064 A 
ATOM     80  C   UNL A   1      38.399  31.485  36.623  1.00  0.00     0.173 A 
ATOM     81  C   UNL A   1      39.681  33.380  35.883  1.00  0.00     0.173 A 
ATOM     82  F   UNL A   1      37.970  30.223  36.469  1.00  0.00    -0.203 F 
ATOM     83  C   UNL A   1      37.923  32.231  37.698  1.00  0.00     0.198 A 
ATOM     84  C   UNL A   1      39.227  34.113  36.977  1.00  0.00     0.198 A 
ATOM     85  F   UNL A   1      40.523  33.966  35.019  1.00  0.00    -0.203 F 
ATOM     86  F   UNL A   1      37.045  31.686  38.551  1.00  0.00    -0.200 F 
ATOM     87  C   UNL A   1      38.344  33.540  37.879  1.00  0.00     0.200 A 
ATOM     88  F   UNL A   1      39.644  35.374  37.157  1.00  0.00    -0.200 F 
ATOM     89  F   UNL A   1      37.889  34.254  38.917  1.00  0.00    -0.200 F 
ENDBRANCH  56  79
ENDBRANCH  30  31
ENDBRANCH  23  25
ENDBRANCH  22  23
ENDBRANCH  21  22
ENDBRANCH   1  21
TORSDOF 15
ENDMDL
