MODEL 1
REMARK VINA RESULT:     -12.7      0.000      0.000
REMARK SMILES COC(=O)C1=C(C)N(c2ccc(Br)cc2)C(=O)/C1=C\c1ccc(C(=O)OCCOC(=O)c2ccc(-c3c4nc(c(-c5c(F)c(F)c(F)c(F)c5F)c5ccc([nH]5)c(-c5c(F)c(F)c(F)c(F)c5F)c5nc(c(-c6c(F)c(F)c(F)c(F)c6F)c6ccc3[nH]6)C=C5)C=C4)cc2)cc1
REMARK SMILES IDX 27 1 26 2 24 3 25 4 23 5 20 6 21 7 96 8 22 9 95 10 19 11
REMARK SMILES IDX 5 12 6 13 18 14 7 15 8 16 16 17 17 18 3 19 4 20 2 21 1 22
REMARK SMILES IDX 9 23 10 24 15 25 11 26 14 27 12 28 13 29 28 30 29 31 30 32
REMARK SMILES IDX 31 33 32 34 33 35 94 36 34 37 93 38 35 39 36 40 37 41 87 42
REMARK SMILES IDX 38 43 92 44 86 45 88 46 39 47 91 48 85 49 84 50 40 52 72 53
REMARK SMILES IDX 52 54 71 55 53 56 56 57 70 58 89 59 54 60 55 61 69 63 90 64
REMARK SMILES IDX 57 65 41 66 42 67 50 68 43 69 44 70 48 71 51 72 45 73 46 74
REMARK SMILES IDX 49 75 47 76 73 77 74 78 82 79 75 80 76 81 80 82 83 83 77 84
REMARK SMILES IDX 78 85 81 86 79 87 58 88 59 89 67 90 60 91 61 92 65 93 68 94
REMARK SMILES IDX 62 95 63 96 66 97 64 98
REMARK H PARENT 88 51 56 62
REMARK Flexibility Score: inf
ROOT
ATOM      1  C   UNL A   1      42.274  19.352  27.626  1.00  0.00     0.275 C 
ENDROOT
BRANCH   1   2
ATOM      2  O   UNL A   1      40.994  20.014  27.678  1.00  0.00    -0.458 OA
BRANCH   2   3
ATOM      3  C   UNL A   1      41.029  21.368  27.625  1.00  0.00     0.338 C 
ATOM      4  O   UNL A   1      41.868  22.092  28.139  1.00  0.00    -0.246 OA
BRANCH   3   5
ATOM      5  C   UNL A   1      39.944  21.888  26.761  1.00  0.00     0.060 A 
ATOM      6  C   UNL A   1      37.749  22.845  25.320  1.00  0.00    -0.025 A 
ATOM      7  C   UNL A   1      38.303  23.627  26.330  1.00  0.00     0.009 A 
ATOM      8  C   UNL A   1      38.319  21.605  25.001  1.00  0.00     0.009 A 
ATOM      9  C   UNL A   1      39.375  23.132  27.067  1.00  0.00     0.016 A 
ATOM     10  C   UNL A   1      39.425  21.129  25.711  1.00  0.00     0.016 A 
BRANCH   6  11
ATOM     11  C   UNL A   1      36.496  23.270  24.704  1.00  0.00     0.023 C 
ATOM     12  C   UNL A   1      34.180  22.745  23.891  1.00  0.00     0.092 C 
ATOM     13  C   UNL A   1      33.439  21.615  23.846  1.00  0.00     0.039 C 
ATOM     14  C   UNL A   1      35.465  22.434  24.486  1.00  0.00     0.057 C 
ATOM     15  C   UNL A   1      32.029  21.528  23.357  1.00  0.00     0.066 C 
ATOM     16  N   UNL A   1      34.140  20.553  24.424  1.00  0.00    -0.280 N 
ATOM     17  C   UNL A   1      35.419  20.975  24.852  1.00  0.00     0.263 C 
ATOM     18  O   UNL A   1      36.305  20.327  25.375  1.00  0.00    -0.268 OA
BRANCH  12  19
ATOM     19  C   UNL A   1      33.773  24.103  23.485  1.00  0.00     0.340 C 
ATOM     20  O   UNL A   1      34.052  24.606  22.407  1.00  0.00    -0.246 OA
BRANCH  19  21
ATOM     21  O   UNL A   1      33.137  24.729  24.507  1.00  0.00    -0.465 OA
ATOM     22  C   UNL A   1      33.781  25.925  24.949  1.00  0.00     0.282 C 
ENDBRANCH  19  21
ENDBRANCH  12  19
BRANCH  16  23
ATOM     23  C   UNL A   1      33.709  19.220  24.666  1.00  0.00     0.049 A 
ATOM     24  C   UNL A   1      34.109  18.193  23.794  1.00  0.00     0.028 A 
ATOM     25  C   UNL A   1      32.895  18.890  25.755  1.00  0.00     0.028 A 
ATOM     26  C   UNL A   1      33.760  16.863  24.040  1.00  0.00     0.018 A 
ATOM     27  C   UNL A   1      32.532  17.560  25.997  1.00  0.00     0.018 A 
ATOM     28  C   UNL A   1      32.980  16.551  25.147  1.00  0.00     0.018 A 
ATOM     29  Br  UNL A   1      32.528  14.750  25.498  1.00  0.00    -0.051 Br
ENDBRANCH  16  23
ENDBRANCH   6  11
ENDBRANCH   3   5
ENDBRANCH   2   3
ENDBRANCH   1   2
BRANCH   1  30
ATOM     30  C   UNL A   1      42.348  18.377  26.450  1.00  0.00     0.275 C 
BRANCH  30  31
ATOM     31  O   UNL A   1      42.649  19.077  25.228  1.00  0.00    -0.458 OA
BRANCH  31  32
ATOM     32  C   UNL A   1      43.961  19.323  25.014  1.00  0.00     0.338 C 
ATOM     33  O   UNL A   1      44.832  18.529  24.702  1.00  0.00    -0.246 OA
BRANCH  32  34
ATOM     34  C   UNL A   1      44.223  20.762  25.147  1.00  0.00     0.060 A 
ATOM     35  C   UNL A   1      45.190  21.173  26.053  1.00  0.00     0.016 A 
ATOM     36  C   UNL A   1      43.418  21.703  24.511  1.00  0.00     0.016 A 
ATOM     37  C   UNL A   1      45.285  22.506  26.430  1.00  0.00     0.010 A 
ATOM     38  C   UNL A   1      43.615  23.063  24.781  1.00  0.00     0.010 A 
ATOM     39  C   UNL A   1      44.534  23.480  25.763  1.00  0.00    -0.014 A 
BRANCH  39  40
ATOM     40  C   UNL A   1      44.736  24.924  26.070  1.00  0.00     0.031 A 
ATOM     41  C   UNL A   1      46.077  25.570  25.857  1.00  0.00     0.074 A 
ATOM     42  C   UNL A   1      43.712  25.657  26.552  1.00  0.00     0.049 A 
ATOM     43  N   UNL A   1      46.508  26.742  26.255  1.00  0.00    -0.248 NA
ATOM     44  C   UNL A   1      47.073  24.790  25.106  1.00  0.00     0.031 C 
ATOM     45  C   UNL A   1      42.340  25.178  26.748  1.00  0.00     0.029 A 
ATOM     46  N   UNL A   1      43.660  26.965  26.969  1.00  0.00    -0.354 N 
ATOM     47  C   UNL A   1      47.834  26.818  25.849  1.00  0.00     0.074 A 
ATOM     48  C   UNL A   1      48.143  25.569  25.186  1.00  0.00     0.031 C 
ATOM     49  C   UNL A   1      41.579  26.181  27.202  1.00  0.00     0.029 A 
ATOM     50  C   UNL A   1      42.426  27.338  27.446  1.00  0.00     0.049 A 
ATOM     51  H   UNL A   1      44.431  27.576  26.930  1.00  0.00     0.167 HD
ATOM     52  C   UNL A   1      48.710  27.839  26.019  1.00  0.00     0.037 A 
ATOM     53  C   UNL A   1      42.028  28.461  28.071  1.00  0.00     0.037 A 
ATOM     54  C   UNL A   1      48.377  29.087  26.661  1.00  0.00     0.049 A 
ATOM     55  C   UNL A   1      43.042  29.532  28.346  1.00  0.00     0.074 A 
ATOM     56  C   UNL A   1      49.184  30.191  26.876  1.00  0.00     0.029 A 
ATOM     57  N   UNL A   1      47.132  29.395  27.191  1.00  0.00    -0.354 N 
ATOM     58  N   UNL A   1      44.305  29.585  27.997  1.00  0.00    -0.248 NA
ATOM     59  C   UNL A   1      42.585  30.688  29.127  1.00  0.00     0.031 C 
ATOM     60  C   UNL A   1      48.444  31.142  27.589  1.00  0.00     0.029 A 
ATOM     61  C   UNL A   1      47.158  30.658  27.764  1.00  0.00     0.049 A 
ATOM     62  H   UNL A   1      46.345  28.804  27.164  1.00  0.00     0.167 HD
ATOM     63  C   UNL A   1      44.789  30.785  28.496  1.00  0.00     0.074 A 
ATOM     64  C   UNL A   1      43.677  31.439  29.158  1.00  0.00     0.031 C 
ATOM     65  C   UNL A   1      46.040  31.296  28.415  1.00  0.00     0.037 A 
BRANCH  52  66
ATOM     66  C   UNL A   1      50.122  27.631  25.546  1.00  0.00     0.064 A 
ATOM     67  C   UNL A   1      50.486  27.760  24.197  1.00  0.00     0.173 A 
ATOM     68  C   UNL A   1      51.136  27.307  26.464  1.00  0.00     0.173 A 
ATOM     69  F   UNL A   1      49.560  28.062  23.274  1.00  0.00    -0.203 F 
ATOM     70  C   UNL A   1      51.795  27.529  23.779  1.00  0.00     0.198 A 
ATOM     71  C   UNL A   1      52.451  27.112  26.049  1.00  0.00     0.198 A 
ATOM     72  F   UNL A   1      50.850  27.181  27.769  1.00  0.00    -0.203 F 
ATOM     73  F   UNL A   1      52.103  27.597  22.476  1.00  0.00    -0.200 F 
ATOM     74  C   UNL A   1      52.777  27.211  24.706  1.00  0.00     0.200 A 
ATOM     75  F   UNL A   1      53.400  26.821  26.949  1.00  0.00    -0.200 F 
ATOM     76  F   UNL A   1      54.036  26.989  24.302  1.00  0.00    -0.200 F 
ENDBRANCH  52  66
BRANCH  53  77
ATOM     77  C   UNL A   1      40.616  28.602  28.517  1.00  0.00     0.064 A 
ATOM     78  C   UNL A   1      40.250  28.306  29.836  1.00  0.00     0.173 A 
ATOM     79  C   UNL A   1      39.610  29.052  27.647  1.00  0.00     0.173 A 
ATOM     80  F   UNL A   1      41.169  27.850  30.699  1.00  0.00    -0.203 F 
ATOM     81  C   UNL A   1      38.932  28.450  30.267  1.00  0.00     0.198 A 
ATOM     82  C   UNL A   1      38.300  29.229  28.088  1.00  0.00     0.198 A 
ATOM     83  F   UNL A   1      39.906  29.348  26.373  1.00  0.00    -0.203 F 
ATOM     84  F   UNL A   1      38.602  28.123  31.524  1.00  0.00    -0.200 F 
ATOM     85  C   UNL A   1      37.961  28.921  29.396  1.00  0.00     0.200 A 
ATOM     86  F   UNL A   1      37.370  29.701  27.247  1.00  0.00    -0.200 F 
ATOM     87  F   UNL A   1      36.698  29.070  29.815  1.00  0.00    -0.200 F 
ENDBRANCH  53  77
BRANCH  65  88
ATOM     88  C   UNL A   1      46.268  32.647  29.029  1.00  0.00     0.064 A 
ATOM     89  C   UNL A   1      46.720  32.788  30.349  1.00  0.00     0.173 A 
ATOM     90  C   UNL A   1      46.073  33.811  28.271  1.00  0.00     0.173 A 
ATOM     91  F   UNL A   1      46.900  31.707  31.121  1.00  0.00    -0.203 F 
ATOM     92  C   UNL A   1      46.951  34.049  30.893  1.00  0.00     0.198 A 
ATOM     93  C   UNL A   1      46.335  35.068  28.808  1.00  0.00     0.198 A 
ATOM     94  F   UNL A   1      45.642  33.728  27.002  1.00  0.00    -0.203 F 
ATOM     95  F   UNL A   1      47.339  34.164  32.170  1.00  0.00    -0.200 F 
ATOM     96  C   UNL A   1      46.769  35.186  30.120  1.00  0.00     0.200 A 
ATOM     97  F   UNL A   1      46.172  36.164  28.054  1.00  0.00    -0.200 F 
ATOM     98  F   UNL A   1      47.006  36.398  30.641  1.00  0.00    -0.200 F 
ENDBRANCH  65  88
ENDBRANCH  39  40
ENDBRANCH  32  34
ENDBRANCH  31  32
ENDBRANCH  30  31
ENDBRANCH   1  30
TORSDOF 15
ENDMDL
MODEL 2
REMARK VINA RESULT:     -12.6      0.694      1.750
REMARK SMILES COC(=O)C1=C(C)N(c2ccc(Br)cc2)C(=O)/C1=C\c1ccc(C(=O)OCCOC(=O)c2ccc(-c3c4nc(c(-c5c(F)c(F)c(F)c(F)c5F)c5ccc([nH]5)c(-c5c(F)c(F)c(F)c(F)c5F)c5nc(c(-c6c(F)c(F)c(F)c(F)c6F)c6ccc3[nH]6)C=C5)C=C4)cc2)cc1
REMARK SMILES IDX 27 1 26 2 24 3 25 4 23 5 20 6 21 7 96 8 22 9 95 10 19 11
REMARK SMILES IDX 5 12 6 13 18 14 7 15 8 16 16 17 17 18 3 19 4 20 2 21 1 22
REMARK SMILES IDX 9 23 10 24 15 25 11 26 14 27 12 28 13 29 28 30 29 31 30 32
REMARK SMILES IDX 31 33 32 34 33 35 94 36 34 37 93 38 35 39 36 40 37 41 87 42
REMARK SMILES IDX 38 43 92 44 86 45 88 46 39 47 91 48 85 49 84 50 40 52 72 53
REMARK SMILES IDX 52 54 71 55 53 56 56 57 70 58 89 59 54 60 55 61 69 63 90 64
REMARK SMILES IDX 57 65 41 66 42 67 50 68 43 69 44 70 48 71 51 72 45 73 46 74
REMARK SMILES IDX 49 75 47 76 73 77 74 78 82 79 75 80 76 81 80 82 83 83 77 84
REMARK SMILES IDX 78 85 81 86 79 87 58 88 59 89 67 90 60 91 61 92 65 93 68 94
REMARK SMILES IDX 62 95 63 96 66 97 64 98
REMARK H PARENT 88 51 56 62
REMARK Flexibility Score: inf
ROOT
ATOM      1  C   UNL A   1      42.387  19.379  26.838  1.00  0.00     0.275 C 
ENDROOT
BRANCH   1   2
ATOM      2  O   UNL A   1      42.263  20.724  26.333  1.00  0.00    -0.458 OA
BRANCH   2   3
ATOM      3  C   UNL A   1      41.722  21.626  27.189  1.00  0.00     0.338 C 
ATOM      4  O   UNL A   1      42.271  22.128  28.157  1.00  0.00    -0.246 OA
BRANCH   3   5
ATOM      5  C   UNL A   1      40.364  22.021  26.746  1.00  0.00     0.060 A 
ATOM      6  C   UNL A   1      37.894  22.788  25.686  1.00  0.00    -0.025 A 
ATOM      7  C   UNL A   1      38.418  21.536  25.374  1.00  0.00     0.009 A 
ATOM      8  C   UNL A   1      38.583  23.638  26.563  1.00  0.00     0.009 A 
ATOM      9  C   UNL A   1      39.664  21.173  25.877  1.00  0.00     0.016 A 
ATOM     10  C   UNL A   1      39.813  23.252  27.104  1.00  0.00     0.016 A 
BRANCH   6  11
ATOM     11  C   UNL A   1      36.701  23.250  24.984  1.00  0.00     0.023 C 
ATOM     12  C   UNL A   1      34.436  22.793  24.004  1.00  0.00     0.092 C 
ATOM     13  C   UNL A   1      33.670  21.684  23.898  1.00  0.00     0.039 C 
ATOM     14  C   UNL A   1      35.667  22.444  24.688  1.00  0.00     0.057 C 
ATOM     15  C   UNL A   1      32.297  21.639  23.308  1.00  0.00     0.066 C 
ATOM     16  N   UNL A   1      34.298  20.600  24.518  1.00  0.00    -0.280 N 
ATOM     17  C   UNL A   1      35.555  20.985  25.039  1.00  0.00     0.263 C 
ATOM     18  O   UNL A   1      36.382  20.311  25.621  1.00  0.00    -0.268 OA
BRANCH  12  19
ATOM     19  C   UNL A   1      34.096  24.164  23.578  1.00  0.00     0.340 C 
ATOM     20  O   UNL A   1      34.370  24.625  22.481  1.00  0.00    -0.246 OA
BRANCH  19  21
ATOM     21  O   UNL A   1      33.532  24.848  24.604  1.00  0.00    -0.465 OA
ATOM     22  C   UNL A   1      33.697  26.265  24.521  1.00  0.00     0.282 C 
ENDBRANCH  19  21
ENDBRANCH  12  19
BRANCH  16  23
ATOM     23  C   UNL A   1      33.815  19.278  24.720  1.00  0.00     0.049 A 
ATOM     24  C   UNL A   1      34.378  18.217  23.992  1.00  0.00     0.028 A 
ATOM     25  C   UNL A   1      32.791  18.994  25.629  1.00  0.00     0.028 A 
ATOM     26  C   UNL A   1      33.974  16.898  24.214  1.00  0.00     0.018 A 
ATOM     27  C   UNL A   1      32.374  17.675  25.845  1.00  0.00     0.018 A 
ATOM     28  C   UNL A   1      32.980  16.632  25.148  1.00  0.00     0.018 A 
ATOM     29  Br  UNL A   1      32.449  14.847  25.470  1.00  0.00    -0.051 Br
ENDBRANCH  16  23
ENDBRANCH   6  11
ENDBRANCH   3   5
ENDBRANCH   2   3
ENDBRANCH   1   2
BRANCH   1  30
ATOM     30  C   UNL A   1      43.223  18.508  25.898  1.00  0.00     0.275 C 
BRANCH  30  31
ATOM     31  O   UNL A   1      43.399  19.159  24.626  1.00  0.00    -0.458 OA
BRANCH  31  32
ATOM     32  C   UNL A   1      44.680  19.424  24.287  1.00  0.00     0.338 C 
ATOM     33  O   UNL A   1      45.495  18.671  23.781  1.00  0.00    -0.246 OA
BRANCH  32  34
ATOM     34  C   UNL A   1      44.981  20.836  24.559  1.00  0.00     0.060 A 
ATOM     35  C   UNL A   1      45.576  21.160  25.771  1.00  0.00     0.016 A 
ATOM     36  C   UNL A   1      44.540  21.844  23.708  1.00  0.00     0.016 A 
ATOM     37  C   UNL A   1      45.624  22.478  26.204  1.00  0.00     0.010 A 
ATOM     38  C   UNL A   1      44.725  23.182  24.080  1.00  0.00     0.010 A 
ATOM     39  C   UNL A   1      45.246  23.515  25.345  1.00  0.00    -0.014 A 
BRANCH  39  40
ATOM     40  C   UNL A   1      45.428  24.935  25.756  1.00  0.00     0.031 A 
ATOM     41  C   UNL A   1      46.764  25.609  25.608  1.00  0.00     0.074 A 
ATOM     42  C   UNL A   1      44.389  25.622  26.276  1.00  0.00     0.049 A 
ATOM     43  N   UNL A   1      47.177  26.753  26.095  1.00  0.00    -0.248 NA
ATOM     44  C   UNL A   1      47.779  24.894  24.817  1.00  0.00     0.031 C 
ATOM     45  C   UNL A   1      43.021  25.116  26.418  1.00  0.00     0.029 A 
ATOM     46  N   UNL A   1      44.318  26.896  26.784  1.00  0.00    -0.354 N 
ATOM     47  C   UNL A   1      48.508  26.872  25.713  1.00  0.00     0.074 A 
ATOM     48  C   UNL A   1      48.838  25.677  24.967  1.00  0.00     0.031 C 
ATOM     49  C   UNL A   1      42.243  26.076  26.933  1.00  0.00     0.029 A 
ATOM     50  C   UNL A   1      43.074  27.222  27.270  1.00  0.00     0.049 A 
ATOM     51  H   UNL A   1      45.083  27.516  26.799  1.00  0.00     0.167 HD
ATOM     52  C   UNL A   1      49.370  27.887  25.967  1.00  0.00     0.037 A 
ATOM     53  C   UNL A   1      42.656  28.293  27.967  1.00  0.00     0.037 A 
ATOM     54  C   UNL A   1      49.015  29.082  26.691  1.00  0.00     0.049 A 
ATOM     55  C   UNL A   1      43.655  29.352  28.332  1.00  0.00     0.074 A 
ATOM     56  C   UNL A   1      49.807  30.176  26.995  1.00  0.00     0.029 A 
ATOM     57  N   UNL A   1      47.760  29.339  27.225  1.00  0.00    -0.354 N 
ATOM     58  N   UNL A   1      44.920  29.442  28.005  1.00  0.00    -0.248 NA
ATOM     59  C   UNL A   1      43.174  30.445  29.187  1.00  0.00     0.031 C 
ATOM     60  C   UNL A   1      49.047  31.066  27.764  1.00  0.00     0.029 A 
ATOM     61  C   UNL A   1      47.765  30.558  27.887  1.00  0.00     0.049 A 
ATOM     62  H   UNL A   1      46.980  28.743  27.146  1.00  0.00     0.167 HD
ATOM     63  C   UNL A   1      45.385  30.608  28.595  1.00  0.00     0.074 A 
ATOM     64  C   UNL A   1      44.258  31.202  29.286  1.00  0.00     0.031 C 
ATOM     65  C   UNL A   1      46.632  31.136  28.567  1.00  0.00     0.037 A 
BRANCH  52  66
ATOM     66  C   UNL A   1      50.790  27.728  25.499  1.00  0.00     0.064 A 
ATOM     67  C   UNL A   1      51.174  27.981  24.174  1.00  0.00     0.173 A 
ATOM     68  C   UNL A   1      51.790  27.322  26.399  1.00  0.00     0.173 A 
ATOM     69  F   UNL A   1      50.261  28.364  23.268  1.00  0.00    -0.203 F 
ATOM     70  C   UNL A   1      52.491  27.794  23.758  1.00  0.00     0.198 A 
ATOM     71  C   UNL A   1      53.113  27.171  25.989  1.00  0.00     0.198 A 
ATOM     72  F   UNL A   1      51.485  27.077  27.683  1.00  0.00    -0.203 F 
ATOM     73  F   UNL A   1      52.819  27.982  22.471  1.00  0.00    -0.200 F 
ATOM     74  C   UNL A   1      53.459  27.394  24.666  1.00  0.00     0.200 A 
ATOM     75  F   UNL A   1      54.049  26.801  26.873  1.00  0.00    -0.200 F 
ATOM     76  F   UNL A   1      54.726  27.214  24.265  1.00  0.00    -0.200 F 
ENDBRANCH  52  66
BRANCH  53  77
ATOM     77  C   UNL A   1      41.236  28.387  28.404  1.00  0.00     0.064 A 
ATOM     78  C   UNL A   1      40.264  28.936  27.559  1.00  0.00     0.173 A 
ATOM     79  C   UNL A   1      40.819  27.915  29.658  1.00  0.00     0.173 A 
ATOM     80  F   UNL A   1      40.616  29.423  26.359  1.00  0.00    -0.203 F 
ATOM     81  C   UNL A   1      38.929  29.014  27.953  1.00  0.00     0.198 A 
ATOM     82  C   UNL A   1      39.479  27.961  30.037  1.00  0.00     0.198 A 
ATOM     83  F   UNL A   1      41.710  27.382  30.507  1.00  0.00    -0.203 F 
ATOM     84  F   UNL A   1      38.026  29.579  27.140  1.00  0.00    -0.200 F 
ATOM     85  C   UNL A   1      38.537  28.518  29.187  1.00  0.00     0.200 A 
ATOM     86  F   UNL A   1      39.103  27.464  31.223  1.00  0.00    -0.200 F 
ATOM     87  F   UNL A   1      37.251  28.582  29.559  1.00  0.00    -0.200 F 
ENDBRANCH  53  77
BRANCH  65  88
ATOM     88  C   UNL A   1      46.836  32.442  29.278  1.00  0.00     0.064 A 
ATOM     89  C   UNL A   1      46.616  33.670  28.638  1.00  0.00     0.173 A 
ATOM     90  C   UNL A   1      47.214  32.462  30.630  1.00  0.00     0.173 A 
ATOM     91  F   UNL A   1      46.275  33.705  27.342  1.00  0.00    -0.203 F 
ATOM     92  C   UNL A   1      46.786  34.872  29.321  1.00  0.00     0.198 A 
ATOM     93  C   UNL A   1      47.352  33.663  31.317  1.00  0.00     0.198 A 
ATOM     94  F   UNL A   1      47.436  31.313  31.286  1.00  0.00    -0.203 F 
ATOM     95  F   UNL A   1      46.615  36.035  28.679  1.00  0.00    -0.200 F 
ATOM     96  C   UNL A   1      47.143  34.867  30.661  1.00  0.00     0.200 A 
ATOM     97  F   UNL A   1      47.682  33.656  32.616  1.00  0.00    -0.200 F 
ATOM     98  F   UNL A   1      47.291  36.025  31.321  1.00  0.00    -0.200 F 
ENDBRANCH  65  88
ENDBRANCH  39  40
ENDBRANCH  32  34
ENDBRANCH  31  32
ENDBRANCH  30  31
ENDBRANCH   1  30
TORSDOF 15
ENDMDL
MODEL 3
REMARK VINA RESULT:     -12.4      0.681      7.016
REMARK SMILES COC(=O)C1=C(C)N(c2ccc(Br)cc2)C(=O)/C1=C\c1ccc(C(=O)OCCOC(=O)c2ccc(-c3c4nc(c(-c5c(F)c(F)c(F)c(F)c5F)c5ccc([nH]5)c(-c5c(F)c(F)c(F)c(F)c5F)c5nc(c(-c6c(F)c(F)c(F)c(F)c6F)c6ccc3[nH]6)C=C5)C=C4)cc2)cc1
REMARK SMILES IDX 27 1 26 2 24 3 25 4 23 5 20 6 21 7 96 8 22 9 95 10 19 11
REMARK SMILES IDX 5 12 6 13 18 14 7 15 8 16 16 17 17 18 3 19 4 20 2 21 1 22
REMARK SMILES IDX 9 23 10 24 15 25 11 26 14 27 12 28 13 29 28 30 29 31 30 32
REMARK SMILES IDX 31 33 32 34 33 35 94 36 34 37 93 38 35 39 36 40 37 41 87 42
REMARK SMILES IDX 38 43 92 44 86 45 88 46 39 47 91 48 85 49 84 50 40 52 72 53
REMARK SMILES IDX 52 54 71 55 53 56 56 57 70 58 89 59 54 60 55 61 69 63 90 64
REMARK SMILES IDX 57 65 41 66 42 67 50 68 43 69 44 70 48 71 51 72 45 73 46 74
REMARK SMILES IDX 49 75 47 76 73 77 74 78 82 79 75 80 76 81 80 82 83 83 77 84
REMARK SMILES IDX 78 85 81 86 79 87 58 88 59 89 67 90 60 91 61 92 65 93 68 94
REMARK SMILES IDX 62 95 63 96 66 97 64 98
REMARK H PARENT 88 51 56 62
REMARK Flexibility Score: inf
ROOT
ATOM      1  C   UNL A   1      42.378  19.348  27.507  1.00  0.00     0.275 C 
ENDROOT
BRANCH   1   2
ATOM      2  O   UNL A   1      41.111  20.022  27.657  1.00  0.00    -0.458 OA
BRANCH   2   3
ATOM      3  C   UNL A   1      41.162  21.377  27.659  1.00  0.00     0.338 C 
ATOM      4  O   UNL A   1      42.019  22.070  28.185  1.00  0.00    -0.246 OA
BRANCH   3   5
ATOM      5  C   UNL A   1      40.067  21.945  26.838  1.00  0.00     0.060 A 
ATOM      6  C   UNL A   1      37.857  22.986  25.481  1.00  0.00    -0.025 A 
ATOM      7  C   UNL A   1      38.446  23.724  26.505  1.00  0.00     0.009 A 
ATOM      8  C   UNL A   1      38.399  21.750  25.105  1.00  0.00     0.009 A 
ATOM      9  C   UNL A   1      39.526  23.186  27.199  1.00  0.00     0.016 A 
ATOM     10  C   UNL A   1      39.513  21.232  25.774  1.00  0.00     0.016 A 
BRANCH   6  11
ATOM     11  C   UNL A   1      36.598  23.453  24.908  1.00  0.00     0.023 C 
ATOM     12  C   UNL A   1      34.260  22.993  24.121  1.00  0.00     0.092 C 
ATOM     13  C   UNL A   1      33.503  21.875  24.043  1.00  0.00     0.039 C 
ATOM     14  C   UNL A   1      35.553  22.641  24.676  1.00  0.00     0.057 C 
ATOM     15  C   UNL A   1      32.083  21.827  23.579  1.00  0.00     0.066 C 
ATOM     16  N   UNL A   1      34.200  20.780  24.562  1.00  0.00    -0.280 N 
ATOM     17  C   UNL A   1      35.494  21.168  24.981  1.00  0.00     0.263 C 
ATOM     18  O   UNL A   1      36.380  20.487  25.460  1.00  0.00    -0.268 OA
BRANCH  12  19
ATOM     19  C   UNL A   1      33.863  24.372  23.780  1.00  0.00     0.340 C 
ATOM     20  O   UNL A   1      33.399  25.167  24.583  1.00  0.00    -0.246 OA
BRANCH  19  21
ATOM     21  O   UNL A   1      34.001  24.584  22.447  1.00  0.00    -0.465 OA
ATOM     22  C   UNL A   1      33.317  25.744  21.968  1.00  0.00     0.282 C 
ENDBRANCH  19  21
ENDBRANCH  12  19
BRANCH  16  23
ATOM     23  C   UNL A   1      33.757  19.444  24.757  1.00  0.00     0.049 A 
ATOM     24  C   UNL A   1      34.177  18.438  23.871  1.00  0.00     0.028 A 
ATOM     25  C   UNL A   1      32.910  19.090  25.813  1.00  0.00     0.028 A 
ATOM     26  C   UNL A   1      33.815  17.104  24.071  1.00  0.00     0.018 A 
ATOM     27  C   UNL A   1      32.534  17.757  26.010  1.00  0.00     0.018 A 
ATOM     28  C   UNL A   1      33.002  16.767  25.147  1.00  0.00     0.018 A 
ATOM     29  Br  UNL A   1      32.531  14.961  25.438  1.00  0.00    -0.051 Br
ENDBRANCH  16  23
ENDBRANCH   6  11
ENDBRANCH   3   5
ENDBRANCH   2   3
ENDBRANCH   1   2
BRANCH   1  30
ATOM     30  C   UNL A   1      42.449  18.589  26.182  1.00  0.00     0.275 C 
BRANCH  30  31
ATOM     31  O   UNL A   1      42.641  19.500  25.084  1.00  0.00    -0.458 OA
BRANCH  31  32
ATOM     32  C   UNL A   1      43.929  19.736  24.749  1.00  0.00     0.338 C 
ATOM     33  O   UNL A   1      44.711  18.981  24.196  1.00  0.00    -0.246 OA
BRANCH  32  34
ATOM     34  C   UNL A   1      44.284  21.119  25.093  1.00  0.00     0.060 A 
ATOM     35  C   UNL A   1      45.303  21.326  26.012  1.00  0.00     0.016 A 
ATOM     36  C   UNL A   1      43.520  22.192  24.645  1.00  0.00     0.016 A 
ATOM     37  C   UNL A   1      45.492  22.576  26.587  1.00  0.00     0.010 A 
ATOM     38  C   UNL A   1      43.810  23.479  25.114  1.00  0.00     0.010 A 
ATOM     39  C   UNL A   1      44.783  23.683  26.111  1.00  0.00    -0.014 A 
BRANCH  39  40
ATOM     40  C   UNL A   1      45.085  25.047  26.629  1.00  0.00     0.031 A 
ATOM     41  C   UNL A   1      44.007  25.877  27.270  1.00  0.00     0.074 A 
ATOM     42  C   UNL A   1      46.332  25.548  26.514  1.00  0.00     0.049 A 
ATOM     43  N   UNL A   1      44.015  27.148  27.589  1.00  0.00    -0.248 NA
ATOM     44  C   UNL A   1      42.745  25.190  27.585  1.00  0.00     0.031 C 
ATOM     45  C   UNL A   1      47.490  24.831  25.973  1.00  0.00     0.029 A 
ATOM     46  N   UNL A   1      46.840  26.781  26.845  1.00  0.00    -0.354 N 
ATOM     47  C   UNL A   1      42.749  27.422  28.093  1.00  0.00     0.074 A 
ATOM     48  C   UNL A   1      41.994  26.190  28.025  1.00  0.00     0.031 C 
ATOM     49  C   UNL A   1      48.573  25.615  26.047  1.00  0.00     0.029 A 
ATOM     50  C   UNL A   1      48.169  26.928  26.526  1.00  0.00     0.049 A 
ATOM     51  H   UNL A   1      46.305  27.490  27.269  1.00  0.00     0.167 HD
ATOM     52  C   UNL A   1      42.267  28.598  28.566  1.00  0.00     0.037 A 
ATOM     53  C   UNL A   1      48.965  28.012  26.553  1.00  0.00     0.037 A 
ATOM     54  C   UNL A   1      43.043  29.811  28.649  1.00  0.00     0.049 A 
ATOM     55  C   UNL A   1      48.378  29.328  26.975  1.00  0.00     0.074 A 
ATOM     56  C   UNL A   1      42.657  31.054  29.121  1.00  0.00     0.029 A 
ATOM     57  N   UNL A   1      44.367  29.930  28.250  1.00  0.00    -0.354 N 
ATOM     58  N   UNL A   1      47.171  29.592  27.412  1.00  0.00    -0.248 NA
ATOM     59  C   UNL A   1      49.256  30.501  26.882  1.00  0.00     0.031 C 
ATOM     60  C   UNL A   1      43.729  31.938  28.952  1.00  0.00     0.029 A 
ATOM     61  C   UNL A   1      44.803  31.235  28.433  1.00  0.00     0.049 A 
ATOM     62  H   UNL A   1      44.917  29.197  27.890  1.00  0.00     0.167 HD
ATOM     63  C   UNL A   1      47.148  30.956  27.665  1.00  0.00     0.074 A 
ATOM     64  C   UNL A   1      48.470  31.460  27.349  1.00  0.00     0.031 C 
ATOM     65  C   UNL A   1      46.124  31.719  28.116  1.00  0.00     0.037 A 
BRANCH  52  66
ATOM     66  C   UNL A   1      40.824  28.641  28.984  1.00  0.00     0.064 A 
ATOM     67  C   UNL A   1      39.796  28.977  28.091  1.00  0.00     0.173 A 
ATOM     68  C   UNL A   1      40.460  28.329  30.305  1.00  0.00     0.173 A 
ATOM     69  F   UNL A   1      40.083  29.291  26.818  1.00  0.00    -0.203 F 
ATOM     70  C   UNL A   1      38.469  29.042  28.512  1.00  0.00     0.198 A 
ATOM     71  C   UNL A   1      39.129  28.360  30.714  1.00  0.00     0.198 A 
ATOM     72  F   UNL A   1      41.399  27.989  31.202  1.00  0.00    -0.203 F 
ATOM     73  F   UNL A   1      37.513  29.427  27.654  1.00  0.00    -0.200 F 
ATOM     74  C   UNL A   1      38.136  28.728  29.821  1.00  0.00     0.200 A 
ATOM     75  F   UNL A   1      38.810  28.040  31.976  1.00  0.00    -0.200 F 
ATOM     76  F   UNL A   1      36.860  28.792  30.225  1.00  0.00    -0.200 F 
ENDBRANCH  52  66
BRANCH  53  77
ATOM     77  C   UNL A   1      50.384  27.903  26.122  1.00  0.00     0.064 A 
ATOM     78  C   UNL A   1      51.410  27.765  27.065  1.00  0.00     0.173 A 
ATOM     79  C   UNL A   1      50.744  27.911  24.765  1.00  0.00     0.173 A 
ATOM     80  F   UNL A   1      51.120  27.775  28.375  1.00  0.00    -0.203 F 
ATOM     81  C   UNL A   1      52.741  27.646  26.670  1.00  0.00     0.198 A 
ATOM     82  C   UNL A   1      52.071  27.757  24.369  1.00  0.00     0.198 A 
ATOM     83  F   UNL A   1      49.802  28.042  23.819  1.00  0.00    -0.203 F 
ATOM     84  F   UNL A   1      53.706  27.555  27.595  1.00  0.00    -0.200 F 
ATOM     85  C   UNL A   1      53.069  27.632  25.323  1.00  0.00     0.200 A 
ATOM     86  F   UNL A   1      52.380  27.726  23.065  1.00  0.00    -0.200 F 
ATOM     87  F   UNL A   1      54.348  27.504  24.944  1.00  0.00    -0.200 F 
ENDBRANCH  53  77
BRANCH  65  88
ATOM     88  C   UNL A   1      46.402  33.179  28.328  1.00  0.00     0.064 A 
ATOM     89  C   UNL A   1      46.969  33.653  29.520  1.00  0.00     0.173 A 
ATOM     90  C   UNL A   1      46.139  34.106  27.309  1.00  0.00     0.173 A 
ATOM     91  F   UNL A   1      47.219  32.810  30.532  1.00  0.00    -0.203 F 
ATOM     92  C   UNL A   1      47.244  35.008  29.690  1.00  0.00     0.198 A 
ATOM     93  C   UNL A   1      46.445  35.454  27.470  1.00  0.00     0.198 A 
ATOM     94  F   UNL A   1      45.597  33.701  26.150  1.00  0.00    -0.203 F 
ATOM     95  F   UNL A   1      47.744  35.447  30.853  1.00  0.00    -0.200 F 
ATOM     96  C   UNL A   1      46.992  35.905  28.662  1.00  0.00     0.200 A 
ATOM     97  F   UNL A   1      46.213  36.316  26.470  1.00  0.00    -0.200 F 
ATOM     98  F   UNL A   1      47.271  37.206  28.822  1.00  0.00    -0.200 F 
ENDBRANCH  65  88
ENDBRANCH  39  40
ENDBRANCH  32  34
ENDBRANCH  31  32
ENDBRANCH  30  31
ENDBRANCH   1  30
TORSDOF 15
ENDMDL
