MODEL 1
REMARK VINA RESULT:     -10.3      0.000      0.000
REMARK SMILES COc1ccnc(N[C@H](C)CC(=O)OCCOC(=O)c2ccc(-c3c4nc(c(-c5c(F)c(F)c(F)c(F)c5F)c5ccc([nH]5)c(-c5c(F)c(F)c(F)c(F)c5F)c5nc(c(-c6c(F)c(F)c(F)c(F)c6F)c6ccc3[nH]6)C=C5)C=C4)cc2)n1
REMARK SMILES IDX 15 1 14 2 12 3 13 4 11 5 9 6 10 7 8 8 7 10 3 11 4 12 83 13
REMARK SMILES IDX 5 14 6 15 2 16 1 17 16 18 17 19 18 20 19 21 20 22 21 23
REMARK SMILES IDX 82 24 22 25 81 26 23 27 24 28 25 29 75 30 26 31 80 32 74 33
REMARK SMILES IDX 76 34 27 35 79 36 73 37 72 38 28 40 60 41 40 42 59 43 41 44
REMARK SMILES IDX 44 45 58 46 77 47 42 48 43 49 57 51 78 52 45 53 29 54 30 55
REMARK SMILES IDX 38 56 31 57 32 58 36 59 39 60 33 61 34 62 37 63 35 64 61 65
REMARK SMILES IDX 62 66 70 67 63 68 64 69 68 70 71 71 65 72 66 73 69 74 67 75
REMARK SMILES IDX 46 76 47 77 55 78 48 79 49 80 53 81 56 82 50 83 51 84 54 85
REMARK SMILES IDX 52 86
REMARK H PARENT 8 9 76 39 44 50
REMARK Flexibility Score: inf
ROOT
ATOM      1  C   UNL A   1      41.624  20.165  26.693  1.00  0.00     0.274 C 
ENDROOT
BRANCH   1   2
ATOM      2  O   UNL A   1      42.314  19.833  25.471  1.00  0.00    -0.462 OA
BRANCH   2   3
ATOM      3  C   UNL A   1      43.183  18.792  25.517  1.00  0.00     0.307 C 
ATOM      4  O   UNL A   1      43.097  17.851  26.297  1.00  0.00    -0.252 OA
BRANCH   3   5
ATOM      5  C   UNL A   1      44.345  18.959  24.565  1.00  0.00     0.147 C 
BRANCH   5   6
ATOM      6  C   UNL A   1      45.251  20.163  24.844  1.00  0.00     0.090 C 
ATOM      7  C   UNL A   1      46.719  19.863  24.507  1.00  0.00     0.031 C 
BRANCH   6   8
ATOM      8  N   UNL A   1      44.851  21.264  23.987  1.00  0.00    -0.351 N 
ATOM      9  H   UNL A   1      44.700  21.055  23.036  1.00  0.00     0.163 HD
BRANCH   8  10
ATOM     10  C   UNL A   1      44.666  22.560  24.371  1.00  0.00     0.226 A 
ATOM     11  C   UNL A   1      45.347  24.706  24.758  1.00  0.00     0.217 A 
ATOM     12  C   UNL A   1      44.076  25.103  25.103  1.00  0.00     0.088 A 
ATOM     13  N   UNL A   1      45.664  23.451  24.379  1.00  0.00    -0.177 NA
ATOM     14  C   UNL A   1      43.135  24.112  25.082  1.00  0.00     0.121 A 
ATOM     15  N   UNL A   1      43.407  22.845  24.734  1.00  0.00    -0.221 NA
BRANCH  11  16
ATOM     16  O   UNL A   1      46.385  25.606  24.713  1.00  0.00    -0.481 OA
ATOM     17  C   UNL A   1      46.012  26.905  25.171  1.00  0.00     0.280 C 
ENDBRANCH  11  16
ENDBRANCH   8  10
ENDBRANCH   6   8
ENDBRANCH   5   6
ENDBRANCH   3   5
ENDBRANCH   2   3
ENDBRANCH   1   2
BRANCH   1  18
ATOM     18  C   UNL A   1      40.237  20.748  26.419  1.00  0.00     0.275 C 
BRANCH  18  19
ATOM     19  O   UNL A   1      40.322  22.139  26.064  1.00  0.00    -0.458 OA
BRANCH  19  20
ATOM     20  C   UNL A   1      39.167  22.834  26.186  1.00  0.00     0.338 C 
ATOM     21  O   UNL A   1      38.039  22.444  25.948  1.00  0.00    -0.246 OA
BRANCH  20  22
ATOM     22  C   UNL A   1      39.468  24.141  26.786  1.00  0.00     0.060 A 
ATOM     23  C   UNL A   1      40.141  25.082  26.009  1.00  0.00     0.016 A 
ATOM     24  C   UNL A   1      39.144  24.417  28.115  1.00  0.00     0.016 A 
ATOM     25  C   UNL A   1      40.501  26.306  26.562  1.00  0.00     0.010 A 
ATOM     26  C   UNL A   1      39.515  25.647  28.671  1.00  0.00     0.010 A 
ATOM     27  C   UNL A   1      40.216  26.592  27.902  1.00  0.00    -0.014 A 
BRANCH  27  28
ATOM     28  C   UNL A   1      40.713  27.853  28.505  1.00  0.00     0.031 A 
ATOM     29  C   UNL A   1      42.179  28.025  28.786  1.00  0.00     0.074 A 
ATOM     30  C   UNL A   1      39.861  28.865  28.750  1.00  0.00     0.049 A 
ATOM     31  N   UNL A   1      42.801  29.024  29.363  1.00  0.00    -0.248 NA
ATOM     32  C   UNL A   1      43.065  26.938  28.347  1.00  0.00     0.031 C 
ATOM     33  C   UNL A   1      38.428  28.847  28.463  1.00  0.00     0.029 A 
ATOM     34  N   UNL A   1      40.080  30.105  29.299  1.00  0.00    -0.354 N 
ATOM     35  C   UNL A   1      44.146  28.677  29.373  1.00  0.00     0.074 A 
ATOM     36  C   UNL A   1      44.248  27.370  28.758  1.00  0.00     0.031 C 
ATOM     37  C   UNL A   1      37.891  30.015  28.849  1.00  0.00     0.029 A 
ATOM     38  C   UNL A   1      38.933  30.843  29.452  1.00  0.00     0.049 A 
ATOM     39  H   UNL A   1      40.972  30.431  29.559  1.00  0.00     0.167 HD
ATOM     40  C   UNL A   1      45.198  29.389  29.843  1.00  0.00     0.037 A 
ATOM     41  C   UNL A   1      38.737  32.037  30.041  1.00  0.00     0.037 A 
ATOM     42  C   UNL A   1      45.097  30.694  30.446  1.00  0.00     0.049 A 
ATOM     43  C   UNL A   1      39.909  32.774  30.629  1.00  0.00     0.074 A 
ATOM     44  C   UNL A   1      46.108  31.493  30.952  1.00  0.00     0.029 A 
ATOM     45  N   UNL A   1      43.911  31.391  30.625  1.00  0.00    -0.354 N 
ATOM     46  N   UNL A   1      41.174  32.432  30.649  1.00  0.00    -0.248 NA
ATOM     47  C   UNL A   1      39.625  34.062  31.277  1.00  0.00     0.031 C 
ATOM     48  C   UNL A   1      45.529  32.656  31.471  1.00  0.00     0.029 A 
ATOM     49  C   UNL A   1      44.162  32.603  31.250  1.00  0.00     0.049 A 
ATOM     50  H   UNL A   1      43.021  31.072  30.350  1.00  0.00     0.167 HD
ATOM     51  C   UNL A   1      41.838  33.464  31.299  1.00  0.00     0.074 A 
ATOM     52  C   UNL A   1      40.839  34.455  31.639  1.00  0.00     0.031 C 
ATOM     53  C   UNL A   1      43.158  33.578  31.587  1.00  0.00     0.037 A 
BRANCH  40  54
ATOM     54  C   UNL A   1      46.555  28.757  29.749  1.00  0.00     0.064 A 
ATOM     55  C   UNL A   1      47.085  27.992  30.798  1.00  0.00     0.173 A 
ATOM     56  C   UNL A   1      47.323  28.896  28.582  1.00  0.00     0.173 A 
ATOM     57  F   UNL A   1      46.395  27.839  31.937  1.00  0.00    -0.203 F 
ATOM     58  C   UNL A   1      48.345  27.409  30.691  1.00  0.00     0.198 A 
ATOM     59  C   UNL A   1      48.571  28.290  28.469  1.00  0.00     0.198 A 
ATOM     60  F   UNL A   1      46.856  29.611  27.547  1.00  0.00    -0.203 F 
ATOM     61  F   UNL A   1      48.850  26.716  31.721  1.00  0.00    -0.200 F 
ATOM     62  C   UNL A   1      49.084  27.554  29.527  1.00  0.00     0.200 A 
ATOM     63  F   UNL A   1      49.278  28.421  27.339  1.00  0.00    -0.200 F 
ATOM     64  F   UNL A   1      50.295  26.988  29.424  1.00  0.00    -0.200 F 
ENDBRANCH  40  54
BRANCH  41  65
ATOM     65  C   UNL A   1      37.362  32.591  30.134  1.00  0.00     0.064 A 
ATOM     66  C   UNL A   1      36.863  33.462  29.158  1.00  0.00     0.173 A 
ATOM     67  C   UNL A   1      36.517  32.247  31.201  1.00  0.00     0.173 A 
ATOM     68  F   UNL A   1      37.642  33.839  28.135  1.00  0.00    -0.203 F 
ATOM     69  C   UNL A   1      35.571  33.976  29.249  1.00  0.00     0.198 A 
ATOM     70  C   UNL A   1      35.218  32.741  31.276  1.00  0.00     0.198 A 
ATOM     71  F   UNL A   1      36.953  31.420  32.163  1.00  0.00    -0.203 F 
ATOM     72  F   UNL A   1      35.128  34.837  28.323  1.00  0.00    -0.200 F 
ATOM     73  C   UNL A   1      34.747  33.609  30.304  1.00  0.00     0.200 A 
ATOM     74  F   UNL A   1      34.423  32.375  32.291  1.00  0.00    -0.200 F 
ATOM     75  F   UNL A   1      33.502  34.098  30.386  1.00  0.00    -0.200 F 
ENDBRANCH  41  65
BRANCH  53  76
ATOM     76  C   UNL A   1      43.601  34.829  32.289  1.00  0.00     0.064 A 
ATOM     77  C   UNL A   1      43.935  35.990  31.577  1.00  0.00     0.173 A 
ATOM     78  C   UNL A   1      43.659  34.876  33.689  1.00  0.00     0.173 A 
ATOM     79  F   UNL A   1      43.911  35.989  30.236  1.00  0.00    -0.203 F 
ATOM     80  C   UNL A   1      44.331  37.147  32.242  1.00  0.00     0.198 A 
ATOM     81  C   UNL A   1      44.032  36.042  34.352  1.00  0.00     0.198 A 
ATOM     82  F   UNL A   1      43.346  33.792  34.416  1.00  0.00    -0.203 F 
ATOM     83  F   UNL A   1      44.687  38.233  31.541  1.00  0.00    -0.200 F 
ATOM     84  C   UNL A   1      44.374  37.174  33.628  1.00  0.00     0.200 A 
ATOM     85  F   UNL A   1      44.062  36.070  35.692  1.00  0.00    -0.200 F 
ATOM     86  F   UNL A   1      44.751  38.290  34.267  1.00  0.00    -0.200 F 
ENDBRANCH  53  76
ENDBRANCH  27  28
ENDBRANCH  20  22
ENDBRANCH  19  20
ENDBRANCH  18  19
ENDBRANCH   1  18
TORSDOF 15
ENDMDL
MODEL 2
REMARK VINA RESULT:     -10.3      5.087     10.777
REMARK SMILES COc1ccnc(N[C@H](C)CC(=O)OCCOC(=O)c2ccc(-c3c4nc(c(-c5c(F)c(F)c(F)c(F)c5F)c5ccc([nH]5)c(-c5c(F)c(F)c(F)c(F)c5F)c5nc(c(-c6c(F)c(F)c(F)c(F)c6F)c6ccc3[nH]6)C=C5)C=C4)cc2)n1
REMARK SMILES IDX 15 1 14 2 12 3 13 4 11 5 9 6 10 7 8 8 7 10 3 11 4 12 83 13
REMARK SMILES IDX 5 14 6 15 2 16 1 17 16 18 17 19 18 20 19 21 20 22 21 23
REMARK SMILES IDX 82 24 22 25 81 26 23 27 24 28 25 29 75 30 26 31 80 32 74 33
REMARK SMILES IDX 76 34 27 35 79 36 73 37 72 38 28 40 60 41 40 42 59 43 41 44
REMARK SMILES IDX 44 45 58 46 77 47 42 48 43 49 57 51 78 52 45 53 29 54 30 55
REMARK SMILES IDX 38 56 31 57 32 58 36 59 39 60 33 61 34 62 37 63 35 64 61 65
REMARK SMILES IDX 62 66 70 67 63 68 64 69 68 70 71 71 65 72 66 73 69 74 67 75
REMARK SMILES IDX 46 76 47 77 55 78 48 79 49 80 53 81 56 82 50 83 51 84 54 85
REMARK SMILES IDX 52 86
REMARK H PARENT 8 9 76 39 44 50
REMARK Flexibility Score: inf
ROOT
ATOM      1  C   UNL A   1      34.399  34.985  28.429  1.00  0.00     0.274 C 
ENDROOT
BRANCH   1   2
ATOM      2  O   UNL A   1      34.076  35.478  29.745  1.00  0.00    -0.462 OA
BRANCH   2   3
ATOM      3  C   UNL A   1      32.884  36.109  29.891  1.00  0.00     0.307 C 
ATOM      4  O   UNL A   1      32.162  36.450  28.962  1.00  0.00    -0.252 OA
BRANCH   3   5
ATOM      5  C   UNL A   1      32.574  36.446  31.331  1.00  0.00     0.147 C 
BRANCH   5   6
ATOM      6  C   UNL A   1      33.691  36.131  32.331  1.00  0.00     0.090 C 
ATOM      7  C   UNL A   1      33.653  37.070  33.546  1.00  0.00     0.031 C 
BRANCH   6   8
ATOM      8  N   UNL A   1      33.499  34.787  32.847  1.00  0.00    -0.351 N 
ATOM      9  H   UNL A   1      32.629  34.592  33.264  1.00  0.00     0.163 HD
BRANCH   8  10
ATOM     10  C   UNL A   1      34.409  33.771  32.812  1.00  0.00     0.226 A 
ATOM     11  C   UNL A   1      36.128  32.522  33.648  1.00  0.00     0.217 A 
ATOM     12  C   UNL A   1      36.087  31.654  32.582  1.00  0.00     0.088 A 
ATOM     13  N   UNL A   1      35.298  33.574  33.792  1.00  0.00    -0.177 NA
ATOM     14  C   UNL A   1      35.157  31.956  31.626  1.00  0.00     0.121 A 
ATOM     15  N   UNL A   1      34.324  33.005  31.714  1.00  0.00    -0.221 NA
BRANCH  11  16
ATOM     16  O   UNL A   1      36.999  32.322  34.693  1.00  0.00    -0.481 OA
ATOM     17  C   UNL A   1      37.083  33.449  35.565  1.00  0.00     0.280 C 
ENDBRANCH  11  16
ENDBRANCH   8  10
ENDBRANCH   6   8
ENDBRANCH   5   6
ENDBRANCH   3   5
ENDBRANCH   2   3
ENDBRANCH   1   2
BRANCH   1  18
ATOM     18  C   UNL A   1      33.704  33.654  28.138  1.00  0.00     0.275 C 
BRANCH  18  19
ATOM     19  O   UNL A   1      34.559  32.781  27.380  1.00  0.00    -0.458 OA
BRANCH  19  20
ATOM     20  C   UNL A   1      34.456  31.467  27.689  1.00  0.00     0.338 C 
ATOM     21  O   UNL A   1      33.502  30.735  27.505  1.00  0.00    -0.246 OA
BRANCH  20  22
ATOM     22  C   UNL A   1      35.756  31.001  28.189  1.00  0.00     0.060 A 
ATOM     23  C   UNL A   1      35.836  29.711  28.713  1.00  0.00     0.016 A 
ATOM     24  C   UNL A   1      36.871  31.841  28.197  1.00  0.00     0.016 A 
ATOM     25  C   UNL A   1      37.033  29.258  29.255  1.00  0.00     0.010 A 
ATOM     26  C   UNL A   1      38.072  31.384  28.751  1.00  0.00     0.010 A 
ATOM     27  C   UNL A   1      38.154  30.095  29.304  1.00  0.00    -0.014 A 
BRANCH  27  28
ATOM     28  C   UNL A   1      39.385  29.633  29.993  1.00  0.00     0.031 A 
ATOM     29  C   UNL A   1      40.185  28.498  29.419  1.00  0.00     0.074 A 
ATOM     30  C   UNL A   1      39.816  30.264  31.100  1.00  0.00     0.049 A 
ATOM     31  N   UNL A   1      41.253  27.910  29.900  1.00  0.00    -0.248 NA
ATOM     32  C   UNL A   1      39.736  27.964  28.125  1.00  0.00     0.031 C 
ATOM     33  C   UNL A   1      39.165  31.417  31.719  1.00  0.00     0.029 A 
ATOM     34  N   UNL A   1      40.905  30.020  31.901  1.00  0.00    -0.354 N 
ATOM     35  C   UNL A   1      41.590  26.926  28.979  1.00  0.00     0.074 A 
ATOM     36  C   UNL A   1      40.606  26.986  27.918  1.00  0.00     0.031 C 
ATOM     37  C   UNL A   1      39.859  31.775  32.810  1.00  0.00     0.029 A 
ATOM     38  C   UNL A   1      40.974  30.848  32.993  1.00  0.00     0.049 A 
ATOM     39  H   UNL A   1      41.569  29.319  31.711  1.00  0.00     0.167 HD
ATOM     40  C   UNL A   1      42.630  26.059  29.013  1.00  0.00     0.037 A 
ATOM     41  C   UNL A   1      41.820  30.841  34.040  1.00  0.00     0.037 A 
ATOM     42  C   UNL A   1      43.615  26.005  30.064  1.00  0.00     0.049 A 
ATOM     43  C   UNL A   1      42.920  29.817  34.097  1.00  0.00     0.074 A 
ATOM     44  C   UNL A   1      44.705  25.161  30.184  1.00  0.00     0.029 A 
ATOM     45  N   UNL A   1      43.625  26.831  31.179  1.00  0.00    -0.354 N 
ATOM     46  N   UNL A   1      43.222  28.880  33.231  1.00  0.00    -0.248 NA
ATOM     47  C   UNL A   1      43.795  29.849  35.276  1.00  0.00     0.031 C 
ATOM     48  C   UNL A   1      45.354  25.451  31.390  1.00  0.00     0.029 A 
ATOM     49  C   UNL A   1      44.693  26.506  32.001  1.00  0.00     0.049 A 
ATOM     50  H   UNL A   1      42.971  27.544  31.360  1.00  0.00     0.167 HD
ATOM     51  C   UNL A   1      44.326  28.220  33.753  1.00  0.00     0.074 A 
ATOM     52  C   UNL A   1      44.654  28.877  35.002  1.00  0.00     0.031 C 
ATOM     53  C   UNL A   1      45.006  27.164  33.242  1.00  0.00     0.037 A 
BRANCH  40  54
ATOM     54  C   UNL A   1      42.744  25.074  27.887  1.00  0.00     0.064 A 
ATOM     55  C   UNL A   1      43.428  25.387  26.703  1.00  0.00     0.173 A 
ATOM     56  C   UNL A   1      42.187  23.792  28.006  1.00  0.00     0.173 A 
ATOM     57  F   UNL A   1      43.968  26.603  26.537  1.00  0.00    -0.203 F 
ATOM     58  C   UNL A   1      43.527  24.459  25.670  1.00  0.00     0.198 A 
ATOM     59  C   UNL A   1      42.311  22.859  26.982  1.00  0.00     0.198 A 
ATOM     60  F   UNL A   1      41.530  23.442  29.123  1.00  0.00    -0.203 F 
ATOM     61  F   UNL A   1      44.150  24.793  24.531  1.00  0.00    -0.200 F 
ATOM     62  C   UNL A   1      42.974  23.196  25.811  1.00  0.00     0.200 A 
ATOM     63  F   UNL A   1      41.786  21.634  27.125  1.00  0.00    -0.200 F 
ATOM     64  F   UNL A   1      43.075  22.302  24.817  1.00  0.00    -0.200 F 
ENDBRANCH  40  54
BRANCH  41  65
ATOM     65  C   UNL A   1      41.630  31.820  35.140  1.00  0.00     0.064 A 
ATOM     66  C   UNL A   1      40.630  31.644  36.104  1.00  0.00     0.173 A 
ATOM     67  C   UNL A   1      42.458  32.948  35.253  1.00  0.00     0.173 A 
ATOM     68  F   UNL A   1      39.798  30.596  36.022  1.00  0.00    -0.203 F 
ATOM     69  C   UNL A   1      40.458  32.564  37.136  1.00  0.00     0.198 A 
ATOM     70  C   UNL A   1      42.303  33.852  36.300  1.00  0.00     0.198 A 
ATOM     71  F   UNL A   1      43.428  33.161  34.351  1.00  0.00    -0.203 F 
ATOM     72  F   UNL A   1      39.470  32.395  38.024  1.00  0.00    -0.200 F 
ATOM     73  C   UNL A   1      41.299  33.663  37.237  1.00  0.00     0.200 A 
ATOM     74  F   UNL A   1      43.124  34.906  36.399  1.00  0.00    -0.200 F 
ATOM     75  F   UNL A   1      41.138  34.544  38.235  1.00  0.00    -0.200 F 
ENDBRANCH  41  65
BRANCH  53  76
ATOM     76  C   UNL A   1      46.185  26.665  34.024  1.00  0.00     0.064 A 
ATOM     77  C   UNL A   1      46.061  25.624  34.956  1.00  0.00     0.173 A 
ATOM     78  C   UNL A   1      47.460  27.212  33.815  1.00  0.00     0.173 A 
ATOM     79  F   UNL A   1      44.860  25.081  35.203  1.00  0.00    -0.203 F 
ATOM     80  C   UNL A   1      47.167  25.163  35.665  1.00  0.00     0.198 A 
ATOM     81  C   UNL A   1      48.568  26.732  34.508  1.00  0.00     0.198 A 
ATOM     82  F   UNL A   1      47.632  28.207  32.932  1.00  0.00    -0.203 F 
ATOM     83  F   UNL A   1      47.018  24.196  36.581  1.00  0.00    -0.200 F 
ATOM     84  C   UNL A   1      48.420  25.712  35.436  1.00  0.00     0.200 A 
ATOM     85  F   UNL A   1      49.780  27.256  34.278  1.00  0.00    -0.200 F 
ATOM     86  F   UNL A   1      49.484  25.264  36.116  1.00  0.00    -0.200 F 
ENDBRANCH  53  76
ENDBRANCH  27  28
ENDBRANCH  20  22
ENDBRANCH  19  20
ENDBRANCH  18  19
ENDBRANCH   1  18
TORSDOF 15
ENDMDL
MODEL 3
REMARK VINA RESULT:     -10.3      0.607      1.758
REMARK SMILES COc1ccnc(N[C@H](C)CC(=O)OCCOC(=O)c2ccc(-c3c4nc(c(-c5c(F)c(F)c(F)c(F)c5F)c5ccc([nH]5)c(-c5c(F)c(F)c(F)c(F)c5F)c5nc(c(-c6c(F)c(F)c(F)c(F)c6F)c6ccc3[nH]6)C=C5)C=C4)cc2)n1
REMARK SMILES IDX 15 1 14 2 12 3 13 4 11 5 9 6 10 7 8 8 7 10 3 11 4 12 83 13
REMARK SMILES IDX 5 14 6 15 2 16 1 17 16 18 17 19 18 20 19 21 20 22 21 23
REMARK SMILES IDX 82 24 22 25 81 26 23 27 24 28 25 29 75 30 26 31 80 32 74 33
REMARK SMILES IDX 76 34 27 35 79 36 73 37 72 38 28 40 60 41 40 42 59 43 41 44
REMARK SMILES IDX 44 45 58 46 77 47 42 48 43 49 57 51 78 52 45 53 29 54 30 55
REMARK SMILES IDX 38 56 31 57 32 58 36 59 39 60 33 61 34 62 37 63 35 64 61 65
REMARK SMILES IDX 62 66 70 67 63 68 64 69 68 70 71 71 65 72 66 73 69 74 67 75
REMARK SMILES IDX 46 76 47 77 55 78 48 79 49 80 53 81 56 82 50 83 51 84 54 85
REMARK SMILES IDX 52 86
REMARK H PARENT 8 9 76 39 44 50
REMARK Flexibility Score: inf
ROOT
ATOM      1  C   UNL A   1      41.647  20.244  26.690  1.00  0.00     0.274 C 
ENDROOT
BRANCH   1   2
ATOM      2  O   UNL A   1      42.279  19.898  25.441  1.00  0.00    -0.462 OA
BRANCH   2   3
ATOM      3  C   UNL A   1      43.124  18.836  25.452  1.00  0.00     0.307 C 
ATOM      4  O   UNL A   1      43.002  17.861  26.184  1.00  0.00    -0.252 OA
BRANCH   3   5
ATOM      5  C   UNL A   1      44.307  19.021  24.530  1.00  0.00     0.147 C 
BRANCH   5   6
ATOM      6  C   UNL A   1      45.215  20.210  24.862  1.00  0.00     0.090 C 
ATOM      7  C   UNL A   1      46.695  19.887  24.606  1.00  0.00     0.031 C 
BRANCH   6   8
ATOM      8  N   UNL A   1      44.881  21.320  23.988  1.00  0.00    -0.351 N 
ATOM      9  H   UNL A   1      44.797  21.119  23.028  1.00  0.00     0.163 HD
BRANCH   8  10
ATOM     10  C   UNL A   1      44.674  22.613  24.370  1.00  0.00     0.226 A 
ATOM     11  C   UNL A   1      45.311  24.778  24.725  1.00  0.00     0.217 A 
ATOM     12  C   UNL A   1      44.041  25.145  25.103  1.00  0.00     0.088 A 
ATOM     13  N   UNL A   1      45.649  23.529  24.344  1.00  0.00    -0.177 NA
ATOM     14  C   UNL A   1      43.125  24.131  25.115  1.00  0.00     0.121 A 
ATOM     15  N   UNL A   1      43.418  22.869  24.766  1.00  0.00    -0.221 NA
BRANCH  11  16
ATOM     16  O   UNL A   1      46.324  25.704  24.645  1.00  0.00    -0.481 OA
ATOM     17  C   UNL A   1      45.911  27.013  25.034  1.00  0.00     0.280 C 
ENDBRANCH  11  16
ENDBRANCH   8  10
ENDBRANCH   6   8
ENDBRANCH   5   6
ENDBRANCH   3   5
ENDBRANCH   2   3
ENDBRANCH   1   2
BRANCH   1  18
ATOM     18  C   UNL A   1      40.275  20.883  26.471  1.00  0.00     0.275 C 
BRANCH  18  19
ATOM     19  O   UNL A   1      40.395  22.294  26.221  1.00  0.00    -0.458 OA
BRANCH  19  20
ATOM     20  C   UNL A   1      39.234  22.987  26.270  1.00  0.00     0.338 C 
ATOM     21  O   UNL A   1      38.129  22.606  25.931  1.00  0.00    -0.246 OA
BRANCH  20  22
ATOM     22  C   UNL A   1      39.485  24.276  26.929  1.00  0.00     0.060 A 
ATOM     23  C   UNL A   1      40.148  25.267  26.206  1.00  0.00     0.016 A 
ATOM     24  C   UNL A   1      39.124  24.488  28.260  1.00  0.00     0.016 A 
ATOM     25  C   UNL A   1      40.461  26.476  26.816  1.00  0.00     0.010 A 
ATOM     26  C   UNL A   1      39.449  25.703  28.874  1.00  0.00     0.010 A 
ATOM     27  C   UNL A   1      40.140  26.698  28.160  1.00  0.00    -0.014 A 
BRANCH  27  28
ATOM     28  C   UNL A   1      40.587  27.947  28.825  1.00  0.00     0.031 A 
ATOM     29  C   UNL A   1      42.022  28.103  29.241  1.00  0.00     0.074 A 
ATOM     30  C   UNL A   1      39.723  28.962  29.007  1.00  0.00     0.049 A 
ATOM     31  N   UNL A   1      42.596  29.089  29.887  1.00  0.00    -0.248 NA
ATOM     32  C   UNL A   1      42.938  27.016  28.868  1.00  0.00     0.031 C 
ATOM     33  C   UNL A   1      38.322  28.958  28.591  1.00  0.00     0.029 A 
ATOM     34  N   UNL A   1      39.899  30.192  29.593  1.00  0.00    -0.354 N 
ATOM     35  C   UNL A   1      43.932  28.731  30.014  1.00  0.00     0.074 A 
ATOM     36  C   UNL A   1      44.082  27.433  29.391  1.00  0.00     0.031 C 
ATOM     37  C   UNL A   1      37.760  30.125  28.944  1.00  0.00     0.029 A 
ATOM     38  C   UNL A   1      38.747  30.936  29.651  1.00  0.00     0.049 A 
ATOM     39  H   UNL A   1      40.765  30.507  29.937  1.00  0.00     0.167 HD
ATOM     40  C   UNL A   1      44.941  29.428  30.589  1.00  0.00     0.037 A 
ATOM     41  C   UNL A   1      38.506  32.123  30.239  1.00  0.00     0.037 A 
ATOM     42  C   UNL A   1      44.795  30.725  31.199  1.00  0.00     0.049 A 
ATOM     43  C   UNL A   1      39.624  32.842  30.942  1.00  0.00     0.074 A 
ATOM     44  C   UNL A   1      45.760  31.509  31.807  1.00  0.00     0.029 A 
ATOM     45  N   UNL A   1      43.601  31.428  31.281  1.00  0.00    -0.354 N 
ATOM     46  N   UNL A   1      40.880  32.490  31.072  1.00  0.00    -0.248 NA
ATOM     47  C   UNL A   1      39.291  34.123  31.581  1.00  0.00     0.031 C 
ATOM     48  C   UNL A   1      45.144  32.669  32.290  1.00  0.00     0.029 A 
ATOM     49  C   UNL A   1      43.802  32.629  31.944  1.00  0.00     0.049 A 
ATOM     50  H   UNL A   1      42.738  31.120  30.921  1.00  0.00     0.167 HD
ATOM     51  C   UNL A   1      41.489  33.508  31.795  1.00  0.00     0.074 A 
ATOM     52  C   UNL A   1      40.469  34.501  32.058  1.00  0.00     0.031 C 
ATOM     53  C   UNL A   1      42.778  33.607  32.204  1.00  0.00     0.037 A 
BRANCH  40  54
ATOM     54  C   UNL A   1      46.298  28.788  30.608  1.00  0.00     0.064 A 
ATOM     55  C   UNL A   1      47.225  28.998  29.577  1.00  0.00     0.173 A 
ATOM     56  C   UNL A   1      46.684  27.976  31.686  1.00  0.00     0.173 A 
ATOM     57  F   UNL A   1      46.899  29.757  28.521  1.00  0.00    -0.203 F 
ATOM     58  C   UNL A   1      48.482  28.399  29.614  1.00  0.00     0.198 A 
ATOM     59  C   UNL A   1      47.950  27.400  31.731  1.00  0.00     0.198 A 
ATOM     60  F   UNL A   1      45.836  27.751  32.701  1.00  0.00    -0.203 F 
ATOM     61  F   UNL A   1      49.338  28.580  28.598  1.00  0.00    -0.200 F 
ATOM     62  C   UNL A   1      48.845  27.606  30.692  1.00  0.00     0.200 A 
ATOM     63  F   UNL A   1      48.304  26.644  32.779  1.00  0.00    -0.200 F 
ATOM     64  F   UNL A   1      50.057  27.034  30.727  1.00  0.00    -0.200 F 
ENDBRANCH  40  54
BRANCH  41  65
ATOM     65  C   UNL A   1      37.132  32.686  30.215  1.00  0.00     0.064 A 
ATOM     66  C   UNL A   1      36.231  32.443  31.258  1.00  0.00     0.173 A 
ATOM     67  C   UNL A   1      36.700  33.489  29.149  1.00  0.00     0.173 A 
ATOM     68  F   UNL A   1      36.590  31.660  32.286  1.00  0.00    -0.203 F 
ATOM     69  C   UNL A   1      34.943  32.975  31.232  1.00  0.00     0.198 A 
ATOM     70  C   UNL A   1      35.423  34.042  29.137  1.00  0.00     0.198 A 
ATOM     71  F   UNL A   1      37.527  33.746  28.124  1.00  0.00    -0.203 F 
ATOM     72  F   UNL A   1      34.086  32.698  32.224  1.00  0.00    -0.200 F 
ATOM     73  C   UNL A   1      34.543  33.781  30.176  1.00  0.00     0.200 A 
ATOM     74  F   UNL A   1      35.045  34.828  28.119  1.00  0.00    -0.200 F 
ATOM     75  F   UNL A   1      33.307  34.299  30.156  1.00  0.00    -0.200 F 
ENDBRANCH  41  65
BRANCH  53  76
ATOM     76  C   UNL A   1      43.163  34.844  32.962  1.00  0.00     0.064 A 
ATOM     77  C   UNL A   1      43.553  36.017  32.301  1.00  0.00     0.173 A 
ATOM     78  C   UNL A   1      43.109  34.865  34.363  1.00  0.00     0.173 A 
ATOM     79  F   UNL A   1      43.636  36.042  30.963  1.00  0.00    -0.203 F 
ATOM     80  C   UNL A   1      43.895  37.162  33.017  1.00  0.00     0.198 A 
ATOM     81  C   UNL A   1      43.427  36.018  35.075  1.00  0.00     0.198 A 
ATOM     82  F   UNL A   1      42.739  33.768  35.043  1.00  0.00    -0.203 F 
ATOM     83  F   UNL A   1      44.305  38.259  32.367  1.00  0.00    -0.200 F 
ATOM     84  C   UNL A   1      43.826  37.163  34.402  1.00  0.00     0.200 A 
ATOM     85  F   UNL A   1      43.350  36.021  36.414  1.00  0.00    -0.200 F 
ATOM     86  F   UNL A   1      44.150  38.266  35.090  1.00  0.00    -0.200 F 
ENDBRANCH  53  76
ENDBRANCH  27  28
ENDBRANCH  20  22
ENDBRANCH  19  20
ENDBRANCH  18  19
ENDBRANCH   1  18
TORSDOF 15
ENDMDL
