MODEL 1
REMARK VINA RESULT:      -9.4      0.000      0.000
REMARK SMILES C#CC[N@H+](CC(=O)OCCOC(=O)c1ccc(-c2c3nc(c(-c4c(F)c(F)c(F)c(F)c4F)c4ccc([nH]4)c(-c4c(F)c(F)c(F)c(F)c4F)c4nc(c(-c5c(F)c(F)c(F)c(F)c5F)c5ccc2[nH]5)C=C4)C=C3)cc1)[C@H](C)c1cc(C)ccc1C
REMARK SMILES IDX 9 1 8 2 6 3 7 4 5 5 4 6 3 8 2 9 1 10 77 11 78 12 79 13 80 14
REMARK SMILES IDX 85 15 81 16 84 17 86 18 82 19 83 20 10 21 11 22 12 23 13 24
REMARK SMILES IDX 14 25 15 26 76 27 16 28 75 29 17 30 18 31 19 32 69 33 20 34
REMARK SMILES IDX 74 35 68 36 70 37 21 38 73 39 67 40 66 41 22 43 54 44 34 45
REMARK SMILES IDX 53 46 35 47 38 48 52 49 71 50 36 51 37 52 51 54 72 55 39 56
REMARK SMILES IDX 23 57 24 58 32 59 25 60 26 61 30 62 33 63 27 64 28 65 31 66
REMARK SMILES IDX 29 67 55 68 56 69 64 70 57 71 58 72 62 73 65 74 59 75 60 76
REMARK SMILES IDX 63 77 61 78 40 79 41 80 49 81 42 82 43 83 47 84 50 85 44 86
REMARK SMILES IDX 45 87 48 88 46 89
REMARK H PARENT 4 7 70 42 38 53
REMARK Flexibility Score: inf
ROOT
ATOM      1  C   UNL A   1      40.534  20.184  26.462  1.00  0.00     0.274 C 
ENDROOT
BRANCH   1   2
ATOM      2  O   UNL A   1      41.934  20.039  26.755  1.00  0.00    -0.458 OA
BRANCH   2   3
ATOM      3  C   UNL A   1      42.805  20.390  25.783  1.00  0.00     0.361 C 
ATOM      4  O   UNL A   1      43.260  19.601  24.958  1.00  0.00    -0.245 OA
BRANCH   3   5
ATOM      5  C   UNL A   1      43.293  21.834  25.869  1.00  0.00     0.387 C 
BRANCH   5   6
ATOM      6  N   UNL A   1      44.618  22.118  26.535  1.00  0.00    -0.310 N 
ATOM      7  H   UNL A   1      44.940  21.345  27.117  1.00  0.00     0.349 HD
BRANCH   6   8
ATOM      8  C   UNL A   1      45.663  22.283  25.497  1.00  0.00     0.354 C 
BRANCH   8   9
ATOM      9  C   UNL A   1      46.288  21.077  24.932  1.00  0.00    -0.047 C 
ATOM     10  C   UNL A   1      46.730  20.056  24.486  1.00  0.00     0.010 C 
ENDBRANCH   8   9
ENDBRANCH   6   8
BRANCH   6  11
ATOM     11  C   UNL A   1      44.437  23.298  27.464  1.00  0.00     0.213 C 
ATOM     12  C   UNL A   1      43.047  23.245  28.144  1.00  0.00     0.081 C 
BRANCH  11  13
ATOM     13  C   UNL A   1      44.836  24.696  26.913  1.00  0.00     0.012 A 
ATOM     14  C   UNL A   1      43.948  25.383  26.048  1.00  0.00     0.013 A 
ATOM     15  C   UNL A   1      46.065  25.347  27.200  1.00  0.00    -0.042 A 
ATOM     16  C   UNL A   1      44.136  26.733  25.697  1.00  0.00    -0.051 A 
ATOM     17  C   UNL A   1      46.224  26.712  26.888  1.00  0.00     0.004 A 
ATOM     18  C   UNL A   1      47.265  24.687  27.827  1.00  0.00     0.045 C 
ATOM     19  C   UNL A   1      43.109  27.463  24.883  1.00  0.00     0.044 C 
ATOM     20  C   UNL A   1      45.259  27.407  26.170  1.00  0.00     0.004 A 
ENDBRANCH  11  13
ENDBRANCH   6  11
ENDBRANCH   5   6
ENDBRANCH   3   5
ENDBRANCH   2   3
ENDBRANCH   1   2
BRANCH   1  21
ATOM     21  C   UNL A   1      39.993  21.502  27.023  1.00  0.00     0.275 C 
BRANCH  21  22
ATOM     22  O   UNL A   1      39.723  22.451  25.971  1.00  0.00    -0.458 OA
BRANCH  22  23
ATOM     23  C   UNL A   1      38.758  23.360  26.243  1.00  0.00     0.338 C 
ATOM     24  O   UNL A   1      37.563  23.258  26.032  1.00  0.00    -0.246 OA
BRANCH  23  25
ATOM     25  C   UNL A   1      39.342  24.511  26.949  1.00  0.00     0.060 A 
ATOM     26  C   UNL A   1      39.034  24.700  28.299  1.00  0.00     0.016 A 
ATOM     27  C   UNL A   1      40.100  25.456  26.260  1.00  0.00     0.016 A 
ATOM     28  C   UNL A   1      39.472  25.837  28.969  1.00  0.00     0.010 A 
ATOM     29  C   UNL A   1      40.553  26.593  26.936  1.00  0.00     0.010 A 
ATOM     30  C   UNL A   1      40.231  26.798  28.291  1.00  0.00    -0.014 A 
BRANCH  30  31
ATOM     31  C   UNL A   1      40.641  28.039  28.991  1.00  0.00     0.031 A 
ATOM     32  C   UNL A   1      42.050  28.189  29.488  1.00  0.00     0.074 A 
ATOM     33  C   UNL A   1      39.751  29.033  29.168  1.00  0.00     0.049 A 
ATOM     34  N   UNL A   1      42.584  29.151  30.197  1.00  0.00    -0.248 NA
ATOM     35  C   UNL A   1      42.985  27.106  29.143  1.00  0.00     0.031 C 
ATOM     36  C   UNL A   1      38.368  29.020  28.693  1.00  0.00     0.029 A 
ATOM     37  N   UNL A   1      39.877  30.245  29.799  1.00  0.00    -0.354 N 
ATOM     38  C   UNL A   1      43.906  28.780  30.404  1.00  0.00     0.074 A 
ATOM     39  C   UNL A   1      44.086  27.490  29.772  1.00  0.00     0.031 C 
ATOM     40  C   UNL A   1      37.773  30.172  29.043  1.00  0.00     0.029 A 
ATOM     41  C   UNL A   1      38.714  30.974  29.819  1.00  0.00     0.049 A 
ATOM     42  H   UNL A   1      40.719  30.562  30.200  1.00  0.00     0.167 HD
ATOM     43  C   UNL A   1      44.880  29.460  31.057  1.00  0.00     0.037 A 
ATOM     44  C   UNL A   1      38.429  32.143  30.425  1.00  0.00     0.037 A 
ATOM     45  C   UNL A   1      44.688  30.747  31.676  1.00  0.00     0.049 A 
ATOM     46  C   UNL A   1      39.508  32.839  31.210  1.00  0.00     0.074 A 
ATOM     47  C   UNL A   1      45.613  31.528  32.348  1.00  0.00     0.029 A 
ATOM     48  N   UNL A   1      43.486  31.440  31.707  1.00  0.00    -0.354 N 
ATOM     49  N   UNL A   1      40.758  32.490  31.395  1.00  0.00    -0.248 NA
ATOM     50  C   UNL A   1      39.134  34.096  31.871  1.00  0.00     0.031 C 
ATOM     51  C   UNL A   1      44.954  32.657  32.844  1.00  0.00     0.029 A 
ATOM     52  C   UNL A   1      43.637  32.623  32.414  1.00  0.00     0.049 A 
ATOM     53  H   UNL A   1      42.648  31.136  31.288  1.00  0.00     0.167 HD
ATOM     54  C   UNL A   1      41.328  33.496  32.162  1.00  0.00     0.074 A 
ATOM     55  C   UNL A   1      40.290  34.480  32.393  1.00  0.00     0.031 C 
ATOM     56  C   UNL A   1      42.597  33.598  32.632  1.00  0.00     0.037 A 
BRANCH  43  57
ATOM     57  C   UNL A   1      46.231  28.808  31.168  1.00  0.00     0.064 A 
ATOM     58  C   UNL A   1      46.617  28.085  32.307  1.00  0.00     0.173 A 
ATOM     59  C   UNL A   1      47.143  28.886  30.104  1.00  0.00     0.173 A 
ATOM     60  F   UNL A   1      45.789  27.986  33.359  1.00  0.00    -0.203 F 
ATOM     61  C   UNL A   1      47.877  27.496  32.391  1.00  0.00     0.198 A 
ATOM     62  C   UNL A   1      48.387  28.264  30.176  1.00  0.00     0.198 A 
ATOM     63  F   UNL A   1      46.825  29.557  28.987  1.00  0.00    -0.203 F 
ATOM     64  F   UNL A   1      48.244  26.860  33.511  1.00  0.00    -0.200 F 
ATOM     65  C   UNL A   1      48.757  27.578  31.322  1.00  0.00     0.200 A 
ATOM     66  F   UNL A   1      49.228  28.330  29.134  1.00  0.00    -0.200 F 
ATOM     67  F   UNL A   1      49.965  27.004  31.400  1.00  0.00    -0.200 F 
ENDBRANCH  43  57
BRANCH  44  68
ATOM     68  C   UNL A   1      37.060  32.717  30.330  1.00  0.00     0.064 A 
ATOM     69  C   UNL A   1      36.690  33.529  29.248  1.00  0.00     0.173 A 
ATOM     70  C   UNL A   1      36.097  32.479  31.323  1.00  0.00     0.173 A 
ATOM     71  F   UNL A   1      37.580  33.806  28.284  1.00  0.00    -0.203 F 
ATOM     72  C   UNL A   1      35.421  34.100  29.177  1.00  0.00     0.198 A 
ATOM     73  C   UNL A   1      34.817  33.020  31.232  1.00  0.00     0.198 A 
ATOM     74  F   UNL A   1      36.398  31.709  32.379  1.00  0.00    -0.203 F 
ATOM     75  F   UNL A   1      35.114  34.919  28.162  1.00  0.00    -0.200 F 
ATOM     76  C   UNL A   1      34.484  33.840  30.165  1.00  0.00     0.200 A 
ATOM     77  F   UNL A   1      33.909  32.751  32.181  1.00  0.00    -0.200 F 
ATOM     78  F   UNL A   1      33.262  34.386  30.094  1.00  0.00    -0.200 F 
ENDBRANCH  44  68
BRANCH  56  79
ATOM     79  C   UNL A   1      42.948  34.841  33.401  1.00  0.00     0.064 A 
ATOM     80  C   UNL A   1      43.343  36.026  32.761  1.00  0.00     0.173 A 
ATOM     81  C   UNL A   1      42.862  34.853  34.803  1.00  0.00     0.173 A 
ATOM     82  F   UNL A   1      43.456  36.067  31.425  1.00  0.00    -0.203 F 
ATOM     83  C   UNL A   1      43.676  37.161  33.497  1.00  0.00     0.198 A 
ATOM     84  C   UNL A   1      43.155  36.002  35.532  1.00  0.00     0.198 A 
ATOM     85  F   UNL A   1      42.481  33.751  35.467  1.00  0.00    -0.203 F 
ATOM     86  F   UNL A   1      44.115  38.260  32.866  1.00  0.00    -0.200 F 
ATOM     87  C   UNL A   1      43.574  37.151  34.879  1.00  0.00     0.200 A 
ATOM     88  F   UNL A   1      43.037  35.995  36.867  1.00  0.00    -0.200 F 
ATOM     89  F   UNL A   1      43.888  38.247  35.584  1.00  0.00    -0.200 F 
ENDBRANCH  56  79
ENDBRANCH  30  31
ENDBRANCH  23  25
ENDBRANCH  22  23
ENDBRANCH  21  22
ENDBRANCH   1  21
TORSDOF 16
ENDMDL
MODEL 2
REMARK VINA RESULT:      -9.4      5.544     10.986
REMARK SMILES C#CC[N@H+](CC(=O)OCCOC(=O)c1ccc(-c2c3nc(c(-c4c(F)c(F)c(F)c(F)c4F)c4ccc([nH]4)c(-c4c(F)c(F)c(F)c(F)c4F)c4nc(c(-c5c(F)c(F)c(F)c(F)c5F)c5ccc2[nH]5)C=C4)C=C3)cc1)[C@H](C)c1cc(C)ccc1C
REMARK SMILES IDX 9 1 8 2 6 3 7 4 5 5 4 6 3 8 2 9 1 10 77 11 78 12 79 13 80 14
REMARK SMILES IDX 85 15 81 16 84 17 86 18 82 19 83 20 10 21 11 22 12 23 13 24
REMARK SMILES IDX 14 25 15 26 76 27 16 28 75 29 17 30 18 31 19 32 69 33 20 34
REMARK SMILES IDX 74 35 68 36 70 37 21 38 73 39 67 40 66 41 22 43 54 44 34 45
REMARK SMILES IDX 53 46 35 47 38 48 52 49 71 50 36 51 37 52 51 54 72 55 39 56
REMARK SMILES IDX 23 57 24 58 32 59 25 60 26 61 30 62 33 63 27 64 28 65 31 66
REMARK SMILES IDX 29 67 55 68 56 69 64 70 57 71 58 72 62 73 65 74 59 75 60 76
REMARK SMILES IDX 63 77 61 78 40 79 41 80 49 81 42 82 43 83 47 84 50 85 44 86
REMARK SMILES IDX 45 87 48 88 46 89
REMARK H PARENT 4 7 70 42 38 53
REMARK Flexibility Score: inf
ROOT
ATOM      1  C   UNL A   1      31.401  31.911  26.873  1.00  0.00     0.274 C 
ENDROOT
BRANCH   1   2
ATOM      2  O   UNL A   1      31.844  30.919  25.933  1.00  0.00    -0.458 OA
BRANCH   2   3
ATOM      3  C   UNL A   1      32.335  29.765  26.441  1.00  0.00     0.361 C 
ATOM      4  O   UNL A   1      33.168  29.717  27.343  1.00  0.00    -0.245 OA
BRANCH   3   5
ATOM      5  C   UNL A   1      31.869  28.509  25.708  1.00  0.00     0.387 C 
BRANCH   5   6
ATOM      6  N   UNL A   1      32.247  28.328  24.258  1.00  0.00    -0.310 N 
ATOM      7  H   UNL A   1      32.404  29.214  23.778  1.00  0.00     0.349 HD
BRANCH   6   8
ATOM      8  C   UNL A   1      33.541  27.607  24.175  1.00  0.00     0.354 C 
BRANCH   8   9
ATOM      9  C   UNL A   1      33.750  26.440  25.045  1.00  0.00    -0.047 C 
ATOM     10  C   UNL A   1      33.998  25.502  25.750  1.00  0.00     0.010 C 
ENDBRANCH   8   9
ENDBRANCH   6   8
BRANCH   6  11
ATOM     11  C   UNL A   1      31.090  27.661  23.547  1.00  0.00     0.213 C 
ATOM     12  C   UNL A   1      31.560  27.043  22.208  1.00  0.00     0.081 C 
BRANCH  11  13
ATOM     13  C   UNL A   1      29.761  28.462  23.460  1.00  0.00     0.012 A 
ATOM     14  C   UNL A   1      29.804  29.876  23.373  1.00  0.00     0.013 A 
ATOM     15  C   UNL A   1      28.470  27.872  23.484  1.00  0.00    -0.042 A 
ATOM     16  C   UNL A   1      28.666  30.644  23.065  1.00  0.00    -0.051 A 
ATOM     17  C   UNL A   1      27.343  28.638  23.126  1.00  0.00     0.004 A 
ATOM     18  C   UNL A   1      28.179  26.448  23.877  1.00  0.00     0.045 C 
ATOM     19  C   UNL A   1      28.776  32.126  22.856  1.00  0.00     0.044 C 
ATOM     20  C   UNL A   1      27.442  30.004  22.890  1.00  0.00     0.004 A 
ENDBRANCH  11  13
ENDBRANCH   6  11
ENDBRANCH   5   6
ENDBRANCH   3   5
ENDBRANCH   2   3
ENDBRANCH   1   2
BRANCH   1  21
ATOM     21  C   UNL A   1      32.354  33.110  26.891  1.00  0.00     0.275 C 
BRANCH  21  22
ATOM     22  O   UNL A   1      32.269  33.832  28.136  1.00  0.00    -0.458 OA
BRANCH  22  23
ATOM     23  C   UNL A   1      33.328  34.628  28.418  1.00  0.00     0.338 C 
ATOM     24  O   UNL A   1      33.372  35.844  28.375  1.00  0.00    -0.246 OA
BRANCH  23  25
ATOM     25  C   UNL A   1      34.452  33.811  28.899  1.00  0.00     0.060 A 
ATOM     26  C   UNL A   1      34.180  32.687  29.682  1.00  0.00     0.016 A 
ATOM     27  C   UNL A   1      35.768  34.208  28.669  1.00  0.00     0.016 A 
ATOM     28  C   UNL A   1      35.218  31.956  30.251  1.00  0.00     0.010 A 
ATOM     29  C   UNL A   1      36.812  33.467  29.229  1.00  0.00     0.010 A 
ATOM     30  C   UNL A   1      36.545  32.345  30.034  1.00  0.00    -0.014 A 
BRANCH  30  31
ATOM     31  C   UNL A   1      37.646  31.602  30.695  1.00  0.00     0.031 A 
ATOM     32  C   UNL A   1      38.006  31.906  32.120  1.00  0.00     0.074 A 
ATOM     33  C   UNL A   1      38.310  30.646  30.017  1.00  0.00     0.049 A 
ATOM     34  N   UNL A   1      38.986  31.435  32.848  1.00  0.00    -0.248 NA
ATOM     35  C   UNL A   1      37.150  32.876  32.819  1.00  0.00     0.031 C 
ATOM     36  C   UNL A   1      38.021  30.233  28.644  1.00  0.00     0.029 A 
ATOM     37  N   UNL A   1      39.365  29.854  30.391  1.00  0.00    -0.354 N 
ATOM     38  C   UNL A   1      38.880  32.067  34.080  1.00  0.00     0.074 A 
ATOM     39  C   UNL A   1      37.758  32.978  33.992  1.00  0.00     0.031 C 
ATOM     40  C   UNL A   1      38.875  29.259  28.291  1.00  0.00     0.029 A 
ATOM     41  C   UNL A   1      39.807  29.024  29.390  1.00  0.00     0.049 A 
ATOM     42  H   UNL A   1      39.767  29.877  31.289  1.00  0.00     0.167 HD
ATOM     43  C   UNL A   1      39.646  31.894  35.185  1.00  0.00     0.037 A 
ATOM     44  C   UNL A   1      40.866  28.192  29.352  1.00  0.00     0.037 A 
ATOM     45  C   UNL A   1      40.757  30.978  35.262  1.00  0.00     0.049 A 
ATOM     46  C   UNL A   1      41.747  28.079  30.567  1.00  0.00     0.074 A 
ATOM     47  C   UNL A   1      41.586  30.716  36.338  1.00  0.00     0.029 A 
ATOM     48  N   UNL A   1      41.197  30.179  34.216  1.00  0.00    -0.354 N 
ATOM     49  N   UNL A   1      41.637  28.671  31.731  1.00  0.00    -0.248 NA
ATOM     50  C   UNL A   1      42.902  27.178  30.460  1.00  0.00     0.031 C 
ATOM     51  C   UNL A   1      42.570  29.813  35.922  1.00  0.00     0.029 A 
ATOM     52  C   UNL A   1      42.307  29.449  34.611  1.00  0.00     0.049 A 
ATOM     53  H   UNL A   1      40.783  30.137  33.323  1.00  0.00     0.167 HD
ATOM     54  C   UNL A   1      42.684  28.191  32.506  1.00  0.00     0.074 A 
ATOM     55  C   UNL A   1      43.409  27.244  31.683  1.00  0.00     0.031 C 
ATOM     56  C   UNL A   1      43.016  28.504  33.784  1.00  0.00     0.037 A 
BRANCH  43  57
ATOM     57  C   UNL A   1      39.335  32.741  36.389  1.00  0.00     0.064 A 
ATOM     58  C   UNL A   1      38.427  32.327  37.376  1.00  0.00     0.173 A 
ATOM     59  C   UNL A   1      39.979  33.975  36.571  1.00  0.00     0.173 A 
ATOM     60  F   UNL A   1      37.775  31.161  37.249  1.00  0.00    -0.203 F 
ATOM     61  C   UNL A   1      38.149  33.132  38.479  1.00  0.00     0.198 A 
ATOM     62  C   UNL A   1      39.728  34.759  37.693  1.00  0.00     0.198 A 
ATOM     63  F   UNL A   1      40.863  34.417  35.664  1.00  0.00    -0.203 F 
ATOM     64  F   UNL A   1      37.236  32.742  39.378  1.00  0.00    -0.200 F 
ATOM     65  C   UNL A   1      38.806  34.343  38.641  1.00  0.00     0.200 A 
ATOM     66  F   UNL A   1      40.378  35.920  37.857  1.00  0.00    -0.200 F 
ATOM     67  F   UNL A   1      38.545  35.112  39.707  1.00  0.00    -0.200 F 
ENDBRANCH  43  57
BRANCH  44  68
ATOM     68  C   UNL A   1      41.162  27.420  28.116  1.00  0.00     0.064 A 
ATOM     69  C   UNL A   1      41.953  27.965  27.095  1.00  0.00     0.173 A 
ATOM     70  C   UNL A   1      40.647  26.128  27.921  1.00  0.00     0.173 A 
ATOM     71  F   UNL A   1      42.449  29.205  27.222  1.00  0.00    -0.203 F 
ATOM     72  C   UNL A   1      42.198  27.259  25.919  1.00  0.00     0.198 A 
ATOM     73  C   UNL A   1      40.924  25.409  26.761  1.00  0.00     0.198 A 
ATOM     74  F   UNL A   1      39.885  25.559  28.866  1.00  0.00    -0.203 F 
ATOM     75  F   UNL A   1      42.909  27.827  24.936  1.00  0.00    -0.200 F 
ATOM     76  C   UNL A   1      41.689  25.980  25.756  1.00  0.00     0.200 A 
ATOM     77  F   UNL A   1      40.445  24.166  26.615  1.00  0.00    -0.200 F 
ATOM     78  F   UNL A   1      41.929  25.300  24.626  1.00  0.00    -0.200 F 
ENDBRANCH  44  68
BRANCH  56  79
ATOM     79  C   UNL A   1      44.185  27.778  34.389  1.00  0.00     0.064 A 
ATOM     80  C   UNL A   1      45.485  28.306  34.362  1.00  0.00     0.173 A 
ATOM     81  C   UNL A   1      43.995  26.543  35.031  1.00  0.00     0.173 A 
ATOM     82  F   UNL A   1      45.727  29.475  33.749  1.00  0.00    -0.203 F 
ATOM     83  C   UNL A   1      46.554  27.607  34.918  1.00  0.00     0.198 A 
ATOM     84  C   UNL A   1      45.058  25.868  35.622  1.00  0.00     0.198 A 
ATOM     85  F   UNL A   1      42.772  25.995  35.094  1.00  0.00    -0.203 F 
ATOM     86  F   UNL A   1      47.797  28.101  34.821  1.00  0.00    -0.200 F 
ATOM     87  C   UNL A   1      46.339  26.394  35.554  1.00  0.00     0.200 A 
ATOM     88  F   UNL A   1      44.845  24.706  36.253  1.00  0.00    -0.200 F 
ATOM     89  F   UNL A   1      47.368  25.728  36.096  1.00  0.00    -0.200 F 
ENDBRANCH  56  79
ENDBRANCH  30  31
ENDBRANCH  23  25
ENDBRANCH  22  23
ENDBRANCH  21  22
ENDBRANCH   1  21
TORSDOF 16
ENDMDL
MODEL 3
REMARK VINA RESULT:      -9.4      3.878      9.648
REMARK SMILES C#CC[N@H+](CC(=O)OCCOC(=O)c1ccc(-c2c3nc(c(-c4c(F)c(F)c(F)c(F)c4F)c4ccc([nH]4)c(-c4c(F)c(F)c(F)c(F)c4F)c4nc(c(-c5c(F)c(F)c(F)c(F)c5F)c5ccc2[nH]5)C=C4)C=C3)cc1)[C@H](C)c1cc(C)ccc1C
REMARK SMILES IDX 9 1 8 2 6 3 7 4 5 5 4 6 3 8 2 9 1 10 77 11 78 12 79 13 80 14
REMARK SMILES IDX 85 15 81 16 84 17 86 18 82 19 83 20 10 21 11 22 12 23 13 24
REMARK SMILES IDX 14 25 15 26 76 27 16 28 75 29 17 30 18 31 19 32 69 33 20 34
REMARK SMILES IDX 74 35 68 36 70 37 21 38 73 39 67 40 66 41 22 43 54 44 34 45
REMARK SMILES IDX 53 46 35 47 38 48 52 49 71 50 36 51 37 52 51 54 72 55 39 56
REMARK SMILES IDX 23 57 24 58 32 59 25 60 26 61 30 62 33 63 27 64 28 65 31 66
REMARK SMILES IDX 29 67 55 68 56 69 64 70 57 71 58 72 62 73 65 74 59 75 60 76
REMARK SMILES IDX 63 77 61 78 40 79 41 80 49 81 42 82 43 83 47 84 50 85 44 86
REMARK SMILES IDX 45 87 48 88 46 89
REMARK H PARENT 4 7 70 42 38 53
REMARK Flexibility Score: inf
ROOT
ATOM      1  C   UNL A   1      35.151  21.147  25.020  1.00  0.00     0.274 C 
ENDROOT
BRANCH   1   2
ATOM      2  O   UNL A   1      34.702  21.852  23.851  1.00  0.00    -0.458 OA
BRANCH   2   3
ATOM      3  C   UNL A   1      35.292  23.040  23.584  1.00  0.00     0.361 C 
ATOM      4  O   UNL A   1      36.193  23.184  22.761  1.00  0.00    -0.245 OA
BRANCH   3   5
ATOM      5  C   UNL A   1      34.840  24.181  24.491  1.00  0.00     0.387 C 
BRANCH   5   6
ATOM      6  N   UNL A   1      33.369  24.331  24.797  1.00  0.00    -0.310 N 
ATOM      7  H   UNL A   1      32.786  23.699  24.249  1.00  0.00     0.349 HD
BRANCH   6   8
ATOM      8  C   UNL A   1      33.122  23.959  26.211  1.00  0.00     0.354 C 
BRANCH   8   9
ATOM      9  C   UNL A   1      31.841  23.322  26.555  1.00  0.00    -0.047 C 
ATOM     10  C   UNL A   1      30.813  22.818  26.911  1.00  0.00     0.010 C 
ENDBRANCH   8   9
ENDBRANCH   6   8
BRANCH   6  11
ATOM     11  C   UNL A   1      32.947  25.733  24.415  1.00  0.00     0.213 C 
ATOM     12  C   UNL A   1      33.764  26.232  23.199  1.00  0.00     0.081 C 
BRANCH  11  13
ATOM     13  C   UNL A   1      32.804  26.765  25.568  1.00  0.00     0.012 A 
ATOM     14  C   UNL A   1      33.963  27.404  26.078  1.00  0.00     0.013 A 
ATOM     15  C   UNL A   1      31.572  27.112  26.182  1.00  0.00    -0.042 A 
ATOM     16  C   UNL A   1      33.889  28.504  26.953  1.00  0.00    -0.051 A 
ATOM     17  C   UNL A   1      31.500  28.245  27.018  1.00  0.00     0.004 A 
ATOM     18  C   UNL A   1      30.284  26.349  26.022  1.00  0.00     0.045 C 
ATOM     19  C   UNL A   1      35.132  29.233  27.371  1.00  0.00     0.044 C 
ATOM     20  C   UNL A   1      32.642  28.951  27.377  1.00  0.00     0.004 A 
ENDBRANCH  11  13
ENDBRANCH   6  11
ENDBRANCH   5   6
ENDBRANCH   3   5
ENDBRANCH   2   3
ENDBRANCH   1   2
BRANCH   1  21
ATOM     21  C   UNL A   1      36.664  20.912  24.968  1.00  0.00     0.275 C 
BRANCH  21  22
ATOM     22  O   UNL A   1      37.339  21.591  26.046  1.00  0.00    -0.458 OA
BRANCH  22  23
ATOM     23  C   UNL A   1      38.682  21.418  26.089  1.00  0.00     0.338 C 
ATOM     24  O   UNL A   1      39.317  20.454  25.702  1.00  0.00    -0.246 OA
BRANCH  23  25
ATOM     25  C   UNL A   1      39.325  22.637  26.601  1.00  0.00     0.060 A 
ATOM     26  C   UNL A   1      38.890  23.878  26.128  1.00  0.00     0.016 A 
ATOM     27  C   UNL A   1      40.420  22.555  27.460  1.00  0.00     0.016 A 
ATOM     28  C   UNL A   1      39.550  25.044  26.500  1.00  0.00     0.010 A 
ATOM     29  C   UNL A   1      41.075  23.728  27.846  1.00  0.00     0.010 A 
ATOM     30  C   UNL A   1      40.654  24.979  27.358  1.00  0.00    -0.014 A 
BRANCH  30  31
ATOM     31  C   UNL A   1      41.393  26.218  27.700  1.00  0.00     0.031 A 
ATOM     32  C   UNL A   1      40.711  27.307  28.478  1.00  0.00     0.074 A 
ATOM     33  C   UNL A   1      42.678  26.357  27.324  1.00  0.00     0.049 A 
ATOM     34  N   UNL A   1      41.150  28.498  28.801  1.00  0.00    -0.248 NA
ATOM     35  C   UNL A   1      39.349  27.019  28.952  1.00  0.00     0.031 C 
ATOM     36  C   UNL A   1      43.458  25.351  26.604  1.00  0.00     0.029 A 
ATOM     37  N   UNL A   1      43.552  27.402  27.492  1.00  0.00    -0.354 N 
ATOM     38  C   UNL A   1      40.112  29.108  29.493  1.00  0.00     0.074 A 
ATOM     39  C   UNL A   1      39.011  28.169  29.517  1.00  0.00     0.031 C 
ATOM     40  C   UNL A   1      44.698  25.824  26.396  1.00  0.00     0.029 A 
ATOM     41  C   UNL A   1      44.778  27.187  26.913  1.00  0.00     0.049 A 
ATOM     42  H   UNL A   1      43.323  28.226  27.980  1.00  0.00     0.167 HD
ATOM     43  C   UNL A   1      40.088  30.338  30.062  1.00  0.00     0.037 A 
ATOM     44  C   UNL A   1      45.837  28.009  26.785  1.00  0.00     0.037 A 
ATOM     45  C   UNL A   1      41.195  31.261  30.036  1.00  0.00     0.049 A 
ATOM     46  C   UNL A   1      45.754  29.399  27.357  1.00  0.00     0.074 A 
ATOM     47  C   UNL A   1      41.278  32.524  30.596  1.00  0.00     0.029 A 
ATOM     48  N   UNL A   1      42.410  31.022  29.409  1.00  0.00    -0.354 N 
ATOM     49  N   UNL A   1      44.775  29.968  28.018  1.00  0.00    -0.248 NA
ATOM     50  C   UNL A   1      46.926  30.262  27.165  1.00  0.00     0.031 C 
ATOM     51  C   UNL A   1      42.515  33.076  30.248  1.00  0.00     0.029 A 
ATOM     52  C   UNL A   1      43.237  32.128  29.540  1.00  0.00     0.049 A 
ATOM     53  H   UNL A   1      42.650  30.190  28.940  1.00  0.00     0.167 HD
ATOM     54  C   UNL A   1      45.224  31.239  28.350  1.00  0.00     0.074 A 
ATOM     55  C   UNL A   1      46.572  31.350  27.831  1.00  0.00     0.031 C 
ATOM     56  C   UNL A   1      44.580  32.224  29.024  1.00  0.00     0.037 A 
BRANCH  43  57
ATOM     57  C   UNL A   1      38.811  30.773  30.727  1.00  0.00     0.064 A 
ATOM     58  C   UNL A   1      38.640  30.718  32.119  1.00  0.00     0.173 A 
ATOM     59  C   UNL A   1      37.751  31.281  29.959  1.00  0.00     0.173 A 
ATOM     60  F   UNL A   1      39.616  30.233  32.902  1.00  0.00    -0.203 F 
ATOM     61  C   UNL A   1      37.445  31.120  32.712  1.00  0.00     0.198 A 
ATOM     62  C   UNL A   1      36.573  31.717  30.558  1.00  0.00     0.198 A 
ATOM     63  F   UNL A   1      37.862  31.365  28.625  1.00  0.00    -0.203 F 
ATOM     64  F   UNL A   1      37.284  31.004  34.037  1.00  0.00    -0.200 F 
ATOM     65  C   UNL A   1      36.416  31.627  31.933  1.00  0.00     0.200 A 
ATOM     66  F   UNL A   1      35.587  32.224  29.804  1.00  0.00    -0.200 F 
ATOM     67  F   UNL A   1      35.270  32.022  32.505  1.00  0.00    -0.200 F 
ENDBRANCH  43  57
BRANCH  44  68
ATOM     68  C   UNL A   1      47.056  27.548  26.068  1.00  0.00     0.064 A 
ATOM     69  C   UNL A   1      48.147  27.014  26.768  1.00  0.00     0.173 A 
ATOM     70  C   UNL A   1      47.163  27.645  24.672  1.00  0.00     0.173 A 
ATOM     71  F   UNL A   1      48.105  26.922  28.105  1.00  0.00    -0.203 F 
ATOM     72  C   UNL A   1      49.305  26.619  26.102  1.00  0.00     0.198 A 
ATOM     73  C   UNL A   1      48.307  27.214  24.004  1.00  0.00     0.198 A 
ATOM     74  F   UNL A   1      46.148  28.147  23.953  1.00  0.00    -0.203 F 
ATOM     75  F   UNL A   1      50.355  26.166  26.802  1.00  0.00    -0.200 F 
ATOM     76  C   UNL A   1      49.382  26.712  24.721  1.00  0.00     0.200 A 
ATOM     77  F   UNL A   1      48.369  27.290  22.668  1.00  0.00    -0.200 F 
ATOM     78  F   UNL A   1      50.495  26.327  24.081  1.00  0.00    -0.200 F 
ENDBRANCH  44  68
BRANCH  56  79
ATOM     79  C   UNL A   1      45.344  33.492  29.285  1.00  0.00     0.064 A 
ATOM     80  C   UNL A   1      45.294  34.586  28.408  1.00  0.00     0.173 A 
ATOM     81  C   UNL A   1      46.120  33.624  30.449  1.00  0.00     0.173 A 
ATOM     82  F   UNL A   1      44.581  34.511  27.273  1.00  0.00    -0.203 F 
ATOM     83  C   UNL A   1      46.022  35.745  28.666  1.00  0.00     0.198 A 
ATOM     84  C   UNL A   1      46.812  34.799  30.724  1.00  0.00     0.198 A 
ATOM     85  F   UNL A   1      46.196  32.613  31.328  1.00  0.00    -0.203 F 
ATOM     86  F   UNL A   1      46.011  36.751  27.779  1.00  0.00    -0.200 F 
ATOM     87  C   UNL A   1      46.772  35.854  29.826  1.00  0.00     0.200 A 
ATOM     88  F   UNL A   1      47.520  34.909  31.856  1.00  0.00    -0.200 F 
ATOM     89  F   UNL A   1      47.466  36.974  30.075  1.00  0.00    -0.200 F 
ENDBRANCH  56  79
ENDBRANCH  30  31
ENDBRANCH  23  25
ENDBRANCH  22  23
ENDBRANCH  21  22
ENDBRANCH   1  21
TORSDOF 16
ENDMDL
