MODEL 1
REMARK VINA RESULT:     -11.8      0.000      0.000
REMARK SMILES O=C1C[C@@H]([N@@H+]2CCO[C@@H](CC(=O)OCCOC(=O)c3ccc(-c4c5nc(c(-c6c(F)c(F)c(F)c(F)c6F)c6ccc([nH]6)c(-c6c(F)c(F)c(F)c(F)c6F)c6nc(c(-c7c(F)c(F)c(F)c(F)c7F)c7ccc4[nH]7)C=C6)C=C5)cc3)C2)C(=O)N1
REMARK SMILES IDX 14 1 13 2 11 3 12 4 10 5 9 6 5 7 6 8 82 9 7 11 8 12 4 13
REMARK SMILES IDX 1 14 2 15 3 16 85 17 83 18 84 20 15 21 16 22 17 23 18 24
REMARK SMILES IDX 19 25 20 26 81 27 21 28 80 29 22 30 23 31 24 32 74 33 25 34
REMARK SMILES IDX 79 35 73 36 75 37 26 38 78 39 72 40 71 41 27 43 59 44 39 45
REMARK SMILES IDX 58 46 40 47 43 48 57 49 76 50 41 51 42 52 56 54 77 55 44 56
REMARK SMILES IDX 28 57 29 58 37 59 30 60 31 61 35 62 38 63 32 64 33 65 36 66
REMARK SMILES IDX 34 67 60 68 61 69 69 70 62 71 63 72 67 73 70 74 64 75 65 76
REMARK SMILES IDX 68 77 66 78 45 79 46 80 54 81 47 82 48 83 52 84 55 85 49 86
REMARK SMILES IDX 50 87 53 88 51 89
REMARK H PARENT 5 10 85 19 75 42 43 53
REMARK Flexibility Score: inf
ROOT
ATOM      1  C   UNL A   1      31.381  29.245  24.774  1.00  0.00     0.274 C 
ENDROOT
BRANCH   1   2
ATOM      2  O   UNL A   1      31.978  28.017  25.234  1.00  0.00    -0.462 OA
BRANCH   2   3
ATOM      3  C   UNL A   1      31.187  27.180  25.950  1.00  0.00     0.308 C 
ATOM      4  O   UNL A   1      31.017  27.243  27.162  1.00  0.00    -0.252 OA
BRANCH   3   5
ATOM      5  C   UNL A   1      30.567  26.115  25.086  1.00  0.00     0.160 C 
BRANCH   5   6
ATOM      6  C   UNL A   1      31.022  24.688  25.395  1.00  0.00     0.184 C 
ATOM      7  N   UNL A   1      33.018  23.296  26.160  1.00  0.00    -0.320 N 
ATOM      8  C   UNL A   1      32.160  22.836  27.257  1.00  0.00     0.291 C 
ATOM      9  C   UNL A   1      32.549  24.583  25.625  1.00  0.00     0.295 C 
ATOM     10  H   UNL A   1      33.921  23.445  26.611  1.00  0.00     0.348 HD
ATOM     11  C   UNL A   1      30.653  22.967  26.997  1.00  0.00     0.222 C 
ATOM     12  O   UNL A   1      30.306  24.291  26.585  1.00  0.00    -0.366 OA
BRANCH   7  13
ATOM     13  C   UNL A   1      33.447  22.320  25.142  1.00  0.00     0.284 C 
ATOM     14  O   UNL A   1      32.093  19.017  25.036  1.00  0.00    -0.274 OA
ATOM     15  C   UNL A   1      32.771  20.029  25.123  1.00  0.00     0.233 C 
ATOM     16  C   UNL A   1      32.421  21.362  24.538  1.00  0.00     0.176 C 
ATOM     17  N   UNL A   1      33.982  20.110  25.721  1.00  0.00    -0.291 N 
ATOM     18  C   UNL A   1      34.492  21.369  25.729  1.00  0.00     0.285 C 
ATOM     19  H   UNL A   1      34.448  19.334  26.111  1.00  0.00     0.173 HD
ATOM     20  O   UNL A   1      35.590  21.663  26.174  1.00  0.00    -0.268 OA
ENDBRANCH   7  13
ENDBRANCH   5   6
ENDBRANCH   3   5
ENDBRANCH   2   3
ENDBRANCH   1   2
BRANCH   1  21
ATOM     21  C   UNL A   1      31.651  30.411  25.731  1.00  0.00     0.275 C 
BRANCH  21  22
ATOM     22  O   UNL A   1      33.037  30.476  26.116  1.00  0.00    -0.458 OA
BRANCH  22  23
ATOM     23  C   UNL A   1      33.353  31.473  26.974  1.00  0.00     0.338 C 
ATOM     24  O   UNL A   1      32.675  32.450  27.243  1.00  0.00    -0.246 OA
BRANCH  23  25
ATOM     25  C   UNL A   1      34.611  31.157  27.670  1.00  0.00     0.060 A 
ATOM     26  C   UNL A   1      34.812  29.845  28.112  1.00  0.00     0.016 A 
ATOM     27  C   UNL A   1      35.557  32.147  27.940  1.00  0.00     0.016 A 
ATOM     28  C   UNL A   1      35.959  29.517  28.828  1.00  0.00     0.010 A 
ATOM     29  C   UNL A   1      36.711  31.815  28.658  1.00  0.00     0.010 A 
ATOM     30  C   UNL A   1      36.916  30.501  29.112  1.00  0.00    -0.014 A 
BRANCH  30  31
ATOM     31  C   UNL A   1      38.117  30.153  29.908  1.00  0.00     0.031 A 
ATOM     32  C   UNL A   1      39.144  29.214  29.344  1.00  0.00     0.074 A 
ATOM     33  C   UNL A   1      38.289  30.689  31.130  1.00  0.00     0.049 A 
ATOM     34  N   UNL A   1      40.228  28.739  29.904  1.00  0.00    -0.248 NA
ATOM     35  C   UNL A   1      38.922  28.747  27.967  1.00  0.00     0.031 C 
ATOM     36  C   UNL A   1      37.377  31.637  31.769  1.00  0.00     0.029 A 
ATOM     37  N   UNL A   1      39.287  30.507  32.054  1.00  0.00    -0.354 N 
ATOM     38  C   UNL A   1      40.810  27.908  28.956  1.00  0.00     0.074 A 
ATOM     39  C   UNL A   1      39.949  27.928  27.791  1.00  0.00     0.031 C 
ATOM     40  C   UNL A   1      37.856  31.953  32.983  1.00  0.00     0.029 A 
ATOM     41  C   UNL A   1      39.085  31.200  33.223  1.00  0.00     0.049 A 
ATOM     42  H   UNL A   1      40.072  29.936  31.894  1.00  0.00     0.167 HD
ATOM     43  C   UNL A   1      41.962  27.201  29.049  1.00  0.00     0.037 A 
ATOM     44  C   UNL A   1      39.798  31.206  34.364  1.00  0.00     0.037 A 
ATOM     45  C   UNL A   1      42.821  27.195  30.205  1.00  0.00     0.049 A 
ATOM     46  C   UNL A   1      41.045  30.366  34.459  1.00  0.00     0.074 A 
ATOM     47  C   UNL A   1      44.019  26.525  30.385  1.00  0.00     0.029 A 
ATOM     48  N   UNL A   1      42.572  27.890  31.379  1.00  0.00    -0.354 N 
ATOM     49  N   UNL A   1      41.595  29.596  33.553  1.00  0.00    -0.248 NA
ATOM     50  C   UNL A   1      41.768  30.398  35.738  1.00  0.00     0.031 C 
ATOM     51  C   UNL A   1      44.474  26.781  31.683  1.00  0.00     0.029 A 
ATOM     52  C   UNL A   1      43.584  27.648  32.295  1.00  0.00     0.049 A 
ATOM     53  H   UNL A   1      41.793  28.471  31.537  1.00  0.00     0.167 HD
ATOM     54  C   UNL A   1      42.739  29.073  34.141  1.00  0.00     0.074 A 
ATOM     55  C   UNL A   1      42.811  29.623  35.478  1.00  0.00     0.031 C 
ATOM     56  C   UNL A   1      43.647  28.212  33.619  1.00  0.00     0.037 A 
BRANCH  43  57
ATOM     57  C   UNL A   1      42.352  26.352  27.877  1.00  0.00     0.064 A 
ATOM     58  C   UNL A   1      41.813  25.072  27.682  1.00  0.00     0.173 A 
ATOM     59  C   UNL A   1      43.239  26.846  26.908  1.00  0.00     0.173 A 
ATOM     60  F   UNL A   1      40.969  24.550  28.585  1.00  0.00    -0.203 F 
ATOM     61  C   UNL A   1      42.163  24.311  26.570  1.00  0.00     0.198 A 
ATOM     62  C   UNL A   1      43.567  26.093  25.785  1.00  0.00     0.198 A 
ATOM     63  F   UNL A   1      43.778  28.067  27.046  1.00  0.00    -0.203 F 
ATOM     64  F   UNL A   1      41.663  23.076  26.420  1.00  0.00    -0.200 F 
ATOM     65  C   UNL A   1      43.032  24.824  25.618  1.00  0.00     0.200 A 
ATOM     66  F   UNL A   1      44.398  26.596  24.861  1.00  0.00    -0.200 F 
ATOM     67  F   UNL A   1      43.359  24.094  24.543  1.00  0.00    -0.200 F 
ENDBRANCH  43  57
BRANCH  44  68
ATOM     68  C   UNL A   1      39.343  32.022  35.518  1.00  0.00     0.064 A 
ATOM     69  C   UNL A   1      38.480  31.488  36.485  1.00  0.00     0.173 A 
ATOM     70  C   UNL A   1      39.747  33.356  35.669  1.00  0.00     0.173 A 
ATOM     71  F   UNL A   1      38.045  30.225  36.370  1.00  0.00    -0.203 F 
ATOM     72  C   UNL A   1      38.025  32.264  37.549  1.00  0.00     0.198 A 
ATOM     73  C   UNL A   1      39.313  34.122  36.749  1.00  0.00     0.198 A 
ATOM     74  F   UNL A   1      40.569  33.915  34.769  1.00  0.00    -0.203 F 
ATOM     75  F   UNL A   1      37.161  31.744  38.433  1.00  0.00    -0.200 F 
ATOM     76  C   UNL A   1      38.445  33.578  37.684  1.00  0.00     0.200 A 
ATOM     77  F   UNL A   1      39.731  35.389  36.879  1.00  0.00    -0.200 F 
ATOM     78  F   UNL A   1      38.007  34.324  38.707  1.00  0.00    -0.200 F 
ENDBRANCH  44  68
BRANCH  56  79
ATOM     79  C   UNL A   1      44.816  27.839  34.482  1.00  0.00     0.064 A 
ATOM     80  C   UNL A   1      44.782  26.715  35.322  1.00  0.00     0.173 A 
ATOM     81  C   UNL A   1      45.997  28.594  34.442  1.00  0.00     0.173 A 
ATOM     82  F   UNL A   1      43.670  25.971  35.408  1.00  0.00    -0.203 F 
ATOM     83  C   UNL A   1      45.881  26.377  36.106  1.00  0.00     0.198 A 
ATOM     84  C   UNL A   1      47.104  28.236  35.207  1.00  0.00     0.198 A 
ATOM     85  F   UNL A   1      46.083  29.675  33.650  1.00  0.00    -0.203 F 
ATOM     86  F   UNL A   1      45.811  25.325  36.935  1.00  0.00    -0.200 F 
ATOM     87  C   UNL A   1      47.042  27.131  36.043  1.00  0.00     0.200 A 
ATOM     88  F   UNL A   1      48.229  28.960  35.135  1.00  0.00    -0.200 F 
ATOM     89  F   UNL A   1      48.101  26.800  36.794  1.00  0.00    -0.200 F 
ENDBRANCH  56  79
ENDBRANCH  30  31
ENDBRANCH  23  25
ENDBRANCH  22  23
ENDBRANCH  21  22
ENDBRANCH   1  21
TORSDOF 13
ENDMDL
MODEL 2
REMARK VINA RESULT:     -11.8      4.544      9.976
REMARK SMILES O=C1C[C@@H]([N@@H+]2CCO[C@@H](CC(=O)OCCOC(=O)c3ccc(-c4c5nc(c(-c6c(F)c(F)c(F)c(F)c6F)c6ccc([nH]6)c(-c6c(F)c(F)c(F)c(F)c6F)c6nc(c(-c7c(F)c(F)c(F)c(F)c7F)c7ccc4[nH]7)C=C6)C=C5)cc3)C2)C(=O)N1
REMARK SMILES IDX 14 1 13 2 11 3 12 4 10 5 9 6 5 7 6 8 82 9 7 11 8 12 4 13
REMARK SMILES IDX 1 14 2 15 3 16 85 17 83 18 84 20 15 21 16 22 17 23 18 24
REMARK SMILES IDX 19 25 20 26 81 27 21 28 80 29 22 30 23 31 24 32 74 33 25 34
REMARK SMILES IDX 79 35 73 36 75 37 26 38 78 39 72 40 71 41 27 43 59 44 39 45
REMARK SMILES IDX 58 46 40 47 43 48 57 49 76 50 41 51 42 52 56 54 77 55 44 56
REMARK SMILES IDX 28 57 29 58 37 59 30 60 31 61 35 62 38 63 32 64 33 65 36 66
REMARK SMILES IDX 34 67 60 68 61 69 69 70 62 71 63 72 67 73 70 74 64 75 65 76
REMARK SMILES IDX 68 77 66 78 45 79 46 80 54 81 47 82 48 83 52 84 55 85 49 86
REMARK SMILES IDX 50 87 53 88 51 89
REMARK H PARENT 5 10 85 19 75 42 43 53
REMARK Flexibility Score: inf
ROOT
ATOM      1  C   UNL A   1      33.628  34.106  28.211  1.00  0.00     0.274 C 
ENDROOT
BRANCH   1   2
ATOM      2  O   UNL A   1      32.748  34.598  29.240  1.00  0.00    -0.462 OA
BRANCH   2   3
ATOM      3  C   UNL A   1      32.905  35.892  29.616  1.00  0.00     0.308 C 
ATOM      4  O   UNL A   1      32.992  36.839  28.844  1.00  0.00    -0.252 OA
BRANCH   3   5
ATOM      5  C   UNL A   1      33.011  36.035  31.110  1.00  0.00     0.160 C 
BRANCH   5   6
ATOM      6  C   UNL A   1      33.963  35.047  31.787  1.00  0.00     0.184 C 
ATOM      7  N   UNL A   1      35.867  34.868  33.474  1.00  0.00    -0.320 N 
ATOM      8  C   UNL A   1      35.009  33.928  34.204  1.00  0.00     0.291 C 
ATOM      9  C   UNL A   1      35.070  35.750  32.608  1.00  0.00     0.295 C 
ATOM     10  H   UNL A   1      36.284  35.433  34.214  1.00  0.00     0.348 HD
ATOM     11  C   UNL A   1      33.916  33.260  33.358  1.00  0.00     0.222 C 
ATOM     12  O   UNL A   1      33.140  34.228  32.647  1.00  0.00    -0.366 OA
BRANCH   7  13
ATOM     13  C   UNL A   1      37.111  34.362  32.868  1.00  0.00     0.284 C 
ATOM     14  O   UNL A   1      38.120  30.957  33.241  1.00  0.00    -0.274 OA
ATOM     15  C   UNL A   1      37.984  32.170  33.244  1.00  0.00     0.233 C 
ATOM     16  C   UNL A   1      37.144  32.951  32.281  1.00  0.00     0.176 C 
ATOM     17  N   UNL A   1      38.607  33.026  34.086  1.00  0.00    -0.291 N 
ATOM     18  C   UNL A   1      38.229  34.318  33.912  1.00  0.00     0.285 C 
ATOM     19  H   UNL A   1      39.269  32.741  34.758  1.00  0.00     0.173 HD
ATOM     20  O   UNL A   1      38.698  35.262  34.530  1.00  0.00    -0.268 OA
ENDBRANCH   7  13
ENDBRANCH   5   6
ENDBRANCH   3   5
ENDBRANCH   2   3
ENDBRANCH   1   2
BRANCH   1  21
ATOM     21  C   UNL A   1      33.496  32.592  28.016  1.00  0.00     0.275 C 
BRANCH  21  22
ATOM     22  O   UNL A   1      34.652  31.888  28.507  1.00  0.00    -0.458 OA
BRANCH  22  23
ATOM     23  C   UNL A   1      34.758  30.600  28.106  1.00  0.00     0.338 C 
ATOM     24  O   UNL A   1      33.912  29.943  27.522  1.00  0.00    -0.246 OA
BRANCH  23  25
ATOM     25  C   UNL A   1      36.122  30.106  28.356  1.00  0.00     0.060 A 
ATOM     26  C   UNL A   1      36.419  29.596  29.624  1.00  0.00     0.016 A 
ATOM     27  C   UNL A   1      37.116  30.198  27.380  1.00  0.00     0.016 A 
ATOM     28  C   UNL A   1      37.712  29.176  29.923  1.00  0.00     0.010 A 
ATOM     29  C   UNL A   1      38.414  29.774  27.681  1.00  0.00     0.010 A 
ATOM     30  C   UNL A   1      38.722  29.267  28.955  1.00  0.00    -0.014 A 
BRANCH  30  31
ATOM     31  C   UNL A   1      40.105  28.853  29.292  1.00  0.00     0.031 A 
ATOM     32  C   UNL A   1      40.975  29.751  30.124  1.00  0.00     0.074 A 
ATOM     33  C   UNL A   1      40.574  27.669  28.858  1.00  0.00     0.049 A 
ATOM     34  N   UNL A   1      42.227  29.599  30.473  1.00  0.00    -0.248 NA
ATOM     35  C   UNL A   1      40.352  30.984  30.630  1.00  0.00     0.031 C 
ATOM     36  C   UNL A   1      39.813  26.699  28.072  1.00  0.00     0.029 A 
ATOM     37  N   UNL A   1      41.805  27.083  29.015  1.00  0.00    -0.354 N 
ATOM     38  C   UNL A   1      42.547  30.720  31.227  1.00  0.00     0.074 A 
ATOM     39  C   UNL A   1      41.364  31.553  31.269  1.00  0.00     0.031 C 
ATOM     40  C   UNL A   1      40.595  25.639  27.811  1.00  0.00     0.029 A 
ATOM     41  C   UNL A   1      41.921  25.873  28.377  1.00  0.00     0.049 A 
ATOM     42  H   UNL A   1      42.534  27.492  29.534  1.00  0.00     0.167 HD
ATOM     43  C   UNL A   1      43.721  31.019  31.834  1.00  0.00     0.037 A 
ATOM     44  C   UNL A   1      42.984  25.058  28.245  1.00  0.00     0.037 A 
ATOM     45  C   UNL A   1      44.891  30.180  31.801  1.00  0.00     0.049 A 
ATOM     46  C   UNL A   1      44.292  25.443  28.884  1.00  0.00     0.074 A 
ATOM     47  C   UNL A   1      46.120  30.390  32.403  1.00  0.00     0.029 A 
ATOM     48  N   UNL A   1      44.979  28.972  31.126  1.00  0.00    -0.354 N 
ATOM     49  N   UNL A   1      44.581  26.497  29.607  1.00  0.00    -0.248 NA
ATOM     50  C   UNL A   1      45.422  24.523  28.686  1.00  0.00     0.031 C 
ATOM     51  C   UNL A   1      46.965  29.329  32.057  1.00  0.00     0.029 A 
ATOM     52  C   UNL A   1      46.248  28.436  31.279  1.00  0.00     0.049 A 
ATOM     53  H   UNL A   1      44.248  28.556  30.614  1.00  0.00     0.167 HD
ATOM     54  C   UNL A   1      45.914  26.355  29.971  1.00  0.00     0.074 A 
ATOM     55  C   UNL A   1      46.373  25.107  29.400  1.00  0.00     0.031 C 
ATOM     56  C   UNL A   1      46.687  27.187  30.712  1.00  0.00     0.037 A 
BRANCH  43  57
ATOM     57  C   UNL A   1      43.809  32.322  32.571  1.00  0.00     0.064 A 
ATOM     58  C   UNL A   1      44.182  33.509  31.925  1.00  0.00     0.173 A 
ATOM     59  C   UNL A   1      43.468  32.392  33.930  1.00  0.00     0.173 A 
ATOM     60  F   UNL A   1      44.529  33.493  30.629  1.00  0.00    -0.203 F 
ATOM     61  C   UNL A   1      44.227  34.717  32.618  1.00  0.00     0.198 A 
ATOM     62  C   UNL A   1      43.490  33.605  34.614  1.00  0.00     0.198 A 
ATOM     63  F   UNL A   1      43.100  31.285  34.592  1.00  0.00    -0.203 F 
ATOM     64  F   UNL A   1      44.620  35.835  31.990  1.00  0.00    -0.200 F 
ATOM     65  C   UNL A   1      43.873  34.765  33.958  1.00  0.00     0.200 A 
ATOM     66  F   UNL A   1      43.136  33.650  35.906  1.00  0.00    -0.200 F 
ATOM     67  F   UNL A   1      43.908  35.930  34.621  1.00  0.00    -0.200 F 
ENDBRANCH  43  57
BRANCH  44  68
ATOM     68  C   UNL A   1      42.863  23.803  27.461  1.00  0.00     0.064 A 
ATOM     69  C   UNL A   1      42.435  22.612  28.064  1.00  0.00     0.173 A 
ATOM     70  C   UNL A   1      43.191  23.762  26.098  1.00  0.00     0.173 A 
ATOM     71  F   UNL A   1      42.137  22.593  29.371  1.00  0.00    -0.203 F 
ATOM     72  C   UNL A   1      42.357  21.426  27.338  1.00  0.00     0.198 A 
ATOM     73  C   UNL A   1      43.084  22.582  25.366  1.00  0.00     0.198 A 
ATOM     74  F   UNL A   1      43.609  24.874  25.475  1.00  0.00    -0.203 F 
ATOM     75  F   UNL A   1      41.991  20.291  27.950  1.00  0.00    -0.200 F 
ATOM     76  C   UNL A   1      42.676  21.412  25.988  1.00  0.00     0.200 A 
ATOM     77  F   UNL A   1      43.385  22.577  24.060  1.00  0.00    -0.200 F 
ATOM     78  F   UNL A   1      42.599  20.271  25.290  1.00  0.00    -0.200 F 
ENDBRANCH  44  68
BRANCH  56  79
ATOM     79  C   UNL A   1      48.100  26.757  30.977  1.00  0.00     0.064 A 
ATOM     80  C   UNL A   1      48.418  25.879  32.024  1.00  0.00     0.173 A 
ATOM     81  C   UNL A   1      49.143  27.200  30.151  1.00  0.00     0.173 A 
ATOM     82  F   UNL A   1      47.458  25.440  32.851  1.00  0.00    -0.203 F 
ATOM     83  C   UNL A   1      49.732  25.479  32.246  1.00  0.00     0.198 A 
ATOM     84  C   UNL A   1      50.453  26.776  30.360  1.00  0.00     0.198 A 
ATOM     85  F   UNL A   1      48.891  28.037  29.132  1.00  0.00    -0.203 F 
ATOM     86  F   UNL A   1      50.020  24.674  33.279  1.00  0.00    -0.200 F 
ATOM     87  C   UNL A   1      50.747  25.922  31.411  1.00  0.00     0.200 A 
ATOM     88  F   UNL A   1      51.430  27.196  29.544  1.00  0.00    -0.200 F 
ATOM     89  F   UNL A   1      52.011  25.531  31.623  1.00  0.00    -0.200 F 
ENDBRANCH  56  79
ENDBRANCH  30  31
ENDBRANCH  23  25
ENDBRANCH  22  23
ENDBRANCH  21  22
ENDBRANCH   1  21
TORSDOF 13
ENDMDL
MODEL 3
REMARK VINA RESULT:     -11.7      0.623      1.816
REMARK SMILES O=C1C[C@@H]([N@@H+]2CCO[C@@H](CC(=O)OCCOC(=O)c3ccc(-c4c5nc(c(-c6c(F)c(F)c(F)c(F)c6F)c6ccc([nH]6)c(-c6c(F)c(F)c(F)c(F)c6F)c6nc(c(-c7c(F)c(F)c(F)c(F)c7F)c7ccc4[nH]7)C=C6)C=C5)cc3)C2)C(=O)N1
REMARK SMILES IDX 14 1 13 2 11 3 12 4 10 5 9 6 5 7 6 8 82 9 7 11 8 12 4 13
REMARK SMILES IDX 1 14 2 15 3 16 85 17 83 18 84 20 15 21 16 22 17 23 18 24
REMARK SMILES IDX 19 25 20 26 81 27 21 28 80 29 22 30 23 31 24 32 74 33 25 34
REMARK SMILES IDX 79 35 73 36 75 37 26 38 78 39 72 40 71 41 27 43 59 44 39 45
REMARK SMILES IDX 58 46 40 47 43 48 57 49 76 50 41 51 42 52 56 54 77 55 44 56
REMARK SMILES IDX 28 57 29 58 37 59 30 60 31 61 35 62 38 63 32 64 33 65 36 66
REMARK SMILES IDX 34 67 60 68 61 69 69 70 62 71 63 72 67 73 70 74 64 75 65 76
REMARK SMILES IDX 68 77 66 78 45 79 46 80 54 81 47 82 48 83 52 84 55 85 49 86
REMARK SMILES IDX 50 87 53 88 51 89
REMARK H PARENT 5 10 85 19 75 42 43 53
REMARK Flexibility Score: inf
ROOT
ATOM      1  C   UNL A   1      31.687  28.478  26.283  1.00  0.00     0.274 C 
ENDROOT
BRANCH   1   2
ATOM      2  O   UNL A   1      31.421  27.598  25.174  1.00  0.00    -0.462 OA
BRANCH   2   3
ATOM      3  C   UNL A   1      32.488  27.188  24.444  1.00  0.00     0.308 C 
ATOM      4  O   UNL A   1      32.674  27.459  23.264  1.00  0.00    -0.252 OA
BRANCH   3   5
ATOM      5  C   UNL A   1      33.412  26.308  25.242  1.00  0.00     0.160 C 
BRANCH   5   6
ATOM      6  C   UNL A   1      32.945  24.860  25.401  1.00  0.00     0.184 C 
ATOM      7  N   UNL A   1      33.727  22.516  26.035  1.00  0.00    -0.320 N 
ATOM      8  C   UNL A   1      32.683  22.546  27.066  1.00  0.00     0.291 C 
ATOM      9  C   UNL A   1      34.118  23.877  25.637  1.00  0.00     0.295 C 
ATOM     10  H   UNL A   1      34.518  22.080  26.511  1.00  0.00     0.348 HD
ATOM     11  C   UNL A   1      31.545  23.542  26.803  1.00  0.00     0.222 C 
ATOM     12  O   UNL A   1      32.048  24.853  26.533  1.00  0.00    -0.366 OA
BRANCH   7  13
ATOM     13  C   UNL A   1      33.594  21.558  24.924  1.00  0.00     0.284 C 
ATOM     14  O   UNL A   1      32.075  18.359  25.390  1.00  0.00    -0.274 OA
ATOM     15  C   UNL A   1      32.800  19.319  25.181  1.00  0.00     0.233 C 
ATOM     16  C   UNL A   1      32.336  20.695  24.820  1.00  0.00     0.176 C 
ATOM     17  N   UNL A   1      34.154  19.294  25.190  1.00  0.00    -0.291 N 
ATOM     18  C   UNL A   1      34.712  20.515  24.987  1.00  0.00     0.285 C 
ATOM     19  H   UNL A   1      34.680  18.474  25.331  1.00  0.00     0.173 HD
ATOM     20  O   UNL A   1      35.914  20.718  24.909  1.00  0.00    -0.268 OA
ENDBRANCH   7  13
ENDBRANCH   5   6
ENDBRANCH   3   5
ENDBRANCH   2   3
ENDBRANCH   1   2
BRANCH   1  21
ATOM     21  C   UNL A   1      31.761  29.945  25.849  1.00  0.00     0.275 C 
BRANCH  21  22
ATOM     22  O   UNL A   1      33.104  30.458  25.924  1.00  0.00    -0.458 OA
BRANCH  22  23
ATOM     23  C   UNL A   1      33.316  31.384  26.888  1.00  0.00     0.338 C 
ATOM     24  O   UNL A   1      32.555  32.273  27.230  1.00  0.00    -0.246 OA
BRANCH  23  25
ATOM     25  C   UNL A   1      34.578  31.097  27.591  1.00  0.00     0.060 A 
ATOM     26  C   UNL A   1      34.837  29.778  27.976  1.00  0.00     0.016 A 
ATOM     27  C   UNL A   1      35.470  32.119  27.923  1.00  0.00     0.016 A 
ATOM     28  C   UNL A   1      35.988  29.473  28.697  1.00  0.00     0.010 A 
ATOM     29  C   UNL A   1      36.627  31.811  28.645  1.00  0.00     0.010 A 
ATOM     30  C   UNL A   1      36.890  30.489  29.042  1.00  0.00    -0.014 A 
BRANCH  30  31
ATOM     31  C   UNL A   1      38.095  30.164  29.842  1.00  0.00     0.031 A 
ATOM     32  C   UNL A   1      39.143  29.247  29.280  1.00  0.00     0.074 A 
ATOM     33  C   UNL A   1      38.250  30.700  31.066  1.00  0.00     0.049 A 
ATOM     34  N   UNL A   1      40.234  28.792  29.844  1.00  0.00    -0.248 NA
ATOM     35  C   UNL A   1      38.936  28.778  27.902  1.00  0.00     0.031 C 
ATOM     36  C   UNL A   1      37.317  31.628  31.703  1.00  0.00     0.029 A 
ATOM     37  N   UNL A   1      39.248  30.536  31.994  1.00  0.00    -0.354 N 
ATOM     38  C   UNL A   1      40.836  27.975  28.896  1.00  0.00     0.074 A 
ATOM     39  C   UNL A   1      39.980  27.981  27.728  1.00  0.00     0.031 C 
ATOM     40  C   UNL A   1      37.785  31.950  32.920  1.00  0.00     0.029 A 
ATOM     41  C   UNL A   1      39.027  31.222  33.163  1.00  0.00     0.049 A 
ATOM     42  H   UNL A   1      40.045  29.981  31.836  1.00  0.00     0.167 HD
ATOM     43  C   UNL A   1      42.002  27.291  28.993  1.00  0.00     0.037 A 
ATOM     44  C   UNL A   1      39.736  31.240  34.307  1.00  0.00     0.037 A 
ATOM     45  C   UNL A   1      42.856  27.300  30.152  1.00  0.00     0.049 A 
ATOM     46  C   UNL A   1      40.998  30.425  34.406  1.00  0.00     0.074 A 
ATOM     47  C   UNL A   1      44.067  26.654  30.336  1.00  0.00     0.029 A 
ATOM     48  N   UNL A   1      42.589  27.987  31.327  1.00  0.00    -0.354 N 
ATOM     49  N   UNL A   1      41.568  29.668  33.500  1.00  0.00    -0.248 NA
ATOM     50  C   UNL A   1      41.716  30.468  35.688  1.00  0.00     0.031 C 
ATOM     51  C   UNL A   1      44.511  26.916  31.637  1.00  0.00     0.029 A 
ATOM     52  C   UNL A   1      43.601  27.763  32.247  1.00  0.00     0.049 A 
ATOM     53  H   UNL A   1      41.797  28.552  31.483  1.00  0.00     0.167 HD
ATOM     54  C   UNL A   1      42.719  29.167  34.092  1.00  0.00     0.074 A 
ATOM     55  C   UNL A   1      42.775  29.715  35.430  1.00  0.00     0.031 C 
ATOM     56  C   UNL A   1      43.647  28.325  33.572  1.00  0.00     0.037 A 
BRANCH  43  57
ATOM     57  C   UNL A   1      42.414  26.453  27.821  1.00  0.00     0.064 A 
ATOM     58  C   UNL A   1      43.295  26.938  26.843  1.00  0.00     0.173 A 
ATOM     59  C   UNL A   1      41.961  25.131  27.700  1.00  0.00     0.173 A 
ATOM     60  F   UNL A   1      43.748  28.199  26.907  1.00  0.00    -0.203 F 
ATOM     61  C   UNL A   1      43.693  26.134  25.777  1.00  0.00     0.198 A 
ATOM     62  C   UNL A   1      42.380  24.322  26.647  1.00  0.00     0.198 A 
ATOM     63  F   UNL A   1      41.120  24.619  28.612  1.00  0.00    -0.203 F 
ATOM     64  F   UNL A   1      44.509  26.627  24.835  1.00  0.00    -0.200 F 
ATOM     65  C   UNL A   1      43.242  24.825  25.685  1.00  0.00     0.200 A 
ATOM     66  F   UNL A   1      41.952  23.054  26.567  1.00  0.00    -0.200 F 
ATOM     67  F   UNL A   1      43.634  24.049  24.664  1.00  0.00    -0.200 F 
ENDBRANCH  43  57
BRANCH  44  68
ATOM     68  C   UNL A   1      39.260  32.044  35.462  1.00  0.00     0.064 A 
ATOM     69  C   UNL A   1      39.631  33.387  35.608  1.00  0.00     0.173 A 
ATOM     70  C   UNL A   1      38.440  31.482  36.450  1.00  0.00     0.173 A 
ATOM     71  F   UNL A   1      40.437  33.962  34.704  1.00  0.00    -0.203 F 
ATOM     72  C   UNL A   1      39.215  34.132  36.710  1.00  0.00     0.198 A 
ATOM     73  C   UNL A   1      38.000  32.235  37.536  1.00  0.00     0.198 A 
ATOM     74  F   UNL A   1      38.059  30.199  36.357  1.00  0.00    -0.203 F 
ATOM     75  F   UNL A   1      39.625  35.401  36.852  1.00  0.00    -0.200 F 
ATOM     76  C   UNL A   1      38.395  33.558  37.670  1.00  0.00     0.200 A 
ATOM     77  F   UNL A   1      37.201  31.678  38.456  1.00  0.00    -0.200 F 
ATOM     78  F   UNL A   1      37.995  34.275  38.729  1.00  0.00    -0.200 F 
ENDBRANCH  44  68
BRANCH  56  79
ATOM     79  C   UNL A   1      44.820  27.975  34.440  1.00  0.00     0.064 A 
ATOM     80  C   UNL A   1      44.810  26.840  35.266  1.00  0.00     0.173 A 
ATOM     81  C   UNL A   1      45.980  28.761  34.417  1.00  0.00     0.173 A 
ATOM     82  F   UNL A   1      43.718  26.065  35.336  1.00  0.00    -0.203 F 
ATOM     83  C   UNL A   1      45.913  26.522  36.054  1.00  0.00     0.198 A 
ATOM     84  C   UNL A   1      47.091  28.424  35.185  1.00  0.00     0.198 A 
ATOM     85  F   UNL A   1      46.042  29.853  33.638  1.00  0.00    -0.203 F 
ATOM     86  F   UNL A   1      45.866  25.459  36.870  1.00  0.00    -0.200 F 
ATOM     87  C   UNL A   1      47.054  27.309  36.009  1.00  0.00     0.200 A 
ATOM     88  F   UNL A   1      48.197  29.179  35.130  1.00  0.00    -0.200 F 
ATOM     89  F   UNL A   1      48.116  26.997  36.763  1.00  0.00    -0.200 F 
ENDBRANCH  56  79
ENDBRANCH  30  31
ENDBRANCH  23  25
ENDBRANCH  22  23
ENDBRANCH  21  22
ENDBRANCH   1  21
TORSDOF 13
ENDMDL
