MODEL 1
REMARK VINA RESULT:     -12.6      0.000      0.000
REMARK SMILES C[C@@H]1[C@H](C(=O)OCCOC(=O)c2ccc(-c3c4nc(c(-c5c(F)c(F)c(F)c(F)c5F)c5ccc([nH]5)c(-c5c(F)c(F)c(F)c(F)c5F)c5nc(c(-c6c(F)c(F)c(F)c(F)c6F)c6ccc3[nH]6)C=C5)C=C4)cc2)CC[N@@H+]1Cc1cnn(-c2ccccc2)c1
REMARK SMILES IDX 7 1 6 2 4 3 5 4 3 5 1 6 2 7 77 8 75 9 76 10 78 12 79 13
REMARK SMILES IDX 80 14 89 15 81 16 82 17 83 18 84 19 88 20 85 21 87 22 86 23
REMARK SMILES IDX 8 24 9 25 10 26 11 27 12 28 13 29 74 30 14 31 73 32 15 33
REMARK SMILES IDX 16 34 17 35 67 36 18 37 72 38 66 39 68 40 19 41 71 42 65 43
REMARK SMILES IDX 64 44 20 46 52 47 32 48 51 49 33 50 36 51 50 52 69 53 34 54
REMARK SMILES IDX 35 55 49 57 70 58 37 59 21 60 22 61 30 62 23 63 24 64 28 65
REMARK SMILES IDX 31 66 25 67 26 68 29 69 27 70 53 71 54 72 62 73 55 74 56 75
REMARK SMILES IDX 60 76 63 77 57 78 58 79 61 80 59 81 38 82 39 83 47 84 40 85
REMARK SMILES IDX 41 86 45 87 48 88 42 89 43 90 46 91 44 92
REMARK H PARENT 77 11 68 45 36 56
REMARK Flexibility Score: inf
ROOT
ATOM      1  C   UNL A   1      31.627  29.339  24.333  1.00  0.00     0.274 C 
ENDROOT
BRANCH   1   2
ATOM      2  O   UNL A   1      30.450  28.510  24.252  1.00  0.00    -0.462 OA
BRANCH   2   3
ATOM      3  C   UNL A   1      30.504  27.462  23.401  1.00  0.00     0.315 C 
ATOM      4  O   UNL A   1      30.439  27.563  22.180  1.00  0.00    -0.252 OA
BRANCH   3   5
ATOM      5  C   UNL A   1      30.631  26.111  24.070  1.00  0.00     0.162 C 
ATOM      6  C   UNL A   1      33.221  25.943  23.700  1.00  0.00     0.076 C 
ATOM      7  C   UNL A   1      31.906  25.243  24.019  1.00  0.00     0.195 C 
ATOM      8  N   UNL A   1      31.836  24.446  25.264  1.00  0.00    -0.328 N 
ATOM      9  C   UNL A   1      30.261  26.163  25.541  1.00  0.00     0.083 C 
ATOM     10  C   UNL A   1      30.612  24.761  25.992  1.00  0.00     0.263 C 
ATOM     11  H   UNL A   1      31.809  23.494  24.896  1.00  0.00     0.348 HD
BRANCH   8  12
ATOM     12  C   UNL A   1      33.011  24.152  26.073  1.00  0.00     0.302 C 
BRANCH  12  13
ATOM     13  C   UNL A   1      33.615  22.816  25.802  1.00  0.00     0.045 A 
ATOM     14  C   UNL A   1      34.925  22.355  26.059  1.00  0.00     0.145 A 
ATOM     15  C   UNL A   1      32.987  21.694  25.300  1.00  0.00     0.124 A 
ATOM     16  N   UNL A   1      35.115  21.082  25.704  1.00  0.00    -0.176 NA
ATOM     17  N   UNL A   1      33.939  20.716  25.135  1.00  0.00    -0.240 N 
BRANCH  17  18
ATOM     18  C   UNL A   1      33.784  19.477  24.461  1.00  0.00     0.065 A 
ATOM     19  C   UNL A   1      32.669  19.264  23.643  1.00  0.00     0.028 A 
ATOM     20  C   UNL A   1      34.734  18.456  24.624  1.00  0.00     0.028 A 
ATOM     21  C   UNL A   1      32.525  18.053  22.964  1.00  0.00     0.002 A 
ATOM     22  C   UNL A   1      34.569  17.238  23.962  1.00  0.00     0.002 A 
ATOM     23  C   UNL A   1      33.473  17.042  23.125  1.00  0.00     0.000 A 
ENDBRANCH  17  18
ENDBRANCH  12  13
ENDBRANCH   8  12
ENDBRANCH   3   5
ENDBRANCH   2   3
ENDBRANCH   1   2
BRANCH   1  24
ATOM     24  C   UNL A   1      31.810  29.882  25.752  1.00  0.00     0.275 C 
BRANCH  24  25
ATOM     25  O   UNL A   1      33.163  30.338  25.954  1.00  0.00    -0.458 OA
BRANCH  25  26
ATOM     26  C   UNL A   1      33.346  31.206  26.974  1.00  0.00     0.338 C 
ATOM     27  O   UNL A   1      32.579  32.057  27.384  1.00  0.00    -0.246 OA
BRANCH  26  28
ATOM     28  C   UNL A   1      34.632  30.926  27.626  1.00  0.00     0.060 A 
ATOM     29  C   UNL A   1      34.927  29.608  27.975  1.00  0.00     0.016 A 
ATOM     30  C   UNL A   1      35.484  31.967  27.991  1.00  0.00     0.016 A 
ATOM     31  C   UNL A   1      36.080  29.317  28.695  1.00  0.00     0.010 A 
ATOM     32  C   UNL A   1      36.648  31.675  28.707  1.00  0.00     0.010 A 
ATOM     33  C   UNL A   1      36.946  30.350  29.071  1.00  0.00    -0.014 A 
BRANCH  33  34
ATOM     34  C   UNL A   1      38.141  30.046  29.894  1.00  0.00     0.031 A 
ATOM     35  C   UNL A   1      39.218  29.159  29.342  1.00  0.00     0.074 A 
ATOM     36  C   UNL A   1      38.264  30.584  31.121  1.00  0.00     0.049 A 
ATOM     37  N   UNL A   1      40.276  28.672  29.937  1.00  0.00    -0.248 NA
ATOM     38  C   UNL A   1      39.086  28.768  27.930  1.00  0.00     0.031 C 
ATOM     39  C   UNL A   1      37.314  31.511  31.734  1.00  0.00     0.029 A 
ATOM     40  N   UNL A   1      39.240  30.426  32.070  1.00  0.00    -0.354 N 
ATOM     41  C   UNL A   1      40.922  27.899  28.983  1.00  0.00     0.074 A 
ATOM     42  C   UNL A   1      40.135  27.974  27.770  1.00  0.00     0.031 C 
ATOM     43  C   UNL A   1      37.755  31.843  32.958  1.00  0.00     0.029 A 
ATOM     44  C   UNL A   1      38.988  31.110  33.233  1.00  0.00     0.049 A 
ATOM     45  H   UNL A   1      40.044  29.875  31.932  1.00  0.00     0.167 HD
ATOM     46  C   UNL A   1      42.070  27.192  29.112  1.00  0.00     0.037 A 
ATOM     47  C   UNL A   1      39.659  31.117  34.400  1.00  0.00     0.037 A 
ATOM     48  C   UNL A   1      42.855  27.135  30.317  1.00  0.00     0.049 A 
ATOM     49  C   UNL A   1      40.896  30.271  34.536  1.00  0.00     0.074 A 
ATOM     50  C   UNL A   1      44.025  26.435  30.556  1.00  0.00     0.029 A 
ATOM     51  N   UNL A   1      42.550  27.816  31.487  1.00  0.00    -0.354 N 
ATOM     52  N   UNL A   1      41.478  29.507  33.645  1.00  0.00    -0.248 NA
ATOM     53  C   UNL A   1      41.559  30.278  35.848  1.00  0.00     0.031 C 
ATOM     54  C   UNL A   1      44.412  26.668  31.882  1.00  0.00     0.029 A 
ATOM     55  C   UNL A   1      43.503  27.543  32.454  1.00  0.00     0.049 A 
ATOM     56  H   UNL A   1      41.771  28.405  31.611  1.00  0.00     0.167 HD
ATOM     57  C   UNL A   1      42.584  28.956  34.278  1.00  0.00     0.074 A 
ATOM     58  C   UNL A   1      42.600  29.485  35.626  1.00  0.00     0.031 C 
ATOM     59  C   UNL A   1      43.501  28.087  33.788  1.00  0.00     0.037 A 
BRANCH  46  60
ATOM     60  C   UNL A   1      42.529  26.397  27.927  1.00  0.00     0.064 A 
ATOM     61  C   UNL A   1      43.430  26.924  26.991  1.00  0.00     0.173 A 
ATOM     62  C   UNL A   1      42.084  25.079  27.744  1.00  0.00     0.173 A 
ATOM     63  F   UNL A   1      43.871  28.184  27.114  1.00  0.00    -0.203 F 
ATOM     64  C   UNL A   1      43.857  26.165  25.904  1.00  0.00     0.198 A 
ATOM     65  C   UNL A   1      42.530  24.316  26.668  1.00  0.00     0.198 A 
ATOM     66  F   UNL A   1      41.223  24.529  28.613  1.00  0.00    -0.203 F 
ATOM     67  F   UNL A   1      44.690  26.700  25.000  1.00  0.00    -0.200 F 
ATOM     68  C   UNL A   1      43.411  24.861  25.747  1.00  0.00     0.200 A 
ATOM     69  F   UNL A   1      42.105  23.053  26.522  1.00  0.00    -0.200 F 
ATOM     70  F   UNL A   1      43.826  24.131  24.702  1.00  0.00    -0.200 F 
ENDBRANCH  46  60
BRANCH  47  71
ATOM     71  C   UNL A   1      39.160  31.928  35.538  1.00  0.00     0.064 A 
ATOM     72  C   UNL A   1      39.507  33.280  35.665  1.00  0.00     0.173 A 
ATOM     73  C   UNL A   1      38.331  31.370  36.521  1.00  0.00     0.173 A 
ATOM     74  F   UNL A   1      40.320  33.850  34.764  1.00  0.00    -0.203 F 
ATOM     75  C   UNL A   1      39.049  34.040  36.740  1.00  0.00     0.198 A 
ATOM     76  C   UNL A   1      37.853  32.138  37.580  1.00  0.00     0.198 A 
ATOM     77  F   UNL A   1      37.974  30.079  36.446  1.00  0.00    -0.203 F 
ATOM     78  F   UNL A   1      39.427  35.320  36.860  1.00  0.00    -0.200 F 
ATOM     79  C   UNL A   1      38.218  33.471  37.693  1.00  0.00     0.200 A 
ATOM     80  F   UNL A   1      37.043  31.586  38.494  1.00  0.00    -0.200 F 
ATOM     81  F   UNL A   1      37.776  34.203  38.724  1.00  0.00    -0.200 F 
ENDBRANCH  47  71
BRANCH  59  82
ATOM     82  C   UNL A   1      44.611  27.679  34.708  1.00  0.00     0.064 A 
ATOM     83  C   UNL A   1      45.798  28.419  34.796  1.00  0.00     0.173 A 
ATOM     84  C   UNL A   1      44.470  26.554  35.534  1.00  0.00     0.173 A 
ATOM     85  F   UNL A   1      45.983  29.492  34.013  1.00  0.00    -0.203 F 
ATOM     86  C   UNL A   1      46.815  28.036  35.666  1.00  0.00     0.198 A 
ATOM     87  C   UNL A   1      45.480  26.187  36.419  1.00  0.00     0.198 A 
ATOM     88  F   UNL A   1      43.351  25.817  35.488  1.00  0.00    -0.203 F 
ATOM     89  F   UNL A   1      47.958  28.735  35.706  1.00  0.00    -0.200 F 
ATOM     90  C   UNL A   1      46.652  26.925  36.480  1.00  0.00     0.200 A 
ATOM     91  F   UNL A   1      45.320  25.118  37.211  1.00  0.00    -0.200 F 
ATOM     92  F   UNL A   1      47.633  26.559  37.319  1.00  0.00    -0.200 F 
ENDBRANCH  59  82
ENDBRANCH  33  34
ENDBRANCH  26  28
ENDBRANCH  25  26
ENDBRANCH  24  25
ENDBRANCH   1  24
TORSDOF 14
ENDMDL
MODEL 2
REMARK VINA RESULT:     -12.5      0.252      1.966
REMARK SMILES C[C@@H]1[C@H](C(=O)OCCOC(=O)c2ccc(-c3c4nc(c(-c5c(F)c(F)c(F)c(F)c5F)c5ccc([nH]5)c(-c5c(F)c(F)c(F)c(F)c5F)c5nc(c(-c6c(F)c(F)c(F)c(F)c6F)c6ccc3[nH]6)C=C5)C=C4)cc2)CC[N@@H+]1Cc1cnn(-c2ccccc2)c1
REMARK SMILES IDX 7 1 6 2 4 3 5 4 3 5 1 6 2 7 77 8 75 9 76 10 78 12 79 13
REMARK SMILES IDX 80 14 89 15 81 16 82 17 83 18 84 19 88 20 85 21 87 22 86 23
REMARK SMILES IDX 8 24 9 25 10 26 11 27 12 28 13 29 74 30 14 31 73 32 15 33
REMARK SMILES IDX 16 34 17 35 67 36 18 37 72 38 66 39 68 40 19 41 71 42 65 43
REMARK SMILES IDX 64 44 20 46 52 47 32 48 51 49 33 50 36 51 50 52 69 53 34 54
REMARK SMILES IDX 35 55 49 57 70 58 37 59 21 60 22 61 30 62 23 63 24 64 28 65
REMARK SMILES IDX 31 66 25 67 26 68 29 69 27 70 53 71 54 72 62 73 55 74 56 75
REMARK SMILES IDX 60 76 63 77 57 78 58 79 61 80 59 81 38 82 39 83 47 84 40 85
REMARK SMILES IDX 41 86 45 87 48 88 42 89 43 90 46 91 44 92
REMARK H PARENT 77 11 68 45 36 56
REMARK Flexibility Score: inf
ROOT
ATOM      1  C   UNL A   1      31.856  29.344  24.343  1.00  0.00     0.274 C 
ENDROOT
BRANCH   1   2
ATOM      2  O   UNL A   1      30.629  28.614  24.151  1.00  0.00    -0.462 OA
BRANCH   2   3
ATOM      3  C   UNL A   1      30.664  27.589  23.271  1.00  0.00     0.315 C 
ATOM      4  O   UNL A   1      30.606  27.726  22.053  1.00  0.00    -0.252 OA
BRANCH   3   5
ATOM      5  C   UNL A   1      30.759  26.217  23.902  1.00  0.00     0.162 C 
ATOM      6  C   UNL A   1      33.367  26.074  23.687  1.00  0.00     0.076 C 
ATOM      7  C   UNL A   1      32.040  25.358  23.902  1.00  0.00     0.195 C 
ATOM      8  N   UNL A   1      31.899  24.519  25.113  1.00  0.00    -0.328 N 
ATOM      9  C   UNL A   1      30.299  26.219  25.348  1.00  0.00     0.083 C 
ATOM     10  C   UNL A   1      30.630  24.805  25.775  1.00  0.00     0.263 C 
ATOM     11  H   UNL A   1      31.901  23.579  24.714  1.00  0.00     0.348 HD
BRANCH   8  12
ATOM     12  C   UNL A   1      33.024  24.204  25.983  1.00  0.00     0.302 C 
BRANCH  12  13
ATOM     13  C   UNL A   1      33.604  22.849  25.757  1.00  0.00     0.045 A 
ATOM     14  C   UNL A   1      34.887  22.357  26.084  1.00  0.00     0.145 A 
ATOM     15  C   UNL A   1      32.972  21.739  25.236  1.00  0.00     0.124 A 
ATOM     16  N   UNL A   1      35.060  21.075  25.752  1.00  0.00    -0.176 NA
ATOM     17  N   UNL A   1      33.903  20.734  25.130  1.00  0.00    -0.240 N 
BRANCH  17  18
ATOM     18  C   UNL A   1      33.749  19.491  24.463  1.00  0.00     0.065 A 
ATOM     19  C   UNL A   1      32.638  19.277  23.638  1.00  0.00     0.028 A 
ATOM     20  C   UNL A   1      34.693  18.467  24.639  1.00  0.00     0.028 A 
ATOM     21  C   UNL A   1      32.495  18.062  22.966  1.00  0.00     0.002 A 
ATOM     22  C   UNL A   1      34.528  17.246  23.984  1.00  0.00     0.002 A 
ATOM     23  C   UNL A   1      33.437  17.049  23.140  1.00  0.00     0.000 A 
ENDBRANCH  17  18
ENDBRANCH  12  13
ENDBRANCH   8  12
ENDBRANCH   3   5
ENDBRANCH   2   3
ENDBRANCH   1   2
BRANCH   1  24
ATOM     24  C   UNL A   1      31.742  30.291  25.540  1.00  0.00     0.275 C 
BRANCH  24  25
ATOM     25  O   UNL A   1      32.856  30.117  26.439  1.00  0.00    -0.458 OA
BRANCH  25  26
ATOM     26  C   UNL A   1      33.308  31.239  27.041  1.00  0.00     0.338 C 
ATOM     27  O   UNL A   1      32.745  32.313  27.152  1.00  0.00    -0.246 OA
BRANCH  26  28
ATOM     28  C   UNL A   1      34.610  30.966  27.662  1.00  0.00     0.060 A 
ATOM     29  C   UNL A   1      34.895  29.661  28.066  1.00  0.00     0.016 A 
ATOM     30  C   UNL A   1      35.493  32.008  27.946  1.00  0.00     0.016 A 
ATOM     31  C   UNL A   1      36.067  29.384  28.760  1.00  0.00     0.010 A 
ATOM     32  C   UNL A   1      36.677  31.728  28.635  1.00  0.00     0.010 A 
ATOM     33  C   UNL A   1      36.964  30.417  29.054  1.00  0.00    -0.014 A 
BRANCH  33  34
ATOM     34  C   UNL A   1      38.182  30.131  29.849  1.00  0.00     0.031 A 
ATOM     35  C   UNL A   1      39.251  29.246  29.280  1.00  0.00     0.074 A 
ATOM     36  C   UNL A   1      38.331  30.682  31.067  1.00  0.00     0.049 A 
ATOM     37  N   UNL A   1      40.327  28.773  29.853  1.00  0.00    -0.248 NA
ATOM     38  C   UNL A   1      39.086  28.839  27.876  1.00  0.00     0.031 C 
ATOM     39  C   UNL A   1      37.389  31.609  31.694  1.00  0.00     0.029 A 
ATOM     40  N   UNL A   1      39.332  30.542  31.994  1.00  0.00    -0.354 N 
ATOM     41  C   UNL A   1      40.955  27.995  28.891  1.00  0.00     0.074 A 
ATOM     42  C   UNL A   1      40.137  28.051  27.698  1.00  0.00     0.031 C 
ATOM     43  C   UNL A   1      37.859  31.957  32.903  1.00  0.00     0.029 A 
ATOM     44  C   UNL A   1      39.104  31.237  33.155  1.00  0.00     0.049 A 
ATOM     45  H   UNL A   1      40.137  29.995  31.841  1.00  0.00     0.167 HD
ATOM     46  C   UNL A   1      42.111  27.298  28.999  1.00  0.00     0.037 A 
ATOM     47  C   UNL A   1      39.804  31.261  34.304  1.00  0.00     0.037 A 
ATOM     48  C   UNL A   1      42.927  27.259  30.184  1.00  0.00     0.049 A 
ATOM     49  C   UNL A   1      41.051  30.425  34.419  1.00  0.00     0.074 A 
ATOM     50  C   UNL A   1      44.107  26.570  30.401  1.00  0.00     0.029 A 
ATOM     51  N   UNL A   1      42.646  27.950  31.355  1.00  0.00    -0.354 N 
ATOM     52  N   UNL A   1      41.616  29.657  33.521  1.00  0.00    -0.248 NA
ATOM     53  C   UNL A   1      41.747  30.452  35.713  1.00  0.00     0.031 C 
ATOM     54  C   UNL A   1      44.526  26.821  31.714  1.00  0.00     0.029 A 
ATOM     55  C   UNL A   1      43.625  27.695  32.300  1.00  0.00     0.049 A 
ATOM     56  H   UNL A   1      41.866  28.535  31.491  1.00  0.00     0.167 HD
ATOM     57  C   UNL A   1      42.741  29.121  34.131  1.00  0.00     0.074 A 
ATOM     58  C   UNL A   1      42.787  29.664  35.474  1.00  0.00     0.031 C 
ATOM     59  C   UNL A   1      43.652  28.253  33.628  1.00  0.00     0.037 A 
BRANCH  46  60
ATOM     60  C   UNL A   1      42.546  26.493  27.811  1.00  0.00     0.064 A 
ATOM     61  C   UNL A   1      42.066  25.196  27.585  1.00  0.00     0.173 A 
ATOM     62  C   UNL A   1      43.432  27.041  26.871  1.00  0.00     0.173 A 
ATOM     63  F   UNL A   1      41.231  24.622  28.464  1.00  0.00    -0.203 F 
ATOM     64  C   UNL A   1      42.470  24.469  26.468  1.00  0.00     0.198 A 
ATOM     65  C   UNL A   1      43.816  26.320  25.744  1.00  0.00     0.198 A 
ATOM     66  F   UNL A   1      43.918  28.280  27.042  1.00  0.00    -0.203 F 
ATOM     67  F   UNL A   1      42.028  23.216  26.289  1.00  0.00    -0.200 F 
ATOM     68  C   UNL A   1      43.340  25.033  25.546  1.00  0.00     0.200 A 
ATOM     69  F   UNL A   1      44.649  26.870  24.849  1.00  0.00    -0.200 F 
ATOM     70  F   UNL A   1      43.724  24.333  24.470  1.00  0.00    -0.200 F 
ENDBRANCH  46  60
BRANCH  47  71
ATOM     71  C   UNL A   1      39.328  32.081  35.446  1.00  0.00     0.064 A 
ATOM     72  C   UNL A   1      38.496  31.532  36.430  1.00  0.00     0.173 A 
ATOM     73  C   UNL A   1      39.692  33.430  35.574  1.00  0.00     0.173 A 
ATOM     74  F   UNL A   1      38.100  30.255  36.335  1.00  0.00    -0.203 F 
ATOM     75  C   UNL A   1      38.038  32.305  37.496  1.00  0.00     0.198 A 
ATOM     76  C   UNL A   1      39.255  34.193  36.654  1.00  0.00     0.198 A 
ATOM     77  F   UNL A   1      40.484  34.003  34.655  1.00  0.00    -0.203 F 
ATOM     78  F   UNL A   1      37.211  31.767  38.402  1.00  0.00    -0.200 F 
ATOM     79  C   UNL A   1      38.422  33.632  37.610  1.00  0.00     0.200 A 
ATOM     80  F   UNL A   1      39.636  35.474  36.765  1.00  0.00    -0.200 F 
ATOM     81  F   UNL A   1      37.984  34.373  38.637  1.00  0.00    -0.200 F 
ENDBRANCH  47  71
BRANCH  59  82
ATOM     82  C   UNL A   1      44.789  27.864  34.524  1.00  0.00     0.064 A 
ATOM     83  C   UNL A   1      44.722  26.724  35.336  1.00  0.00     0.173 A 
ATOM     84  C   UNL A   1      45.968  28.623  34.544  1.00  0.00     0.173 A 
ATOM     85  F   UNL A   1      43.608  25.978  35.362  1.00  0.00    -0.203 F 
ATOM     86  C   UNL A   1      45.791  26.366  36.153  1.00  0.00     0.198 A 
ATOM     87  C   UNL A   1      47.043  28.250  35.345  1.00  0.00     0.198 A 
ATOM     88  F   UNL A   1      46.080  29.720  33.781  1.00  0.00    -0.203 F 
ATOM     89  F   UNL A   1      45.692  25.295  36.952  1.00  0.00    -0.200 F 
ATOM     90  C   UNL A   1      46.952  27.126  36.152  1.00  0.00     0.200 A 
ATOM     91  F   UNL A   1      48.167  28.979  35.339  1.00  0.00    -0.200 F 
ATOM     92  F   UNL A   1      47.981  26.779  36.939  1.00  0.00    -0.200 F 
ENDBRANCH  59  82
ENDBRANCH  33  34
ENDBRANCH  26  28
ENDBRANCH  25  26
ENDBRANCH  24  25
ENDBRANCH   1  24
TORSDOF 14
ENDMDL
MODEL 3
REMARK VINA RESULT:     -12.5      1.054      2.568
REMARK SMILES C[C@@H]1[C@H](C(=O)OCCOC(=O)c2ccc(-c3c4nc(c(-c5c(F)c(F)c(F)c(F)c5F)c5ccc([nH]5)c(-c5c(F)c(F)c(F)c(F)c5F)c5nc(c(-c6c(F)c(F)c(F)c(F)c6F)c6ccc3[nH]6)C=C5)C=C4)cc2)CC[N@@H+]1Cc1cnn(-c2ccccc2)c1
REMARK SMILES IDX 7 1 6 2 4 3 5 4 3 5 1 6 2 7 77 8 75 9 76 10 78 12 79 13
REMARK SMILES IDX 80 14 89 15 81 16 82 17 83 18 84 19 88 20 85 21 87 22 86 23
REMARK SMILES IDX 8 24 9 25 10 26 11 27 12 28 13 29 74 30 14 31 73 32 15 33
REMARK SMILES IDX 16 34 17 35 67 36 18 37 72 38 66 39 68 40 19 41 71 42 65 43
REMARK SMILES IDX 64 44 20 46 52 47 32 48 51 49 33 50 36 51 50 52 69 53 34 54
REMARK SMILES IDX 35 55 49 57 70 58 37 59 21 60 22 61 30 62 23 63 24 64 28 65
REMARK SMILES IDX 31 66 25 67 26 68 29 69 27 70 53 71 54 72 62 73 55 74 56 75
REMARK SMILES IDX 60 76 63 77 57 78 58 79 61 80 59 81 38 82 39 83 47 84 40 85
REMARK SMILES IDX 41 86 45 87 48 88 42 89 43 90 46 91 44 92
REMARK H PARENT 77 11 68 45 36 56
REMARK Flexibility Score: inf
ROOT
ATOM      1  C   UNL A   1      31.525  28.877  24.792  1.00  0.00     0.274 C 
ENDROOT
BRANCH   1   2
ATOM      2  O   UNL A   1      30.837  27.805  25.467  1.00  0.00    -0.462 OA
BRANCH   2   3
ATOM      3  C   UNL A   1      31.591  26.761  25.874  1.00  0.00     0.315 C 
ATOM      4  O   UNL A   1      32.664  26.873  26.459  1.00  0.00    -0.252 OA
BRANCH   3   5
ATOM      5  C   UNL A   1      31.024  25.400  25.533  1.00  0.00     0.162 C 
ATOM      6  C   UNL A   1      31.878  25.438  23.055  1.00  0.00     0.076 C 
ATOM      7  C   UNL A   1      30.946  24.836  24.099  1.00  0.00     0.195 C 
ATOM      8  N   UNL A   1      30.992  23.369  24.298  1.00  0.00    -0.328 N 
ATOM      9  C   UNL A   1      31.666  24.292  26.347  1.00  0.00     0.083 C 
ATOM     10  C   UNL A   1      31.049  23.059  25.722  1.00  0.00     0.263 C 
ATOM     11  H   UNL A   1      30.099  23.080  23.895  1.00  0.00     0.348 HD
BRANCH   8  12
ATOM     12  C   UNL A   1      31.734  22.482  23.413  1.00  0.00     0.302 C 
BRANCH  12  13
ATOM     13  C   UNL A   1      33.040  22.024  23.971  1.00  0.00     0.045 A 
ATOM     14  C   UNL A   1      33.417  20.745  24.435  1.00  0.00     0.145 A 
ATOM     15  C   UNL A   1      34.207  22.749  24.085  1.00  0.00     0.124 A 
ATOM     16  N   UNL A   1      34.684  20.687  24.849  1.00  0.00    -0.176 NA
ATOM     17  N   UNL A   1      35.132  21.962  24.729  1.00  0.00    -0.240 N 
BRANCH  17  18
ATOM     18  C   UNL A   1      36.394  22.366  25.236  1.00  0.00     0.065 A 
ATOM     19  C   UNL A   1      37.451  21.449  25.282  1.00  0.00     0.028 A 
ATOM     20  C   UNL A   1      36.584  23.673  25.712  1.00  0.00     0.028 A 
ATOM     21  C   UNL A   1      38.699  21.850  25.762  1.00  0.00     0.002 A 
ATOM     22  C   UNL A   1      37.828  24.057  26.215  1.00  0.00     0.002 A 
ATOM     23  C   UNL A   1      38.886  23.150  26.230  1.00  0.00     0.000 A 
ENDBRANCH  17  18
ENDBRANCH  12  13
ENDBRANCH   8  12
ENDBRANCH   3   5
ENDBRANCH   2   3
ENDBRANCH   1   2
BRANCH   1  24
ATOM     24  C   UNL A   1      31.713  30.074  25.727  1.00  0.00     0.275 C 
BRANCH  24  25
ATOM     25  O   UNL A   1      33.106  30.254  26.052  1.00  0.00    -0.458 OA
BRANCH  25  26
ATOM     26  C   UNL A   1      33.383  31.239  26.935  1.00  0.00     0.338 C 
ATOM     27  O   UNL A   1      32.692  32.196  27.236  1.00  0.00    -0.246 OA
BRANCH  26  28
ATOM     28  C   UNL A   1      34.662  30.954  27.598  1.00  0.00     0.060 A 
ATOM     29  C   UNL A   1      34.966  29.630  27.915  1.00  0.00     0.016 A 
ATOM     30  C   UNL A   1      35.498  31.993  28.003  1.00  0.00     0.016 A 
ATOM     31  C   UNL A   1      36.112  29.330  28.643  1.00  0.00     0.010 A 
ATOM     32  C   UNL A   1      36.656  31.692  28.726  1.00  0.00     0.010 A 
ATOM     33  C   UNL A   1      36.963  30.362  29.059  1.00  0.00    -0.014 A 
BRANCH  33  34
ATOM     34  C   UNL A   1      38.149  30.047  29.889  1.00  0.00     0.031 A 
ATOM     35  C   UNL A   1      39.220  29.148  29.345  1.00  0.00     0.074 A 
ATOM     36  C   UNL A   1      38.270  30.586  31.115  1.00  0.00     0.049 A 
ATOM     37  N   UNL A   1      40.269  28.652  29.948  1.00  0.00    -0.248 NA
ATOM     38  C   UNL A   1      39.093  28.756  27.933  1.00  0.00     0.031 C 
ATOM     39  C   UNL A   1      37.325  31.524  31.721  1.00  0.00     0.029 A 
ATOM     40  N   UNL A   1      39.238  30.420  32.072  1.00  0.00    -0.354 N 
ATOM     41  C   UNL A   1      40.914  27.871  28.999  1.00  0.00     0.074 A 
ATOM     42  C   UNL A   1      40.135  27.951  27.782  1.00  0.00     0.031 C 
ATOM     43  C   UNL A   1      37.762  31.853  32.947  1.00  0.00     0.029 A 
ATOM     44  C   UNL A   1      38.986  31.109  33.231  1.00  0.00     0.049 A 
ATOM     45  H   UNL A   1      40.038  29.861  31.939  1.00  0.00     0.167 HD
ATOM     46  C   UNL A   1      42.054  27.152  29.137  1.00  0.00     0.037 A 
ATOM     47  C   UNL A   1      39.650  31.111  34.402  1.00  0.00     0.037 A 
ATOM     48  C   UNL A   1      42.831  27.090  30.347  1.00  0.00     0.049 A 
ATOM     49  C   UNL A   1      40.878  30.253  34.548  1.00  0.00     0.074 A 
ATOM     50  C   UNL A   1      43.992  26.378  30.594  1.00  0.00     0.029 A 
ATOM     51  N   UNL A   1      42.526  27.776  31.513  1.00  0.00    -0.354 N 
ATOM     52  N   UNL A   1      41.458  29.482  33.661  1.00  0.00    -0.248 NA
ATOM     53  C   UNL A   1      41.533  30.256  35.864  1.00  0.00     0.031 C 
ATOM     54  C   UNL A   1      44.373  26.610  31.922  1.00  0.00     0.029 A 
ATOM     55  C   UNL A   1      43.469  27.496  32.487  1.00  0.00     0.049 A 
ATOM     56  H   UNL A   1      41.751  28.373  31.631  1.00  0.00     0.167 HD
ATOM     57  C   UNL A   1      42.554  28.921  34.302  1.00  0.00     0.074 A 
ATOM     58  C   UNL A   1      42.567  29.452  35.650  1.00  0.00     0.031 C 
ATOM     59  C   UNL A   1      43.465  28.042  33.819  1.00  0.00     0.037 A 
BRANCH  46  60
ATOM     60  C   UNL A   1      42.512  26.350  27.956  1.00  0.00     0.064 A 
ATOM     61  C   UNL A   1      42.065  25.040  27.739  1.00  0.00     0.173 A 
ATOM     62  C   UNL A   1      43.386  26.913  27.014  1.00  0.00     0.173 A 
ATOM     63  F   UNL A   1      41.242  24.452  28.619  1.00  0.00    -0.203 F 
ATOM     64  C   UNL A   1      42.490  24.315  26.627  1.00  0.00     0.198 A 
ATOM     65  C   UNL A   1      43.791  26.194  25.893  1.00  0.00     0.198 A 
ATOM     66  F   UNL A   1      43.841  28.165  27.177  1.00  0.00    -0.203 F 
ATOM     67  F   UNL A   1      42.079  23.050  26.457  1.00  0.00    -0.200 F 
ATOM     68  C   UNL A   1      43.348  24.894  25.704  1.00  0.00     0.200 A 
ATOM     69  F   UNL A   1      44.613  26.758  24.997  1.00  0.00    -0.200 F 
ATOM     70  F   UNL A   1      43.752  24.196  24.633  1.00  0.00    -0.200 F 
ENDBRANCH  46  60
BRANCH  47  71
ATOM     71  C   UNL A   1      39.153  31.930  35.535  1.00  0.00     0.064 A 
ATOM     72  C   UNL A   1      39.508  33.279  35.660  1.00  0.00     0.173 A 
ATOM     73  C   UNL A   1      38.315  31.381  36.517  1.00  0.00     0.173 A 
ATOM     74  F   UNL A   1      40.329  33.841  34.761  1.00  0.00    -0.203 F 
ATOM     75  C   UNL A   1      39.052  34.046  36.731  1.00  0.00     0.198 A 
ATOM     76  C   UNL A   1      37.838  32.155  37.572  1.00  0.00     0.198 A 
ATOM     77  F   UNL A   1      37.949  30.092  36.445  1.00  0.00    -0.203 F 
ATOM     78  F   UNL A   1      39.439  35.324  36.849  1.00  0.00    -0.200 F 
ATOM     79  C   UNL A   1      38.213  33.486  37.682  1.00  0.00     0.200 A 
ATOM     80  F   UNL A   1      37.020  31.612  38.484  1.00  0.00    -0.200 F 
ATOM     81  F   UNL A   1      37.772  34.225  38.709  1.00  0.00    -0.200 F 
ENDBRANCH  47  71
BRANCH  59  82
ATOM     82  C   UNL A   1      44.566  27.625  34.748  1.00  0.00     0.064 A 
ATOM     83  C   UNL A   1      44.452  26.482  35.550  1.00  0.00     0.173 A 
ATOM     84  C   UNL A   1      45.759  28.360  34.808  1.00  0.00     0.173 A 
ATOM     85  F   UNL A   1      43.323  25.759  35.538  1.00  0.00    -0.203 F 
ATOM     86  C   UNL A   1      45.488  26.099  36.397  1.00  0.00     0.198 A 
ATOM     87  C   UNL A   1      46.801  27.962  35.639  1.00  0.00     0.198 A 
ATOM     88  F   UNL A   1      45.916  29.459  34.055  1.00  0.00    -0.203 F 
ATOM     89  F   UNL A   1      45.344  25.025  37.187  1.00  0.00    -0.200 F 
ATOM     90  C   UNL A   1      46.663  26.836  36.436  1.00  0.00     0.200 A 
ATOM     91  F   UNL A   1      47.939  28.669  35.671  1.00  0.00    -0.200 F 
ATOM     92  F   UNL A   1      47.661  26.463  37.251  1.00  0.00    -0.200 F 
ENDBRANCH  59  82
ENDBRANCH  33  34
ENDBRANCH  26  28
ENDBRANCH  25  26
ENDBRANCH  24  25
ENDBRANCH   1  24
TORSDOF 14
ENDMDL
