MODEL 1
REMARK VINA RESULT:     -13.0      0.000      0.000
REMARK SMILES CCN1C(=O)[C@H](CC(=O)Nc2ccc(C(=O)OCCOC(=O)c3ccc(-c4c5nc(c(-c6c(F)c(F)c(F)c(F)c6F)c6ccc([nH]6)c(-c6c(F)c(F)c(F)c(F)c6F)c6nc(c(-c7c(F)c(F)c(F)c(F)c7F)c7ccc4[nH]7)C=C6)C=C5)cc3)cc2)S/C1=[NH+]\c1ccc(Cl)cc1
REMARK SMILES IDX 18 1 17 2 15 3 16 4 14 5 11 6 12 7 87 8 13 9 86 10 10 11
REMARK SMILES IDX 8 12 9 13 7 15 6 16 3 17 4 18 89 19 5 20 88 21 90 22 2 24
REMARK SMILES IDX 1 25 91 26 92 27 97 28 93 29 96 30 94 31 95 32 19 33 20 34
REMARK SMILES IDX 21 35 22 36 23 37 24 38 85 39 25 40 84 41 26 42 27 43 28 44
REMARK SMILES IDX 78 45 29 46 83 47 77 48 79 49 30 50 82 51 76 52 75 53 31 55
REMARK SMILES IDX 63 56 43 57 62 58 44 59 47 60 61 61 80 62 45 63 46 64 60 66
REMARK SMILES IDX 81 67 48 68 32 69 33 70 41 71 34 72 35 73 39 74 42 75 36 76
REMARK SMILES IDX 37 77 40 78 38 79 64 80 65 81 73 82 66 83 67 84 71 85 74 86
REMARK SMILES IDX 68 87 69 88 72 89 70 90 49 91 50 92 58 93 51 94 52 95 56 96
REMARK SMILES IDX 59 97 53 98 54 99 57 100 55 101
REMARK H PARENT 10 14 90 23 79 54 47 65
REMARK Flexibility Score: inf
ROOT
ATOM      1  C   UNL A   1      30.982  30.806  25.146  1.00  0.00     0.275 C 
ENDROOT
BRANCH   1   2
ATOM      2  O   UNL A   1      31.797  29.903  24.376  1.00  0.00    -0.458 OA
BRANCH   2   3
ATOM      3  C   UNL A   1      31.136  29.080  23.531  1.00  0.00     0.338 C 
ATOM      4  O   UNL A   1      30.771  29.302  22.387  1.00  0.00    -0.246 OA
BRANCH   3   5
ATOM      5  C   UNL A   1      30.823  27.844  24.254  1.00  0.00     0.060 A 
ATOM      6  C   UNL A   1      30.019  25.502  25.569  1.00  0.00     0.041 A 
ATOM      7  C   UNL A   1      31.175  26.180  25.973  1.00  0.00     0.027 A 
ATOM      8  C   UNL A   1      29.352  25.962  24.437  1.00  0.00     0.027 A 
ATOM      9  C   UNL A   1      31.583  27.346  25.314  1.00  0.00     0.018 A 
ATOM     10  C   UNL A   1      29.723  27.140  23.799  1.00  0.00     0.018 A 
BRANCH   6  11
ATOM     11  N   UNL A   1      29.587  24.442  26.385  1.00  0.00    -0.326 N 
ATOM     12  C   UNL A   1      30.216  23.412  27.019  1.00  0.00     0.226 C 
ATOM     13  O   UNL A   1      29.511  22.573  27.590  1.00  0.00    -0.275 OA
ATOM     14  H   UNL A   1      28.614  24.443  26.531  1.00  0.00     0.169 HD
BRANCH  12  15
ATOM     15  C   UNL A   1      31.719  23.267  27.074  1.00  0.00     0.128 C 
BRANCH  15  16
ATOM     16  C   UNL A   1      32.341  22.406  25.972  1.00  0.00     0.183 C 
ATOM     17  N   UNL A   1      33.351  23.148  23.897  1.00  0.00    -0.190 N 
ATOM     18  C   UNL A   1      32.153  22.867  24.539  1.00  0.00     0.324 C 
ATOM     19  C   UNL A   1      34.503  22.909  24.602  1.00  0.00     0.319 C 
ATOM     20  O   UNL A   1      31.048  22.960  24.012  1.00  0.00    -0.245 OA
ATOM     21  S   UNL A   1      34.145  22.255  26.183  1.00  0.00    -0.022 SA
ATOM     22  N   UNL A   1      35.671  23.160  24.117  1.00  0.00    -0.235 N 
ATOM     23  H   UNL A   1      35.718  23.638  23.258  1.00  0.00     0.313 HD
BRANCH  17  24
ATOM     24  C   UNL A   1      33.262  23.673  22.528  1.00  0.00     0.243 C 
ATOM     25  C   UNL A   1      33.191  25.175  22.303  1.00  0.00     0.054 C 
ENDBRANCH  17  24
BRANCH  22  26
ATOM     26  C   UNL A   1      36.876  22.801  24.729  1.00  0.00     0.125 A 
ATOM     27  C   UNL A   1      37.352  21.491  24.603  1.00  0.00     0.053 A 
ATOM     28  C   UNL A   1      37.507  23.662  25.636  1.00  0.00     0.053 A 
ATOM     29  C   UNL A   1      38.451  21.055  25.353  1.00  0.00     0.025 A 
ATOM     30  C   UNL A   1      38.611  23.236  26.379  1.00  0.00     0.025 A 
ATOM     31  C   UNL A   1      39.075  21.932  26.239  1.00  0.00     0.041 A 
ATOM     32  Cl  UNL A   1      40.401  21.391  27.192  1.00  0.00    -0.084 Cl
ENDBRANCH  22  26
ENDBRANCH  15  16
ENDBRANCH  12  15
ENDBRANCH   6  11
ENDBRANCH   3   5
ENDBRANCH   2   3
ENDBRANCH   1   2
BRANCH   1  33
ATOM     33  C   UNL A   1      31.414  30.817  26.610  1.00  0.00     0.275 C 
BRANCH  33  34
ATOM     34  O   UNL A   1      32.851  30.783  26.685  1.00  0.00    -0.458 OA
BRANCH  34  35
ATOM     35  C   UNL A   1      33.431  31.856  27.266  1.00  0.00     0.338 C 
ATOM     36  O   UNL A   1      32.925  32.937  27.515  1.00  0.00    -0.246 OA
BRANCH  35  37
ATOM     37  C   UNL A   1      34.794  31.511  27.702  1.00  0.00     0.060 A 
ATOM     38  C   UNL A   1      35.050  30.191  28.044  1.00  0.00     0.016 A 
ATOM     39  C   UNL A   1      35.739  32.490  27.986  1.00  0.00     0.016 A 
ATOM     40  C   UNL A   1      36.159  29.859  28.807  1.00  0.00     0.010 A 
ATOM     41  C   UNL A   1      36.938  32.125  28.616  1.00  0.00     0.010 A 
ATOM     42  C   UNL A   1      37.143  30.811  29.084  1.00  0.00    -0.014 A 
BRANCH  42  43
ATOM     43  C   UNL A   1      38.327  30.435  29.913  1.00  0.00     0.031 A 
ATOM     44  C   UNL A   1      39.433  29.609  29.306  1.00  0.00     0.074 A 
ATOM     45  C   UNL A   1      38.461  30.877  31.182  1.00  0.00     0.049 A 
ATOM     46  N   UNL A   1      40.403  28.961  29.898  1.00  0.00    -0.248 NA
ATOM     47  C   UNL A   1      39.441  29.485  27.840  1.00  0.00     0.031 C 
ATOM     48  C   UNL A   1      37.528  31.762  31.884  1.00  0.00     0.029 A 
ATOM     49  N   UNL A   1      39.454  30.658  32.110  1.00  0.00    -0.354 N 
ATOM     50  C   UNL A   1      41.081  28.287  28.889  1.00  0.00     0.074 A 
ATOM     51  C   UNL A   1      40.423  28.616  27.644  1.00  0.00     0.031 C 
ATOM     52  C   UNL A   1      38.025  32.071  33.089  1.00  0.00     0.029 A 
ATOM     53  C   UNL A   1      39.232  31.290  33.311  1.00  0.00     0.049 A 
ATOM     54  H   UNL A   1      40.247  30.104  31.929  1.00  0.00     0.167 HD
ATOM     55  C   UNL A   1      42.148  27.461  29.001  1.00  0.00     0.037 A 
ATOM     56  C   UNL A   1      39.880  31.196  34.488  1.00  0.00     0.037 A 
ATOM     57  C   UNL A   1      42.841  27.206  30.238  1.00  0.00     0.049 A 
ATOM     58  C   UNL A   1      41.029  30.234  34.601  1.00  0.00     0.074 A 
ATOM     59  C   UNL A   1      43.912  26.362  30.473  1.00  0.00     0.029 A 
ATOM     60  N   UNL A   1      42.548  27.827  31.443  1.00  0.00    -0.354 N 
ATOM     61  N   UNL A   1      41.575  29.487  33.674  1.00  0.00    -0.248 NA
ATOM     62  C   UNL A   1      41.625  30.073  35.934  1.00  0.00     0.031 C 
ATOM     63  C   UNL A   1      44.253  26.455  31.827  1.00  0.00     0.029 A 
ATOM     64  C   UNL A   1      43.420  27.386  32.425  1.00  0.00     0.049 A 
ATOM     65  H   UNL A   1      41.827  28.483  31.581  1.00  0.00     0.167 HD
ATOM     66  C   UNL A   1      42.583  28.774  34.305  1.00  0.00     0.074 A 
ATOM     67  C   UNL A   1      42.590  29.199  35.690  1.00  0.00     0.031 C 
ATOM     68  C   UNL A   1      43.418  27.839  33.791  1.00  0.00     0.037 A 
BRANCH  55  69
ATOM     69  C   UNL A   1      42.610  26.740  27.769  1.00  0.00     0.064 A 
ATOM     70  C   UNL A   1      43.607  27.255  26.929  1.00  0.00     0.173 A 
ATOM     71  C   UNL A   1      42.073  25.481  27.450  1.00  0.00     0.173 A 
ATOM     72  F   UNL A   1      44.141  28.461  27.179  1.00  0.00    -0.203 F 
ATOM     73  C   UNL A   1      44.036  26.548  25.809  1.00  0.00     0.198 A 
ATOM     74  C   UNL A   1      42.524  24.764  26.346  1.00  0.00     0.198 A 
ATOM     75  F   UNL A   1      41.118  24.940  28.223  1.00  0.00    -0.203 F 
ATOM     76  F   UNL A   1      44.964  27.077  24.998  1.00  0.00    -0.200 F 
ATOM     77  C   UNL A   1      43.501  25.300  25.523  1.00  0.00     0.200 A 
ATOM     78  F   UNL A   1      42.013  23.554  26.080  1.00  0.00    -0.200 F 
ATOM     79  F   UNL A   1      43.925  24.616  24.451  1.00  0.00    -0.200 F 
ENDBRANCH  55  69
BRANCH  56  80
ATOM     80  C   UNL A   1      39.402  31.959  35.674  1.00  0.00     0.064 A 
ATOM     81  C   UNL A   1      39.890  33.242  35.953  1.00  0.00     0.173 A 
ATOM     82  C   UNL A   1      38.463  31.414  36.565  1.00  0.00     0.173 A 
ATOM     83  F   UNL A   1      40.813  33.797  35.153  1.00  0.00    -0.203 F 
ATOM     84  C   UNL A   1      39.466  33.945  37.081  1.00  0.00     0.198 A 
ATOM     85  C   UNL A   1      38.010  32.134  37.668  1.00  0.00     0.198 A 
ATOM     86  F   UNL A   1      37.968  30.186  36.353  1.00  0.00    -0.203 F 
ATOM     87  F   UNL A   1      39.989  35.150  37.351  1.00  0.00    -0.200 F 
ATOM     88  C   UNL A   1      38.520  33.395  37.931  1.00  0.00     0.200 A 
ATOM     89  F   UNL A   1      37.083  31.602  38.476  1.00  0.00    -0.200 F 
ATOM     90  F   UNL A   1      38.108  34.074  39.010  1.00  0.00    -0.200 F 
ENDBRANCH  56  80
BRANCH  68  91
ATOM     91  C   UNL A   1      44.437  27.256  34.723  1.00  0.00     0.064 A 
ATOM     92  C   UNL A   1      44.176  26.091  35.458  1.00  0.00     0.173 A 
ATOM     93  C   UNL A   1      45.693  27.861  34.864  1.00  0.00     0.173 A 
ATOM     94  F   UNL A   1      42.979  25.490  35.369  1.00  0.00    -0.203 F 
ATOM     95  C   UNL A   1      45.131  25.568  36.325  1.00  0.00     0.198 A 
ATOM     96  C   UNL A   1      46.655  27.319  35.711  1.00  0.00     0.198 A 
ATOM     97  F   UNL A   1      45.989  28.975  34.178  1.00  0.00    -0.203 F 
ATOM     98  F   UNL A   1      44.843  24.483  37.057  1.00  0.00    -0.200 F 
ATOM     99  C   UNL A   1      46.370  26.178  36.445  1.00  0.00     0.200 A 
ATOM    100  F   UNL A   1      47.856  27.904  35.820  1.00  0.00    -0.200 F 
ATOM    101  F   UNL A   1      47.289  25.671  37.280  1.00  0.00    -0.200 F 
ENDBRANCH  68  91
ENDBRANCH  42  43
ENDBRANCH  35  37
ENDBRANCH  34  35
ENDBRANCH  33  34
ENDBRANCH   1  33
TORSDOF 16
ENDMDL
MODEL 2
REMARK VINA RESULT:     -12.6      0.738      7.223
REMARK SMILES CCN1C(=O)[C@H](CC(=O)Nc2ccc(C(=O)OCCOC(=O)c3ccc(-c4c5nc(c(-c6c(F)c(F)c(F)c(F)c6F)c6ccc([nH]6)c(-c6c(F)c(F)c(F)c(F)c6F)c6nc(c(-c7c(F)c(F)c(F)c(F)c7F)c7ccc4[nH]7)C=C6)C=C5)cc3)cc2)S/C1=[NH+]\c1ccc(Cl)cc1
REMARK SMILES IDX 18 1 17 2 15 3 16 4 14 5 11 6 12 7 87 8 13 9 86 10 10 11
REMARK SMILES IDX 8 12 9 13 7 15 6 16 3 17 4 18 89 19 5 20 88 21 90 22 2 24
REMARK SMILES IDX 1 25 91 26 92 27 97 28 93 29 96 30 94 31 95 32 19 33 20 34
REMARK SMILES IDX 21 35 22 36 23 37 24 38 85 39 25 40 84 41 26 42 27 43 28 44
REMARK SMILES IDX 78 45 29 46 83 47 77 48 79 49 30 50 82 51 76 52 75 53 31 55
REMARK SMILES IDX 63 56 43 57 62 58 44 59 47 60 61 61 80 62 45 63 46 64 60 66
REMARK SMILES IDX 81 67 48 68 32 69 33 70 41 71 34 72 35 73 39 74 42 75 36 76
REMARK SMILES IDX 37 77 40 78 38 79 64 80 65 81 73 82 66 83 67 84 71 85 74 86
REMARK SMILES IDX 68 87 69 88 72 89 70 90 49 91 50 92 58 93 51 94 52 95 56 96
REMARK SMILES IDX 59 97 53 98 54 99 57 100 55 101
REMARK H PARENT 10 14 90 23 79 54 47 65
REMARK Flexibility Score: inf
ROOT
ATOM      1  C   UNL A   1      31.020  30.943  25.407  1.00  0.00     0.275 C 
ENDROOT
BRANCH   1   2
ATOM      2  O   UNL A   1      32.139  30.079  25.135  1.00  0.00    -0.458 OA
BRANCH   2   3
ATOM      3  C   UNL A   1      31.968  29.181  24.138  1.00  0.00     0.338 C 
ATOM      4  O   UNL A   1      32.096  29.351  22.935  1.00  0.00    -0.246 OA
BRANCH   3   5
ATOM      5  C   UNL A   1      31.493  27.928  24.732  1.00  0.00     0.060 A 
ATOM      6  C   UNL A   1      30.398  25.561  25.760  1.00  0.00     0.041 A 
ATOM      7  C   UNL A   1      31.454  26.199  26.422  1.00  0.00     0.027 A 
ATOM      8  C   UNL A   1      29.989  26.074  24.532  1.00  0.00     0.027 A 
ATOM      9  C   UNL A   1      32.007  27.378  25.907  1.00  0.00     0.018 A 
ATOM     10  C   UNL A   1      30.502  27.265  24.031  1.00  0.00     0.018 A 
BRANCH   6  11
ATOM     11  N   UNL A   1      29.791  24.483  26.427  1.00  0.00    -0.326 N 
ATOM     12  C   UNL A   1      30.253  23.338  27.005  1.00  0.00     0.226 C 
ATOM     13  O   UNL A   1      29.419  22.531  27.428  1.00  0.00    -0.275 OA
ATOM     14  H   UNL A   1      28.813  24.574  26.490  1.00  0.00     0.169 HD
BRANCH  12  15
ATOM     15  C   UNL A   1      31.724  23.030  27.171  1.00  0.00     0.128 C 
BRANCH  15  16
ATOM     16  C   UNL A   1      32.364  22.231  26.033  1.00  0.00     0.183 C 
ATOM     17  N   UNL A   1      33.336  23.081  23.982  1.00  0.00    -0.190 N 
ATOM     18  C   UNL A   1      32.151  22.739  24.620  1.00  0.00     0.324 C 
ATOM     19  C   UNL A   1      34.499  22.850  24.671  1.00  0.00     0.319 C 
ATOM     20  O   UNL A   1      31.041  22.818  24.103  1.00  0.00    -0.245 OA
ATOM     21  S   UNL A   1      34.173  22.127  26.228  1.00  0.00    -0.022 SA
ATOM     22  N   UNL A   1      35.656  23.155  24.190  1.00  0.00    -0.235 N 
ATOM     23  H   UNL A   1      35.682  23.667  23.349  1.00  0.00     0.313 HD
BRANCH  17  24
ATOM     24  C   UNL A   1      33.221  23.654  22.634  1.00  0.00     0.243 C 
ATOM     25  C   UNL A   1      33.189  25.164  22.461  1.00  0.00     0.054 C 
ENDBRANCH  17  24
BRANCH  22  26
ATOM     26  C   UNL A   1      36.876  22.811  24.780  1.00  0.00     0.125 A 
ATOM     27  C   UNL A   1      37.377  21.514  24.625  1.00  0.00     0.053 A 
ATOM     28  C   UNL A   1      37.500  23.668  25.695  1.00  0.00     0.053 A 
ATOM     29  C   UNL A   1      38.494  21.087  25.353  1.00  0.00     0.025 A 
ATOM     30  C   UNL A   1      38.621  23.252  26.417  1.00  0.00     0.025 A 
ATOM     31  C   UNL A   1      39.110  21.960  26.248  1.00  0.00     0.041 A 
ATOM     32  Cl  UNL A   1      40.459  21.430  27.175  1.00  0.00    -0.084 Cl
ENDBRANCH  22  26
ENDBRANCH  15  16
ENDBRANCH  12  15
ENDBRANCH   6  11
ENDBRANCH   3   5
ENDBRANCH   2   3
ENDBRANCH   1   2
BRANCH   1  33
ATOM     33  C   UNL A   1      31.361  31.951  26.500  1.00  0.00     0.275 C 
BRANCH  33  34
ATOM     34  O   UNL A   1      32.607  31.582  27.120  1.00  0.00    -0.458 OA
BRANCH  34  35
ATOM     35  C   UNL A   1      33.373  32.609  27.547  1.00  0.00     0.338 C 
ATOM     36  O   UNL A   1      33.041  33.769  27.724  1.00  0.00    -0.246 OA
BRANCH  35  37
ATOM     37  C   UNL A   1      34.710  32.115  27.915  1.00  0.00     0.060 A 
ATOM     38  C   UNL A   1      34.869  30.747  28.090  1.00  0.00     0.016 A 
ATOM     39  C   UNL A   1      35.728  32.979  28.299  1.00  0.00     0.016 A 
ATOM     40  C   UNL A   1      35.957  30.244  28.788  1.00  0.00     0.010 A 
ATOM     41  C   UNL A   1      36.902  32.453  28.860  1.00  0.00     0.010 A 
ATOM     42  C   UNL A   1      37.011  31.080  29.162  1.00  0.00    -0.014 A 
BRANCH  42  43
ATOM     43  C   UNL A   1      38.170  30.520  29.918  1.00  0.00     0.031 A 
ATOM     44  C   UNL A   1      38.324  30.828  31.386  1.00  0.00     0.074 A 
ATOM     45  C   UNL A   1      39.052  29.685  29.328  1.00  0.00     0.049 A 
ATOM     46  N   UNL A   1      39.368  30.670  32.160  1.00  0.00    -0.248 NA
ATOM     47  C   UNL A   1      37.156  31.402  32.071  1.00  0.00     0.031 C 
ATOM     48  C   UNL A   1      38.989  29.212  27.942  1.00  0.00     0.029 A 
ATOM     49  N   UNL A   1      40.172  29.062  29.828  1.00  0.00    -0.354 N 
ATOM     50  C   UNL A   1      39.009  31.202  33.393  1.00  0.00     0.074 A 
ATOM     51  C   UNL A   1      37.647  31.673  33.272  1.00  0.00     0.031 C 
ATOM     52  C   UNL A   1      39.968  28.322  27.728  1.00  0.00     0.029 A 
ATOM     53  C   UNL A   1      40.821  28.274  28.906  1.00  0.00     0.049 A 
ATOM     54  H   UNL A   1      40.479  29.169  30.757  1.00  0.00     0.167 HD
ATOM     55  C   UNL A   1      39.759  31.294  34.517  1.00  0.00     0.037 A 
ATOM     56  C   UNL A   1      42.009  27.642  28.968  1.00  0.00     0.037 A 
ATOM     57  C   UNL A   1      41.086  30.750  34.646  1.00  0.00     0.049 A 
ATOM     58  C   UNL A   1      42.844  27.802  30.206  1.00  0.00     0.074 A 
ATOM     59  C   UNL A   1      41.949  30.815  35.726  1.00  0.00     0.029 A 
ATOM     60  N   UNL A   1      41.726  30.005  33.666  1.00  0.00    -0.354 N 
ATOM     61  N   UNL A   1      42.559  28.431  31.319  1.00  0.00    -0.248 NA
ATOM     62  C   UNL A   1      44.183  27.199  30.180  1.00  0.00     0.031 C 
ATOM     63  C   UNL A   1      43.122  30.129  35.391  1.00  0.00     0.029 A 
ATOM     64  C   UNL A   1      42.973  29.602  34.118  1.00  0.00     0.049 A 
ATOM     65  H   UNL A   1      41.351  29.794  32.781  1.00  0.00     0.167 HD
ATOM     66  C   UNL A   1      43.677  28.294  32.130  1.00  0.00     0.074 A 
ATOM     67  C   UNL A   1      44.634  27.498  31.390  1.00  0.00     0.031 C 
ATOM     68  C   UNL A   1      43.898  28.794  33.369  1.00  0.00     0.037 A 
BRANCH  55  69
ATOM     69  C   UNL A   1      39.186  32.045  35.684  1.00  0.00     0.064 A 
ATOM     70  C   UNL A   1      38.370  31.427  36.642  1.00  0.00     0.173 A 
ATOM     71  C   UNL A   1      39.500  33.401  35.868  1.00  0.00     0.173 A 
ATOM     72  F   UNL A   1      38.025  30.138  36.504  1.00  0.00    -0.203 F 
ATOM     73  C   UNL A   1      37.878  32.143  37.731  1.00  0.00     0.198 A 
ATOM     74  C   UNL A   1      39.030  34.106  36.972  1.00  0.00     0.198 A 
ATOM     75  F   UNL A   1      40.280  34.040  34.982  1.00  0.00    -0.203 F 
ATOM     76  F   UNL A   1      37.068  31.543  38.615  1.00  0.00    -0.200 F 
ATOM     77  C   UNL A   1      38.214  33.478  37.899  1.00  0.00     0.200 A 
ATOM     78  F   UNL A   1      39.366  35.393  37.138  1.00  0.00    -0.200 F 
ATOM     79  F   UNL A   1      37.749  34.161  38.955  1.00  0.00    -0.200 F 
ENDBRANCH  55  69
BRANCH  56  80
ATOM     80  C   UNL A   1      42.519  26.881  27.794  1.00  0.00     0.064 A 
ATOM     81  C   UNL A   1      42.251  25.514  27.645  1.00  0.00     0.173 A 
ATOM     82  C   UNL A   1      43.302  27.500  26.806  1.00  0.00     0.173 A 
ATOM     83  F   UNL A   1      41.535  24.867  28.577  1.00  0.00    -0.203 F 
ATOM     84  C   UNL A   1      42.755  24.794  26.562  1.00  0.00     0.198 A 
ATOM     85  C   UNL A   1      43.771  26.789  25.704  1.00  0.00     0.198 A 
ATOM     86  F   UNL A   1      43.599  28.804  26.901  1.00  0.00    -0.203 F 
ATOM     87  F   UNL A   1      42.526  23.476  26.473  1.00  0.00    -0.200 F 
ATOM     88  C   UNL A   1      43.505  25.434  25.588  1.00  0.00     0.200 A 
ATOM     89  F   UNL A   1      44.482  27.417  24.757  1.00  0.00    -0.200 F 
ATOM     90  F   UNL A   1      43.983  24.743  24.544  1.00  0.00    -0.200 F 
ENDBRANCH  56  80
BRANCH  68  91
ATOM     91  C   UNL A   1      45.207  28.450  34.014  1.00  0.00     0.064 A 
ATOM     92  C   UNL A   1      46.329  29.280  33.884  1.00  0.00     0.173 A 
ATOM     93  C   UNL A   1      45.329  27.286  34.785  1.00  0.00     0.173 A 
ATOM     94  F   UNL A   1      46.264  30.394  33.139  1.00  0.00    -0.203 F 
ATOM     95  C   UNL A   1      47.538  28.940  34.483  1.00  0.00     0.198 A 
ATOM     96  C   UNL A   1      46.532  26.964  35.405  1.00  0.00     0.198 A 
ATOM     97  F   UNL A   1      44.280  26.463  34.940  1.00  0.00    -0.203 F 
ATOM     98  F   UNL A   1      48.613  29.720  34.305  1.00  0.00    -0.200 F 
ATOM     99  C   UNL A   1      47.637  27.787  35.247  1.00  0.00     0.200 A 
ATOM    100  F   UNL A   1      46.624  25.854  36.150  1.00  0.00    -0.200 F 
ATOM    101  F   UNL A   1      48.803  27.462  35.824  1.00  0.00    -0.200 F 
ENDBRANCH  68  91
ENDBRANCH  42  43
ENDBRANCH  35  37
ENDBRANCH  34  35
ENDBRANCH  33  34
ENDBRANCH   1  33
TORSDOF 16
ENDMDL
MODEL 3
REMARK VINA RESULT:     -12.6      1.821      3.098
REMARK SMILES CCN1C(=O)[C@H](CC(=O)Nc2ccc(C(=O)OCCOC(=O)c3ccc(-c4c5nc(c(-c6c(F)c(F)c(F)c(F)c6F)c6ccc([nH]6)c(-c6c(F)c(F)c(F)c(F)c6F)c6nc(c(-c7c(F)c(F)c(F)c(F)c7F)c7ccc4[nH]7)C=C6)C=C5)cc3)cc2)S/C1=[NH+]\c1ccc(Cl)cc1
REMARK SMILES IDX 18 1 17 2 15 3 16 4 14 5 11 6 12 7 87 8 13 9 86 10 10 11
REMARK SMILES IDX 8 12 9 13 7 15 6 16 3 17 4 18 89 19 5 20 88 21 90 22 2 24
REMARK SMILES IDX 1 25 91 26 92 27 97 28 93 29 96 30 94 31 95 32 19 33 20 34
REMARK SMILES IDX 21 35 22 36 23 37 24 38 85 39 25 40 84 41 26 42 27 43 28 44
REMARK SMILES IDX 78 45 29 46 83 47 77 48 79 49 30 50 82 51 76 52 75 53 31 55
REMARK SMILES IDX 63 56 43 57 62 58 44 59 47 60 61 61 80 62 45 63 46 64 60 66
REMARK SMILES IDX 81 67 48 68 32 69 33 70 41 71 34 72 35 73 39 74 42 75 36 76
REMARK SMILES IDX 37 77 40 78 38 79 64 80 65 81 73 82 66 83 67 84 71 85 74 86
REMARK SMILES IDX 68 87 69 88 72 89 70 90 49 91 50 92 58 93 51 94 52 95 56 96
REMARK SMILES IDX 59 97 53 98 54 99 57 100 55 101
REMARK H PARENT 10 14 90 23 79 54 47 65
REMARK Flexibility Score: inf
ROOT
ATOM      1  C   UNL A   1      31.043  29.711  24.880  1.00  0.00     0.275 C 
ENDROOT
BRANCH   1   2
ATOM      2  O   UNL A   1      30.853  29.369  23.495  1.00  0.00    -0.458 OA
BRANCH   2   3
ATOM      3  C   UNL A   1      30.227  28.195  23.253  1.00  0.00     0.338 C 
ATOM      4  O   UNL A   1      29.031  27.947  23.312  1.00  0.00    -0.246 OA
BRANCH   3   5
ATOM      5  C   UNL A   1      31.250  27.182  22.982  1.00  0.00     0.060 A 
ATOM      6  C   UNL A   1      33.095  25.107  22.590  1.00  0.00     0.041 A 
ATOM      7  C   UNL A   1      33.473  26.440  22.388  1.00  0.00     0.027 A 
ATOM      8  C   UNL A   1      31.759  24.843  22.882  1.00  0.00     0.027 A 
ATOM      9  C   UNL A   1      32.552  27.477  22.576  1.00  0.00     0.018 A 
ATOM     10  C   UNL A   1      30.846  25.865  23.111  1.00  0.00     0.018 A 
BRANCH   6  11
ATOM     11  N   UNL A   1      34.117  24.143  22.546  1.00  0.00    -0.326 N 
ATOM     12  C   UNL A   1      35.094  23.752  23.411  1.00  0.00     0.226 C 
ATOM     13  O   UNL A   1      35.916  22.920  23.012  1.00  0.00    -0.275 OA
ATOM     14  H   UNL A   1      34.131  23.639  21.701  1.00  0.00     0.169 HD
BRANCH  12  15
ATOM     15  C   UNL A   1      35.200  24.265  24.829  1.00  0.00     0.128 C 
BRANCH  15  16
ATOM     16  C   UNL A   1      34.386  23.496  25.873  1.00  0.00     0.183 C 
ATOM     17  N   UNL A   1      32.054  22.846  25.755  1.00  0.00    -0.190 N 
ATOM     18  C   UNL A   1      32.930  23.883  26.044  1.00  0.00     0.324 C 
ATOM     19  C   UNL A   1      32.612  21.634  25.437  1.00  0.00     0.319 C 
ATOM     20  O   UNL A   1      32.579  24.999  26.416  1.00  0.00    -0.245 OA
ATOM     21  S   UNL A   1      34.357  21.710  25.510  1.00  0.00    -0.022 SA
ATOM     22  N   UNL A   1      31.898  20.608  25.123  1.00  0.00    -0.235 N 
ATOM     23  H   UNL A   1      30.929  20.741  25.008  1.00  0.00     0.313 HD
BRANCH  17  24
ATOM     24  C   UNL A   1      30.619  23.151  25.822  1.00  0.00     0.243 C 
ATOM     25  C   UNL A   1      29.837  22.813  27.082  1.00  0.00     0.054 C 
ENDBRANCH  17  24
BRANCH  22  26
ATOM     26  C   UNL A   1      32.404  19.318  24.934  1.00  0.00     0.125 A 
ATOM     27  C   UNL A   1      32.709  18.526  26.046  1.00  0.00     0.053 A 
ATOM     28  C   UNL A   1      32.808  18.882  23.666  1.00  0.00     0.053 A 
ATOM     29  C   UNL A   1      33.387  17.310  25.893  1.00  0.00     0.025 A 
ATOM     30  C   UNL A   1      33.475  17.665  23.505  1.00  0.00     0.025 A 
ATOM     31  C   UNL A   1      33.767  16.886  24.621  1.00  0.00     0.041 A 
ATOM     32  Cl  UNL A   1      34.634  15.413  24.429  1.00  0.00    -0.084 Cl
ENDBRANCH  22  26
ENDBRANCH  15  16
ENDBRANCH  12  15
ENDBRANCH   6  11
ENDBRANCH   3   5
ENDBRANCH   2   3
ENDBRANCH   1   2
BRANCH   1  33
ATOM     33  C   UNL A   1      32.527  29.820  25.217  1.00  0.00     0.275 C 
BRANCH  33  34
ATOM     34  O   UNL A   1      32.689  29.915  26.643  1.00  0.00    -0.458 OA
BRANCH  34  35
ATOM     35  C   UNL A   1      33.196  31.083  27.096  1.00  0.00     0.338 C 
ATOM     36  O   UNL A   1      32.614  32.144  27.246  1.00  0.00    -0.246 OA
BRANCH  35  37
ATOM     37  C   UNL A   1      34.589  30.887  27.529  1.00  0.00     0.060 A 
ATOM     38  C   UNL A   1      35.003  29.594  27.813  1.00  0.00     0.016 A 
ATOM     39  C   UNL A   1      35.406  31.960  27.867  1.00  0.00     0.016 A 
ATOM     40  C   UNL A   1      36.142  29.365  28.571  1.00  0.00     0.010 A 
ATOM     41  C   UNL A   1      36.639  31.715  28.492  1.00  0.00     0.010 A 
ATOM     42  C   UNL A   1      37.000  30.415  28.902  1.00  0.00    -0.014 A 
BRANCH  42  43
ATOM     43  C   UNL A   1      38.217  30.148  29.724  1.00  0.00     0.031 A 
ATOM     44  C   UNL A   1      39.340  29.320  29.152  1.00  0.00     0.074 A 
ATOM     45  C   UNL A   1      38.365  30.691  30.952  1.00  0.00     0.049 A 
ATOM     46  N   UNL A   1      40.349  28.755  29.766  1.00  0.00    -0.248 NA
ATOM     47  C   UNL A   1      39.317  29.083  27.700  1.00  0.00     0.031 C 
ATOM     48  C   UNL A   1      37.415  31.594  31.609  1.00  0.00     0.029 A 
ATOM     49  N   UNL A   1      39.388  30.582  31.866  1.00  0.00    -0.354 N 
ATOM     50  C   UNL A   1      41.027  28.030  28.792  1.00  0.00     0.074 A 
ATOM     51  C   UNL A   1      40.327  28.238  27.544  1.00  0.00     0.031 C 
ATOM     52  C   UNL A   1      37.929  32.013  32.773  1.00  0.00     0.029 A 
ATOM     53  C   UNL A   1      39.171  31.296  33.021  1.00  0.00     0.049 A 
ATOM     54  H   UNL A   1      40.197  30.045  31.707  1.00  0.00     0.167 HD
ATOM     55  C   UNL A   1      42.128  27.256  28.939  1.00  0.00     0.037 A 
ATOM     56  C   UNL A   1      39.851  31.317  34.184  1.00  0.00     0.037 A 
ATOM     57  C   UNL A   1      42.860  27.122  30.172  1.00  0.00     0.049 A 
ATOM     58  C   UNL A   1      41.039  30.410  34.339  1.00  0.00     0.074 A 
ATOM     59  C   UNL A   1      43.969  26.339  30.441  1.00  0.00     0.029 A 
ATOM     60  N   UNL A   1      42.573  27.823  31.334  1.00  0.00    -0.354 N 
ATOM     61  N   UNL A   1      41.590  29.614  33.457  1.00  0.00    -0.248 NA
ATOM     62  C   UNL A   1      41.672  30.375  35.663  1.00  0.00     0.031 C 
ATOM     63  C   UNL A   1      44.338  26.549  31.775  1.00  0.00     0.029 A 
ATOM     64  C   UNL A   1      43.484  27.493  32.323  1.00  0.00     0.049 A 
ATOM     65  H   UNL A   1      41.830  28.461  31.441  1.00  0.00     0.167 HD
ATOM     66  C   UNL A   1      42.641  28.989  34.113  1.00  0.00     0.074 A 
ATOM     67  C   UNL A   1      42.665  29.520  35.461  1.00  0.00     0.031 C 
ATOM     68  C   UNL A   1      43.499  28.049  33.649  1.00  0.00     0.037 A 
BRANCH  55  69
ATOM     69  C   UNL A   1      42.588  26.458  27.753  1.00  0.00     0.064 A 
ATOM     70  C   UNL A   1      42.063  25.195  27.452  1.00  0.00     0.173 A 
ATOM     71  C   UNL A   1      43.542  26.997  26.873  1.00  0.00     0.173 A 
ATOM     72  F   UNL A   1      41.162  24.628  28.268  1.00  0.00    -0.203 F 
ATOM     73  C   UNL A   1      42.487  24.492  26.327  1.00  0.00     0.198 A 
ATOM     74  C   UNL A   1      43.944  26.305  25.735  1.00  0.00     0.198 A 
ATOM     75  F   UNL A   1      44.075  28.206  27.113  1.00  0.00    -0.203 F 
ATOM     76  F   UNL A   1      42.000  23.268  26.079  1.00  0.00    -0.200 F 
ATOM     77  C   UNL A   1      43.420  25.050  25.465  1.00  0.00     0.200 A 
ATOM     78  F   UNL A   1      44.836  26.852  24.899  1.00  0.00    -0.200 F 
ATOM     79  F   UNL A   1      43.818  24.377  24.376  1.00  0.00    -0.200 F 
ENDBRANCH  55  69
BRANCH  56  80
ATOM     80  C   UNL A   1      39.372  32.151  35.321  1.00  0.00     0.064 A 
ATOM     81  C   UNL A   1      38.518  31.623  36.298  1.00  0.00     0.173 A 
ATOM     82  C   UNL A   1      39.743  33.500  35.445  1.00  0.00     0.173 A 
ATOM     83  F   UNL A   1      38.108  30.348  36.210  1.00  0.00    -0.203 F 
ATOM     84  C   UNL A   1      38.046  32.412  37.346  1.00  0.00     0.198 A 
ATOM     85  C   UNL A   1      39.303  34.276  36.514  1.00  0.00     0.198 A 
ATOM     86  F   UNL A   1      40.551  34.062  34.534  1.00  0.00    -0.203 F 
ATOM     87  F   UNL A   1      37.188  31.894  38.237  1.00  0.00    -0.200 F 
ATOM     88  C   UNL A   1      38.445  33.734  37.459  1.00  0.00     0.200 A 
ATOM     89  F   UNL A   1      39.706  35.549  36.626  1.00  0.00    -0.200 F 
ATOM     90  F   UNL A   1      37.996  34.490  38.469  1.00  0.00    -0.200 F 
ENDBRANCH  56  80
BRANCH  68  91
ATOM     91  C   UNL A   1      44.561  27.577  34.595  1.00  0.00     0.064 A 
ATOM     92  C   UNL A   1      44.361  26.467  35.427  1.00  0.00     0.173 A 
ATOM     93  C   UNL A   1      45.798  28.235  34.652  1.00  0.00     0.173 A 
ATOM     94  F   UNL A   1      43.186  25.820  35.421  1.00  0.00    -0.203 F 
ATOM     95  C   UNL A   1      45.357  26.048  36.305  1.00  0.00     0.198 A 
ATOM     96  C   UNL A   1      46.800  27.795  35.512  1.00  0.00     0.198 A 
ATOM     97  F   UNL A   1      46.035  29.300  33.872  1.00  0.00    -0.203 F 
ATOM     98  F   UNL A   1      45.128  25.016  37.129  1.00  0.00    -0.200 F 
ATOM     99  C   UNL A   1      46.576  26.708  36.342  1.00  0.00     0.200 A 
ATOM    100  F   UNL A   1      47.981  28.428  35.540  1.00  0.00    -0.200 F 
ATOM    101  F   UNL A   1      47.533  26.301  37.188  1.00  0.00    -0.200 F 
ENDBRANCH  68  91
ENDBRANCH  42  43
ENDBRANCH  35  37
ENDBRANCH  34  35
ENDBRANCH  33  34
ENDBRANCH   1  33
TORSDOF 16
ENDMDL
