MODEL 1
REMARK VINA RESULT:     -12.4      0.000      0.000
REMARK SMILES Cc1ccc(C(=O)N2CCC(CC(=O)OCCOC(=O)c3ccc(-c4c5nc(c(-c6c(F)c(F)c(F)c(F)c6F)c6ccc([nH]6)c(-c6c(F)c(F)c(F)c(F)c6F)c6nc(c(-c7c(F)c(F)c(F)c(F)c7F)c7ccc4[nH]7)C=C6)C=C5)cc3)CC2)cn1
REMARK SMILES IDX 16 1 15 2 13 3 14 4 12 5 11 6 6 7 7 8 8 9 9 10 85 11 10 12
REMARK SMILES IDX 84 13 5 14 1 15 2 16 3 17 87 18 4 19 86 20 17 21 18 22 19 23
REMARK SMILES IDX 20 24 21 25 22 26 83 27 23 28 82 29 24 30 25 31 26 32 76 33
REMARK SMILES IDX 27 34 81 35 75 36 77 37 28 38 80 39 74 40 73 41 29 43 61 44
REMARK SMILES IDX 41 45 60 46 42 47 45 48 59 49 78 50 43 51 44 52 58 54 79 55
REMARK SMILES IDX 46 56 30 57 31 58 39 59 32 60 33 61 37 62 40 63 34 64 35 65
REMARK SMILES IDX 38 66 36 67 62 68 63 69 71 70 64 71 65 72 69 73 72 74 66 75
REMARK SMILES IDX 67 76 70 77 68 78 47 79 48 80 56 81 49 82 50 83 54 84 57 85
REMARK SMILES IDX 51 86 52 87 55 88 53 89
REMARK H PARENT 77 42 45 53
REMARK Flexibility Score: inf
ROOT
ATOM      1  C   UNL A   1      33.242  29.013  24.914  1.00  0.00     0.274 C 
ENDROOT
BRANCH   1   2
ATOM      2  O   UNL A   1      33.590  29.287  23.543  1.00  0.00    -0.462 OA
BRANCH   2   3
ATOM      3  C   UNL A   1      33.674  28.232  22.696  1.00  0.00     0.306 C 
ATOM      4  O   UNL A   1      34.328  28.217  21.660  1.00  0.00    -0.252 OA
BRANCH   3   5
ATOM      5  C   UNL A   1      32.811  27.067  23.141  1.00  0.00     0.126 C 
BRANCH   5   6
ATOM      6  C   UNL A   1      33.441  25.675  22.961  1.00  0.00     0.003 C 
ATOM      7  C   UNL A   1      33.190  22.096  24.685  1.00  0.00     0.255 C 
ATOM      8  O   UNL A   1      32.805  22.568  25.750  1.00  0.00    -0.269 OA
ATOM      9  N   UNL A   1      33.735  22.875  23.675  1.00  0.00    -0.339 N 
ATOM     10  C   UNL A   1      34.769  23.826  24.038  1.00  0.00     0.120 C 
ATOM     11  C   UNL A   1      32.947  23.210  22.498  1.00  0.00     0.120 C 
ATOM     12  C   UNL A   1      34.198  25.223  24.222  1.00  0.00     0.026 C 
ATOM     13  C   UNL A   1      32.363  24.625  22.606  1.00  0.00     0.026 C 
BRANCH   7  14
ATOM     14  C   UNL A   1      33.267  20.625  24.497  1.00  0.00     0.058 A 
ATOM     15  C   UNL A   1      34.036  16.536  23.601  1.00  0.00     0.066 C 
ATOM     16  C   UNL A   1      33.712  17.955  23.958  1.00  0.00     0.037 A 
ATOM     17  C   UNL A   1      32.509  18.534  23.565  1.00  0.00     0.024 A 
ATOM     18  N   UNL A   1      34.669  18.649  24.618  1.00  0.00    -0.261 NA
ATOM     19  C   UNL A   1      32.286  19.883  23.839  1.00  0.00     0.017 A 
ATOM     20  C   UNL A   1      34.430  19.962  24.869  1.00  0.00     0.125 A 
ENDBRANCH   7  14
ENDBRANCH   5   6
ENDBRANCH   3   5
ENDBRANCH   2   3
ENDBRANCH   1   2
BRANCH   1  21
ATOM     21  C   UNL A   1      32.343  30.104  25.500  1.00  0.00     0.275 C 
BRANCH  21  22
ATOM     22  O   UNL A   1      32.585  30.272  26.909  1.00  0.00    -0.458 OA
BRANCH  22  23
ATOM     23  C   UNL A   1      33.259  31.394  27.247  1.00  0.00     0.338 C 
ATOM     24  O   UNL A   1      32.843  32.540  27.238  1.00  0.00    -0.246 OA
BRANCH  23  25
ATOM     25  C   UNL A   1      34.586  31.034  27.775  1.00  0.00     0.060 A 
ATOM     26  C   UNL A   1      34.809  29.699  28.125  1.00  0.00     0.016 A 
ATOM     27  C   UNL A   1      35.568  32.000  27.993  1.00  0.00     0.016 A 
ATOM     28  C   UNL A   1      36.014  29.327  28.715  1.00  0.00     0.010 A 
ATOM     29  C   UNL A   1      36.779  31.626  28.587  1.00  0.00     0.010 A 
ATOM     30  C   UNL A   1      36.997  30.291  28.970  1.00  0.00    -0.014 A 
BRANCH  30  31
ATOM     31  C   UNL A   1      38.220  29.898  29.711  1.00  0.00     0.031 A 
ATOM     32  C   UNL A   1      38.447  30.422  31.099  1.00  0.00     0.074 A 
ATOM     33  C   UNL A   1      39.094  29.035  29.162  1.00  0.00     0.049 A 
ATOM     34  N   UNL A   1      39.440  30.193  31.921  1.00  0.00    -0.248 NA
ATOM     35  C   UNL A   1      37.416  31.324  31.638  1.00  0.00     0.031 C 
ATOM     36  C   UNL A   1      38.965  28.434  27.836  1.00  0.00     0.029 A 
ATOM     37  N   UNL A   1      40.260  28.510  29.658  1.00  0.00    -0.354 N 
ATOM     38  C   UNL A   1      39.158  30.923  33.067  1.00  0.00     0.074 A 
ATOM     39  C   UNL A   1      37.915  31.625  32.828  1.00  0.00     0.031 C 
ATOM     40  C   UNL A   1      40.007  27.614  27.625  1.00  0.00     0.029 A 
ATOM     41  C   UNL A   1      40.891  27.656  28.789  1.00  0.00     0.049 A 
ATOM     42  H   UNL A   1      40.611  28.725  30.553  1.00  0.00     0.167 HD
ATOM     43  C   UNL A   1      39.867  30.991  34.219  1.00  0.00     0.037 A 
ATOM     44  C   UNL A   1      42.056  26.993  28.916  1.00  0.00     0.037 A 
ATOM     45  C   UNL A   1      41.099  30.288  34.461  1.00  0.00     0.049 A 
ATOM     46  C   UNL A   1      42.852  27.131  30.186  1.00  0.00     0.074 A 
ATOM     47  C   UNL A   1      41.881  30.283  35.603  1.00  0.00     0.029 A 
ATOM     48  N   UNL A   1      41.729  29.464  33.541  1.00  0.00    -0.354 N 
ATOM     49  N   UNL A   1      42.568  27.809  31.271  1.00  0.00    -0.248 NA
ATOM     50  C   UNL A   1      44.131  26.409  30.247  1.00  0.00     0.031 C 
ATOM     51  C   UNL A   1      43.006  29.485  35.359  1.00  0.00     0.029 A 
ATOM     52  C   UNL A   1      42.903  28.962  34.081  1.00  0.00     0.049 A 
ATOM     53  H   UNL A   1      41.393  29.265  32.637  1.00  0.00     0.167 HD
ATOM     54  C   UNL A   1      43.619  27.583  32.148  1.00  0.00     0.074 A 
ATOM     55  C   UNL A   1      44.540  26.690  31.477  1.00  0.00     0.031 C 
ATOM     56  C   UNL A   1      43.807  28.073  33.398  1.00  0.00     0.037 A 
BRANCH  43  57
ATOM     57  C   UNL A   1      39.333  31.878  35.305  1.00  0.00     0.064 A 
ATOM     58  C   UNL A   1      38.520  31.373  36.331  1.00  0.00     0.173 A 
ATOM     59  C   UNL A   1      39.666  33.239  35.338  1.00  0.00     0.173 A 
ATOM     60  F   UNL A   1      38.162  30.080  36.334  1.00  0.00    -0.203 F 
ATOM     61  C   UNL A   1      38.043  32.206  37.340  1.00  0.00     0.198 A 
ATOM     62  C   UNL A   1      39.206  34.064  36.362  1.00  0.00     0.198 A 
ATOM     63  F   UNL A   1      40.443  33.770  34.381  1.00  0.00    -0.203 F 
ATOM     64  F   UNL A   1      37.235  31.711  38.288  1.00  0.00    -0.200 F 
ATOM     65  C   UNL A   1      38.391  33.548  37.358  1.00  0.00     0.200 A 
ATOM     66  F   UNL A   1      39.551  35.359  36.383  1.00  0.00    -0.200 F 
ATOM     67  F   UNL A   1      37.934  34.347  38.332  1.00  0.00    -0.200 F 
ENDBRANCH  43  57
BRANCH  44  68
ATOM     68  C   UNL A   1      42.547  26.139  27.803  1.00  0.00     0.064 A 
ATOM     69  C   UNL A   1      43.464  26.632  26.866  1.00  0.00     0.173 A 
ATOM     70  C   UNL A   1      42.098  24.820  27.650  1.00  0.00     0.173 A 
ATOM     71  F   UNL A   1      43.901  27.897  26.957  1.00  0.00    -0.203 F 
ATOM     72  C   UNL A   1      43.903  25.841  25.805  1.00  0.00     0.198 A 
ATOM     73  C   UNL A   1      42.556  24.022  26.603  1.00  0.00     0.198 A 
ATOM     74  F   UNL A   1      41.217  24.304  28.518  1.00  0.00    -0.203 F 
ATOM     75  F   UNL A   1      44.746  26.350  24.897  1.00  0.00    -0.200 F 
ATOM     76  C   UNL A   1      43.452  24.536  25.679  1.00  0.00     0.200 A 
ATOM     77  F   UNL A   1      42.124  22.759  26.489  1.00  0.00    -0.200 F 
ATOM     78  F   UNL A   1      43.875  23.775  24.659  1.00  0.00    -0.200 F 
ENDBRANCH  44  68
BRANCH  56  79
ATOM     79  C   UNL A   1      45.045  27.640  34.125  1.00  0.00     0.064 A 
ATOM     80  C   UNL A   1      46.233  28.381  34.054  1.00  0.00     0.173 A 
ATOM     81  C   UNL A   1      45.034  26.489  34.927  1.00  0.00     0.173 A 
ATOM     82  F   UNL A   1      46.298  29.480  33.287  1.00  0.00    -0.203 F 
ATOM     83  C   UNL A   1      47.373  27.973  34.741  1.00  0.00     0.198 A 
ATOM     84  C   UNL A   1      46.169  26.098  35.633  1.00  0.00     0.198 A 
ATOM     85  F   UNL A   1      43.920  25.749  35.033  1.00  0.00    -0.203 F 
ATOM     86  F   UNL A   1      48.511  28.673  34.625  1.00  0.00    -0.200 F 
ATOM     87  C   UNL A   1      47.339  26.836  35.534  1.00  0.00     0.200 A 
ATOM     88  F   UNL A   1      46.130  25.004  36.408  1.00  0.00    -0.200 F 
ATOM     89  F   UNL A   1      48.435  26.446  36.197  1.00  0.00    -0.200 F 
ENDBRANCH  56  79
ENDBRANCH  30  31
ENDBRANCH  23  25
ENDBRANCH  22  23
ENDBRANCH  21  22
ENDBRANCH   1  21
TORSDOF 13
ENDMDL
MODEL 2
REMARK VINA RESULT:     -12.3      4.390      9.871
REMARK SMILES Cc1ccc(C(=O)N2CCC(CC(=O)OCCOC(=O)c3ccc(-c4c5nc(c(-c6c(F)c(F)c(F)c(F)c6F)c6ccc([nH]6)c(-c6c(F)c(F)c(F)c(F)c6F)c6nc(c(-c7c(F)c(F)c(F)c(F)c7F)c7ccc4[nH]7)C=C6)C=C5)cc3)CC2)cn1
REMARK SMILES IDX 16 1 15 2 13 3 14 4 12 5 11 6 6 7 7 8 8 9 9 10 85 11 10 12
REMARK SMILES IDX 84 13 5 14 1 15 2 16 3 17 87 18 4 19 86 20 17 21 18 22 19 23
REMARK SMILES IDX 20 24 21 25 22 26 83 27 23 28 82 29 24 30 25 31 26 32 76 33
REMARK SMILES IDX 27 34 81 35 75 36 77 37 28 38 80 39 74 40 73 41 29 43 61 44
REMARK SMILES IDX 41 45 60 46 42 47 45 48 59 49 78 50 43 51 44 52 58 54 79 55
REMARK SMILES IDX 46 56 30 57 31 58 39 59 32 60 33 61 37 62 40 63 34 64 35 65
REMARK SMILES IDX 38 66 36 67 62 68 63 69 71 70 64 71 65 72 69 73 72 74 66 75
REMARK SMILES IDX 67 76 70 77 68 78 47 79 48 80 56 81 49 82 50 83 54 84 57 85
REMARK SMILES IDX 51 86 52 87 55 88 53 89
REMARK H PARENT 77 42 45 53
REMARK Flexibility Score: inf
ROOT
ATOM      1  C   UNL A   1      36.031  20.261  25.001  1.00  0.00     0.274 C 
ENDROOT
BRANCH   1   2
ATOM      2  O   UNL A   1      35.530  21.553  24.606  1.00  0.00    -0.462 OA
BRANCH   2   3
ATOM      3  C   UNL A   1      34.562  22.109  25.374  1.00  0.00     0.306 C 
ATOM      4  O   UNL A   1      33.420  21.679  25.482  1.00  0.00    -0.252 OA
BRANCH   3   5
ATOM      5  C   UNL A   1      35.029  23.381  26.057  1.00  0.00     0.126 C 
BRANCH   5   6
ATOM      6  C   UNL A   1      34.402  24.682  25.527  1.00  0.00     0.003 C 
ATOM      7  C   UNL A   1      31.238  25.739  23.354  1.00  0.00     0.255 C 
ATOM      8  O   UNL A   1      31.173  24.644  22.805  1.00  0.00    -0.269 OA
ATOM      9  N   UNL A   1      32.344  26.143  24.090  1.00  0.00    -0.339 N 
ATOM     10  C   UNL A   1      33.653  25.964  23.492  1.00  0.00     0.120 C 
ATOM     11  C   UNL A   1      32.301  26.138  25.545  1.00  0.00     0.120 C 
ATOM     12  C   UNL A   1      34.321  24.692  23.990  1.00  0.00     0.026 C 
ATOM     13  C   UNL A   1      32.987  24.889  26.115  1.00  0.00     0.026 C 
BRANCH   7  14
ATOM     14  C   UNL A   1      30.203  26.774  23.099  1.00  0.00     0.058 A 
ATOM     15  C   UNL A   1      27.666  30.161  22.656  1.00  0.00     0.066 C 
ATOM     16  C   UNL A   1      28.513  28.930  22.775  1.00  0.00     0.037 A 
ATOM     17  C   UNL A   1      28.072  27.828  23.501  1.00  0.00     0.024 A 
ATOM     18  N   UNL A   1      29.738  28.978  22.200  1.00  0.00    -0.261 NA
ATOM     19  C   UNL A   1      28.928  26.739  23.663  1.00  0.00     0.017 A 
ATOM     20  C   UNL A   1      30.554  27.906  22.376  1.00  0.00     0.125 A 
ENDBRANCH   7  14
ENDBRANCH   5   6
ENDBRANCH   3   5
ENDBRANCH   2   3
ENDBRANCH   1   2
BRANCH   1  21
ATOM     21  C   UNL A   1      37.557  20.192  24.908  1.00  0.00     0.275 C 
BRANCH  21  22
ATOM     22  O   UNL A   1      38.163  21.380  25.450  1.00  0.00    -0.458 OA
BRANCH  22  23
ATOM     23  C   UNL A   1      39.316  21.180  26.126  1.00  0.00     0.338 C 
ATOM     24  O   UNL A   1      39.951  20.142  26.220  1.00  0.00    -0.246 OA
BRANCH  23  25
ATOM     25  C   UNL A   1      39.805  22.462  26.660  1.00  0.00     0.060 A 
ATOM     26  C   UNL A   1      39.269  23.638  26.127  1.00  0.00     0.016 A 
ATOM     27  C   UNL A   1      40.825  22.512  27.612  1.00  0.00     0.016 A 
ATOM     28  C   UNL A   1      39.766  24.874  26.531  1.00  0.00     0.010 A 
ATOM     29  C   UNL A   1      41.324  23.755  28.017  1.00  0.00     0.010 A 
ATOM     30  C   UNL A   1      40.811  24.940  27.462  1.00  0.00    -0.014 A 
BRANCH  30  31
ATOM     31  C   UNL A   1      41.409  26.258  27.785  1.00  0.00     0.031 A 
ATOM     32  C   UNL A   1      42.800  26.576  27.319  1.00  0.00     0.074 A 
ATOM     33  C   UNL A   1      40.690  27.182  28.447  1.00  0.00     0.049 A 
ATOM     34  N   UNL A   1      43.501  27.669  27.484  1.00  0.00    -0.248 NA
ATOM     35  C   UNL A   1      43.496  25.523  26.562  1.00  0.00     0.031 C 
ATOM     36  C   UNL A   1      39.319  27.001  28.922  1.00  0.00     0.029 A 
ATOM     37  N   UNL A   1      41.012  28.459  28.827  1.00  0.00    -0.354 N 
ATOM     38  C   UNL A   1      44.718  27.435  26.859  1.00  0.00     0.074 A 
ATOM     39  C   UNL A   1      44.673  26.088  26.333  1.00  0.00     0.031 C 
ATOM     40  C   UNL A   1      38.913  28.131  29.524  1.00  0.00     0.029 A 
ATOM     41  C   UNL A   1      40.005  29.102  29.502  1.00  0.00     0.049 A 
ATOM     42  H   UNL A   1      41.883  28.877  28.634  1.00  0.00     0.167 HD
ATOM     43  C   UNL A   1      45.772  28.275  26.725  1.00  0.00     0.037 A 
ATOM     44  C   UNL A   1      39.974  30.332  30.051  1.00  0.00     0.037 A 
ATOM     45  C   UNL A   1      45.815  29.618  27.240  1.00  0.00     0.049 A 
ATOM     46  C   UNL A   1      41.181  31.224  29.935  1.00  0.00     0.074 A 
ATOM     47  C   UNL A   1      46.834  30.549  27.141  1.00  0.00     0.029 A 
ATOM     48  N   UNL A   1      44.791  30.220  27.955  1.00  0.00    -0.354 N 
ATOM     49  N   UNL A   1      42.320  31.001  29.326  1.00  0.00    -0.248 NA
ATOM     50  C   UNL A   1      41.096  32.540  30.584  1.00  0.00     0.031 C 
ATOM     51  C   UNL A   1      46.441  31.703  27.830  1.00  0.00     0.029 A 
ATOM     52  C   UNL A   1      45.162  31.504  28.322  1.00  0.00     0.049 A 
ATOM     53  H   UNL A   1      43.928  29.798  28.170  1.00  0.00     0.167 HD
ATOM     54  C   UNL A   1      43.078  32.150  29.501  1.00  0.00     0.074 A 
ATOM     55  C   UNL A   1      42.264  33.077  30.259  1.00  0.00     0.031 C 
ATOM     56  C   UNL A   1      44.338  32.413  29.076  1.00  0.00     0.037 A 
BRANCH  43  57
ATOM     57  C   UNL A   1      46.981  27.754  26.004  1.00  0.00     0.064 A 
ATOM     58  C   UNL A   1      48.064  27.194  26.697  1.00  0.00     0.173 A 
ATOM     59  C   UNL A   1      47.040  27.785  24.604  1.00  0.00     0.173 A 
ATOM     60  F   UNL A   1      48.059  27.156  28.039  1.00  0.00    -0.203 F 
ATOM     61  C   UNL A   1      49.173  26.703  26.014  1.00  0.00     0.198 A 
ATOM     62  C   UNL A   1      48.141  27.272  23.923  1.00  0.00     0.198 A 
ATOM     63  F   UNL A   1      46.028  28.308  23.895  1.00  0.00    -0.203 F 
ATOM     64  F   UNL A   1      50.214  26.208  26.699  1.00  0.00    -0.200 F 
ATOM     65  C   UNL A   1      49.208  26.736  24.629  1.00  0.00     0.200 A 
ATOM     66  F   UNL A   1      48.170  27.297  22.583  1.00  0.00    -0.200 F 
ATOM     67  F   UNL A   1      50.275  26.259  23.972  1.00  0.00    -0.200 F 
ENDBRANCH  43  57
BRANCH  44  68
ATOM     68  C   UNL A   1      38.757  30.794  30.766  1.00  0.00     0.064 A 
ATOM     69  C   UNL A   1      37.696  31.391  30.073  1.00  0.00     0.173 A 
ATOM     70  C   UNL A   1      38.638  30.660  32.157  1.00  0.00     0.173 A 
ATOM     71  F   UNL A   1      37.776  31.564  28.745  1.00  0.00    -0.203 F 
ATOM     72  C   UNL A   1      36.566  31.851  30.747  1.00  0.00     0.198 A 
ATOM     73  C   UNL A   1      37.498  31.098  32.826  1.00  0.00     0.198 A 
ATOM     74  F   UNL A   1      39.630  30.100  32.865  1.00  0.00    -0.203 F 
ATOM     75  F   UNL A   1      35.584  32.457  30.067  1.00  0.00    -0.200 F 
ATOM     76  C   UNL A   1      36.466  31.699  32.122  1.00  0.00     0.200 A 
ATOM     77  F   UNL A   1      37.403  30.943  34.154  1.00  0.00    -0.200 F 
ATOM     78  F   UNL A   1      35.379  32.142  32.769  1.00  0.00    -0.200 F 
ENDBRANCH  44  68
BRANCH  56  79
ATOM     79  C   UNL A   1      44.904  33.763  29.405  1.00  0.00     0.064 A 
ATOM     80  C   UNL A   1      45.645  33.981  30.576  1.00  0.00     0.173 A 
ATOM     81  C   UNL A   1      44.731  34.841  28.525  1.00  0.00     0.173 A 
ATOM     82  F   UNL A   1      45.824  32.984  31.456  1.00  0.00    -0.203 F 
ATOM     83  C   UNL A   1      46.173  35.236  30.865  1.00  0.00     0.198 A 
ATOM     84  C   UNL A   1      45.282  36.089  28.805  1.00  0.00     0.198 A 
ATOM     85  F   UNL A   1      44.036  34.683  27.389  1.00  0.00    -0.203 F 
ATOM     86  F   UNL A   1      46.841  35.433  32.010  1.00  0.00    -0.200 F 
ATOM     87  C   UNL A   1      45.996  36.287  29.977  1.00  0.00     0.200 A 
ATOM     88  F   UNL A   1      45.119  37.101  27.941  1.00  0.00    -0.200 F 
ATOM     89  F   UNL A   1      46.508  37.494  30.255  1.00  0.00    -0.200 F 
ENDBRANCH  56  79
ENDBRANCH  30  31
ENDBRANCH  23  25
ENDBRANCH  22  23
ENDBRANCH  21  22
ENDBRANCH   1  21
TORSDOF 13
ENDMDL
MODEL 3
REMARK VINA RESULT:     -12.2      4.320      9.817
REMARK SMILES Cc1ccc(C(=O)N2CCC(CC(=O)OCCOC(=O)c3ccc(-c4c5nc(c(-c6c(F)c(F)c(F)c(F)c6F)c6ccc([nH]6)c(-c6c(F)c(F)c(F)c(F)c6F)c6nc(c(-c7c(F)c(F)c(F)c(F)c7F)c7ccc4[nH]7)C=C6)C=C5)cc3)CC2)cn1
REMARK SMILES IDX 16 1 15 2 13 3 14 4 12 5 11 6 6 7 7 8 8 9 9 10 85 11 10 12
REMARK SMILES IDX 84 13 5 14 1 15 2 16 3 17 87 18 4 19 86 20 17 21 18 22 19 23
REMARK SMILES IDX 20 24 21 25 22 26 83 27 23 28 82 29 24 30 25 31 26 32 76 33
REMARK SMILES IDX 27 34 81 35 75 36 77 37 28 38 80 39 74 40 73 41 29 43 61 44
REMARK SMILES IDX 41 45 60 46 42 47 45 48 59 49 78 50 43 51 44 52 58 54 79 55
REMARK SMILES IDX 46 56 30 57 31 58 39 59 32 60 33 61 37 62 40 63 34 64 35 65
REMARK SMILES IDX 38 66 36 67 62 68 63 69 71 70 64 71 65 72 69 73 72 74 66 75
REMARK SMILES IDX 67 76 70 77 68 78 47 79 48 80 56 81 49 82 50 83 54 84 57 85
REMARK SMILES IDX 51 86 52 87 55 88 53 89
REMARK H PARENT 77 42 45 53
REMARK Flexibility Score: inf
ROOT
ATOM      1  C   UNL A   1      36.022  20.257  25.051  1.00  0.00     0.274 C 
ENDROOT
BRANCH   1   2
ATOM      2  O   UNL A   1      35.275  21.398  24.587  1.00  0.00    -0.462 OA
BRANCH   2   3
ATOM      3  C   UNL A   1      34.553  22.088  25.504  1.00  0.00     0.306 C 
ATOM      4  O   UNL A   1      33.473  21.730  25.958  1.00  0.00    -0.252 OA
BRANCH   3   5
ATOM      5  C   UNL A   1      35.206  23.406  25.877  1.00  0.00     0.126 C 
BRANCH   5   6
ATOM      6  C   UNL A   1      34.573  24.656  25.241  1.00  0.00     0.003 C 
ATOM      7  C   UNL A   1      31.170  25.614  23.412  1.00  0.00     0.255 C 
ATOM      8  O   UNL A   1      30.961  24.457  23.061  1.00  0.00    -0.269 OA
ATOM      9  N   UNL A   1      32.397  26.037  23.903  1.00  0.00    -0.339 N 
ATOM     10  C   UNL A   1      33.586  25.670  23.158  1.00  0.00     0.120 C 
ATOM     11  C   UNL A   1      32.582  26.256  25.331  1.00  0.00     0.120 C 
ATOM     12  C   UNL A   1      34.255  24.440  23.751  1.00  0.00     0.026 C 
ATOM     13  C   UNL A   1      33.281  25.059  25.988  1.00  0.00     0.026 C 
BRANCH   7  14
ATOM     14  C   UNL A   1      30.164  26.674  23.147  1.00  0.00     0.058 A 
ATOM     15  C   UNL A   1      27.732  30.131  22.654  1.00  0.00     0.066 C 
ATOM     16  C   UNL A   1      28.540  28.876  22.793  1.00  0.00     0.037 A 
ATOM     17  C   UNL A   1      28.080  27.813  23.564  1.00  0.00     0.024 A 
ATOM     18  N   UNL A   1      29.751  28.864  22.188  1.00  0.00    -0.261 NA
ATOM     19  C   UNL A   1      28.902  26.700  23.741  1.00  0.00     0.017 A 
ATOM     20  C   UNL A   1      30.535  27.771  22.380  1.00  0.00     0.125 A 
ENDBRANCH   7  14
ENDBRANCH   5   6
ENDBRANCH   3   5
ENDBRANCH   2   3
ENDBRANCH   1   2
BRANCH   1  21
ATOM     21  C   UNL A   1      37.519  20.406  24.770  1.00  0.00     0.275 C 
BRANCH  21  22
ATOM     22  O   UNL A   1      38.068  21.533  25.476  1.00  0.00    -0.458 OA
BRANCH  22  23
ATOM     23  C   UNL A   1      39.225  21.293  26.132  1.00  0.00     0.338 C 
ATOM     24  O   UNL A   1      39.839  20.241  26.190  1.00  0.00    -0.246 OA
BRANCH  23  25
ATOM     25  C   UNL A   1      39.747  22.551  26.691  1.00  0.00     0.060 A 
ATOM     26  C   UNL A   1      39.221  23.751  26.204  1.00  0.00     0.016 A 
ATOM     27  C   UNL A   1      40.786  22.556  27.623  1.00  0.00     0.016 A 
ATOM     28  C   UNL A   1      39.747  24.966  26.633  1.00  0.00     0.010 A 
ATOM     29  C   UNL A   1      41.316  23.778  28.053  1.00  0.00     0.010 A 
ATOM     30  C   UNL A   1      40.812  24.987  27.543  1.00  0.00    -0.014 A 
BRANCH  30  31
ATOM     31  C   UNL A   1      41.439  26.285  27.891  1.00  0.00     0.031 A 
ATOM     32  C   UNL A   1      42.833  26.585  27.423  1.00  0.00     0.074 A 
ATOM     33  C   UNL A   1      40.743  27.208  28.579  1.00  0.00     0.049 A 
ATOM     34  N   UNL A   1      43.558  27.659  27.608  1.00  0.00    -0.248 NA
ATOM     35  C   UNL A   1      43.503  25.535  26.638  1.00  0.00     0.031 C 
ATOM     36  C   UNL A   1      39.372  27.045  29.058  1.00  0.00     0.029 A 
ATOM     37  N   UNL A   1      41.094  28.471  28.984  1.00  0.00    -0.354 N 
ATOM     38  C   UNL A   1      44.766  27.414  26.969  1.00  0.00     0.074 A 
ATOM     39  C   UNL A   1      44.690  26.080  26.414  1.00  0.00     0.031 C 
ATOM     40  C   UNL A   1      38.993  28.170  29.688  1.00  0.00     0.029 A 
ATOM     41  C   UNL A   1      40.105  29.119  29.680  1.00  0.00     0.049 A 
ATOM     42  H   UNL A   1      41.972  28.874  28.794  1.00  0.00     0.167 HD
ATOM     43  C   UNL A   1      45.836  28.235  26.847  1.00  0.00     0.037 A 
ATOM     44  C   UNL A   1      40.103  30.336  30.256  1.00  0.00     0.037 A 
ATOM     45  C   UNL A   1      45.911  29.564  27.391  1.00  0.00     0.049 A 
ATOM     46  C   UNL A   1      41.328  31.205  30.152  1.00  0.00     0.074 A 
ATOM     47  C   UNL A   1      46.948  30.477  27.306  1.00  0.00     0.029 A 
ATOM     48  N   UNL A   1      44.904  30.172  28.126  1.00  0.00    -0.354 N 
ATOM     49  N   UNL A   1      42.458  30.973  29.531  1.00  0.00    -0.248 NA
ATOM     50  C   UNL A   1      41.274  32.508  30.831  1.00  0.00     0.031 C 
ATOM     51  C   UNL A   1      46.583  31.623  28.023  1.00  0.00     0.029 A 
ATOM     52  C   UNL A   1      45.303  31.440  28.520  1.00  0.00     0.049 A 
ATOM     53  H   UNL A   1      44.034  29.763  28.338  1.00  0.00     0.167 HD
ATOM     54  C   UNL A   1      43.241  32.102  29.726  1.00  0.00     0.074 A 
ATOM     55  C   UNL A   1      42.451  33.028  30.510  1.00  0.00     0.031 C 
ATOM     56  C   UNL A   1      44.503  32.349  29.299  1.00  0.00     0.037 A 
BRANCH  43  57
ATOM     57  C   UNL A   1      47.030  27.705  26.107  1.00  0.00     0.064 A 
ATOM     58  C   UNL A   1      47.111  27.763  24.708  1.00  0.00     0.173 A 
ATOM     59  C   UNL A   1      48.117  27.165  26.808  1.00  0.00     0.173 A 
ATOM     60  F   UNL A   1      46.088  28.257  23.993  1.00  0.00    -0.203 F 
ATOM     61  C   UNL A   1      48.230  27.280  24.037  1.00  0.00     0.198 A 
ATOM     62  C   UNL A   1      49.245  26.704  26.134  1.00  0.00     0.198 A 
ATOM     63  F   UNL A   1      48.089  27.090  28.148  1.00  0.00    -0.203 F 
ATOM     64  F   UNL A   1      48.270  27.309  22.697  1.00  0.00    -0.200 F 
ATOM     65  C   UNL A   1      49.298  26.757  24.750  1.00  0.00     0.200 A 
ATOM     66  F   UNL A   1      50.280  26.207  26.826  1.00  0.00    -0.200 F 
ATOM     67  F   UNL A   1      50.378  26.296  24.102  1.00  0.00    -0.200 F 
ENDBRANCH  43  57
BRANCH  44  68
ATOM     68  C   UNL A   1      38.900  30.807  30.989  1.00  0.00     0.064 A 
ATOM     69  C   UNL A   1      38.786  30.633  32.375  1.00  0.00     0.173 A 
ATOM     70  C   UNL A   1      37.837  31.427  30.317  1.00  0.00     0.173 A 
ATOM     71  F   UNL A   1      39.766  30.021  33.056  1.00  0.00    -0.203 F 
ATOM     72  C   UNL A   1      37.645  31.048  33.059  1.00  0.00     0.198 A 
ATOM     73  C   UNL A   1      36.708  31.864  31.005  1.00  0.00     0.198 A 
ATOM     74  F   UNL A   1      37.898  31.611  28.990  1.00  0.00    -0.203 F 
ATOM     75  F   UNL A   1      37.540  30.831  34.377  1.00  0.00    -0.200 F 
ATOM     76  C   UNL A   1      36.610  31.668  32.374  1.00  0.00     0.200 A 
ATOM     77  F   UNL A   1      35.713  32.468  30.341  1.00  0.00    -0.200 F 
ATOM     78  F   UNL A   1      35.513  32.067  33.033  1.00  0.00    -0.200 F 
ENDBRANCH  44  68
BRANCH  56  79
ATOM     79  C   UNL A   1      45.099  33.679  29.653  1.00  0.00     0.064 A 
ATOM     80  C   UNL A   1      44.910  34.806  28.840  1.00  0.00     0.173 A 
ATOM     81  C   UNL A   1      45.840  33.835  30.834  1.00  0.00     0.173 A 
ATOM     82  F   UNL A   1      44.222  34.702  27.692  1.00  0.00    -0.203 F 
ATOM     83  C   UNL A   1      45.460  36.037  29.184  1.00  0.00     0.198 A 
ATOM     84  C   UNL A   1      46.367  35.074  31.188  1.00  0.00     0.198 A 
ATOM     85  F   UNL A   1      46.044  32.790  31.648  1.00  0.00    -0.203 F 
ATOM     86  F   UNL A   1      45.303  37.091  28.371  1.00  0.00    -0.200 F 
ATOM     87  C   UNL A   1      46.183  36.172  30.361  1.00  0.00     0.200 A 
ATOM     88  F   UNL A   1      47.057  35.206  32.330  1.00  0.00    -0.200 F 
ATOM     89  F   UNL A   1      46.709  37.358  30.692  1.00  0.00    -0.200 F 
ENDBRANCH  56  79
ENDBRANCH  30  31
ENDBRANCH  23  25
ENDBRANCH  22  23
ENDBRANCH  21  22
ENDBRANCH   1  21
TORSDOF 13
ENDMDL
