MODEL 1
REMARK VINA RESULT:     -12.5      0.000      0.000
REMARK SMILES N#Cc1cccc(C(=O)N2CCC(CC(=O)OCCOC(=O)c3ccc(-c4c5nc(c(-c6c(F)c(F)c(F)c(F)c6F)c6ccc([nH]6)c(-c6c(F)c(F)c(F)c(F)c6F)c6nc(c(-c7c(F)c(F)c(F)c(F)c7F)c7ccc4[nH]7)C=C6)C=C5)cc3)CC2)c1
REMARK SMILES IDX 18 1 17 2 15 3 16 4 14 5 13 6 8 7 9 8 10 9 11 10 87 11 12 12
REMARK SMILES IDX 86 13 7 14 3 15 4 16 88 17 5 18 6 19 2 20 1 21 19 22 20 23
REMARK SMILES IDX 21 24 22 25 23 26 24 27 85 28 25 29 84 30 26 31 27 32 28 33
REMARK SMILES IDX 78 34 29 35 83 36 77 37 79 38 30 39 82 40 76 41 75 42 31 44
REMARK SMILES IDX 63 45 43 46 62 47 44 48 47 49 61 50 80 51 45 52 46 53 60 55
REMARK SMILES IDX 81 56 48 57 32 58 33 59 41 60 34 61 35 62 39 63 42 64 36 65
REMARK SMILES IDX 37 66 40 67 38 68 64 69 65 70 73 71 66 72 67 73 71 74 74 75
REMARK SMILES IDX 68 76 69 77 72 78 70 79 49 80 50 81 58 82 51 83 52 84 56 85
REMARK SMILES IDX 59 86 53 87 54 88 57 89 55 90
REMARK H PARENT 79 43 47 54
REMARK Flexibility Score: inf
ROOT
ATOM      1  C   UNL A   1      31.751  28.349  26.039  1.00  0.00     0.274 C 
ENDROOT
BRANCH   1   2
ATOM      2  O   UNL A   1      31.573  27.682  24.777  1.00  0.00    -0.462 OA
BRANCH   2   3
ATOM      3  C   UNL A   1      32.678  27.355  24.070  1.00  0.00     0.306 C 
ATOM      4  O   UNL A   1      32.901  27.717  22.921  1.00  0.00    -0.252 OA
BRANCH   3   5
ATOM      5  C   UNL A   1      33.612  26.433  24.834  1.00  0.00     0.126 C 
BRANCH   5   6
ATOM      6  C   UNL A   1      34.007  25.105  24.158  1.00  0.00     0.003 C 
ATOM      7  C   UNL A   1      33.436  21.172  24.888  1.00  0.00     0.253 C 
ATOM      8  O   UNL A   1      33.243  21.297  26.092  1.00  0.00    -0.269 OA
ATOM      9  N   UNL A   1      33.902  22.201  24.089  1.00  0.00    -0.339 N 
ATOM     10  C   UNL A   1      35.130  22.856  24.469  1.00  0.00     0.120 C 
ATOM     11  C   UNL A   1      33.021  22.936  23.196  1.00  0.00     0.120 C 
ATOM     12  C   UNL A   1      34.864  24.219  25.079  1.00  0.00     0.026 C 
ATOM     13  C   UNL A   1      32.730  24.343  23.729  1.00  0.00     0.026 C 
BRANCH   7  14
ATOM     14  C   UNL A   1      33.396  19.824  24.243  1.00  0.00     0.041 A 
ATOM     15  C   UNL A   1      33.952  17.460  24.221  1.00  0.00     0.053 A 
ATOM     16  C   UNL A   1      33.080  17.264  23.146  1.00  0.00     0.019 A 
ATOM     17  C   UNL A   1      34.107  18.736  24.768  1.00  0.00     0.033 A 
ATOM     18  C   UNL A   1      32.371  18.343  22.616  1.00  0.00     0.002 A 
ATOM     19  C   UNL A   1      32.530  19.620  23.160  1.00  0.00     0.014 A 
BRANCH  15  20
ATOM     20  C   UNL A   1      34.674  16.356  24.787  1.00  0.00     0.099 C 
ATOM     21  N   UNL A   1      35.243  15.453  25.235  1.00  0.00    -0.192 NA
ENDBRANCH  15  20
ENDBRANCH   7  14
ENDBRANCH   5   6
ENDBRANCH   3   5
ENDBRANCH   2   3
ENDBRANCH   1   2
BRANCH   1  22
ATOM     22  C   UNL A   1      31.783  29.867  25.851  1.00  0.00     0.275 C 
BRANCH  22  23
ATOM     23  O   UNL A   1      33.126  30.369  25.969  1.00  0.00    -0.458 OA
BRANCH  23  24
ATOM     24  C   UNL A   1      33.327  31.261  26.965  1.00  0.00     0.338 C 
ATOM     25  O   UNL A   1      32.574  32.140  27.346  1.00  0.00    -0.246 OA
BRANCH  24  26
ATOM     26  C   UNL A   1      34.610  30.970  27.613  1.00  0.00     0.060 A 
ATOM     27  C   UNL A   1      34.899  29.661  28.008  1.00  0.00     0.016 A 
ATOM     28  C   UNL A   1      35.487  32.014  27.903  1.00  0.00     0.016 A 
ATOM     29  C   UNL A   1      36.073  29.387  28.706  1.00  0.00     0.010 A 
ATOM     30  C   UNL A   1      36.670  31.736  28.589  1.00  0.00     0.010 A 
ATOM     31  C   UNL A   1      36.963  30.424  29.007  1.00  0.00    -0.014 A 
BRANCH  31  32
ATOM     32  C   UNL A   1      38.186  30.172  29.805  1.00  0.00     0.031 A 
ATOM     33  C   UNL A   1      39.237  29.247  29.265  1.00  0.00     0.074 A 
ATOM     34  C   UNL A   1      38.324  30.725  31.023  1.00  0.00     0.049 A 
ATOM     35  N   UNL A   1      40.281  28.734  29.864  1.00  0.00    -0.248 NA
ATOM     36  C   UNL A   1      39.084  28.834  27.860  1.00  0.00     0.031 C 
ATOM     37  C   UNL A   1      37.391  31.674  31.630  1.00  0.00     0.029 A 
ATOM     38  N   UNL A   1      39.292  30.548  31.978  1.00  0.00    -0.354 N 
ATOM     39  C   UNL A   1      40.890  27.916  28.923  1.00  0.00     0.074 A 
ATOM     40  C   UNL A   1      40.089  27.982  27.719  1.00  0.00     0.031 C 
ATOM     41  C   UNL A   1      37.823  31.983  32.863  1.00  0.00     0.029 A 
ATOM     42  C   UNL A   1      39.025  31.207  33.153  1.00  0.00     0.049 A 
ATOM     43  H   UNL A   1      40.099  30.001  31.836  1.00  0.00     0.167 HD
ATOM     44  C   UNL A   1      42.017  27.178  29.057  1.00  0.00     0.037 A 
ATOM     45  C   UNL A   1      39.654  31.152  34.343  1.00  0.00     0.037 A 
ATOM     46  C   UNL A   1      42.806  27.128  30.261  1.00  0.00     0.049 A 
ATOM     47  C   UNL A   1      40.861  30.261  34.491  1.00  0.00     0.074 A 
ATOM     48  C   UNL A   1      43.976  26.428  30.497  1.00  0.00     0.029 A 
ATOM     49  N   UNL A   1      42.500  27.804  31.433  1.00  0.00    -0.354 N 
ATOM     50  N   UNL A   1      41.438  29.491  33.600  1.00  0.00    -0.248 NA
ATOM     51  C   UNL A   1      41.503  30.229  35.813  1.00  0.00     0.031 C 
ATOM     52  C   UNL A   1      44.341  26.627  31.832  1.00  0.00     0.029 A 
ATOM     53  C   UNL A   1      43.444  27.515  32.406  1.00  0.00     0.049 A 
ATOM     54  H   UNL A   1      41.727  28.400  31.556  1.00  0.00     0.167 HD
ATOM     55  C   UNL A   1      42.531  28.919  34.237  1.00  0.00     0.074 A 
ATOM     56  C   UNL A   1      42.538  29.431  35.591  1.00  0.00     0.031 C 
ATOM     57  C   UNL A   1      43.450  28.054  33.743  1.00  0.00     0.037 A 
BRANCH  44  58
ATOM     58  C   UNL A   1      42.445  26.335  27.889  1.00  0.00     0.064 A 
ATOM     59  C   UNL A   1      43.409  26.774  26.969  1.00  0.00     0.173 A 
ATOM     60  C   UNL A   1      41.902  25.053  27.706  1.00  0.00     0.173 A 
ATOM     61  F   UNL A   1      43.952  27.995  27.089  1.00  0.00    -0.203 F 
ATOM     62  C   UNL A   1      43.791  25.973  25.895  1.00  0.00     0.198 A 
ATOM     63  C   UNL A   1      42.313  24.241  26.652  1.00  0.00     0.198 A 
ATOM     64  F   UNL A   1      40.981  24.580  28.558  1.00  0.00    -0.203 F 
ATOM     65  F   UNL A   1      44.674  26.436  24.999  1.00  0.00    -0.200 F 
ATOM     66  C   UNL A   1      43.249  24.707  25.741  1.00  0.00     0.200 A 
ATOM     67  F   UNL A   1      41.800  23.011  26.516  1.00  0.00    -0.200 F 
ATOM     68  F   UNL A   1      43.625  23.935  24.712  1.00  0.00    -0.200 F 
ENDBRANCH  44  58
BRANCH  45  69
ATOM     69  C   UNL A   1      39.143  31.944  35.493  1.00  0.00     0.064 A 
ATOM     70  C   UNL A   1      39.486  33.294  35.647  1.00  0.00     0.173 A 
ATOM     71  C   UNL A   1      38.314  31.368  36.467  1.00  0.00     0.173 A 
ATOM     72  F   UNL A   1      40.295  33.884  34.755  1.00  0.00    -0.203 F 
ATOM     73  C   UNL A   1      39.039  34.030  36.742  1.00  0.00     0.198 A 
ATOM     74  C   UNL A   1      37.839  32.114  37.543  1.00  0.00     0.198 A 
ATOM     75  F   UNL A   1      37.953  30.080  36.369  1.00  0.00    -0.203 F 
ATOM     76  F   UNL A   1      39.428  35.304  36.893  1.00  0.00    -0.200 F 
ATOM     77  C   UNL A   1      38.211  33.443  37.686  1.00  0.00     0.200 A 
ATOM     78  F   UNL A   1      37.026  31.547  38.445  1.00  0.00    -0.200 F 
ATOM     79  F   UNL A   1      37.780  34.152  38.737  1.00  0.00    -0.200 F 
ENDBRANCH  45  69
BRANCH  57  80
ATOM     80  C   UNL A   1      44.585  27.654  34.641  1.00  0.00     0.064 A 
ATOM     81  C   UNL A   1      44.534  26.504  35.441  1.00  0.00     0.173 A 
ATOM     82  C   UNL A   1      45.773  28.405  34.646  1.00  0.00     0.173 A 
ATOM     83  F   UNL A   1      43.418  25.760  35.484  1.00  0.00    -0.203 F 
ATOM     84  C   UNL A   1      45.623  26.129  36.224  1.00  0.00     0.198 A 
ATOM     85  C   UNL A   1      46.870  28.008  35.403  1.00  0.00     0.198 A 
ATOM     86  F   UNL A   1      45.876  29.511  33.894  1.00  0.00    -0.203 F 
ATOM     87  F   UNL A   1      45.537  25.049  37.013  1.00  0.00    -0.200 F 
ATOM     88  C   UNL A   1      46.792  26.874  36.195  1.00  0.00     0.200 A 
ATOM     89  F   UNL A   1      48.006  28.719  35.358  1.00  0.00    -0.200 F 
ATOM     90  F   UNL A   1      47.846  26.500  36.936  1.00  0.00    -0.200 F 
ENDBRANCH  57  80
ENDBRANCH  31  32
ENDBRANCH  24  26
ENDBRANCH  23  24
ENDBRANCH  22  23
ENDBRANCH   1  22
TORSDOF 14
ENDMDL
MODEL 2
REMARK VINA RESULT:     -12.5      0.171      1.969
REMARK SMILES N#Cc1cccc(C(=O)N2CCC(CC(=O)OCCOC(=O)c3ccc(-c4c5nc(c(-c6c(F)c(F)c(F)c(F)c6F)c6ccc([nH]6)c(-c6c(F)c(F)c(F)c(F)c6F)c6nc(c(-c7c(F)c(F)c(F)c(F)c7F)c7ccc4[nH]7)C=C6)C=C5)cc3)CC2)c1
REMARK SMILES IDX 18 1 17 2 15 3 16 4 14 5 13 6 8 7 9 8 10 9 11 10 87 11 12 12
REMARK SMILES IDX 86 13 7 14 3 15 4 16 88 17 5 18 6 19 2 20 1 21 19 22 20 23
REMARK SMILES IDX 21 24 22 25 23 26 24 27 85 28 25 29 84 30 26 31 27 32 28 33
REMARK SMILES IDX 78 34 29 35 83 36 77 37 79 38 30 39 82 40 76 41 75 42 31 44
REMARK SMILES IDX 63 45 43 46 62 47 44 48 47 49 61 50 80 51 45 52 46 53 60 55
REMARK SMILES IDX 81 56 48 57 32 58 33 59 41 60 34 61 35 62 39 63 42 64 36 65
REMARK SMILES IDX 37 66 40 67 38 68 64 69 65 70 73 71 66 72 67 73 71 74 74 75
REMARK SMILES IDX 68 76 69 77 72 78 70 79 49 80 50 81 58 82 51 83 52 84 56 85
REMARK SMILES IDX 59 86 53 87 54 88 57 89 55 90
REMARK H PARENT 79 43 47 54
REMARK Flexibility Score: inf
ROOT
ATOM      1  C   UNL A   1      31.779  28.245  26.531  1.00  0.00     0.274 C 
ENDROOT
BRANCH   1   2
ATOM      2  O   UNL A   1      31.523  27.363  25.423  1.00  0.00    -0.462 OA
BRANCH   2   3
ATOM      3  C   UNL A   1      32.496  27.207  24.498  1.00  0.00     0.306 C 
ATOM      4  O   UNL A   1      32.423  27.595  23.339  1.00  0.00    -0.252 OA
BRANCH   3   5
ATOM      5  C   UNL A   1      33.694  26.441  25.030  1.00  0.00     0.126 C 
BRANCH   5   6
ATOM      6  C   UNL A   1      34.066  25.124  24.322  1.00  0.00     0.003 C 
ATOM      7  C   UNL A   1      33.444  21.183  24.960  1.00  0.00     0.253 C 
ATOM      8  O   UNL A   1      33.260  21.282  26.168  1.00  0.00    -0.269 OA
ATOM      9  N   UNL A   1      33.920  22.224  24.183  1.00  0.00    -0.339 N 
ATOM     10  C   UNL A   1      35.160  22.853  24.572  1.00  0.00     0.120 C 
ATOM     11  C   UNL A   1      33.045  22.993  23.313  1.00  0.00     0.120 C 
ATOM     12  C   UNL A   1      34.916  24.205  25.216  1.00  0.00     0.026 C 
ATOM     13  C   UNL A   1      32.777  24.390  23.881  1.00  0.00     0.026 C 
BRANCH   7  14
ATOM     14  C   UNL A   1      33.382  19.851  24.284  1.00  0.00     0.041 A 
ATOM     15  C   UNL A   1      33.899  17.480  24.205  1.00  0.00     0.053 A 
ATOM     16  C   UNL A   1      33.024  17.324  23.127  1.00  0.00     0.019 A 
ATOM     17  C   UNL A   1      34.075  18.740  24.782  1.00  0.00     0.033 A 
ATOM     18  C   UNL A   1      32.332  18.427  22.623  1.00  0.00     0.002 A 
ATOM     19  C   UNL A   1      32.512  19.687  23.197  1.00  0.00     0.014 A 
BRANCH  15  20
ATOM     20  C   UNL A   1      34.604  16.351  24.744  1.00  0.00     0.099 C 
ATOM     21  N   UNL A   1      35.179  15.453  25.194  1.00  0.00    -0.192 NA
ENDBRANCH  15  20
ENDBRANCH   7  14
ENDBRANCH   5   6
ENDBRANCH   3   5
ENDBRANCH   2   3
ENDBRANCH   1   2
BRANCH   1  22
ATOM     22  C   UNL A   1      31.783  29.705  26.074  1.00  0.00     0.275 C 
BRANCH  22  23
ATOM     23  O   UNL A   1      33.120  30.234  26.065  1.00  0.00    -0.458 OA
BRANCH  23  24
ATOM     24  C   UNL A   1      33.372  31.192  26.985  1.00  0.00     0.338 C 
ATOM     25  O   UNL A   1      32.656  32.122  27.313  1.00  0.00    -0.246 OA
BRANCH  24  26
ATOM     26  C   UNL A   1      34.661  30.910  27.626  1.00  0.00     0.060 A 
ATOM     27  C   UNL A   1      34.975  29.598  27.988  1.00  0.00     0.016 A 
ATOM     28  C   UNL A   1      35.517  31.964  27.943  1.00  0.00     0.016 A 
ATOM     29  C   UNL A   1      36.153  29.328  28.680  1.00  0.00     0.010 A 
ATOM     30  C   UNL A   1      36.704  31.690  28.622  1.00  0.00     0.010 A 
ATOM     31  C   UNL A   1      37.023  30.375  29.007  1.00  0.00    -0.014 A 
BRANCH  31  32
ATOM     32  C   UNL A   1      38.250  30.126  29.799  1.00  0.00     0.031 A 
ATOM     33  C   UNL A   1      39.297  29.195  29.260  1.00  0.00     0.074 A 
ATOM     34  C   UNL A   1      38.396  30.688  31.012  1.00  0.00     0.049 A 
ATOM     35  N   UNL A   1      40.343  28.685  29.856  1.00  0.00    -0.248 NA
ATOM     36  C   UNL A   1      39.134  28.773  27.859  1.00  0.00     0.031 C 
ATOM     37  C   UNL A   1      37.470  31.643  31.618  1.00  0.00     0.029 A 
ATOM     38  N   UNL A   1      39.371  30.515  31.963  1.00  0.00    -0.354 N 
ATOM     39  C   UNL A   1      40.944  27.859  28.917  1.00  0.00     0.074 A 
ATOM     40  C   UNL A   1      40.136  27.918  27.718  1.00  0.00     0.031 C 
ATOM     41  C   UNL A   1      37.910  31.959  32.847  1.00  0.00     0.029 A 
ATOM     42  C   UNL A   1      39.112  31.183  33.135  1.00  0.00     0.049 A 
ATOM     43  H   UNL A   1      40.175  29.966  31.820  1.00  0.00     0.167 HD
ATOM     44  C   UNL A   1      42.071  27.119  29.049  1.00  0.00     0.037 A 
ATOM     45  C   UNL A   1      39.749  31.136  34.322  1.00  0.00     0.037 A 
ATOM     46  C   UNL A   1      42.868  27.076  30.249  1.00  0.00     0.049 A 
ATOM     47  C   UNL A   1      40.954  30.244  34.468  1.00  0.00     0.074 A 
ATOM     48  C   UNL A   1      44.038  26.376  30.483  1.00  0.00     0.029 A 
ATOM     49  N   UNL A   1      42.570  27.762  31.418  1.00  0.00    -0.354 N 
ATOM     50  N   UNL A   1      41.524  29.467  33.579  1.00  0.00    -0.248 NA
ATOM     51  C   UNL A   1      41.605  30.220  35.786  1.00  0.00     0.031 C 
ATOM     52  C   UNL A   1      44.411  26.584  31.815  1.00  0.00     0.029 A 
ATOM     53  C   UNL A   1      43.519  27.478  32.387  1.00  0.00     0.049 A 
ATOM     54  H   UNL A   1      41.798  28.360  31.542  1.00  0.00     0.167 HD
ATOM     55  C   UNL A   1      42.621  28.897  34.214  1.00  0.00     0.074 A 
ATOM     56  C   UNL A   1      42.637  29.419  35.564  1.00  0.00     0.031 C 
ATOM     57  C   UNL A   1      43.534  28.027  33.721  1.00  0.00     0.037 A 
BRANCH  44  58
ATOM     58  C   UNL A   1      42.490  26.268  27.885  1.00  0.00     0.064 A 
ATOM     59  C   UNL A   1      41.938  24.999  27.655  1.00  0.00     0.173 A 
ATOM     60  C   UNL A   1      43.438  26.744  26.965  1.00  0.00     0.173 A 
ATOM     61  F   UNL A   1      41.036  24.488  28.507  1.00  0.00    -0.203 F 
ATOM     62  C   UNL A   1      42.340  24.228  26.566  1.00  0.00     0.198 A 
ATOM     63  C   UNL A   1      43.812  25.987  25.859  1.00  0.00     0.198 A 
ATOM     64  F   UNL A   1      43.995  27.953  27.133  1.00  0.00    -0.203 F 
ATOM     65  F   UNL A   1      41.838  22.997  26.397  1.00  0.00    -0.200 F 
ATOM     66  C   UNL A   1      43.270  24.725  25.666  1.00  0.00     0.200 A 
ATOM     67  F   UNL A   1      44.698  26.477  24.981  1.00  0.00    -0.200 F 
ATOM     68  F   UNL A   1      43.650  23.986  24.615  1.00  0.00    -0.200 F 
ENDBRANCH  44  58
BRANCH  45  69
ATOM     69  C   UNL A   1      39.246  31.937  35.469  1.00  0.00     0.064 A 
ATOM     70  C   UNL A   1      38.409  31.363  36.436  1.00  0.00     0.173 A 
ATOM     71  C   UNL A   1      39.580  33.291  35.617  1.00  0.00     0.173 A 
ATOM     72  F   UNL A   1      38.043  30.078  36.326  1.00  0.00    -0.203 F 
ATOM     73  C   UNL A   1      37.907  32.119  37.493  1.00  0.00     0.198 A 
ATOM     74  C   UNL A   1      39.105  34.037  36.694  1.00  0.00     0.198 A 
ATOM     75  F   UNL A   1      40.379  33.890  34.722  1.00  0.00    -0.203 F 
ATOM     76  F   UNL A   1      37.064  31.559  38.372  1.00  0.00    -0.200 F 
ATOM     77  C   UNL A   1      38.260  33.454  37.625  1.00  0.00     0.200 A 
ATOM     78  F   UNL A   1      39.461  35.322  36.826  1.00  0.00    -0.200 F 
ATOM     79  F   UNL A   1      37.778  34.179  38.643  1.00  0.00    -0.200 F 
ENDBRANCH  45  69
BRANCH  57  80
ATOM     80  C   UNL A   1      44.675  27.631  34.615  1.00  0.00     0.064 A 
ATOM     81  C   UNL A   1      45.854  28.383  34.695  1.00  0.00     0.173 A 
ATOM     82  C   UNL A   1      44.550  26.512  35.455  1.00  0.00     0.173 A 
ATOM     83  F   UNL A   1      46.030  29.452  33.902  1.00  0.00    -0.203 F 
ATOM     84  C   UNL A   1      46.874  28.021  35.571  1.00  0.00     0.198 A 
ATOM     85  C   UNL A   1      45.557  26.174  36.354  1.00  0.00     0.198 A 
ATOM     86  F   UNL A   1      43.438  25.762  35.422  1.00  0.00    -0.203 F 
ATOM     87  F   UNL A   1      48.012  28.730  35.602  1.00  0.00    -0.200 F 
ATOM     88  C   UNL A   1      46.720  26.925  36.408  1.00  0.00     0.200 A 
ATOM     89  F   UNL A   1      45.396  25.126  37.175  1.00  0.00    -0.200 F 
ATOM     90  F   UNL A   1      47.695  26.590  37.264  1.00  0.00    -0.200 F 
ENDBRANCH  57  80
ENDBRANCH  31  32
ENDBRANCH  24  26
ENDBRANCH  23  24
ENDBRANCH  22  23
ENDBRANCH   1  22
TORSDOF 14
ENDMDL
MODEL 3
REMARK VINA RESULT:     -12.3      4.888      9.389
REMARK SMILES N#Cc1cccc(C(=O)N2CCC(CC(=O)OCCOC(=O)c3ccc(-c4c5nc(c(-c6c(F)c(F)c(F)c(F)c6F)c6ccc([nH]6)c(-c6c(F)c(F)c(F)c(F)c6F)c6nc(c(-c7c(F)c(F)c(F)c(F)c7F)c7ccc4[nH]7)C=C6)C=C5)cc3)CC2)c1
REMARK SMILES IDX 18 1 17 2 15 3 16 4 14 5 13 6 8 7 9 8 10 9 11 10 87 11 12 12
REMARK SMILES IDX 86 13 7 14 3 15 4 16 88 17 5 18 6 19 2 20 1 21 19 22 20 23
REMARK SMILES IDX 21 24 22 25 23 26 24 27 85 28 25 29 84 30 26 31 27 32 28 33
REMARK SMILES IDX 78 34 29 35 83 36 77 37 79 38 30 39 82 40 76 41 75 42 31 44
REMARK SMILES IDX 63 45 43 46 62 47 44 48 47 49 61 50 80 51 45 52 46 53 60 55
REMARK SMILES IDX 81 56 48 57 32 58 33 59 41 60 34 61 35 62 39 63 42 64 36 65
REMARK SMILES IDX 37 66 40 67 38 68 64 69 65 70 73 71 66 72 67 73 71 74 74 75
REMARK SMILES IDX 68 76 69 77 72 78 70 79 49 80 50 81 58 82 51 83 52 84 56 85
REMARK SMILES IDX 59 86 53 87 54 88 57 89 55 90
REMARK H PARENT 79 43 47 54
REMARK Flexibility Score: inf
ROOT
ATOM      1  C   UNL A   1      34.122  34.650  30.893  1.00  0.00     0.274 C 
ENDROOT
BRANCH   1   2
ATOM      2  O   UNL A   1      34.640  34.055  29.689  1.00  0.00    -0.462 OA
BRANCH   2   3
ATOM      3  C   UNL A   1      33.808  33.941  28.629  1.00  0.00     0.306 C 
ATOM      4  O   UNL A   1      32.767  34.570  28.490  1.00  0.00    -0.252 OA
BRANCH   3   5
ATOM      5  C   UNL A   1      34.272  32.895  27.630  1.00  0.00     0.126 C 
BRANCH   5   6
ATOM      6  C   UNL A   1      33.824  31.439  27.867  1.00  0.00     0.003 C 
ATOM      7  C   UNL A   1      33.446  28.096  25.630  1.00  0.00     0.253 C 
ATOM      8  O   UNL A   1      33.342  28.677  24.556  1.00  0.00    -0.269 OA
ATOM      9  N   UNL A   1      33.401  28.750  26.848  1.00  0.00    -0.339 N 
ATOM     10  C   UNL A   1      32.261  29.588  27.130  1.00  0.00     0.120 C 
ATOM     11  C   UNL A   1      34.603  29.003  27.627  1.00  0.00     0.120 C 
ATOM     12  C   UNL A   1      32.610  31.059  27.003  1.00  0.00     0.026 C 
ATOM     13  C   UNL A   1      35.004  30.480  27.575  1.00  0.00     0.026 C 
BRANCH   7  14
ATOM     14  C   UNL A   1      33.399  26.603  25.699  1.00  0.00     0.041 A 
ATOM     15  C   UNL A   1      32.236  24.534  26.215  1.00  0.00     0.053 A 
ATOM     16  C   UNL A   1      33.242  23.808  25.571  1.00  0.00     0.019 A 
ATOM     17  C   UNL A   1      32.315  25.928  26.276  1.00  0.00     0.033 A 
ATOM     18  C   UNL A   1      34.326  24.474  24.996  1.00  0.00     0.002 A 
ATOM     19  C   UNL A   1      34.406  25.867  25.062  1.00  0.00     0.014 A 
BRANCH  15  20
ATOM     20  C   UNL A   1      31.107  23.864  26.795  1.00  0.00     0.099 C 
ATOM     21  N   UNL A   1      30.201  23.306  27.252  1.00  0.00    -0.192 NA
ENDBRANCH  15  20
ENDBRANCH   7  14
ENDBRANCH   5   6
ENDBRANCH   3   5
ENDBRANCH   2   3
ENDBRANCH   1   2
BRANCH   1  22
ATOM     22  C   UNL A   1      34.376  33.744  32.099  1.00  0.00     0.275 C 
BRANCH  22  23
ATOM     23  O   UNL A   1      35.176  32.608  31.726  1.00  0.00    -0.458 OA
BRANCH  23  24
ATOM     24  C   UNL A   1      36.056  32.186  32.662  1.00  0.00     0.338 C 
ATOM     25  O   UNL A   1      35.950  32.252  33.874  1.00  0.00    -0.246 OA
BRANCH  24  26
ATOM     26  C   UNL A   1      37.188  31.536  31.992  1.00  0.00     0.060 A 
ATOM     27  C   UNL A   1      38.161  30.891  32.761  1.00  0.00     0.016 A 
ATOM     28  C   UNL A   1      37.323  31.641  30.609  1.00  0.00     0.016 A 
ATOM     29  C   UNL A   1      39.288  30.349  32.147  1.00  0.00     0.010 A 
ATOM     30  C   UNL A   1      38.445  31.085  29.994  1.00  0.00     0.010 A 
ATOM     31  C   UNL A   1      39.440  30.448  30.759  1.00  0.00    -0.014 A 
BRANCH  31  32
ATOM     32  C   UNL A   1      40.659  29.940  30.087  1.00  0.00     0.031 A 
ATOM     33  C   UNL A   1      41.804  30.877  29.834  1.00  0.00     0.074 A 
ATOM     34  C   UNL A   1      40.715  28.665  29.663  1.00  0.00     0.049 A 
ATOM     35  N   UNL A   1      42.873  30.705  29.102  1.00  0.00    -0.248 NA
ATOM     36  C   UNL A   1      41.725  32.194  30.488  1.00  0.00     0.031 C 
ATOM     37  C   UNL A   1      39.685  27.652  29.894  1.00  0.00     0.029 A 
ATOM     38  N   UNL A   1      41.671  28.011  28.927  1.00  0.00    -0.354 N 
ATOM     39  C   UNL A   1      43.578  31.899  29.180  1.00  0.00     0.074 A 
ATOM     40  C   UNL A   1      42.806  32.795  30.013  1.00  0.00     0.031 C 
ATOM     41  C   UNL A   1      40.055  26.509  29.295  1.00  0.00     0.029 A 
ATOM     42  C   UNL A   1      41.314  26.728  28.589  1.00  0.00     0.049 A 
ATOM     43  H   UNL A   1      42.526  28.421  28.665  1.00  0.00     0.167 HD
ATOM     44  C   UNL A   1      44.763  32.212  28.605  1.00  0.00     0.037 A 
ATOM     45  C   UNL A   1      41.915  25.848  27.765  1.00  0.00     0.037 A 
ATOM     46  C   UNL A   1      45.522  31.305  27.783  1.00  0.00     0.049 A 
ATOM     47  C   UNL A   1      43.193  26.248  27.074  1.00  0.00     0.074 A 
ATOM     48  C   UNL A   1      46.744  31.515  27.168  1.00  0.00     0.029 A 
ATOM     49  N   UNL A   1      45.126  30.016  27.458  1.00  0.00    -0.354 N 
ATOM     50  N   UNL A   1      43.860  27.375  27.152  1.00  0.00    -0.248 NA
ATOM     51  C   UNL A   1      43.801  25.255  26.177  1.00  0.00     0.031 C 
ATOM     52  C   UNL A   1      47.054  30.377  26.417  1.00  0.00     0.029 A 
ATOM     53  C   UNL A   1      46.066  29.427  26.627  1.00  0.00     0.049 A 
ATOM     54  H   UNL A   1      44.299  29.583  27.771  1.00  0.00     0.167 HD
ATOM     55  C   UNL A   1      44.983  27.211  26.352  1.00  0.00     0.074 A 
ATOM     56  C   UNL A   1      44.909  25.876  25.798  1.00  0.00     0.031 C 
ATOM     57  C   UNL A   1      45.989  28.086  26.104  1.00  0.00     0.037 A 
BRANCH  44  58
ATOM     58  C   UNL A   1      45.295  33.601  28.812  1.00  0.00     0.064 A 
ATOM     59  C   UNL A   1      46.215  33.902  29.828  1.00  0.00     0.173 A 
ATOM     60  C   UNL A   1      44.902  34.644  27.958  1.00  0.00     0.173 A 
ATOM     61  F   UNL A   1      46.616  32.948  30.681  1.00  0.00    -0.203 F 
ATOM     62  C   UNL A   1      46.696  35.199  29.999  1.00  0.00     0.198 A 
ATOM     63  C   UNL A   1      45.412  35.930  28.108  1.00  0.00     0.198 A 
ATOM     64  F   UNL A   1      44.030  34.412  26.965  1.00  0.00    -0.203 F 
ATOM     65  F   UNL A   1      47.532  35.472  31.010  1.00  0.00    -0.200 F 
ATOM     66  C   UNL A   1      46.301  36.209  29.136  1.00  0.00     0.200 A 
ATOM     67  F   UNL A   1      45.041  36.901  27.262  1.00  0.00    -0.200 F 
ATOM     68  F   UNL A   1      46.771  37.453  29.296  1.00  0.00    -0.200 F 
ENDBRANCH  44  58
BRANCH  45  69
ATOM     69  C   UNL A   1      41.305  24.513  27.530  1.00  0.00     0.064 A 
ATOM     70  C   UNL A   1      41.852  23.359  28.108  1.00  0.00     0.173 A 
ATOM     71  C   UNL A   1      40.173  24.359  26.715  1.00  0.00     0.173 A 
ATOM     72  F   UNL A   1      42.947  23.451  28.876  1.00  0.00    -0.203 F 
ATOM     73  C   UNL A   1      41.305  22.101  27.861  1.00  0.00     0.198 A 
ATOM     74  C   UNL A   1      39.607  23.105  26.497  1.00  0.00     0.198 A 
ATOM     75  F   UNL A   1      39.608  25.429  26.138  1.00  0.00    -0.203 F 
ATOM     76  F   UNL A   1      41.882  21.009  28.382  1.00  0.00    -0.200 F 
ATOM     77  C   UNL A   1      40.179  21.975  27.062  1.00  0.00     0.200 A 
ATOM     78  F   UNL A   1      38.510  22.989  25.737  1.00  0.00    -0.200 F 
ATOM     79  F   UNL A   1      39.653  20.766  26.827  1.00  0.00    -0.200 F 
ENDBRANCH  45  69
BRANCH  57  80
ATOM     80  C   UNL A   1      47.132  27.612  25.253  1.00  0.00     0.064 A 
ATOM     81  C   UNL A   1      47.188  27.858  23.875  1.00  0.00     0.173 A 
ATOM     82  C   UNL A   1      48.224  26.957  25.849  1.00  0.00     0.173 A 
ATOM     83  F   UNL A   1      46.164  28.466  23.255  1.00  0.00    -0.203 F 
ATOM     84  C   UNL A   1      48.285  27.453  23.120  1.00  0.00     0.198 A 
ATOM     85  C   UNL A   1      49.334  26.585  25.097  1.00  0.00     0.198 A 
ATOM     86  F   UNL A   1      48.223  26.703  27.166  1.00  0.00    -0.203 F 
ATOM     87  F   UNL A   1      48.299  27.661  21.796  1.00  0.00    -0.200 F 
ATOM     88  C   UNL A   1      49.361  26.827  23.733  1.00  0.00     0.200 A 
ATOM     89  F   UNL A   1      50.380  25.998  25.696  1.00  0.00    -0.200 F 
ATOM     90  F   UNL A   1      50.425  26.455  23.008  1.00  0.00    -0.200 F 
ENDBRANCH  57  80
ENDBRANCH  31  32
ENDBRANCH  24  26
ENDBRANCH  23  24
ENDBRANCH  22  23
ENDBRANCH   1  22
TORSDOF 14
ENDMDL
