MODEL 1
REMARK VINA RESULT:     -11.3      0.000      0.000
REMARK SMILES COc1ccc(OCc2nc(C)no2)c(/C=C/C(=O)OCCOC(=O)c2ccc(-c3c4nc(c(-c5c(F)c(F)c(F)c(F)c5F)c5ccc([nH]5)c(-c5c(F)c(F)c(F)c(F)c5F)c5nc(c(-c6c(F)c(F)c(F)c(F)c6F)c6ccc3[nH]6)C=C5)C=C4)cc2)c1
REMARK SMILES IDX 21 1 20 2 18 3 19 4 17 5 16 6 15 7 3 8 4 9 89 10 5 11 6 12
REMARK SMILES IDX 2 13 1 14 7 15 8 16 9 17 10 18 14 19 11 20 13 21 12 22 22 23
REMARK SMILES IDX 23 24 24 25 25 26 26 27 27 28 88 29 28 30 87 31 29 32 30 33
REMARK SMILES IDX 31 34 81 35 32 36 86 37 80 38 82 39 33 40 85 41 79 42 78 43
REMARK SMILES IDX 34 45 66 46 46 47 65 48 47 49 50 50 64 51 83 52 48 53 49 54
REMARK SMILES IDX 63 56 84 57 51 58 35 59 36 60 44 61 37 62 38 63 42 64 45 65
REMARK SMILES IDX 39 66 40 67 43 68 41 69 67 70 68 71 76 72 69 73 70 74 74 75
REMARK SMILES IDX 77 76 71 77 72 78 75 79 73 80 52 81 53 82 61 83 54 84 55 85
REMARK SMILES IDX 59 86 62 87 56 88 57 89 60 90 58 91
REMARK H PARENT 82 44 50 55
REMARK Flexibility Score: inf
ROOT
ATOM      1  C   UNL A   1      31.749  28.415  26.830  1.00  0.00     0.275 C 
ENDROOT
BRANCH   1   2
ATOM      2  O   UNL A   1      32.429  27.268  26.288  1.00  0.00    -0.459 OA
BRANCH   2   3
ATOM      3  C   UNL A   1      31.738  26.114  26.380  1.00  0.00     0.330 C 
ATOM      4  O   UNL A   1      30.635  25.956  26.875  1.00  0.00    -0.247 OA
BRANCH   3   5
ATOM      5  C   UNL A   1      32.462  25.018  25.719  1.00  0.00     0.094 C 
ATOM      6  C   UNL A   1      33.702  25.323  25.317  1.00  0.00     0.019 C 
BRANCH   6   7
ATOM      7  C   UNL A   1      34.749  24.377  24.922  1.00  0.00     0.020 A 
ATOM      8  C   UNL A   1      36.954  23.538  25.536  1.00  0.00     0.119 A 
ATOM      9  C   UNL A   1      36.911  22.614  24.507  1.00  0.00     0.050 A 
ATOM     10  C   UNL A   1      35.916  24.454  25.705  1.00  0.00     0.058 A 
ATOM     11  C   UNL A   1      35.758  22.518  23.735  1.00  0.00     0.051 A 
ATOM     12  C   UNL A   1      34.640  23.340  23.974  1.00  0.00     0.127 A 
BRANCH   8  13
ATOM     13  O   UNL A   1      38.029  23.508  26.382  1.00  0.00    -0.497 OA
ATOM     14  C   UNL A   1      38.828  22.348  26.125  1.00  0.00     0.278 C 
ENDBRANCH   8  13
BRANCH  12  15
ATOM     15  O   UNL A   1      33.572  22.888  23.249  1.00  0.00    -0.483 OA
BRANCH  15  16
ATOM     16  C   UNL A   1      33.279  23.280  21.914  1.00  0.00     0.329 C 
BRANCH  16  17
ATOM     17  C   UNL A   1      32.754  24.666  21.802  1.00  0.00     0.264 A 
ATOM     18  N   UNL A   1      31.611  25.184  22.197  1.00  0.00    -0.193 NA
ATOM     19  O   UNL A   1      33.676  25.621  21.461  1.00  0.00    -0.336 OA
ATOM     20  C   UNL A   1      31.905  26.517  22.265  1.00  0.00     0.169 A 
ATOM     21  N   UNL A   1      33.097  26.858  21.764  1.00  0.00    -0.063 NA
ATOM     22  C   UNL A   1      31.051  27.453  23.020  1.00  0.00     0.093 C 
ENDBRANCH  16  17
ENDBRANCH  15  16
ENDBRANCH  12  15
ENDBRANCH   6   7
ENDBRANCH   3   5
ENDBRANCH   2   3
ENDBRANCH   1   2
BRANCH   1  23
ATOM     23  C   UNL A   1      31.865  29.595  25.865  1.00  0.00     0.275 C 
BRANCH  23  24
ATOM     24  O   UNL A   1      33.172  30.203  25.934  1.00  0.00    -0.458 OA
BRANCH  24  25
ATOM     25  C   UNL A   1      33.326  31.157  26.877  1.00  0.00     0.338 C 
ATOM     26  O   UNL A   1      32.588  32.107  27.111  1.00  0.00    -0.246 OA
BRANCH  25  27
ATOM     27  C   UNL A   1      34.533  30.887  27.669  1.00  0.00     0.060 A 
ATOM     28  C   UNL A   1      35.417  31.930  27.939  1.00  0.00     0.016 A 
ATOM     29  C   UNL A   1      34.844  29.583  28.051  1.00  0.00     0.016 A 
ATOM     30  C   UNL A   1      36.636  31.669  28.564  1.00  0.00     0.010 A 
ATOM     31  C   UNL A   1      36.036  29.335  28.741  1.00  0.00     0.010 A 
ATOM     32  C   UNL A   1      36.950  30.373  28.998  1.00  0.00    -0.014 A 
BRANCH  32  33
ATOM     33  C   UNL A   1      38.209  30.105  29.752  1.00  0.00     0.031 A 
ATOM     34  C   UNL A   1      39.264  29.192  29.190  1.00  0.00     0.074 A 
ATOM     35  C   UNL A   1      38.390  30.657  30.969  1.00  0.00     0.049 A 
ATOM     36  N   UNL A   1      40.326  28.695  29.775  1.00  0.00    -0.248 NA
ATOM     37  C   UNL A   1      39.105  28.778  27.787  1.00  0.00     0.031 C 
ATOM     38  C   UNL A   1      37.468  31.585  31.625  1.00  0.00     0.029 A 
ATOM     39  N   UNL A   1      39.409  30.507  31.880  1.00  0.00    -0.354 N 
ATOM     40  C   UNL A   1      40.935  27.878  28.830  1.00  0.00     0.074 A 
ATOM     41  C   UNL A   1      40.128  27.947  27.630  1.00  0.00     0.031 C 
ATOM     42  C   UNL A   1      37.963  31.927  32.824  1.00  0.00     0.029 A 
ATOM     43  C   UNL A   1      39.194  31.181  33.059  1.00  0.00     0.049 A 
ATOM     44  H   UNL A   1      40.214  29.967  31.706  1.00  0.00     0.167 HD
ATOM     45  C   UNL A   1      42.063  27.138  28.958  1.00  0.00     0.037 A 
ATOM     46  C   UNL A   1      39.875  31.161  34.221  1.00  0.00     0.037 A 
ATOM     47  C   UNL A   1      42.895  27.109  30.134  1.00  0.00     0.049 A 
ATOM     48  C   UNL A   1      41.087  30.282  34.352  1.00  0.00     0.074 A 
ATOM     49  C   UNL A   1      44.094  26.441  30.325  1.00  0.00     0.029 A 
ATOM     50  N   UNL A   1      42.618  27.777  31.316  1.00  0.00    -0.354 N 
ATOM     51  N   UNL A   1      41.654  29.514  33.454  1.00  0.00    -0.248 NA
ATOM     52  C   UNL A   1      41.742  30.247  35.668  1.00  0.00     0.031 C 
ATOM     53  C   UNL A   1      44.515  26.663  31.640  1.00  0.00     0.029 A 
ATOM     54  C   UNL A   1      43.603  27.505  32.253  1.00  0.00     0.049 A 
ATOM     55  H   UNL A   1      41.838  28.357  31.468  1.00  0.00     0.167 HD
ATOM     56  C   UNL A   1      42.732  28.915  34.090  1.00  0.00     0.074 A 
ATOM     57  C   UNL A   1      42.758  29.427  35.444  1.00  0.00     0.031 C 
ATOM     58  C   UNL A   1      43.616  28.015  33.598  1.00  0.00     0.037 A 
BRANCH  45  59
ATOM     59  C   UNL A   1      42.473  26.266  27.809  1.00  0.00     0.064 A 
ATOM     60  C   UNL A   1      43.391  26.697  26.841  1.00  0.00     0.173 A 
ATOM     61  C   UNL A   1      42.015  24.940  27.736  1.00  0.00     0.173 A 
ATOM     62  F   UNL A   1      43.854  27.956  26.864  1.00  0.00    -0.203 F 
ATOM     63  C   UNL A   1      43.831  25.835  25.840  1.00  0.00     0.198 A 
ATOM     64  C   UNL A   1      42.473  24.075  26.747  1.00  0.00     0.198 A 
ATOM     65  F   UNL A   1      41.142  24.478  28.645  1.00  0.00    -0.203 F 
ATOM     66  F   UNL A   1      44.697  26.271  24.915  1.00  0.00    -0.200 F 
ATOM     67  C   UNL A   1      43.381  24.523  25.800  1.00  0.00     0.200 A 
ATOM     68  F   UNL A   1      42.048  22.805  26.720  1.00  0.00    -0.200 F 
ATOM     69  F   UNL A   1      43.822  23.689  24.848  1.00  0.00    -0.200 F 
ENDBRANCH  45  59
BRANCH  46  70
ATOM     70  C   UNL A   1      39.387  31.947  35.384  1.00  0.00     0.064 A 
ATOM     71  C   UNL A   1      39.782  33.278  35.574  1.00  0.00     0.173 A 
ATOM     72  C   UNL A   1      38.541  31.373  36.347  1.00  0.00     0.173 A 
ATOM     73  F   UNL A   1      40.615  33.860  34.700  1.00  0.00    -0.203 F 
ATOM     74  C   UNL A   1      39.366  33.999  36.692  1.00  0.00     0.198 A 
ATOM     75  C   UNL A   1      38.099  32.105  37.446  1.00  0.00     0.198 A 
ATOM     76  F   UNL A   1      38.140  30.101  36.216  1.00  0.00    -0.203 F 
ATOM     77  F   UNL A   1      39.803  35.252  36.879  1.00  0.00    -0.200 F 
ATOM     78  C   UNL A   1      38.520  33.414  37.623  1.00  0.00     0.200 A 
ATOM     79  F   UNL A   1      37.274  31.540  38.336  1.00  0.00    -0.200 F 
ATOM     80  F   UNL A   1      38.121  34.107  38.698  1.00  0.00    -0.200 F 
ENDBRANCH  46  70
BRANCH  58  81
ATOM     81  C   UNL A   1      44.691  27.533  34.526  1.00  0.00     0.064 A 
ATOM     82  C   UNL A   1      45.897  28.233  34.672  1.00  0.00     0.173 A 
ATOM     83  C   UNL A   1      44.504  26.376  35.298  1.00  0.00     0.173 A 
ATOM     84  F   UNL A   1      46.130  29.334  33.941  1.00  0.00    -0.203 F 
ATOM     85  C   UNL A   1      46.885  27.783  35.543  1.00  0.00     0.198 A 
ATOM     86  C   UNL A   1      45.483  25.943  36.188  1.00  0.00     0.198 A 
ATOM     87  F   UNL A   1      43.367  25.671  35.196  1.00  0.00    -0.203 F 
ATOM     88  F   UNL A   1      48.046  28.443  35.635  1.00  0.00    -0.200 F 
ATOM     89  C   UNL A   1      46.674  26.642  36.305  1.00  0.00     0.200 A 
ATOM     90  F   UNL A   1      45.274  24.847  36.929  1.00  0.00    -0.200 F 
ATOM     91  F   UNL A   1      47.624  26.213  37.147  1.00  0.00    -0.200 F 
ENDBRANCH  58  81
ENDBRANCH  32  33
ENDBRANCH  25  27
ENDBRANCH  24  25
ENDBRANCH  23  24
ENDBRANCH   1  23
TORSDOF 16
ENDMDL
MODEL 2
REMARK VINA RESULT:     -11.3      1.776      2.745
REMARK SMILES COc1ccc(OCc2nc(C)no2)c(/C=C/C(=O)OCCOC(=O)c2ccc(-c3c4nc(c(-c5c(F)c(F)c(F)c(F)c5F)c5ccc([nH]5)c(-c5c(F)c(F)c(F)c(F)c5F)c5nc(c(-c6c(F)c(F)c(F)c(F)c6F)c6ccc3[nH]6)C=C5)C=C4)cc2)c1
REMARK SMILES IDX 21 1 20 2 18 3 19 4 17 5 16 6 15 7 3 8 4 9 89 10 5 11 6 12
REMARK SMILES IDX 2 13 1 14 7 15 8 16 9 17 10 18 14 19 11 20 13 21 12 22 22 23
REMARK SMILES IDX 23 24 24 25 25 26 26 27 27 28 88 29 28 30 87 31 29 32 30 33
REMARK SMILES IDX 31 34 81 35 32 36 86 37 80 38 82 39 33 40 85 41 79 42 78 43
REMARK SMILES IDX 34 45 66 46 46 47 65 48 47 49 50 50 64 51 83 52 48 53 49 54
REMARK SMILES IDX 63 56 84 57 51 58 35 59 36 60 44 61 37 62 38 63 42 64 45 65
REMARK SMILES IDX 39 66 40 67 43 68 41 69 67 70 68 71 76 72 69 73 70 74 74 75
REMARK SMILES IDX 77 76 71 77 72 78 75 79 73 80 52 81 53 82 61 83 54 84 55 85
REMARK SMILES IDX 59 86 62 87 56 88 57 89 60 90 58 91
REMARK H PARENT 82 44 50 55
REMARK Flexibility Score: inf
ROOT
ATOM      1  C   UNL A   1      32.055  28.196  25.756  1.00  0.00     0.275 C 
ENDROOT
BRANCH   1   2
ATOM      2  O   UNL A   1      33.426  27.913  25.423  1.00  0.00    -0.459 OA
BRANCH   2   3
ATOM      3  C   UNL A   1      33.588  26.933  24.511  1.00  0.00     0.330 C 
ATOM      4  O   UNL A   1      33.376  27.003  23.311  1.00  0.00    -0.247 OA
BRANCH   3   5
ATOM      5  C   UNL A   1      34.146  25.725  25.136  1.00  0.00     0.094 C 
ATOM      6  C   UNL A   1      34.098  24.623  24.376  1.00  0.00     0.019 C 
BRANCH   6   7
ATOM      7  C   UNL A   1      34.837  23.378  24.598  1.00  0.00     0.020 A 
ATOM      8  C   UNL A   1      37.005  22.489  25.270  1.00  0.00     0.119 A 
ATOM      9  C   UNL A   1      36.518  21.195  25.202  1.00  0.00     0.050 A 
ATOM     10  C   UNL A   1      36.197  23.566  24.909  1.00  0.00     0.058 A 
ATOM     11  C   UNL A   1      35.173  20.996  24.908  1.00  0.00     0.051 A 
ATOM     12  C   UNL A   1      34.301  22.077  24.675  1.00  0.00     0.127 A 
BRANCH   8  13
ATOM     13  O   UNL A   1      38.286  22.670  25.715  1.00  0.00    -0.497 OA
ATOM     14  C   UNL A   1      38.379  23.879  26.475  1.00  0.00     0.278 C 
ENDBRANCH   8  13
BRANCH  12  15
ATOM     15  O   UNL A   1      33.009  21.629  24.650  1.00  0.00    -0.483 OA
BRANCH  15  16
ATOM     16  C   UNL A   1      32.454  20.822  23.619  1.00  0.00     0.329 C 
BRANCH  16  17
ATOM     17  C   UNL A   1      32.405  19.375  23.956  1.00  0.00     0.264 A 
ATOM     18  N   UNL A   1      32.880  18.329  23.314  1.00  0.00    -0.193 NA
ATOM     19  O   UNL A   1      32.030  19.081  25.240  1.00  0.00    -0.336 OA
ATOM     20  C   UNL A   1      32.959  17.392  24.305  1.00  0.00     0.169 A 
ATOM     21  N   UNL A   1      32.394  17.748  25.465  1.00  0.00    -0.063 NA
ATOM     22  C   UNL A   1      33.785  16.180  24.152  1.00  0.00     0.093 C 
ENDBRANCH  16  17
ENDBRANCH  15  16
ENDBRANCH  12  15
ENDBRANCH   6   7
ENDBRANCH   3   5
ENDBRANCH   2   3
ENDBRANCH   1   2
BRANCH   1  23
ATOM     23  C   UNL A   1      31.816  29.706  25.743  1.00  0.00     0.275 C 
BRANCH  23  24
ATOM     24  O   UNL A   1      33.060  30.435  25.804  1.00  0.00    -0.458 OA
BRANCH  24  25
ATOM     25  C   UNL A   1      33.203  31.265  26.859  1.00  0.00     0.338 C 
ATOM     26  O   UNL A   1      32.406  32.101  27.269  1.00  0.00    -0.246 OA
BRANCH  25  27
ATOM     27  C   UNL A   1      34.483  31.006  27.529  1.00  0.00     0.060 A 
ATOM     28  C   UNL A   1      34.753  29.726  28.009  1.00  0.00     0.016 A 
ATOM     29  C   UNL A   1      35.369  32.053  27.778  1.00  0.00     0.016 A 
ATOM     30  C   UNL A   1      35.896  29.492  28.773  1.00  0.00     0.010 A 
ATOM     31  C   UNL A   1      36.551  31.801  28.485  1.00  0.00     0.010 A 
ATOM     32  C   UNL A   1      36.824  30.519  28.998  1.00  0.00    -0.014 A 
BRANCH  32  33
ATOM     33  C   UNL A   1      38.095  30.253  29.732  1.00  0.00     0.031 A 
ATOM     34  C   UNL A   1      39.148  29.351  29.148  1.00  0.00     0.074 A 
ATOM     35  C   UNL A   1      38.290  30.796  30.951  1.00  0.00     0.049 A 
ATOM     36  N   UNL A   1      40.221  28.855  29.714  1.00  0.00    -0.248 NA
ATOM     37  C   UNL A   1      38.972  28.948  27.744  1.00  0.00     0.031 C 
ATOM     38  C   UNL A   1      37.370  31.712  31.628  1.00  0.00     0.029 A 
ATOM     39  N   UNL A   1      39.321  30.643  31.847  1.00  0.00    -0.354 N 
ATOM     40  C   UNL A   1      40.822  28.050  28.754  1.00  0.00     0.074 A 
ATOM     41  C   UNL A   1      39.998  28.125  27.566  1.00  0.00     0.031 C 
ATOM     42  C   UNL A   1      37.880  32.046  32.822  1.00  0.00     0.029 A 
ATOM     43  C   UNL A   1      39.119  31.306  33.035  1.00  0.00     0.049 A 
ATOM     44  H   UNL A   1      40.127  30.110  31.658  1.00  0.00     0.167 HD
ATOM     45  C   UNL A   1      41.955  27.315  28.861  1.00  0.00     0.037 A 
ATOM     46  C   UNL A   1      39.815  31.280  34.187  1.00  0.00     0.037 A 
ATOM     47  C   UNL A   1      42.804  27.282  30.025  1.00  0.00     0.049 A 
ATOM     48  C   UNL A   1      41.035  30.407  34.294  1.00  0.00     0.074 A 
ATOM     49  C   UNL A   1      44.008  26.619  30.194  1.00  0.00     0.029 A 
ATOM     50  N   UNL A   1      42.538  27.937  31.216  1.00  0.00    -0.354 N 
ATOM     51  N   UNL A   1      41.594  29.651  33.382  1.00  0.00    -0.248 NA
ATOM     52  C   UNL A   1      41.707  30.366  35.600  1.00  0.00     0.031 C 
ATOM     53  C   UNL A   1      44.446  26.833  31.504  1.00  0.00     0.029 A 
ATOM     54  C   UNL A   1      43.538  27.664  32.137  1.00  0.00     0.049 A 
ATOM     55  H   UNL A   1      41.757  28.511  31.384  1.00  0.00     0.167 HD
ATOM     56  C   UNL A   1      42.683  29.053  33.998  1.00  0.00     0.074 A 
ATOM     57  C   UNL A   1      42.725  29.553  35.356  1.00  0.00     0.031 C 
ATOM     58  C   UNL A   1      43.566  28.162  33.486  1.00  0.00     0.037 A 
BRANCH  45  59
ATOM     59  C   UNL A   1      42.355  26.456  27.698  1.00  0.00     0.064 A 
ATOM     60  C   UNL A   1      43.292  26.882  26.748  1.00  0.00     0.173 A 
ATOM     61  C   UNL A   1      41.864  25.144  27.596  1.00  0.00     0.173 A 
ATOM     62  F   UNL A   1      43.786  28.129  26.800  1.00  0.00    -0.203 F 
ATOM     63  C   UNL A   1      43.721  26.029  25.734  1.00  0.00     0.198 A 
ATOM     64  C   UNL A   1      42.310  24.287  26.594  1.00  0.00     0.198 A 
ATOM     65  F   UNL A   1      40.971  24.686  28.486  1.00  0.00    -0.203 F 
ATOM     66  F   UNL A   1      44.607  26.461  24.826  1.00  0.00    -0.200 F 
ATOM     67  C   UNL A   1      43.238  24.730  25.664  1.00  0.00     0.200 A 
ATOM     68  F   UNL A   1      41.854  23.028  26.538  1.00  0.00    -0.200 F 
ATOM     69  F   UNL A   1      43.668  23.904  24.701  1.00  0.00    -0.200 F 
ENDBRANCH  45  59
BRANCH  46  70
ATOM     70  C   UNL A   1      39.338  32.054  35.364  1.00  0.00     0.064 A 
ATOM     71  C   UNL A   1      38.513  31.464  36.331  1.00  0.00     0.173 A 
ATOM     72  C   UNL A   1      39.672  33.408  35.527  1.00  0.00     0.173 A 
ATOM     73  F   UNL A   1      38.141  30.183  36.201  1.00  0.00    -0.203 F 
ATOM     74  C   UNL A   1      38.024  32.204  37.405  1.00  0.00     0.198 A 
ATOM     75  C   UNL A   1      39.210  34.136  36.620  1.00  0.00     0.198 A 
ATOM     76  F   UNL A   1      40.453  34.021  34.626  1.00  0.00    -0.203 F 
ATOM     77  F   UNL A   1      37.192  31.631  38.286  1.00  0.00    -0.200 F 
ATOM     78  C   UNL A   1      38.378  33.537  37.553  1.00  0.00     0.200 A 
ATOM     79  F   UNL A   1      39.563  35.420  36.763  1.00  0.00    -0.200 F 
ATOM     80  F   UNL A   1      37.907  34.248  38.586  1.00  0.00    -0.200 F 
ENDBRANCH  46  70
BRANCH  58  81
ATOM     81  C   UNL A   1      44.656  27.678  34.395  1.00  0.00     0.064 A 
ATOM     82  C   UNL A   1      45.861  28.384  34.530  1.00  0.00     0.173 A 
ATOM     83  C   UNL A   1      44.486  26.515  35.161  1.00  0.00     0.173 A 
ATOM     84  F   UNL A   1      46.078  29.492  33.804  1.00  0.00    -0.203 F 
ATOM     85  C   UNL A   1      46.863  27.932  35.384  1.00  0.00     0.198 A 
ATOM     86  C   UNL A   1      45.480  26.080  36.034  1.00  0.00     0.198 A 
ATOM     87  F   UNL A   1      43.351  25.805  35.069  1.00  0.00    -0.203 F 
ATOM     88  F   UNL A   1      48.022  28.598  35.465  1.00  0.00    -0.200 F 
ATOM     89  C   UNL A   1      46.668  26.785  36.139  1.00  0.00     0.200 A 
ATOM     90  F   UNL A   1      45.286  24.977  36.770  1.00  0.00    -0.200 F 
ATOM     91  F   UNL A   1      47.633  26.354  36.965  1.00  0.00    -0.200 F 
ENDBRANCH  58  81
ENDBRANCH  32  33
ENDBRANCH  25  27
ENDBRANCH  24  25
ENDBRANCH  23  24
ENDBRANCH   1  23
TORSDOF 16
ENDMDL
MODEL 3
REMARK VINA RESULT:     -11.2      1.888      3.114
REMARK SMILES COc1ccc(OCc2nc(C)no2)c(/C=C/C(=O)OCCOC(=O)c2ccc(-c3c4nc(c(-c5c(F)c(F)c(F)c(F)c5F)c5ccc([nH]5)c(-c5c(F)c(F)c(F)c(F)c5F)c5nc(c(-c6c(F)c(F)c(F)c(F)c6F)c6ccc3[nH]6)C=C5)C=C4)cc2)c1
REMARK SMILES IDX 21 1 20 2 18 3 19 4 17 5 16 6 15 7 3 8 4 9 89 10 5 11 6 12
REMARK SMILES IDX 2 13 1 14 7 15 8 16 9 17 10 18 14 19 11 20 13 21 12 22 22 23
REMARK SMILES IDX 23 24 24 25 25 26 26 27 27 28 88 29 28 30 87 31 29 32 30 33
REMARK SMILES IDX 31 34 81 35 32 36 86 37 80 38 82 39 33 40 85 41 79 42 78 43
REMARK SMILES IDX 34 45 66 46 46 47 65 48 47 49 50 50 64 51 83 52 48 53 49 54
REMARK SMILES IDX 63 56 84 57 51 58 35 59 36 60 44 61 37 62 38 63 42 64 45 65
REMARK SMILES IDX 39 66 40 67 43 68 41 69 67 70 68 71 76 72 69 73 70 74 74 75
REMARK SMILES IDX 77 76 71 77 72 78 75 79 73 80 52 81 53 82 61 83 54 84 55 85
REMARK SMILES IDX 59 86 62 87 56 88 57 89 60 90 58 91
REMARK H PARENT 82 44 50 55
REMARK Flexibility Score: inf
ROOT
ATOM      1  C   UNL A   1      33.673  28.276  24.564  1.00  0.00     0.275 C 
ENDROOT
BRANCH   1   2
ATOM      2  O   UNL A   1      32.911  27.399  23.714  1.00  0.00    -0.459 OA
BRANCH   2   3
ATOM      3  C   UNL A   1      33.638  26.443  23.102  1.00  0.00     0.330 C 
ATOM      4  O   UNL A   1      34.028  26.442  21.946  1.00  0.00    -0.247 OA
BRANCH   3   5
ATOM      5  C   UNL A   1      33.995  25.374  24.047  1.00  0.00     0.094 C 
ATOM      6  C   UNL A   1      34.332  24.209  23.480  1.00  0.00     0.019 C 
BRANCH   6   7
ATOM      7  C   UNL A   1      35.015  23.088  24.129  1.00  0.00     0.020 A 
ATOM      8  C   UNL A   1      37.086  22.446  25.244  1.00  0.00     0.119 A 
ATOM      9  C   UNL A   1      36.576  21.187  25.511  1.00  0.00     0.050 A 
ATOM     10  C   UNL A   1      36.343  23.366  24.505  1.00  0.00     0.058 A 
ATOM     11  C   UNL A   1      35.261  20.904  25.156  1.00  0.00     0.051 A 
ATOM     12  C   UNL A   1      34.443  21.864  24.531  1.00  0.00     0.127 A 
BRANCH   8  13
ATOM     13  O   UNL A   1      38.322  22.757  25.741  1.00  0.00    -0.497 OA
ATOM     14  C   UNL A   1      38.296  24.047  26.362  1.00  0.00     0.278 C 
ENDBRANCH   8  13
BRANCH  12  15
ATOM     15  O   UNL A   1      33.149  21.423  24.511  1.00  0.00    -0.483 OA
BRANCH  15  16
ATOM     16  C   UNL A   1      32.624  20.505  23.559  1.00  0.00     0.329 C 
BRANCH  16  17
ATOM     17  C   UNL A   1      32.529  19.111  24.065  1.00  0.00     0.264 A 
ATOM     18  N   UNL A   1      32.967  17.981  23.551  1.00  0.00    -0.193 NA
ATOM     19  O   UNL A   1      32.153  18.983  25.376  1.00  0.00    -0.336 OA
ATOM     20  C   UNL A   1      33.021  17.166  24.646  1.00  0.00     0.169 A 
ATOM     21  N   UNL A   1      32.475  17.675  25.756  1.00  0.00    -0.063 NA
ATOM     22  C   UNL A   1      33.808  15.918  24.636  1.00  0.00     0.093 C 
ENDBRANCH  16  17
ENDBRANCH  15  16
ENDBRANCH  12  15
ENDBRANCH   6   7
ENDBRANCH   3   5
ENDBRANCH   2   3
ENDBRANCH   1   2
BRANCH   1  23
ATOM     23  C   UNL A   1      32.881  29.553  24.841  1.00  0.00     0.275 C 
BRANCH  23  24
ATOM     24  O   UNL A   1      32.585  29.693  26.247  1.00  0.00    -0.458 OA
BRANCH  24  25
ATOM     25  C   UNL A   1      33.004  30.839  26.824  1.00  0.00     0.338 C 
ATOM     26  O   UNL A   1      32.420  31.915  26.867  1.00  0.00    -0.246 OA
BRANCH  25  27
ATOM     27  C   UNL A   1      34.303  30.625  27.474  1.00  0.00     0.060 A 
ATOM     28  C   UNL A   1      34.606  29.367  27.992  1.00  0.00     0.016 A 
ATOM     29  C   UNL A   1      35.176  31.694  27.667  1.00  0.00     0.016 A 
ATOM     30  C   UNL A   1      35.770  29.179  28.738  1.00  0.00     0.010 A 
ATOM     31  C   UNL A   1      36.378  31.486  28.355  1.00  0.00     0.010 A 
ATOM     32  C   UNL A   1      36.685  30.229  28.906  1.00  0.00    -0.014 A 
BRANCH  32  33
ATOM     33  C   UNL A   1      37.975  30.009  29.620  1.00  0.00     0.031 A 
ATOM     34  C   UNL A   1      39.038  29.118  29.036  1.00  0.00     0.074 A 
ATOM     35  C   UNL A   1      38.181  30.585  30.822  1.00  0.00     0.049 A 
ATOM     36  N   UNL A   1      40.133  28.661  29.592  1.00  0.00    -0.248 NA
ATOM     37  C   UNL A   1      38.844  28.678  27.645  1.00  0.00     0.031 C 
ATOM     38  C   UNL A   1      37.254  31.496  31.496  1.00  0.00     0.029 A 
ATOM     39  N   UNL A   1      39.234  30.478  31.700  1.00  0.00    -0.354 N 
ATOM     40  C   UNL A   1      40.733  27.847  28.639  1.00  0.00     0.074 A 
ATOM     41  C   UNL A   1      39.885  27.875  27.466  1.00  0.00     0.031 C 
ATOM     42  C   UNL A   1      37.779  31.871  32.672  1.00  0.00     0.029 A 
ATOM     43  C   UNL A   1      39.039  31.164  32.876  1.00  0.00     0.049 A 
ATOM     44  H   UNL A   1      40.048  29.960  31.507  1.00  0.00     0.167 HD
ATOM     45  C   UNL A   1      41.886  27.142  28.739  1.00  0.00     0.037 A 
ATOM     46  C   UNL A   1      39.758  31.182  34.014  1.00  0.00     0.037 A 
ATOM     47  C   UNL A   1      42.758  27.156  29.887  1.00  0.00     0.049 A 
ATOM     48  C   UNL A   1      41.000  30.340  34.116  1.00  0.00     0.074 A 
ATOM     49  C   UNL A   1      43.981  26.526  30.047  1.00  0.00     0.029 A 
ATOM     50  N   UNL A   1      42.501  27.834  31.068  1.00  0.00    -0.354 N 
ATOM     51  N   UNL A   1      41.559  29.576  33.211  1.00  0.00    -0.248 NA
ATOM     52  C   UNL A   1      41.699  30.346  35.410  1.00  0.00     0.031 C 
ATOM     53  C   UNL A   1      44.440  26.781  31.342  1.00  0.00     0.029 A 
ATOM     54  C   UNL A   1      43.524  27.606  31.974  1.00  0.00     0.049 A 
ATOM     55  H   UNL A   1      41.710  28.393  31.238  1.00  0.00     0.167 HD
ATOM     56  C   UNL A   1      42.674  29.018  33.819  1.00  0.00     0.074 A 
ATOM     57  C   UNL A   1      42.730  29.551  35.164  1.00  0.00     0.031 C 
ATOM     58  C   UNL A   1      43.568  28.136  33.310  1.00  0.00     0.037 A 
BRANCH  45  59
ATOM     59  C   UNL A   1      42.283  26.265  27.589  1.00  0.00     0.064 A 
ATOM     60  C   UNL A   1      43.243  26.663  26.650  1.00  0.00     0.173 A 
ATOM     61  C   UNL A   1      41.764  24.964  27.490  1.00  0.00     0.173 A 
ATOM     62  F   UNL A   1      43.764  27.898  26.699  1.00  0.00    -0.203 F 
ATOM     63  C   UNL A   1      43.668  25.792  25.649  1.00  0.00     0.198 A 
ATOM     64  C   UNL A   1      42.206  24.088  26.501  1.00  0.00     0.198 A 
ATOM     65  F   UNL A   1      40.849  24.533  28.371  1.00  0.00    -0.203 F 
ATOM     66  F   UNL A   1      44.576  26.197  24.750  1.00  0.00    -0.200 F 
ATOM     67  C   UNL A   1      43.156  24.504  25.582  1.00  0.00     0.200 A 
ATOM     68  F   UNL A   1      41.722  22.840  26.448  1.00  0.00    -0.200 F 
ATOM     69  F   UNL A   1      43.582  23.661  24.631  1.00  0.00    -0.200 F 
ENDBRANCH  45  59
BRANCH  46  70
ATOM     70  C   UNL A   1      39.287  31.972  35.182  1.00  0.00     0.064 A 
ATOM     71  C   UNL A   1      38.521  31.379  36.194  1.00  0.00     0.173 A 
ATOM     72  C   UNL A   1      39.565  33.344  35.292  1.00  0.00     0.173 A 
ATOM     73  F   UNL A   1      38.201  30.080  36.117  1.00  0.00    -0.203 F 
ATOM     74  C   UNL A   1      38.035  32.132  37.262  1.00  0.00     0.198 A 
ATOM     75  C   UNL A   1      39.107  34.087  36.376  1.00  0.00     0.198 A 
ATOM     76  F   UNL A   1      40.288  33.961  34.346  1.00  0.00    -0.203 F 
ATOM     77  F   UNL A   1      37.258  31.553  38.187  1.00  0.00    -0.200 F 
ATOM     78  C   UNL A   1      38.334  33.483  37.355  1.00  0.00     0.200 A 
ATOM     79  F   UNL A   1      39.408  35.389  36.468  1.00  0.00    -0.200 F 
ATOM     80  F   UNL A   1      37.866  34.206  38.381  1.00  0.00    -0.200 F 
ENDBRANCH  46  70
BRANCH  58  81
ATOM     81  C   UNL A   1      44.686  27.700  34.208  1.00  0.00     0.064 A 
ATOM     82  C   UNL A   1      44.581  26.544  34.996  1.00  0.00     0.173 A 
ATOM     83  C   UNL A   1      45.886  28.426  34.262  1.00  0.00     0.173 A 
ATOM     84  F   UNL A   1      43.447  25.827  34.993  1.00  0.00    -0.203 F 
ATOM     85  C   UNL A   1      45.629  26.142  35.818  1.00  0.00     0.198 A 
ATOM     86  C   UNL A   1      46.942  28.006  35.066  1.00  0.00     0.198 A 
ATOM     87  F   UNL A   1      46.036  29.537  33.526  1.00  0.00    -0.203 F 
ATOM     88  F   UNL A   1      45.491  25.059  36.595  1.00  0.00    -0.200 F 
ATOM     89  C   UNL A   1      46.810  26.869  35.848  1.00  0.00     0.200 A 
ATOM     90  F   UNL A   1      48.085  28.704  35.085  1.00  0.00    -0.200 F 
ATOM     91  F   UNL A   1      47.820  26.477  36.637  1.00  0.00    -0.200 F 
ENDBRANCH  58  81
ENDBRANCH  32  33
ENDBRANCH  25  27
ENDBRANCH  24  25
ENDBRANCH  23  24
ENDBRANCH   1  23
TORSDOF 16
ENDMDL
