MODEL 1
REMARK VINA RESULT:     -12.8      0.000      0.000
REMARK SMILES C[C@H]1CC[C@@](C[C@@H]2CSc3ccccc32)(C(=O)OCCOC(=O)c2ccc(-c3c4nc(c(-c5c(F)c(F)c(F)c(F)c5F)c5ccc([nH]5)c(-c5c(F)c(F)c(F)c(F)c5F)c5nc(c(-c6c(F)c(F)c(F)c(F)c6F)c6ccc3[nH]6)C=C5)C=C4)cc2)CC1
REMARK SMILES IDX 19 1 18 2 16 3 17 4 5 5 1 6 2 7 88 8 3 9 87 10 4 11 6 12
REMARK SMILES IDX 7 13 8 14 15 15 9 16 10 17 14 18 11 19 13 20 12 21 20 22
REMARK SMILES IDX 21 23 22 24 23 25 24 26 25 27 86 28 26 29 85 30 27 31 28 32
REMARK SMILES IDX 29 33 79 34 30 35 84 36 78 37 80 38 31 39 83 40 77 41 76 42
REMARK SMILES IDX 32 44 64 45 44 46 63 47 45 48 48 49 62 50 81 51 46 52 47 53
REMARK SMILES IDX 61 55 82 56 49 57 33 58 34 59 42 60 35 61 36 62 40 63 43 64
REMARK SMILES IDX 37 65 38 66 41 67 39 68 65 69 66 70 74 71 67 72 68 73 72 74
REMARK SMILES IDX 75 75 69 76 70 77 73 78 71 79 50 80 51 81 59 82 52 83 53 84
REMARK SMILES IDX 57 85 60 86 54 87 55 88 58 89 56 90
REMARK H PARENT 80 43 48 54
REMARK Flexibility Score: inf
ROOT
ATOM      1  C   UNL A   1      31.758  28.813  27.620  1.00  0.00     0.274 C 
ENDROOT
BRANCH   1   2
ATOM      2  O   UNL A   1      32.632  27.814  27.048  1.00  0.00    -0.462 OA
BRANCH   2   3
ATOM      3  C   UNL A   1      32.043  26.752  26.443  1.00  0.00     0.312 C 
ATOM      4  O   UNL A   1      31.182  26.053  26.970  1.00  0.00    -0.252 OA
BRANCH   3   5
ATOM      5  C   UNL A   1      32.650  26.418  25.067  1.00  0.00     0.069 C 
ATOM      6  C   UNL A   1      30.137  28.653  22.105  1.00  0.00     0.007 C 
ATOM      7  C   UNL A   1      31.203  27.752  22.729  1.00  0.00    -0.014 C 
ATOM      8  C   UNL A   1      30.556  26.619  23.513  1.00  0.00     0.004 C 
ATOM      9  C   UNL A   1      32.096  28.545  23.676  1.00  0.00     0.004 C 
ATOM     10  C   UNL A   1      31.569  25.701  24.193  1.00  0.00     0.019 C 
ATOM     11  C   UNL A   1      33.170  27.650  24.292  1.00  0.00     0.019 C 
BRANCH   5  12
ATOM     12  C   UNL A   1      33.760  25.331  25.353  1.00  0.00     0.028 C 
BRANCH  12  13
ATOM     13  C   UNL A   1      33.512  23.807  25.213  1.00  0.00     0.032 C 
ATOM     14  C   UNL A   1      32.930  23.082  26.439  1.00  0.00     0.083 C 
ATOM     15  C   UNL A   1      34.729  23.046  24.757  1.00  0.00    -0.030 A 
ATOM     16  S   UNL A   1      34.201  21.970  27.115  1.00  0.00    -0.125 SA
ATOM     17  C   UNL A   1      35.221  22.119  25.678  1.00  0.00     0.011 A 
ATOM     18  C   UNL A   1      35.422  23.298  23.574  1.00  0.00     0.005 A 
ATOM     19  C   UNL A   1      36.444  21.500  25.477  1.00  0.00     0.015 A 
ATOM     20  C   UNL A   1      36.651  22.675  23.362  1.00  0.00     0.000 A 
ATOM     21  C   UNL A   1      37.167  21.792  24.317  1.00  0.00     0.001 A 
ENDBRANCH  12  13
ENDBRANCH   5  12
ENDBRANCH   3   5
ENDBRANCH   2   3
ENDBRANCH   1   2
BRANCH   1  22
ATOM     22  C   UNL A   1      31.766  30.080  26.774  1.00  0.00     0.275 C 
BRANCH  22  23
ATOM     23  O   UNL A   1      33.132  30.449  26.536  1.00  0.00    -0.458 OA
BRANCH  23  24
ATOM     24  C   UNL A   1      33.615  31.459  27.293  1.00  0.00     0.338 C 
ATOM     25  O   UNL A   1      33.045  32.492  27.596  1.00  0.00    -0.246 OA
BRANCH  24  26
ATOM     26  C   UNL A   1      34.972  31.107  27.767  1.00  0.00     0.060 A 
ATOM     27  C   UNL A   1      35.888  32.120  28.032  1.00  0.00     0.016 A 
ATOM     28  C   UNL A   1      35.296  29.787  28.082  1.00  0.00     0.016 A 
ATOM     29  C   UNL A   1      37.120  31.802  28.609  1.00  0.00     0.010 A 
ATOM     30  C   UNL A   1      36.460  29.496  28.790  1.00  0.00     0.010 A 
ATOM     31  C   UNL A   1      37.408  30.491  29.039  1.00  0.00    -0.014 A 
BRANCH  31  32
ATOM     32  C   UNL A   1      38.684  30.195  29.749  1.00  0.00     0.031 A 
ATOM     33  C   UNL A   1      38.918  30.637  31.171  1.00  0.00     0.074 A 
ATOM     34  C   UNL A   1      39.649  29.503  29.108  1.00  0.00     0.049 A 
ATOM     35  N   UNL A   1      39.882  30.292  31.991  1.00  0.00    -0.248 NA
ATOM     36  C   UNL A   1      37.989  31.625  31.741  1.00  0.00     0.031 C 
ATOM     37  C   UNL A   1      39.632  29.143  27.688  1.00  0.00     0.029 A 
ATOM     38  N   UNL A   1      40.808  28.935  29.578  1.00  0.00    -0.354 N 
ATOM     39  C   UNL A   1      39.676  31.025  33.152  1.00  0.00     0.074 A 
ATOM     40  C   UNL A   1      38.552  31.899  32.908  1.00  0.00     0.031 C 
ATOM     41  C   UNL A   1      40.662  28.323  27.429  1.00  0.00     0.029 A 
ATOM     42  C   UNL A   1      41.417  28.109  28.661  1.00  0.00     0.049 A 
ATOM     43  H   UNL A   1      41.167  29.100  30.480  1.00  0.00     0.167 HD
ATOM     44  C   UNL A   1      40.325  30.945  34.337  1.00  0.00     0.037 A 
ATOM     45  C   UNL A   1      42.426  27.231  28.812  1.00  0.00     0.037 A 
ATOM     46  C   UNL A   1      41.400  30.031  34.605  1.00  0.00     0.049 A 
ATOM     47  C   UNL A   1      43.053  27.054  30.168  1.00  0.00     0.074 A 
ATOM     48  C   UNL A   1      42.070  29.807  35.794  1.00  0.00     0.029 A 
ATOM     49  N   UNL A   1      41.950  29.176  33.663  1.00  0.00    -0.354 N 
ATOM     50  N   UNL A   1      42.768  27.659  31.293  1.00  0.00    -0.248 NA
ATOM     51  C   UNL A   1      44.131  26.059  30.275  1.00  0.00     0.031 C 
ATOM     52  C   UNL A   1      43.038  28.823  35.568  1.00  0.00     0.029 A 
ATOM     53  C   UNL A   1      42.951  28.419  34.245  1.00  0.00     0.049 A 
ATOM     54  H   UNL A   1      41.670  29.116  32.721  1.00  0.00     0.167 HD
ATOM     55  C   UNL A   1      43.613  27.109  32.246  1.00  0.00     0.074 A 
ATOM     56  C   UNL A   1      44.413  26.108  31.571  1.00  0.00     0.031 C 
ATOM     57  C   UNL A   1      43.722  27.415  33.561  1.00  0.00     0.037 A 
BRANCH  44  58
ATOM     58  C   UNL A   1      39.848  31.831  35.449  1.00  0.00     0.064 A 
ATOM     59  C   UNL A   1      40.438  33.083  35.681  1.00  0.00     0.173 A 
ATOM     60  C   UNL A   1      38.781  31.444  36.272  1.00  0.00     0.173 A 
ATOM     61  F   UNL A   1      41.469  33.494  34.929  1.00  0.00    -0.203 F 
ATOM     62  C   UNL A   1      39.999  33.902  36.718  1.00  0.00     0.198 A 
ATOM     63  C   UNL A   1      38.326  32.278  37.291  1.00  0.00     0.198 A 
ATOM     64  F   UNL A   1      38.178  30.260  36.087  1.00  0.00    -0.203 F 
ATOM     65  F   UNL A   1      40.612  35.070  36.953  1.00  0.00    -0.200 F 
ATOM     66  C   UNL A   1      38.939  33.501  37.519  1.00  0.00     0.200 A 
ATOM     67  F   UNL A   1      37.295  31.896  38.058  1.00  0.00    -0.200 F 
ATOM     68  F   UNL A   1      38.516  34.291  38.514  1.00  0.00    -0.200 F 
ENDBRANCH  44  58
BRANCH  45  69
ATOM     69  C   UNL A   1      42.813  26.357  27.676  1.00  0.00     0.064 A 
ATOM     70  C   UNL A   1      42.152  25.138  27.461  1.00  0.00     0.173 A 
ATOM     71  C   UNL A   1      43.816  26.726  26.769  1.00  0.00     0.173 A 
ATOM     72  F   UNL A   1      41.195  24.739  28.310  1.00  0.00    -0.203 F 
ATOM     73  C   UNL A   1      42.489  24.315  26.389  1.00  0.00     0.198 A 
ATOM     74  C   UNL A   1      44.138  25.911  25.686  1.00  0.00     0.198 A 
ATOM     75  F   UNL A   1      44.469  27.886  26.927  1.00  0.00    -0.203 F 
ATOM     76  F   UNL A   1      41.861  23.144  26.224  1.00  0.00    -0.200 F 
ATOM     77  C   UNL A   1      43.479  24.705  25.499  1.00  0.00     0.200 A 
ATOM     78  F   UNL A   1      45.087  26.294  24.821  1.00  0.00    -0.200 F 
ATOM     79  F   UNL A   1      43.798  23.916  24.464  1.00  0.00    -0.200 F 
ENDBRANCH  45  69
BRANCH  57  80
ATOM     80  C   UNL A   1      44.727  26.657  34.371  1.00  0.00     0.064 A 
ATOM     81  C   UNL A   1      46.036  27.131  34.530  1.00  0.00     0.173 A 
ATOM     82  C   UNL A   1      44.351  25.500  35.069  1.00  0.00     0.173 A 
ATOM     83  F   UNL A   1      46.440  28.228  33.874  1.00  0.00    -0.203 F 
ATOM     84  C   UNL A   1      46.937  26.471  35.359  1.00  0.00     0.198 A 
ATOM     85  C   UNL A   1      45.249  24.853  35.913  1.00  0.00     0.198 A 
ATOM     86  F   UNL A   1      43.106  25.014  34.952  1.00  0.00    -0.203 F 
ATOM     87  F   UNL A   1      48.188  26.932  35.486  1.00  0.00    -0.200 F 
ATOM     88  C   UNL A   1      46.540  25.339  36.057  1.00  0.00     0.200 A 
ATOM     89  F   UNL A   1      44.862  23.767  36.594  1.00  0.00    -0.200 F 
ATOM     90  F   UNL A   1      47.403  24.715  36.869  1.00  0.00    -0.200 F 
ENDBRANCH  57  80
ENDBRANCH  31  32
ENDBRANCH  24  26
ENDBRANCH  23  24
ENDBRANCH  22  23
ENDBRANCH   1  22
TORSDOF 13
ENDMDL
MODEL 2
REMARK VINA RESULT:     -12.8      0.327      1.988
REMARK SMILES C[C@H]1CC[C@@](C[C@@H]2CSc3ccccc32)(C(=O)OCCOC(=O)c2ccc(-c3c4nc(c(-c5c(F)c(F)c(F)c(F)c5F)c5ccc([nH]5)c(-c5c(F)c(F)c(F)c(F)c5F)c5nc(c(-c6c(F)c(F)c(F)c(F)c6F)c6ccc3[nH]6)C=C5)C=C4)cc2)CC1
REMARK SMILES IDX 19 1 18 2 16 3 17 4 5 5 1 6 2 7 88 8 3 9 87 10 4 11 6 12
REMARK SMILES IDX 7 13 8 14 15 15 9 16 10 17 14 18 11 19 13 20 12 21 20 22
REMARK SMILES IDX 21 23 22 24 23 25 24 26 25 27 86 28 26 29 85 30 27 31 28 32
REMARK SMILES IDX 29 33 79 34 30 35 84 36 78 37 80 38 31 39 83 40 77 41 76 42
REMARK SMILES IDX 32 44 64 45 44 46 63 47 45 48 48 49 62 50 81 51 46 52 47 53
REMARK SMILES IDX 61 55 82 56 49 57 33 58 34 59 42 60 35 61 36 62 40 63 43 64
REMARK SMILES IDX 37 65 38 66 41 67 39 68 65 69 66 70 74 71 67 72 68 73 72 74
REMARK SMILES IDX 75 75 69 76 70 77 73 78 71 79 50 80 51 81 59 82 52 83 53 84
REMARK SMILES IDX 57 85 60 86 54 87 55 88 58 89 56 90
REMARK H PARENT 80 43 48 54
REMARK Flexibility Score: inf
ROOT
ATOM      1  C   UNL A   1      31.775  28.778  27.625  1.00  0.00     0.274 C 
ENDROOT
BRANCH   1   2
ATOM      2  O   UNL A   1      32.634  27.791  27.012  1.00  0.00    -0.462 OA
BRANCH   2   3
ATOM      3  C   UNL A   1      32.030  26.754  26.379  1.00  0.00     0.312 C 
ATOM      4  O   UNL A   1      31.138  26.073  26.876  1.00  0.00    -0.252 OA
BRANCH   3   5
ATOM      5  C   UNL A   1      32.659  26.422  25.013  1.00  0.00     0.069 C 
ATOM      6  C   UNL A   1      30.278  28.767  22.027  1.00  0.00     0.007 C 
ATOM      7  C   UNL A   1      31.303  27.828  22.662  1.00  0.00    -0.014 C 
ATOM      8  C   UNL A   1      30.607  26.703  23.415  1.00  0.00     0.004 C 
ATOM      9  C   UNL A   1      32.197  28.583  23.640  1.00  0.00     0.004 C 
ATOM     10  C   UNL A   1      31.578  25.748  24.105  1.00  0.00     0.019 C 
ATOM     11  C   UNL A   1      33.230  27.649  24.267  1.00  0.00     0.019 C 
BRANCH   5  12
ATOM     12  C   UNL A   1      33.731  25.300  25.308  1.00  0.00     0.028 C 
BRANCH  12  13
ATOM     13  C   UNL A   1      33.460  23.789  25.090  1.00  0.00     0.032 C 
ATOM     14  C   UNL A   1      32.815  23.023  26.259  1.00  0.00     0.083 C 
ATOM     15  C   UNL A   1      34.682  23.024  24.651  1.00  0.00    -0.030 A 
ATOM     16  S   UNL A   1      34.036  21.857  26.935  1.00  0.00    -0.125 SA
ATOM     17  C   UNL A   1      35.117  22.048  25.549  1.00  0.00     0.011 A 
ATOM     18  C   UNL A   1      35.428  23.313  23.509  1.00  0.00     0.005 A 
ATOM     19  C   UNL A   1      36.336  21.413  25.370  1.00  0.00     0.015 A 
ATOM     20  C   UNL A   1      36.652  22.674  23.320  1.00  0.00     0.000 A 
ATOM     21  C   UNL A   1      37.112  21.740  24.255  1.00  0.00     0.001 A 
ENDBRANCH  12  13
ENDBRANCH   5  12
ENDBRANCH   3   5
ENDBRANCH   2   3
ENDBRANCH   1   2
BRANCH   1  22
ATOM     22  C   UNL A   1      31.778  30.067  26.813  1.00  0.00     0.275 C 
BRANCH  22  23
ATOM     23  O   UNL A   1      33.141  30.413  26.528  1.00  0.00    -0.458 OA
BRANCH  23  24
ATOM     24  C   UNL A   1      33.664  31.420  27.260  1.00  0.00     0.338 C 
ATOM     25  O   UNL A   1      33.130  32.475  27.552  1.00  0.00    -0.246 OA
BRANCH  24  26
ATOM     26  C   UNL A   1      35.017  31.036  27.722  1.00  0.00     0.060 A 
ATOM     27  C   UNL A   1      35.952  32.029  28.001  1.00  0.00     0.016 A 
ATOM     28  C   UNL A   1      35.318  29.705  28.012  1.00  0.00     0.016 A 
ATOM     29  C   UNL A   1      37.181  31.678  28.567  1.00  0.00     0.010 A 
ATOM     30  C   UNL A   1      36.481  29.381  28.710  1.00  0.00     0.010 A 
ATOM     31  C   UNL A   1      37.446  30.355  28.973  1.00  0.00    -0.014 A 
BRANCH  31  32
ATOM     32  C   UNL A   1      38.720  30.023  29.671  1.00  0.00     0.031 A 
ATOM     33  C   UNL A   1      38.970  30.443  31.098  1.00  0.00     0.074 A 
ATOM     34  C   UNL A   1      39.667  29.321  29.016  1.00  0.00     0.049 A 
ATOM     35  N   UNL A   1      39.932  30.066  31.908  1.00  0.00    -0.248 NA
ATOM     36  C   UNL A   1      38.065  31.442  31.686  1.00  0.00     0.031 C 
ATOM     37  C   UNL A   1      39.636  28.979  27.592  1.00  0.00     0.029 A 
ATOM     38  N   UNL A   1      40.817  28.723  29.473  1.00  0.00    -0.354 N 
ATOM     39  C   UNL A   1      39.746  30.789  33.079  1.00  0.00     0.074 A 
ATOM     40  C   UNL A   1      38.640  31.689  32.852  1.00  0.00     0.031 C 
ATOM     41  C   UNL A   1      40.647  28.142  27.317  1.00  0.00     0.029 A 
ATOM     42  C   UNL A   1      41.404  27.897  28.542  1.00  0.00     0.049 A 
ATOM     43  H   UNL A   1      41.184  28.869  30.375  1.00  0.00     0.167 HD
ATOM     44  C   UNL A   1      40.400  30.680  34.260  1.00  0.00     0.037 A 
ATOM     45  C   UNL A   1      42.396  26.996  28.676  1.00  0.00     0.037 A 
ATOM     46  C   UNL A   1      41.458  29.741  34.509  1.00  0.00     0.049 A 
ATOM     47  C   UNL A   1      43.026  26.789  30.026  1.00  0.00     0.074 A 
ATOM     48  C   UNL A   1      42.130  29.488  35.692  1.00  0.00     0.029 A 
ATOM     49  N   UNL A   1      41.985  28.888  33.554  1.00  0.00    -0.354 N 
ATOM     50  N   UNL A   1      42.759  27.385  31.160  1.00  0.00    -0.248 NA
ATOM     51  C   UNL A   1      44.083  25.770  30.114  1.00  0.00     0.031 C 
ATOM     52  C   UNL A   1      43.076  28.487  35.448  1.00  0.00     0.029 A 
ATOM     53  C   UNL A   1      42.974  28.103  34.120  1.00  0.00     0.049 A 
ATOM     54  H   UNL A   1      41.699  28.845  32.613  1.00  0.00     0.167 HD
ATOM     55  C   UNL A   1      43.598  26.805  32.101  1.00  0.00     0.074 A 
ATOM     56  C   UNL A   1      44.374  25.797  31.409  1.00  0.00     0.031 C 
ATOM     57  C   UNL A   1      43.720  27.092  33.419  1.00  0.00     0.037 A 
BRANCH  44  58
ATOM     58  C   UNL A   1      39.947  31.561  35.385  1.00  0.00     0.064 A 
ATOM     59  C   UNL A   1      38.854  31.204  36.190  1.00  0.00     0.173 A 
ATOM     60  C   UNL A   1      40.620  32.755  35.684  1.00  0.00     0.173 A 
ATOM     61  F   UNL A   1      38.170  30.078  35.939  1.00  0.00    -0.203 F 
ATOM     62  C   UNL A   1      38.430  32.026  37.231  1.00  0.00     0.198 A 
ATOM     63  C   UNL A   1      40.210  33.561  36.743  1.00  0.00     0.198 A 
ATOM     64  F   UNL A   1      41.676  33.138  34.950  1.00  0.00    -0.203 F 
ATOM     65  F   UNL A   1      37.352  31.689  37.952  1.00  0.00    -0.200 F 
ATOM     66  C   UNL A   1      39.112  33.200  37.510  1.00  0.00     0.200 A 
ATOM     67  F   UNL A   1      40.876  34.691  37.020  1.00  0.00    -0.200 F 
ATOM     68  F   UNL A   1      38.705  33.989  38.514  1.00  0.00    -0.200 F 
ENDBRANCH  44  58
BRANCH  45  69
ATOM     69  C   UNL A   1      42.759  26.130  27.526  1.00  0.00     0.064 A 
ATOM     70  C   UNL A   1      43.787  26.508  26.650  1.00  0.00     0.173 A 
ATOM     71  C   UNL A   1      42.120  24.904  27.295  1.00  0.00     0.173 A 
ATOM     72  F   UNL A   1      44.417  27.678  26.825  1.00  0.00    -0.203 F 
ATOM     73  C   UNL A   1      44.154  25.699  25.577  1.00  0.00     0.198 A 
ATOM     74  C   UNL A   1      42.502  24.086  26.233  1.00  0.00     0.198 A 
ATOM     75  F   UNL A   1      41.138  24.495  28.111  1.00  0.00    -0.203 F 
ATOM     76  F   UNL A   1      45.121  26.097  24.740  1.00  0.00    -0.200 F 
ATOM     77  C   UNL A   1      43.515  24.485  25.373  1.00  0.00     0.200 A 
ATOM     78  F   UNL A   1      41.890  22.909  26.043  1.00  0.00    -0.200 F 
ATOM     79  F   UNL A   1      43.873  23.704  24.346  1.00  0.00    -0.200 F 
ENDBRANCH  45  69
BRANCH  57  80
ATOM     80  C   UNL A   1      44.713  26.303  34.214  1.00  0.00     0.064 A 
ATOM     81  C   UNL A   1      44.351  25.102  34.840  1.00  0.00     0.173 A 
ATOM     82  C   UNL A   1      46.057  26.702  34.270  1.00  0.00     0.173 A 
ATOM     83  F   UNL A   1      43.076  24.689  34.819  1.00  0.00    -0.203 F 
ATOM     84  C   UNL A   1      45.301  24.328  35.497  1.00  0.00     0.198 A 
ATOM     85  C   UNL A   1      47.008  25.914  34.912  1.00  0.00     0.198 A 
ATOM     86  F   UNL A   1      46.450  27.840  33.679  1.00  0.00    -0.203 F 
ATOM     87  F   UNL A   1      44.933  23.190  36.103  1.00  0.00    -0.200 F 
ATOM     88  C   UNL A   1      46.630  24.729  35.524  1.00  0.00     0.200 A 
ATOM     89  F   UNL A   1      48.291  26.297  34.928  1.00  0.00    -0.200 F 
ATOM     90  F   UNL A   1      47.546  23.972  36.143  1.00  0.00    -0.200 F 
ENDBRANCH  57  80
ENDBRANCH  31  32
ENDBRANCH  24  26
ENDBRANCH  23  24
ENDBRANCH  22  23
ENDBRANCH   1  22
TORSDOF 13
ENDMDL
MODEL 3
REMARK VINA RESULT:     -12.8      0.129      1.140
REMARK SMILES C[C@H]1CC[C@@](C[C@@H]2CSc3ccccc32)(C(=O)OCCOC(=O)c2ccc(-c3c4nc(c(-c5c(F)c(F)c(F)c(F)c5F)c5ccc([nH]5)c(-c5c(F)c(F)c(F)c(F)c5F)c5nc(c(-c6c(F)c(F)c(F)c(F)c6F)c6ccc3[nH]6)C=C5)C=C4)cc2)CC1
REMARK SMILES IDX 19 1 18 2 16 3 17 4 5 5 1 6 2 7 88 8 3 9 87 10 4 11 6 12
REMARK SMILES IDX 7 13 8 14 15 15 9 16 10 17 14 18 11 19 13 20 12 21 20 22
REMARK SMILES IDX 21 23 22 24 23 25 24 26 25 27 86 28 26 29 85 30 27 31 28 32
REMARK SMILES IDX 29 33 79 34 30 35 84 36 78 37 80 38 31 39 83 40 77 41 76 42
REMARK SMILES IDX 32 44 64 45 44 46 63 47 45 48 48 49 62 50 81 51 46 52 47 53
REMARK SMILES IDX 61 55 82 56 49 57 33 58 34 59 42 60 35 61 36 62 40 63 43 64
REMARK SMILES IDX 37 65 38 66 41 67 39 68 65 69 66 70 74 71 67 72 68 73 72 74
REMARK SMILES IDX 75 75 69 76 70 77 73 78 71 79 50 80 51 81 59 82 52 83 53 84
REMARK SMILES IDX 57 85 60 86 54 87 55 88 58 89 56 90
REMARK H PARENT 80 43 48 54
REMARK Flexibility Score: inf
ROOT
ATOM      1  C   UNL A   1      31.796  28.711  27.669  1.00  0.00     0.274 C 
ENDROOT
BRANCH   1   2
ATOM      2  O   UNL A   1      32.672  27.736  27.061  1.00  0.00    -0.462 OA
BRANCH   2   3
ATOM      3  C   UNL A   1      32.087  26.658  26.480  1.00  0.00     0.312 C 
ATOM      4  O   UNL A   1      31.243  25.956  27.030  1.00  0.00    -0.252 OA
BRANCH   3   5
ATOM      5  C   UNL A   1      32.678  26.311  25.101  1.00  0.00     0.069 C 
ATOM      6  C   UNL A   1      30.161  28.556  22.150  1.00  0.00     0.007 C 
ATOM      7  C   UNL A   1      31.223  27.648  22.770  1.00  0.00    -0.014 C 
ATOM      8  C   UNL A   1      30.572  26.525  23.565  1.00  0.00     0.004 C 
ATOM      9  C   UNL A   1      32.133  28.437  23.704  1.00  0.00     0.004 C 
ATOM     10  C   UNL A   1      31.581  25.601  24.240  1.00  0.00     0.019 C 
ATOM     11  C   UNL A   1      33.203  27.533  24.314  1.00  0.00     0.019 C 
BRANCH   5  12
ATOM     12  C   UNL A   1      33.780  25.214  25.382  1.00  0.00     0.028 C 
BRANCH  12  13
ATOM     13  C   UNL A   1      33.538  23.696  25.177  1.00  0.00     0.032 C 
ATOM     14  C   UNL A   1      32.927  22.924  26.360  1.00  0.00     0.083 C 
ATOM     15  C   UNL A   1      34.768  22.954  24.723  1.00  0.00    -0.030 A 
ATOM     16  S   UNL A   1      34.183  21.788  27.024  1.00  0.00    -0.125 SA
ATOM     17  C   UNL A   1      35.237  21.993  25.620  1.00  0.00     0.011 A 
ATOM     18  C   UNL A   1      35.489  23.252  23.568  1.00  0.00     0.005 A 
ATOM     19  C   UNL A   1      36.466  21.383  25.426  1.00  0.00     0.015 A 
ATOM     20  C   UNL A   1      36.724  22.638  23.363  1.00  0.00     0.000 A 
ATOM     21  C   UNL A   1      37.218  21.720  24.297  1.00  0.00     0.001 A 
ENDBRANCH  12  13
ENDBRANCH   5  12
ENDBRANCH   3   5
ENDBRANCH   2   3
ENDBRANCH   1   2
BRANCH   1  22
ATOM     22  C   UNL A   1      31.745  29.982  26.831  1.00  0.00     0.275 C 
BRANCH  22  23
ATOM     23  O   UNL A   1      33.093  30.379  26.540  1.00  0.00    -0.458 OA
BRANCH  23  24
ATOM     24  C   UNL A   1      33.581  31.405  27.271  1.00  0.00     0.338 C 
ATOM     25  O   UNL A   1      33.014  32.447  27.551  1.00  0.00    -0.246 OA
BRANCH  24  26
ATOM     26  C   UNL A   1      34.938  31.062  27.749  1.00  0.00     0.060 A 
ATOM     27  C   UNL A   1      35.849  32.081  28.012  1.00  0.00     0.016 A 
ATOM     28  C   UNL A   1      35.269  29.744  28.068  1.00  0.00     0.016 A 
ATOM     29  C   UNL A   1      37.082  31.771  28.593  1.00  0.00     0.010 A 
ATOM     30  C   UNL A   1      36.433  29.462  28.779  1.00  0.00     0.010 A 
ATOM     31  C   UNL A   1      37.375  30.463  29.027  1.00  0.00    -0.014 A 
BRANCH  31  32
ATOM     32  C   UNL A   1      38.651  30.174  29.740  1.00  0.00     0.031 A 
ATOM     33  C   UNL A   1      38.878  30.618  31.163  1.00  0.00     0.074 A 
ATOM     34  C   UNL A   1      39.623  29.490  29.102  1.00  0.00     0.049 A 
ATOM     35  N   UNL A   1      39.843  30.278  31.986  1.00  0.00    -0.248 NA
ATOM     36  C   UNL A   1      37.941  31.599  31.732  1.00  0.00     0.031 C 
ATOM     37  C   UNL A   1      39.613  29.131  27.681  1.00  0.00     0.029 A 
ATOM     38  N   UNL A   1      40.785  28.930  29.575  1.00  0.00    -0.354 N 
ATOM     39  C   UNL A   1      39.628  31.010  33.147  1.00  0.00     0.074 A 
ATOM     40  C   UNL A   1      38.499  31.876  32.900  1.00  0.00     0.031 C 
ATOM     41  C   UNL A   1      40.649  28.318  27.425  1.00  0.00     0.029 A 
ATOM     42  C   UNL A   1      41.402  28.109  28.659  1.00  0.00     0.049 A 
ATOM     43  H   UNL A   1      41.141  29.097  30.477  1.00  0.00     0.167 HD
ATOM     44  C   UNL A   1      40.275  30.933  34.333  1.00  0.00     0.037 A 
ATOM     45  C   UNL A   1      42.417  27.238  28.811  1.00  0.00     0.037 A 
ATOM     46  C   UNL A   1      41.356  30.026  34.603  1.00  0.00     0.049 A 
ATOM     47  C   UNL A   1      43.042  27.064  30.169  1.00  0.00     0.074 A 
ATOM     48  C   UNL A   1      42.024  29.807  35.794  1.00  0.00     0.029 A 
ATOM     49  N   UNL A   1      41.915  29.177  33.662  1.00  0.00    -0.354 N 
ATOM     50  N   UNL A   1      42.749  27.666  31.294  1.00  0.00    -0.248 NA
ATOM     51  C   UNL A   1      44.126  26.077  30.279  1.00  0.00     0.031 C 
ATOM     52  C   UNL A   1      42.999  28.830  35.570  1.00  0.00     0.029 A 
ATOM     53  C   UNL A   1      42.919  28.426  34.246  1.00  0.00     0.049 A 
ATOM     54  H   UNL A   1      41.637  29.115  32.719  1.00  0.00     0.167 HD
ATOM     55  C   UNL A   1      43.596  27.122  32.248  1.00  0.00     0.074 A 
ATOM     56  C   UNL A   1      44.404  26.127  31.575  1.00  0.00     0.031 C 
ATOM     57  C   UNL A   1      43.699  27.428  33.564  1.00  0.00     0.037 A 
BRANCH  44  58
ATOM     58  C   UNL A   1      39.788  31.815  35.444  1.00  0.00     0.064 A 
ATOM     59  C   UNL A   1      40.367  33.072  35.678  1.00  0.00     0.173 A 
ATOM     60  C   UNL A   1      38.723  31.419  36.266  1.00  0.00     0.173 A 
ATOM     61  F   UNL A   1      41.397  33.491  34.928  1.00  0.00    -0.203 F 
ATOM     62  C   UNL A   1      39.920  33.887  36.714  1.00  0.00     0.198 A 
ATOM     63  C   UNL A   1      38.259  32.249  37.284  1.00  0.00     0.198 A 
ATOM     64  F   UNL A   1      38.130  30.231  36.079  1.00  0.00    -0.203 F 
ATOM     65  F   UNL A   1      40.523  35.060  36.950  1.00  0.00    -0.200 F 
ATOM     66  C   UNL A   1      38.862  33.477  37.513  1.00  0.00     0.200 A 
ATOM     67  F   UNL A   1      37.230  31.858  38.049  1.00  0.00    -0.200 F 
ATOM     68  F   UNL A   1      38.430  34.264  38.508  1.00  0.00    -0.200 F 
ENDBRANCH  44  58
BRANCH  45  69
ATOM     69  C   UNL A   1      42.814  26.368  27.676  1.00  0.00     0.064 A 
ATOM     70  C   UNL A   1      42.159  25.147  27.456  1.00  0.00     0.173 A 
ATOM     71  C   UNL A   1      43.819  26.743  26.775  1.00  0.00     0.173 A 
ATOM     72  F   UNL A   1      41.200  24.741  28.300  1.00  0.00    -0.203 F 
ATOM     73  C   UNL A   1      42.505  24.326  26.385  1.00  0.00     0.198 A 
ATOM     74  C   UNL A   1      44.150  25.930  25.691  1.00  0.00     0.198 A 
ATOM     75  F   UNL A   1      44.466  27.905  26.938  1.00  0.00    -0.203 F 
ATOM     76  F   UNL A   1      41.882  23.153  26.214  1.00  0.00    -0.200 F 
ATOM     77  C   UNL A   1      43.497  24.722  25.499  1.00  0.00     0.200 A 
ATOM     78  F   UNL A   1      45.102  26.319  24.832  1.00  0.00    -0.200 F 
ATOM     79  F   UNL A   1      43.824  23.936  24.465  1.00  0.00    -0.200 F 
ENDBRANCH  45  69
BRANCH  57  80
ATOM     80  C   UNL A   1      44.707  26.676  34.376  1.00  0.00     0.064 A 
ATOM     81  C   UNL A   1      44.381  25.459  34.990  1.00  0.00     0.173 A 
ATOM     82  C   UNL A   1      46.031  27.129  34.462  1.00  0.00     0.173 A 
ATOM     83  F   UNL A   1      43.124  24.994  34.940  1.00  0.00    -0.203 F 
ATOM     84  C   UNL A   1      45.348  24.721  35.664  1.00  0.00     0.198 A 
ATOM     85  C   UNL A   1      47.000  26.378  35.121  1.00  0.00     0.198 A 
ATOM     86  F   UNL A   1      46.390  28.286  33.884  1.00  0.00    -0.203 F 
ATOM     87  F   UNL A   1      45.014  23.566  36.257  1.00  0.00    -0.200 F 
ATOM     88  C   UNL A   1      46.658  25.176  35.721  1.00  0.00     0.200 A 
ATOM     89  F   UNL A   1      48.266  26.813  35.166  1.00  0.00    -0.200 F 
ATOM     90  F   UNL A   1      47.592  24.454  36.355  1.00  0.00    -0.200 F 
ENDBRANCH  57  80
ENDBRANCH  31  32
ENDBRANCH  24  26
ENDBRANCH  23  24
ENDBRANCH  22  23
ENDBRANCH   1  22
TORSDOF 13
ENDMDL
