MODEL 1
REMARK VINA RESULT:     -13.0      0.000      0.000
REMARK SMILES O=C(C[C@H](NC(=O)[C@]12C[C@H]3C[C@H](C[C@H](C3)C1)C2)c1ccc(Cl)cc1Cl)OCCOC(=O)c1ccc(-c2c3nc(c(-c4c(F)c(F)c(F)c(F)c4F)c4ccc([nH]4)c(-c4c(F)c(F)c(F)c(F)c4F)c4nc(c(-c5c(F)c(F)c(F)c(F)c5F)c5ccc2[nH]5)C=C4)C=C3)cc1
REMARK SMILES IDX 27 1 26 2 2 3 1 4 3 5 4 6 18 7 19 8 24 9 20 10 23 11 25 12
REMARK SMILES IDX 21 13 22 14 5 15 6 16 7 18 8 19 9 20 16 21 17 22 10 23 14 24
REMARK SMILES IDX 12 25 11 26 15 27 13 28 28 29 29 30 30 31 31 32 32 33 33 34
REMARK SMILES IDX 94 35 34 36 93 37 35 38 36 39 37 40 87 41 38 42 92 43 86 44
REMARK SMILES IDX 88 45 39 46 91 47 85 48 84 49 40 51 72 52 52 53 71 54 53 55
REMARK SMILES IDX 56 56 70 57 89 58 54 59 55 60 69 62 90 63 57 64 41 65 42 66
REMARK SMILES IDX 50 67 43 68 44 69 48 70 51 71 45 72 46 73 49 74 47 75 73 76
REMARK SMILES IDX 74 77 82 78 75 79 76 80 80 81 83 82 77 83 78 84 81 85 79 86
REMARK SMILES IDX 58 87 59 88 67 89 60 90 61 91 65 92 68 93 62 94 63 95 66 96
REMARK SMILES IDX 64 97
REMARK H PARENT 5 17 88 50 56 61
REMARK Flexibility Score: inf
ROOT
ATOM      1  C   UNL A   1      31.553  29.082  27.506  1.00  0.00     0.274 C 
ENDROOT
BRANCH   1   2
ATOM      2  O   UNL A   1      32.315  27.857  27.428  1.00  0.00    -0.462 OA
BRANCH   2   3
ATOM      3  C   UNL A   1      32.073  26.826  26.592  1.00  0.00     0.308 C 
ATOM      4  O   UNL A   1      31.326  25.913  26.938  1.00  0.00    -0.252 OA
BRANCH   3   5
ATOM      5  C   UNL A   1      32.798  26.761  25.274  1.00  0.00     0.152 C 
BRANCH   5   6
ATOM      6  C   UNL A   1      32.007  26.207  24.087  1.00  0.00     0.125 C 
BRANCH   6   7
ATOM      7  C   UNL A   1      31.070  27.233  23.462  1.00  0.00    -0.006 A 
ATOM      8  C   UNL A   1      29.685  26.989  23.627  1.00  0.00     0.009 A 
ATOM      9  C   UNL A   1      31.443  28.428  22.820  1.00  0.00     0.047 A 
ATOM     10  C   UNL A   1      28.720  27.893  23.180  1.00  0.00     0.021 A 
ATOM     11  C   UNL A   1      30.473  29.323  22.348  1.00  0.00     0.041 A 
ATOM     12  Cl  UNL A   1      33.086  28.917  22.601  1.00  0.00    -0.084 Cl
ATOM     13  C   UNL A   1      29.121  29.056  22.538  1.00  0.00     0.042 A 
ATOM     14  Cl  UNL A   1      27.938  30.177  21.988  1.00  0.00    -0.084 Cl
ENDBRANCH   6   7
BRANCH   6  15
ATOM     15  N   UNL A   1      32.874  25.481  23.170  1.00  0.00    -0.348 N 
ATOM     16  C   UNL A   1      33.676  24.392  23.309  1.00  0.00     0.226 C 
ATOM     17  H   UNL A   1      32.883  25.859  22.261  1.00  0.00     0.164 HD
ATOM     18  O   UNL A   1      34.513  24.232  22.415  1.00  0.00    -0.274 OA
BRANCH  16  19
ATOM     19  C   UNL A   1      33.574  23.400  24.488  1.00  0.00     0.050 C 
ATOM     20  C   UNL A   1      34.259  22.056  24.077  1.00  0.00     0.020 C 
ATOM     21  C   UNL A   1      32.098  23.059  24.810  1.00  0.00     0.020 C 
ATOM     22  C   UNL A   1      34.309  23.898  25.753  1.00  0.00     0.020 C 
ATOM     23  C   UNL A   1      34.165  21.008  25.201  1.00  0.00    -0.010 C 
ATOM     24  C   UNL A   1      32.009  22.047  25.963  1.00  0.00    -0.010 C 
ATOM     25  C   UNL A   1      34.210  22.862  26.885  1.00  0.00    -0.010 C 
ATOM     26  C   UNL A   1      34.871  21.550  26.449  1.00  0.00     0.007 C 
ATOM     27  C   UNL A   1      32.691  20.741  25.535  1.00  0.00     0.007 C 
ATOM     28  C   UNL A   1      32.725  22.617  27.198  1.00  0.00     0.007 C 
ENDBRANCH  16  19
ENDBRANCH   6  15
ENDBRANCH   5   6
ENDBRANCH   3   5
ENDBRANCH   2   3
ENDBRANCH   1   2
BRANCH   1  29
ATOM     29  C   UNL A   1      31.794  29.988  26.294  1.00  0.00     0.275 C 
BRANCH  29  30
ATOM     30  O   UNL A   1      33.162  30.440  26.244  1.00  0.00    -0.458 OA
BRANCH  30  31
ATOM     31  C   UNL A   1      33.487  31.456  27.086  1.00  0.00     0.338 C 
ATOM     32  O   UNL A   1      32.779  32.386  27.413  1.00  0.00    -0.246 OA
BRANCH  31  33
ATOM     33  C   UNL A   1      34.802  31.169  27.715  1.00  0.00     0.060 A 
ATOM     34  C   UNL A   1      35.105  29.840  28.042  1.00  0.00     0.016 A 
ATOM     35  C   UNL A   1      35.736  32.178  27.965  1.00  0.00     0.016 A 
ATOM     36  C   UNL A   1      36.334  29.515  28.626  1.00  0.00     0.010 A 
ATOM     37  C   UNL A   1      36.956  31.855  28.565  1.00  0.00     0.010 A 
ATOM     38  C   UNL A   1      37.257  30.527  28.912  1.00  0.00    -0.014 A 
BRANCH  38  39
ATOM     39  C   UNL A   1      38.454  30.261  29.748  1.00  0.00     0.031 A 
ATOM     40  C   UNL A   1      39.469  29.279  29.237  1.00  0.00     0.074 A 
ATOM     41  C   UNL A   1      38.617  30.821  30.960  1.00  0.00     0.049 A 
ATOM     42  N   UNL A   1      40.518  28.777  29.834  1.00  0.00    -0.248 NA
ATOM     43  C   UNL A   1      39.259  28.792  27.865  1.00  0.00     0.031 C 
ATOM     44  C   UNL A   1      37.731  31.812  31.560  1.00  0.00     0.029 A 
ATOM     45  N   UNL A   1      39.577  30.601  31.918  1.00  0.00    -0.354 N 
ATOM     46  C   UNL A   1      41.088  27.907  28.915  1.00  0.00     0.074 A 
ATOM     47  C   UNL A   1      40.252  27.927  27.734  1.00  0.00     0.031 C 
ATOM     48  C   UNL A   1      38.159  32.080  32.807  1.00  0.00     0.029 A 
ATOM     49  C   UNL A   1      39.339  31.266  33.095  1.00  0.00     0.049 A 
ATOM     50  H   UNL A   1      40.360  30.022  31.774  1.00  0.00     0.167 HD
ATOM     51  C   UNL A   1      42.211  27.163  29.039  1.00  0.00     0.037 A 
ATOM     52  C   UNL A   1      39.985  31.202  34.277  1.00  0.00     0.037 A 
ATOM     53  C   UNL A   1      43.040  27.134  30.212  1.00  0.00     0.049 A 
ATOM     54  C   UNL A   1      41.196  30.314  34.422  1.00  0.00     0.074 A 
ATOM     55  C   UNL A   1      44.215  26.436  30.421  1.00  0.00     0.029 A 
ATOM     56  N   UNL A   1      42.771  27.826  31.383  1.00  0.00    -0.354 N 
ATOM     57  N   UNL A   1      41.756  29.528  33.535  1.00  0.00    -0.248 NA
ATOM     58  C   UNL A   1      41.866  30.309  35.731  1.00  0.00     0.031 C 
ATOM     59  C   UNL A   1      44.632  26.666  31.737  1.00  0.00     0.029 A 
ATOM     60  C   UNL A   1      43.743  27.549  32.331  1.00  0.00     0.049 A 
ATOM     61  H   UNL A   1      42.002  28.426  31.522  1.00  0.00     0.167 HD
ATOM     62  C   UNL A   1      42.860  28.966  34.163  1.00  0.00     0.074 A 
ATOM     63  C   UNL A   1      42.891  29.496  35.509  1.00  0.00     0.031 C 
ATOM     64  C   UNL A   1      43.771  28.095  33.664  1.00  0.00     0.037 A 
BRANCH  51  65
ATOM     65  C   UNL A   1      42.579  26.292  27.876  1.00  0.00     0.064 A 
ATOM     66  C   UNL A   1      42.077  24.989  27.745  1.00  0.00     0.173 A 
ATOM     67  C   UNL A   1      43.459  26.762  26.891  1.00  0.00     0.173 A 
ATOM     68  F   UNL A   1      41.248  24.488  28.674  1.00  0.00    -0.203 F 
ATOM     69  C   UNL A   1      42.473  24.173  26.689  1.00  0.00     0.198 A 
ATOM     70  C   UNL A   1      43.831  25.954  25.822  1.00  0.00     0.198 A 
ATOM     71  F   UNL A   1      43.967  28.000  26.974  1.00  0.00    -0.203 F 
ATOM     72  F   UNL A   1      42.031  22.910  26.618  1.00  0.00    -0.200 F 
ATOM     73  C   UNL A   1      43.346  24.657  25.727  1.00  0.00     0.200 A 
ATOM     74  F   UNL A   1      44.670  26.424  24.889  1.00  0.00    -0.200 F 
ATOM     75  F   UNL A   1      43.734  23.869  24.716  1.00  0.00    -0.200 F 
ENDBRANCH  51  65
BRANCH  52  76
ATOM     76  C   UNL A   1      39.490  31.999  35.429  1.00  0.00     0.064 A 
ATOM     77  C   UNL A   1      38.600  31.449  36.360  1.00  0.00     0.173 A 
ATOM     78  C   UNL A   1      39.898  33.328  35.620  1.00  0.00     0.173 A 
ATOM     79  F   UNL A   1      38.163  30.191  36.203  1.00  0.00    -0.203 F 
ATOM     80  C   UNL A   1      38.126  32.201  37.433  1.00  0.00     0.198 A 
ATOM     81  C   UNL A   1      39.441  34.071  36.706  1.00  0.00     0.198 A 
ATOM     82  F   UNL A   1      40.750  33.900  34.756  1.00  0.00    -0.203 F 
ATOM     83  F   UNL A   1      37.248  31.662  38.290  1.00  0.00    -0.200 F 
ATOM     84  C   UNL A   1      38.552  33.510  37.610  1.00  0.00     0.200 A 
ATOM     85  F   UNL A   1      39.863  35.332  36.877  1.00  0.00    -0.200 F 
ATOM     86  F   UNL A   1      38.102  34.229  38.646  1.00  0.00    -0.200 F 
ENDBRANCH  52  76
BRANCH  64  87
ATOM     87  C   UNL A   1      44.913  27.686  34.549  1.00  0.00     0.064 A 
ATOM     88  C   UNL A   1      46.094  28.437  34.624  1.00  0.00     0.173 A 
ATOM     89  C   UNL A   1      44.787  26.571  35.393  1.00  0.00     0.173 A 
ATOM     90  F   UNL A   1      46.268  29.504  33.829  1.00  0.00    -0.203 F 
ATOM     91  C   UNL A   1      47.111  28.083  35.507  1.00  0.00     0.198 A 
ATOM     92  C   UNL A   1      45.795  26.235  36.292  1.00  0.00     0.198 A 
ATOM     93  F   UNL A   1      43.673  25.825  35.364  1.00  0.00    -0.203 F 
ATOM     94  F   UNL A   1      48.244  28.799  35.545  1.00  0.00    -0.200 F 
ATOM     95  C   UNL A   1      46.957  26.990  36.347  1.00  0.00     0.200 A 
ATOM     96  F   UNL A   1      45.637  25.187  37.113  1.00  0.00    -0.200 F 
ATOM     97  F   UNL A   1      47.930  26.661  37.208  1.00  0.00    -0.200 F 
ENDBRANCH  64  87
ENDBRANCH  38  39
ENDBRANCH  31  33
ENDBRANCH  30  31
ENDBRANCH  29  30
ENDBRANCH   1  29
TORSDOF 15
ENDMDL
MODEL 2
REMARK VINA RESULT:     -12.9      1.142      1.359
REMARK SMILES O=C(C[C@H](NC(=O)[C@]12C[C@H]3C[C@H](C[C@H](C3)C1)C2)c1ccc(Cl)cc1Cl)OCCOC(=O)c1ccc(-c2c3nc(c(-c4c(F)c(F)c(F)c(F)c4F)c4ccc([nH]4)c(-c4c(F)c(F)c(F)c(F)c4F)c4nc(c(-c5c(F)c(F)c(F)c(F)c5F)c5ccc2[nH]5)C=C4)C=C3)cc1
REMARK SMILES IDX 27 1 26 2 2 3 1 4 3 5 4 6 18 7 19 8 24 9 20 10 23 11 25 12
REMARK SMILES IDX 21 13 22 14 5 15 6 16 7 18 8 19 9 20 16 21 17 22 10 23 14 24
REMARK SMILES IDX 12 25 11 26 15 27 13 28 28 29 29 30 30 31 31 32 32 33 33 34
REMARK SMILES IDX 94 35 34 36 93 37 35 38 36 39 37 40 87 41 38 42 92 43 86 44
REMARK SMILES IDX 88 45 39 46 91 47 85 48 84 49 40 51 72 52 52 53 71 54 53 55
REMARK SMILES IDX 56 56 70 57 89 58 54 59 55 60 69 62 90 63 57 64 41 65 42 66
REMARK SMILES IDX 50 67 43 68 44 69 48 70 51 71 45 72 46 73 49 74 47 75 73 76
REMARK SMILES IDX 74 77 82 78 75 79 76 80 80 81 83 82 77 83 78 84 81 85 79 86
REMARK SMILES IDX 58 87 59 88 67 89 60 90 61 91 65 92 68 93 62 94 63 95 66 96
REMARK SMILES IDX 64 97
REMARK H PARENT 5 17 88 50 56 61
REMARK Flexibility Score: inf
ROOT
ATOM      1  C   UNL A   1      31.516  30.465  26.117  1.00  0.00     0.274 C 
ENDROOT
BRANCH   1   2
ATOM      2  O   UNL A   1      32.846  29.992  25.810  1.00  0.00    -0.462 OA
BRANCH   2   3
ATOM      3  C   UNL A   1      33.279  28.719  25.925  1.00  0.00     0.308 C 
ATOM      4  O   UNL A   1      33.411  28.210  27.035  1.00  0.00    -0.252 OA
BRANCH   3   5
ATOM      5  C   UNL A   1      33.686  27.966  24.686  1.00  0.00     0.152 C 
BRANCH   5   6
ATOM      6  C   UNL A   1      32.632  27.041  24.073  1.00  0.00     0.125 C 
BRANCH   6   7
ATOM      7  C   UNL A   1      31.402  27.787  23.571  1.00  0.00    -0.006 A 
ATOM      8  C   UNL A   1      31.647  28.858  22.677  1.00  0.00     0.009 A 
ATOM      9  C   UNL A   1      30.059  27.464  23.839  1.00  0.00     0.047 A 
ATOM     10  C   UNL A   1      30.606  29.567  22.077  1.00  0.00     0.021 A 
ATOM     11  C   UNL A   1      29.014  28.194  23.256  1.00  0.00     0.041 A 
ATOM     12  Cl  UNL A   1      29.581  26.143  24.847  1.00  0.00    -0.084 Cl
ATOM     13  C   UNL A   1      29.292  29.233  22.374  1.00  0.00     0.042 A 
ATOM     14  Cl  UNL A   1      28.004  30.100  21.633  1.00  0.00    -0.084 Cl
ENDBRANCH   6   7
BRANCH   6  15
ATOM     15  N   UNL A   1      33.238  26.096  23.147  1.00  0.00    -0.348 N 
ATOM     16  C   UNL A   1      33.641  24.802  23.264  1.00  0.00     0.226 C 
ATOM     17  H   UNL A   1      33.387  26.471  22.249  1.00  0.00     0.164 HD
ATOM     18  O   UNL A   1      34.400  24.401  22.376  1.00  0.00    -0.274 OA
BRANCH  16  19
ATOM     19  C   UNL A   1      33.198  23.870  24.412  1.00  0.00     0.050 C 
ATOM     20  C   UNL A   1      33.939  22.501  24.264  1.00  0.00     0.020 C 
ATOM     21  C   UNL A   1      31.683  23.559  24.332  1.00  0.00     0.020 C 
ATOM     22  C   UNL A   1      33.571  24.421  25.807  1.00  0.00     0.020 C 
ATOM     23  C   UNL A   1      33.519  21.509  25.364  1.00  0.00    -0.010 C 
ATOM     24  C   UNL A   1      31.260  22.604  25.460  1.00  0.00    -0.010 C 
ATOM     25  C   UNL A   1      33.143  23.442  26.913  1.00  0.00    -0.010 C 
ATOM     26  C   UNL A   1      33.869  22.104  26.733  1.00  0.00     0.007 C 
ATOM     27  C   UNL A   1      32.003  21.273  25.292  1.00  0.00     0.007 C 
ATOM     28  C   UNL A   1      31.624  23.226  26.817  1.00  0.00     0.007 C 
ENDBRANCH  16  19
ENDBRANCH   6  15
ENDBRANCH   5   6
ENDBRANCH   3   5
ENDBRANCH   2   3
ENDBRANCH   1   2
BRANCH   1  29
ATOM     29  C   UNL A   1      31.533  31.867  26.736  1.00  0.00     0.275 C 
BRANCH  29  30
ATOM     30  O   UNL A   1      32.830  32.480  26.607  1.00  0.00    -0.458 OA
BRANCH  30  31
ATOM     31  C   UNL A   1      33.218  33.281  27.634  1.00  0.00     0.338 C 
ATOM     32  O   UNL A   1      32.589  34.197  28.120  1.00  0.00    -0.246 OA
BRANCH  31  33
ATOM     33  C   UNL A   1      34.475  32.751  28.221  1.00  0.00     0.060 A 
ATOM     34  C   UNL A   1      34.481  31.433  28.700  1.00  0.00     0.016 A 
ATOM     35  C   UNL A   1      35.641  33.520  28.286  1.00  0.00     0.016 A 
ATOM     36  C   UNL A   1      35.643  30.882  29.251  1.00  0.00     0.010 A 
ATOM     37  C   UNL A   1      36.796  32.975  28.853  1.00  0.00     0.010 A 
ATOM     38  C   UNL A   1      36.801  31.661  29.352  1.00  0.00    -0.014 A 
BRANCH  38  39
ATOM     39  C   UNL A   1      37.968  31.203  30.146  1.00  0.00     0.031 A 
ATOM     40  C   UNL A   1      38.887  30.188  29.532  1.00  0.00     0.074 A 
ATOM     41  C   UNL A   1      38.181  31.622  31.407  1.00  0.00     0.049 A 
ATOM     42  N   UNL A   1      39.884  29.533  30.067  1.00  0.00    -0.248 NA
ATOM     43  C   UNL A   1      38.634  29.862  28.120  1.00  0.00     0.031 C 
ATOM     44  C   UNL A   1      37.390  32.625  32.110  1.00  0.00     0.029 A 
ATOM     45  N   UNL A   1      39.115  31.219  32.330  1.00  0.00    -0.354 N 
ATOM     46  C   UNL A   1      40.372  28.710  29.061  1.00  0.00     0.074 A 
ATOM     47  C   UNL A   1      39.542  28.925  27.895  1.00  0.00     0.031 C 
ATOM     48  C   UNL A   1      37.840  32.727  33.374  1.00  0.00     0.029 A 
ATOM     49  C   UNL A   1      38.939  31.782  33.570  1.00  0.00     0.049 A 
ATOM     50  H   UNL A   1      39.841  30.587  32.122  1.00  0.00     0.167 HD
ATOM     51  C   UNL A   1      41.420  27.857  29.101  1.00  0.00     0.037 A 
ATOM     52  C   UNL A   1      39.575  31.540  34.734  1.00  0.00     0.037 A 
ATOM     53  C   UNL A   1      42.243  27.634  30.258  1.00  0.00     0.049 A 
ATOM     54  C   UNL A   1      40.698  30.534  34.780  1.00  0.00     0.074 A 
ATOM     55  C   UNL A   1      43.347  26.812  30.387  1.00  0.00     0.029 A 
ATOM     56  N   UNL A   1      42.038  28.227  31.495  1.00  0.00    -0.354 N 
ATOM     57  N   UNL A   1      41.184  29.793  33.814  1.00  0.00    -0.248 NA
ATOM     58  C   UNL A   1      41.364  30.336  36.076  1.00  0.00     0.031 C 
ATOM     59  C   UNL A   1      43.782  26.870  31.715  1.00  0.00     0.029 A 
ATOM     60  C   UNL A   1      42.979  27.768  32.401  1.00  0.00     0.049 A 
ATOM     61  H   UNL A   1      41.328  28.879  31.699  1.00  0.00     0.167 HD
ATOM     62  C   UNL A   1      42.230  29.070  34.373  1.00  0.00     0.074 A 
ATOM     63  C   UNL A   1      42.309  29.458  35.765  1.00  0.00     0.031 C 
ATOM     64  C   UNL A   1      43.057  28.173  33.782  1.00  0.00     0.037 A 
BRANCH  51  65
ATOM     65  C   UNL A   1      41.707  27.076  27.854  1.00  0.00     0.064 A 
ATOM     66  C   UNL A   1      41.216  25.774  27.672  1.00  0.00     0.173 A 
ATOM     67  C   UNL A   1      42.496  27.631  26.838  1.00  0.00     0.173 A 
ATOM     68  F   UNL A   1      40.474  25.193  28.627  1.00  0.00    -0.203 F 
ATOM     69  C   UNL A   1      41.539  25.042  26.533  1.00  0.00     0.198 A 
ATOM     70  C   UNL A   1      42.793  26.907  25.688  1.00  0.00     0.198 A 
ATOM     71  F   UNL A   1      42.989  28.872  26.966  1.00  0.00    -0.203 F 
ATOM     72  F   UNL A   1      41.113  23.777  26.408  1.00  0.00    -0.200 F 
ATOM     73  C   UNL A   1      42.323  25.610  25.541  1.00  0.00     0.200 A 
ATOM     74  F   UNL A   1      43.546  27.459  24.726  1.00  0.00    -0.200 F 
ATOM     75  F   UNL A   1      42.640  24.902  24.449  1.00  0.00    -0.200 F 
ENDBRANCH  51  65
BRANCH  52  76
ATOM     76  C   UNL A   1      39.156  32.261  35.964  1.00  0.00     0.064 A 
ATOM     77  C   UNL A   1      38.276  31.673  36.881  1.00  0.00     0.173 A 
ATOM     78  C   UNL A   1      39.626  33.552  36.244  1.00  0.00     0.173 A 
ATOM     79  F   UNL A   1      37.780  30.450  36.642  1.00  0.00    -0.203 F 
ATOM     80  C   UNL A   1      37.872  32.354  38.028  1.00  0.00     0.198 A 
ATOM     81  C   UNL A   1      39.241  34.223  37.403  1.00  0.00     0.198 A 
ATOM     82  F   UNL A   1      40.472  34.158  35.396  1.00  0.00    -0.203 F 
ATOM     83  F   UNL A   1      37.003  31.782  38.873  1.00  0.00    -0.200 F 
ATOM     84  C   UNL A   1      38.360  33.626  38.292  1.00  0.00     0.200 A 
ATOM     85  F   UNL A   1      39.722  35.447  37.657  1.00  0.00    -0.200 F 
ATOM     86  F   UNL A   1      37.978  34.276  39.399  1.00  0.00    -0.200 F 
ENDBRANCH  52  76
BRANCH  64  87
ATOM     87  C   UNL A   1      44.154  27.574  34.613  1.00  0.00     0.064 A 
ATOM     88  C   UNL A   1      45.386  28.221  34.785  1.00  0.00     0.173 A 
ATOM     89  C   UNL A   1      43.938  26.374  35.309  1.00  0.00     0.173 A 
ATOM     90  F   UNL A   1      45.646  29.362  34.131  1.00  0.00    -0.203 F 
ATOM     91  C   UNL A   1      46.364  27.685  35.620  1.00  0.00     0.198 A 
ATOM     92  C   UNL A   1      44.907  25.855  36.162  1.00  0.00     0.198 A 
ATOM     93  F   UNL A   1      42.773  25.721  35.183  1.00  0.00    -0.203 F 
ATOM     94  F   UNL A   1      47.545  28.305  35.751  1.00  0.00    -0.200 F 
ATOM     95  C   UNL A   1      46.121  26.509  36.315  1.00  0.00     0.200 A 
ATOM     96  F   UNL A   1      44.664  24.727  36.843  1.00  0.00    -0.200 F 
ATOM     97  F   UNL A   1      47.056  26.004  37.131  1.00  0.00    -0.200 F 
ENDBRANCH  64  87
ENDBRANCH  38  39
ENDBRANCH  31  33
ENDBRANCH  30  31
ENDBRANCH  29  30
ENDBRANCH   1  29
TORSDOF 15
ENDMDL
MODEL 3
REMARK VINA RESULT:     -12.9      0.729      2.095
REMARK SMILES O=C(C[C@H](NC(=O)[C@]12C[C@H]3C[C@H](C[C@H](C3)C1)C2)c1ccc(Cl)cc1Cl)OCCOC(=O)c1ccc(-c2c3nc(c(-c4c(F)c(F)c(F)c(F)c4F)c4ccc([nH]4)c(-c4c(F)c(F)c(F)c(F)c4F)c4nc(c(-c5c(F)c(F)c(F)c(F)c5F)c5ccc2[nH]5)C=C4)C=C3)cc1
REMARK SMILES IDX 27 1 26 2 2 3 1 4 3 5 4 6 18 7 19 8 24 9 20 10 23 11 25 12
REMARK SMILES IDX 21 13 22 14 5 15 6 16 7 18 8 19 9 20 16 21 17 22 10 23 14 24
REMARK SMILES IDX 12 25 11 26 15 27 13 28 28 29 29 30 30 31 31 32 32 33 33 34
REMARK SMILES IDX 94 35 34 36 93 37 35 38 36 39 37 40 87 41 38 42 92 43 86 44
REMARK SMILES IDX 88 45 39 46 91 47 85 48 84 49 40 51 72 52 52 53 71 54 53 55
REMARK SMILES IDX 56 56 70 57 89 58 54 59 55 60 69 62 90 63 57 64 41 65 42 66
REMARK SMILES IDX 50 67 43 68 44 69 48 70 51 71 45 72 46 73 49 74 47 75 73 76
REMARK SMILES IDX 74 77 82 78 75 79 76 80 80 81 83 82 77 83 78 84 81 85 79 86
REMARK SMILES IDX 58 87 59 88 67 89 60 90 61 91 65 92 68 93 62 94 63 95 66 96
REMARK SMILES IDX 64 97
REMARK H PARENT 5 17 88 50 56 61
REMARK Flexibility Score: inf
ROOT
ATOM      1  C   UNL A   1      31.505  29.269  27.321  1.00  0.00     0.274 C 
ENDROOT
BRANCH   1   2
ATOM      2  O   UNL A   1      32.324  28.112  27.045  1.00  0.00    -0.462 OA
BRANCH   2   3
ATOM      3  C   UNL A   1      31.984  27.072  26.254  1.00  0.00     0.308 C 
ATOM      4  O   UNL A   1      31.338  26.133  26.712  1.00  0.00    -0.252 OA
BRANCH   3   5
ATOM      5  C   UNL A   1      32.483  27.034  24.834  1.00  0.00     0.152 C 
BRANCH   5   6
ATOM      6  C   UNL A   1      31.498  26.529  23.777  1.00  0.00     0.125 C 
BRANCH   6   7
ATOM      7  C   UNL A   1      30.528  27.603  23.301  1.00  0.00    -0.006 A 
ATOM      8  C   UNL A   1      31.098  28.671  22.566  1.00  0.00     0.009 A 
ATOM      9  C   UNL A   1      29.129  27.593  23.445  1.00  0.00     0.047 A 
ATOM     10  C   UNL A   1      30.312  29.675  21.998  1.00  0.00     0.021 A 
ATOM     11  C   UNL A   1      28.342  28.616  22.897  1.00  0.00     0.041 A 
ATOM     12  Cl  UNL A   1      28.265  26.329  24.248  1.00  0.00    -0.084 Cl
ATOM     13  C   UNL A   1      28.935  29.643  22.171  1.00  0.00     0.042 A 
ATOM     14  Cl  UNL A   1      27.960  30.874  21.470  1.00  0.00    -0.084 Cl
ENDBRANCH   6   7
BRANCH   6  15
ATOM     15  N   UNL A   1      32.182  25.769  22.741  1.00  0.00    -0.348 N 
ATOM     16  C   UNL A   1      32.930  24.634  22.756  1.00  0.00     0.226 C 
ATOM     17  H   UNL A   1      32.083  26.160  21.843  1.00  0.00     0.164 HD
ATOM     18  O   UNL A   1      33.621  24.441  21.750  1.00  0.00    -0.274 OA
BRANCH  16  19
ATOM     19  C   UNL A   1      32.939  23.632  23.930  1.00  0.00     0.050 C 
ATOM     20  C   UNL A   1      33.475  22.256  23.414  1.00  0.00     0.020 C 
ATOM     21  C   UNL A   1      31.507  23.373  24.460  1.00  0.00     0.020 C 
ATOM     22  C   UNL A   1      33.877  24.065  25.079  1.00  0.00     0.020 C 
ATOM     23  C   UNL A   1      33.481  21.198  24.532  1.00  0.00    -0.010 C 
ATOM     24  C   UNL A   1      31.524  22.349  25.606  1.00  0.00    -0.010 C 
ATOM     25  C   UNL A   1      33.880  23.019  26.206  1.00  0.00    -0.010 C 
ATOM     26  C   UNL A   1      34.391  21.677  25.669  1.00  0.00     0.007 C 
ATOM     27  C   UNL A   1      32.057  21.013  25.074  1.00  0.00     0.007 C 
ATOM     28  C   UNL A   1      32.444  22.856  26.728  1.00  0.00     0.007 C 
ENDBRANCH  16  19
ENDBRANCH   6  15
ENDBRANCH   5   6
ENDBRANCH   3   5
ENDBRANCH   2   3
ENDBRANCH   1   2
BRANCH   1  29
ATOM     29  C   UNL A   1      31.787  30.420  26.350  1.00  0.00     0.275 C 
BRANCH  29  30
ATOM     30  O   UNL A   1      33.184  30.776  26.353  1.00  0.00    -0.458 OA
BRANCH  30  31
ATOM     31  C   UNL A   1      33.548  31.762  27.215  1.00  0.00     0.338 C 
ATOM     32  O   UNL A   1      32.875  32.710  27.562  1.00  0.00    -0.246 OA
BRANCH  31  33
ATOM     33  C   UNL A   1      34.852  31.413  27.835  1.00  0.00     0.060 A 
ATOM     34  C   UNL A   1      35.064  30.085  28.232  1.00  0.00     0.016 A 
ATOM     35  C   UNL A   1      35.863  32.362  28.010  1.00  0.00     0.016 A 
ATOM     36  C   UNL A   1      36.280  29.702  28.810  1.00  0.00     0.010 A 
ATOM     37  C   UNL A   1      37.070  31.983  28.604  1.00  0.00     0.010 A 
ATOM     38  C   UNL A   1      37.280  30.658  29.022  1.00  0.00    -0.014 A 
BRANCH  38  39
ATOM     39  C   UNL A   1      38.473  30.350  29.848  1.00  0.00     0.031 A 
ATOM     40  C   UNL A   1      39.458  29.346  29.323  1.00  0.00     0.074 A 
ATOM     41  C   UNL A   1      38.657  30.893  31.065  1.00  0.00     0.049 A 
ATOM     42  N   UNL A   1      40.495  28.808  29.910  1.00  0.00    -0.248 NA
ATOM     43  C   UNL A   1      39.229  28.878  27.947  1.00  0.00     0.031 C 
ATOM     44  C   UNL A   1      37.801  31.902  31.679  1.00  0.00     0.029 A 
ATOM     45  N   UNL A   1      39.614  30.637  32.017  1.00  0.00    -0.354 N 
ATOM     46  C   UNL A   1      41.037  27.932  28.980  1.00  0.00     0.074 A 
ATOM     47  C   UNL A   1      40.196  27.987  27.804  1.00  0.00     0.031 C 
ATOM     48  C   UNL A   1      38.242  32.146  32.926  1.00  0.00     0.029 A 
ATOM     49  C   UNL A   1      39.401  31.297  33.202  1.00  0.00     0.049 A 
ATOM     50  H   UNL A   1      40.380  30.038  31.863  1.00  0.00     0.167 HD
ATOM     51  C   UNL A   1      42.139  27.156  29.092  1.00  0.00     0.037 A 
ATOM     52  C   UNL A   1      40.049  31.203  34.380  1.00  0.00     0.037 A 
ATOM     53  C   UNL A   1      42.973  27.093  30.260  1.00  0.00     0.049 A 
ATOM     54  C   UNL A   1      41.236  30.280  34.510  1.00  0.00     0.074 A 
ATOM     55  C   UNL A   1      44.129  26.360  30.457  1.00  0.00     0.029 A 
ATOM     56  N   UNL A   1      42.728  27.780  31.439  1.00  0.00    -0.354 N 
ATOM     57  N   UNL A   1      41.771  29.488  33.612  1.00  0.00    -0.248 NA
ATOM     58  C   UNL A   1      41.912  30.243  35.816  1.00  0.00     0.031 C 
ATOM     59  C   UNL A   1      44.557  26.566  31.773  1.00  0.00     0.029 A 
ATOM     60  C   UNL A   1      43.696  27.466  32.379  1.00  0.00     0.049 A 
ATOM     61  H   UNL A   1      41.977  28.400  31.588  1.00  0.00     0.167 HD
ATOM     62  C   UNL A   1      42.861  28.889  34.230  1.00  0.00     0.074 A 
ATOM     63  C   UNL A   1      42.913  29.405  35.581  1.00  0.00     0.031 C 
ATOM     64  C   UNL A   1      43.745  27.998  33.718  1.00  0.00     0.037 A 
BRANCH  51  65
ATOM     65  C   UNL A   1      42.478  26.287  27.918  1.00  0.00     0.064 A 
ATOM     66  C   UNL A   1      43.398  26.696  26.942  1.00  0.00     0.173 A 
ATOM     67  C   UNL A   1      41.860  25.039  27.761  1.00  0.00     0.173 A 
ATOM     68  F   UNL A   1      43.999  27.892  27.038  1.00  0.00    -0.203 F 
ATOM     69  C   UNL A   1      43.659  25.901  25.829  1.00  0.00     0.198 A 
ATOM     70  C   UNL A   1      42.144  24.234  26.663  1.00  0.00     0.198 A 
ATOM     71  F   UNL A   1      40.972  24.605  28.668  1.00  0.00    -0.203 F 
ATOM     72  F   UNL A   1      44.493  26.339  24.875  1.00  0.00    -0.200 F 
ATOM     73  C   UNL A   1      43.035  24.670  25.692  1.00  0.00     0.200 A 
ATOM     74  F   UNL A   1      41.546  23.042  26.534  1.00  0.00    -0.200 F 
ATOM     75  F   UNL A   1      43.280  23.910  24.616  1.00  0.00    -0.200 F 
ENDBRANCH  51  65
BRANCH  52  76
ATOM     76  C   UNL A   1      39.583  32.002  35.542  1.00  0.00     0.064 A 
ATOM     77  C   UNL A   1      40.100  33.279  35.795  1.00  0.00     0.173 A 
ATOM     78  C   UNL A   1      38.612  31.503  36.423  1.00  0.00     0.173 A 
ATOM     79  F   UNL A   1      41.049  33.787  34.995  1.00  0.00    -0.203 F 
ATOM     80  C   UNL A   1      39.671  34.024  36.892  1.00  0.00     0.198 A 
ATOM     81  C   UNL A   1      38.168  32.258  37.506  1.00  0.00     0.198 A 
ATOM     82  F   UNL A   1      38.086  30.285  36.223  1.00  0.00    -0.203 F 
ATOM     83  F   UNL A   1      40.206  35.229  37.131  1.00  0.00    -0.200 F 
ATOM     84  C   UNL A   1      38.701  33.516  37.744  1.00  0.00     0.200 A 
ATOM     85  F   UNL A   1      37.223  31.766  38.320  1.00  0.00    -0.200 F 
ATOM     86  F   UNL A   1      38.284  34.236  38.793  1.00  0.00    -0.200 F 
ENDBRANCH  52  76
BRANCH  64  87
ATOM     87  C   UNL A   1      44.879  27.549  34.594  1.00  0.00     0.064 A 
ATOM     88  C   UNL A   1      44.793  26.387  35.373  1.00  0.00     0.173 A 
ATOM     89  C   UNL A   1      46.095  28.251  34.589  1.00  0.00     0.173 A 
ATOM     90  F   UNL A   1      43.648  25.690  35.422  1.00  0.00    -0.203 F 
ATOM     91  C   UNL A   1      45.882  25.947  36.122  1.00  0.00     0.198 A 
ATOM     92  C   UNL A   1      47.189  27.794  35.318  1.00  0.00     0.198 A 
ATOM     93  F   UNL A   1      46.229  29.364  33.854  1.00  0.00    -0.203 F 
ATOM     94  F   UNL A   1      45.772  24.848  36.881  1.00  0.00    -0.200 F 
ATOM     95  C   UNL A   1      47.081  26.644  36.086  1.00  0.00     0.200 A 
ATOM     96  F   UNL A   1      48.351  28.461  35.270  1.00  0.00    -0.200 F 
ATOM     97  F   UNL A   1      48.133  26.209  36.793  1.00  0.00    -0.200 F 
ENDBRANCH  64  87
ENDBRANCH  38  39
ENDBRANCH  31  33
ENDBRANCH  30  31
ENDBRANCH  29  30
ENDBRANCH   1  29
TORSDOF 15
ENDMDL
