MODEL 1
REMARK VINA RESULT:     -12.0      0.000      0.000
REMARK SMILES CCOc1ccccc1NC(=O)N[C@@](C)(CC)C(=O)OCCOC(=O)c1ccc(-c2c3nc(c(-c4c(F)c(F)c(F)c(F)c4F)c4ccc([nH]4)c(-c4c(F)c(F)c(F)c(F)c4F)c4nc(c(-c5c(F)c(F)c(F)c(F)c5F)c5ccc2[nH]5)C=C4)C=C3)cc1
REMARK SMILES IDX 21 1 20 2 18 3 19 4 14 5 15 6 13 7 10 8 11 9 12 11 9 13 4 14
REMARK SMILES IDX 5 15 6 16 8 17 7 18 3 19 2 20 1 21 16 22 17 23 22 24 23 25
REMARK SMILES IDX 24 26 25 27 26 28 27 29 88 30 28 31 87 32 29 33 30 34 31 35
REMARK SMILES IDX 81 36 32 37 86 38 80 39 82 40 33 41 85 42 79 43 78 44 34 46
REMARK SMILES IDX 66 47 46 48 65 49 47 50 50 51 64 52 83 53 48 54 49 55 63 57
REMARK SMILES IDX 84 58 51 59 35 60 36 61 44 62 37 63 38 64 42 65 45 66 39 67
REMARK SMILES IDX 40 68 43 69 41 70 67 71 68 72 76 73 69 74 70 75 74 76 77 77
REMARK SMILES IDX 71 78 72 79 75 80 73 81 52 82 53 83 61 84 54 85 55 86 59 87
REMARK SMILES IDX 62 88 56 89 57 90 60 91 58 92
REMARK H PARENT 10 10 13 12 82 45 50 56
REMARK Flexibility Score: inf
ROOT
ATOM      1  C   UNL A   1      32.725  28.446  25.465  1.00  0.00     0.274 C 
ENDROOT
BRANCH   1   2
ATOM      2  O   UNL A   1      31.728  27.603  24.832  1.00  0.00    -0.460 OA
BRANCH   2   3
ATOM      3  C   UNL A   1      31.150  26.711  25.676  1.00  0.00     0.331 C 
ATOM      4  O   UNL A   1      31.279  26.789  26.884  1.00  0.00    -0.249 OA
BRANCH   3   5
ATOM      5  C   UNL A   1      30.247  25.648  25.015  1.00  0.00     0.136 C 
ATOM      6  C   UNL A   1      30.844  24.944  23.789  1.00  0.00     0.047 C 
BRANCH   5   7
ATOM      7  N   UNL A   1      29.870  24.607  26.023  1.00  0.00    -0.322 N 
ATOM      8  N   UNL A   1      31.857  23.538  26.805  1.00  0.00    -0.305 N 
ATOM      9  C   UNL A   1      30.517  23.648  26.724  1.00  0.00     0.320 C 
ATOM     10  H   UNL A   1      32.159  23.364  27.725  1.00  0.00     0.172 HD
ATOM     11  O   UNL A   1      29.826  23.009  27.528  1.00  0.00    -0.248 OA
ATOM     12  H   UNL A   1      28.906  24.625  26.227  1.00  0.00     0.166 HD
BRANCH   8  13
ATOM     13  C   UNL A   1      32.928  23.612  25.899  1.00  0.00     0.085 A 
ATOM     14  C   UNL A   1      33.037  22.595  24.929  1.00  0.00     0.142 A 
ATOM     15  C   UNL A   1      34.111  22.559  24.039  1.00  0.00     0.048 A 
ATOM     16  C   UNL A   1      35.072  23.567  24.089  1.00  0.00     0.004 A 
ATOM     17  C   UNL A   1      33.847  24.651  25.884  1.00  0.00     0.030 A 
ATOM     18  C   UNL A   1      34.932  24.617  25.000  1.00  0.00     0.002 A 
BRANCH  14  19
ATOM     19  O   UNL A   1      32.194  21.517  25.017  1.00  0.00    -0.492 OA
BRANCH  19  20
ATOM     20  C   UNL A   1      32.849  20.316  25.412  1.00  0.00     0.226 C 
ATOM     21  C   UNL A   1      32.516  19.275  24.356  1.00  0.00     0.049 C 
ENDBRANCH  19  20
ENDBRANCH  14  19
ENDBRANCH   8  13
ENDBRANCH   5   7
BRANCH   5  22
ATOM     22  C   UNL A   1      28.951  26.366  24.506  1.00  0.00     0.037 C 
ATOM     23  C   UNL A   1      29.094  27.360  23.362  1.00  0.00     0.007 C 
ENDBRANCH   5  22
ENDBRANCH   3   5
ENDBRANCH   2   3
ENDBRANCH   1   2
BRANCH   1  24
ATOM     24  C   UNL A   1      32.288  29.875  25.858  1.00  0.00     0.275 C 
BRANCH  24  25
ATOM     25  O   UNL A   1      32.583  30.208  27.236  1.00  0.00    -0.458 OA
BRANCH  25  26
ATOM     26  C   UNL A   1      33.309  31.336  27.430  1.00  0.00     0.338 C 
ATOM     27  O   UNL A   1      32.879  32.480  27.478  1.00  0.00    -0.246 OA
BRANCH  26  28
ATOM     28  C   UNL A   1      34.738  31.046  27.690  1.00  0.00     0.060 A 
ATOM     29  C   UNL A   1      35.103  29.727  27.992  1.00  0.00     0.016 A 
ATOM     30  C   UNL A   1      35.664  32.072  27.863  1.00  0.00     0.016 A 
ATOM     31  C   UNL A   1      36.362  29.417  28.493  1.00  0.00     0.010 A 
ATOM     32  C   UNL A   1      36.928  31.770  28.393  1.00  0.00     0.010 A 
ATOM     33  C   UNL A   1      37.262  30.448  28.752  1.00  0.00    -0.014 A 
BRANCH  33  34
ATOM     34  C   UNL A   1      38.426  30.176  29.626  1.00  0.00     0.031 A 
ATOM     35  C   UNL A   1      39.515  29.290  29.091  1.00  0.00     0.074 A 
ATOM     36  C   UNL A   1      38.558  30.755  30.831  1.00  0.00     0.049 A 
ATOM     37  N   UNL A   1      40.538  28.758  29.706  1.00  0.00    -0.248 NA
ATOM     38  C   UNL A   1      39.440  28.965  27.656  1.00  0.00     0.031 C 
ATOM     39  C   UNL A   1      37.653  31.752  31.394  1.00  0.00     0.029 A 
ATOM     40  N   UNL A   1      39.515  30.580  31.799  1.00  0.00    -0.354 N 
ATOM     41  C   UNL A   1      41.202  28.005  28.746  1.00  0.00     0.074 A 
ATOM     42  C   UNL A   1      40.476  28.156  27.505  1.00  0.00     0.031 C 
ATOM     43  C   UNL A   1      38.084  32.085  32.624  1.00  0.00     0.029 A 
ATOM     44  C   UNL A   1      39.262  31.283  32.951  1.00  0.00     0.049 A 
ATOM     45  H   UNL A   1      40.307  30.007  31.680  1.00  0.00     0.167 HD
ATOM     46  C   UNL A   1      42.311  27.242  28.897  1.00  0.00     0.037 A 
ATOM     47  C   UNL A   1      39.888  31.243  34.143  1.00  0.00     0.037 A 
ATOM     48  C   UNL A   1      43.029  27.112  30.135  1.00  0.00     0.049 A 
ATOM     49  C   UNL A   1      41.066  30.317  34.318  1.00  0.00     0.074 A 
ATOM     50  C   UNL A   1      44.126  26.320  30.423  1.00  0.00     0.029 A 
ATOM     51  N   UNL A   1      42.718  27.809  31.294  1.00  0.00    -0.354 N 
ATOM     52  N   UNL A   1      41.639  29.530  33.439  1.00  0.00    -0.248 NA
ATOM     53  C   UNL A   1      41.674  30.261  35.656  1.00  0.00     0.031 C 
ATOM     54  C   UNL A   1      44.460  26.514  31.768  1.00  0.00     0.029 A 
ATOM     55  C   UNL A   1      43.598  27.460  32.304  1.00  0.00     0.049 A 
ATOM     56  H   UNL A   1      41.983  28.456  31.385  1.00  0.00     0.167 HD
ATOM     57  C   UNL A   1      42.687  28.910  34.105  1.00  0.00     0.074 A 
ATOM     58  C   UNL A   1      42.676  29.414  35.462  1.00  0.00     0.031 C 
ATOM     59  C   UNL A   1      43.579  28.001  33.639  1.00  0.00     0.037 A 
BRANCH  46  60
ATOM     60  C   UNL A   1      42.755  26.441  27.712  1.00  0.00     0.064 A 
ATOM     61  C   UNL A   1      43.719  26.916  26.811  1.00  0.00     0.173 A 
ATOM     62  C   UNL A   1      42.192  25.179  27.468  1.00  0.00     0.173 A 
ATOM     63  F   UNL A   1      44.269  28.126  26.988  1.00  0.00    -0.203 F 
ATOM     64  C   UNL A   1      44.083  26.168  25.694  1.00  0.00     0.198 A 
ATOM     65  C   UNL A   1      42.577  24.422  26.364  1.00  0.00     0.198 A 
ATOM     66  F   UNL A   1      41.265  24.679  28.299  1.00  0.00    -0.203 F 
ATOM     67  F   UNL A   1      44.968  26.662  24.816  1.00  0.00    -0.200 F 
ATOM     68  C   UNL A   1      43.515  24.922  25.474  1.00  0.00     0.200 A 
ATOM     69  F   UNL A   1      42.032  23.216  26.157  1.00  0.00    -0.200 F 
ATOM     70  F   UNL A   1      43.863  24.205  24.395  1.00  0.00    -0.200 F 
ENDBRANCH  46  60
BRANCH  47  71
ATOM     71  C   UNL A   1      39.384  32.059  35.279  1.00  0.00     0.064 A 
ATOM     72  C   UNL A   1      39.776  33.396  35.443  1.00  0.00     0.173 A 
ATOM     73  C   UNL A   1      38.517  31.514  36.239  1.00  0.00     0.173 A 
ATOM     74  F   UNL A   1      40.628  33.954  34.571  1.00  0.00    -0.203 F 
ATOM     75  C   UNL A   1      39.332  34.149  36.528  1.00  0.00     0.198 A 
ATOM     76  C   UNL A   1      38.052  32.276  37.309  1.00  0.00     0.198 A 
ATOM     77  F   UNL A   1      38.120  30.237  36.137  1.00  0.00    -0.203 F 
ATOM     78  F   UNL A   1      39.760  35.409  36.687  1.00  0.00    -0.200 F 
ATOM     79  C   UNL A   1      38.465  33.591  37.457  1.00  0.00     0.200 A 
ATOM     80  F   UNL A   1      37.210  31.734  38.199  1.00  0.00    -0.200 F 
ATOM     81  F   UNL A   1      38.040  34.316  38.501  1.00  0.00    -0.200 F 
ENDBRANCH  47  71
BRANCH  59  82
ATOM     82  C   UNL A   1      44.648  27.534  34.580  1.00  0.00     0.064 A 
ATOM     83  C   UNL A   1      45.855  28.230  34.725  1.00  0.00     0.173 A 
ATOM     84  C   UNL A   1      44.426  26.416  35.397  1.00  0.00     0.173 A 
ATOM     85  F   UNL A   1      46.115  29.298  33.955  1.00  0.00    -0.203 F 
ATOM     86  C   UNL A   1      46.811  27.814  35.647  1.00  0.00     0.198 A 
ATOM     87  C   UNL A   1      45.374  26.017  36.334  1.00  0.00     0.198 A 
ATOM     88  F   UNL A   1      43.282  25.722  35.300  1.00  0.00    -0.203 F 
ATOM     89  F   UNL A   1      47.972  28.475  35.750  1.00  0.00    -0.200 F 
ATOM     90  C   UNL A   1      46.566  26.714  36.456  1.00  0.00     0.200 A 
ATOM     91  F   UNL A   1      45.132  24.961  37.124  1.00  0.00    -0.200 F 
ATOM     92  F   UNL A   1      47.483  26.325  37.354  1.00  0.00    -0.200 F 
ENDBRANCH  59  82
ENDBRANCH  33  34
ENDBRANCH  26  28
ENDBRANCH  25  26
ENDBRANCH  24  25
ENDBRANCH   1  24
TORSDOF 16
ENDMDL
MODEL 2
REMARK VINA RESULT:     -11.9      0.280      1.626
REMARK SMILES CCOc1ccccc1NC(=O)N[C@@](C)(CC)C(=O)OCCOC(=O)c1ccc(-c2c3nc(c(-c4c(F)c(F)c(F)c(F)c4F)c4ccc([nH]4)c(-c4c(F)c(F)c(F)c(F)c4F)c4nc(c(-c5c(F)c(F)c(F)c(F)c5F)c5ccc2[nH]5)C=C4)C=C3)cc1
REMARK SMILES IDX 21 1 20 2 18 3 19 4 14 5 15 6 13 7 10 8 11 9 12 11 9 13 4 14
REMARK SMILES IDX 5 15 6 16 8 17 7 18 3 19 2 20 1 21 16 22 17 23 22 24 23 25
REMARK SMILES IDX 24 26 25 27 26 28 27 29 88 30 28 31 87 32 29 33 30 34 31 35
REMARK SMILES IDX 81 36 32 37 86 38 80 39 82 40 33 41 85 42 79 43 78 44 34 46
REMARK SMILES IDX 66 47 46 48 65 49 47 50 50 51 64 52 83 53 48 54 49 55 63 57
REMARK SMILES IDX 84 58 51 59 35 60 36 61 44 62 37 63 38 64 42 65 45 66 39 67
REMARK SMILES IDX 40 68 43 69 41 70 67 71 68 72 76 73 69 74 70 75 74 76 77 77
REMARK SMILES IDX 71 78 72 79 75 80 73 81 52 82 53 83 61 84 54 85 55 86 59 87
REMARK SMILES IDX 62 88 56 89 57 90 60 91 58 92
REMARK H PARENT 10 10 13 12 82 45 50 56
REMARK Flexibility Score: inf
ROOT
ATOM      1  C   UNL A   1      32.879  28.654  25.538  1.00  0.00     0.274 C 
ENDROOT
BRANCH   1   2
ATOM      2  O   UNL A   1      32.014  27.742  24.811  1.00  0.00    -0.460 OA
BRANCH   2   3
ATOM      3  C   UNL A   1      31.388  26.834  25.603  1.00  0.00     0.331 C 
ATOM      4  O   UNL A   1      31.486  26.859  26.815  1.00  0.00    -0.249 OA
BRANCH   3   5
ATOM      5  C   UNL A   1      30.474  25.826  24.875  1.00  0.00     0.136 C 
ATOM      6  C   UNL A   1      31.099  25.122  23.663  1.00  0.00     0.047 C 
BRANCH   5   7
ATOM      7  N   UNL A   1      30.004  24.781  25.840  1.00  0.00    -0.322 N 
ATOM      8  N   UNL A   1      31.898  23.562  26.634  1.00  0.00    -0.305 N 
ATOM      9  C   UNL A   1      30.570  23.761  26.525  1.00  0.00     0.320 C 
ATOM     10  H   UNL A   1      32.164  23.340  27.555  1.00  0.00     0.172 HD
ATOM     11  O   UNL A   1      29.819  23.144  27.291  1.00  0.00    -0.248 OA
ATOM     12  H   UNL A   1      29.039  24.855  26.021  1.00  0.00     0.166 HD
BRANCH   8  13
ATOM     13  C   UNL A   1      32.994  23.594  25.758  1.00  0.00     0.085 A 
ATOM     14  C   UNL A   1      33.071  22.594  24.766  1.00  0.00     0.142 A 
ATOM     15  C   UNL A   1      34.164  22.515  23.903  1.00  0.00     0.048 A 
ATOM     16  C   UNL A   1      35.179  23.465  24.001  1.00  0.00     0.004 A 
ATOM     17  C   UNL A   1      33.971  24.579  25.790  1.00  0.00     0.030 A 
ATOM     18  C   UNL A   1      35.075  24.502  24.932  1.00  0.00     0.002 A 
BRANCH  14  19
ATOM     19  O   UNL A   1      32.166  21.565  24.808  1.00  0.00    -0.492 OA
BRANCH  19  20
ATOM     20  C   UNL A   1      32.748  20.312  25.158  1.00  0.00     0.226 C 
ATOM     21  C   UNL A   1      32.526  19.388  23.972  1.00  0.00     0.049 C 
ENDBRANCH  19  20
ENDBRANCH  14  19
ENDBRANCH   8  13
ENDBRANCH   5   7
BRANCH   5  22
ATOM     22  C   UNL A   1      29.235  26.610  24.322  1.00  0.00     0.037 C 
ATOM     23  C   UNL A   1      29.460  27.554  23.149  1.00  0.00     0.007 C 
ENDBRANCH   5  22
ENDBRANCH   3   5
ENDBRANCH   2   3
ENDBRANCH   1   2
BRANCH   1  24
ATOM     24  C   UNL A   1      32.279  30.022  25.934  1.00  0.00     0.275 C 
BRANCH  24  25
ATOM     25  O   UNL A   1      32.575  30.404  27.299  1.00  0.00    -0.458 OA
BRANCH  25  26
ATOM     26  C   UNL A   1      33.358  31.500  27.450  1.00  0.00     0.338 C 
ATOM     27  O   UNL A   1      32.986  32.665  27.467  1.00  0.00    -0.246 OA
BRANCH  26  28
ATOM     28  C   UNL A   1      34.774  31.146  27.704  1.00  0.00     0.060 A 
ATOM     29  C   UNL A   1      35.081  29.812  28.004  1.00  0.00     0.016 A 
ATOM     30  C   UNL A   1      35.745  32.131  27.874  1.00  0.00     0.016 A 
ATOM     31  C   UNL A   1      36.327  29.447  28.499  1.00  0.00     0.010 A 
ATOM     32  C   UNL A   1      36.997  31.773  28.399  1.00  0.00     0.010 A 
ATOM     33  C   UNL A   1      37.273  30.438  28.755  1.00  0.00    -0.014 A 
BRANCH  33  34
ATOM     34  C   UNL A   1      38.428  30.114  29.624  1.00  0.00     0.031 A 
ATOM     35  C   UNL A   1      39.491  29.207  29.072  1.00  0.00     0.074 A 
ATOM     36  C   UNL A   1      38.576  30.664  30.841  1.00  0.00     0.049 A 
ATOM     37  N   UNL A   1      40.498  28.633  29.677  1.00  0.00    -0.248 NA
ATOM     38  C   UNL A   1      39.408  28.912  27.631  1.00  0.00     0.031 C 
ATOM     39  C   UNL A   1      37.700  31.676  31.423  1.00  0.00     0.029 A 
ATOM     40  N   UNL A   1      39.526  30.442  31.806  1.00  0.00    -0.354 N 
ATOM     41  C   UNL A   1      41.140  27.879  28.703  1.00  0.00     0.074 A 
ATOM     42  C   UNL A   1      40.420  28.077  27.465  1.00  0.00     0.031 C 
ATOM     43  C   UNL A   1      38.139  31.972  32.659  1.00  0.00     0.029 A 
ATOM     44  C   UNL A   1      39.292  31.129  32.971  1.00  0.00     0.049 A 
ATOM     45  H   UNL A   1      40.301  29.848  31.676  1.00  0.00     0.167 HD
ATOM     46  C   UNL A   1      42.225  27.082  28.839  1.00  0.00     0.037 A 
ATOM     47  C   UNL A   1      39.915  31.047  34.163  1.00  0.00     0.037 A 
ATOM     48  C   UNL A   1      42.938  26.906  30.075  1.00  0.00     0.049 A 
ATOM     49  C   UNL A   1      41.065  30.083  34.320  1.00  0.00     0.074 A 
ATOM     50  C   UNL A   1      44.011  26.077  30.348  1.00  0.00     0.029 A 
ATOM     51  N   UNL A   1      42.647  27.588  31.247  1.00  0.00    -0.354 N 
ATOM     52  N   UNL A   1      41.616  29.297  33.426  1.00  0.00    -0.248 NA
ATOM     53  C   UNL A   1      41.670  29.983  35.657  1.00  0.00     0.031 C 
ATOM     54  C   UNL A   1      44.349  26.234  31.696  1.00  0.00     0.029 A 
ATOM     55  C   UNL A   1      43.515  27.193  32.250  1.00  0.00     0.049 A 
ATOM     56  H   UNL A   1      41.931  28.255  31.350  1.00  0.00     0.167 HD
ATOM     57  C   UNL A   1      42.645  28.633  34.079  1.00  0.00     0.074 A 
ATOM     58  C   UNL A   1      42.647  29.111  35.447  1.00  0.00     0.031 C 
ATOM     59  C   UNL A   1      43.510  27.708  33.596  1.00  0.00     0.037 A 
BRANCH  46  60
ATOM     60  C   UNL A   1      42.648  26.292  27.639  1.00  0.00     0.064 A 
ATOM     61  C   UNL A   1      42.094  25.039  27.338  1.00  0.00     0.173 A 
ATOM     62  C   UNL A   1      43.639  26.794  26.782  1.00  0.00     0.173 A 
ATOM     63  F   UNL A   1      41.159  24.506  28.140  1.00  0.00    -0.203 F 
ATOM     64  C   UNL A   1      42.536  24.307  26.240  1.00  0.00     0.198 A 
ATOM     65  C   UNL A   1      44.061  26.071  25.670  1.00  0.00     0.198 A 
ATOM     66  F   UNL A   1      44.203  27.987  27.026  1.00  0.00    -0.203 F 
ATOM     67  F   UNL A   1      42.030  23.088  26.000  1.00  0.00    -0.200 F 
ATOM     68  C   UNL A   1      43.515  24.824  25.405  1.00  0.00     0.200 A 
ATOM     69  F   UNL A   1      45.003  26.575  24.861  1.00  0.00    -0.200 F 
ATOM     70  F   UNL A   1      43.943  24.116  24.350  1.00  0.00    -0.200 F 
ENDBRANCH  46  60
BRANCH  47  71
ATOM     71  C   UNL A   1      39.434  31.855  35.314  1.00  0.00     0.064 A 
ATOM     72  C   UNL A   1      39.894  33.162  35.526  1.00  0.00     0.173 A 
ATOM     73  C   UNL A   1      38.522  31.328  36.242  1.00  0.00     0.173 A 
ATOM     74  F   UNL A   1      40.791  33.700  34.686  1.00  0.00    -0.203 F 
ATOM     75  C   UNL A   1      39.471  33.905  36.626  1.00  0.00     0.198 A 
ATOM     76  C   UNL A   1      38.078  32.082  37.327  1.00  0.00     0.198 A 
ATOM     77  F   UNL A   1      38.059  30.078  36.094  1.00  0.00    -0.203 F 
ATOM     78  F   UNL A   1      39.963  35.136  36.832  1.00  0.00    -0.200 F 
ATOM     79  C   UNL A   1      38.558  33.368  37.522  1.00  0.00     0.200 A 
ATOM     80  F   UNL A   1      37.192  31.560  38.185  1.00  0.00    -0.200 F 
ATOM     81  F   UNL A   1      38.152  34.083  38.580  1.00  0.00    -0.200 F 
ENDBRANCH  47  71
BRANCH  59  82
ATOM     82  C   UNL A   1      44.563  27.192  34.528  1.00  0.00     0.064 A 
ATOM     83  C   UNL A   1      44.370  26.028  35.284  1.00  0.00     0.173 A 
ATOM     84  C   UNL A   1      45.808  27.834  34.608  1.00  0.00     0.173 A 
ATOM     85  F   UNL A   1      43.191  25.389  35.248  1.00  0.00    -0.203 F 
ATOM     86  C   UNL A   1      45.382  25.531  36.099  1.00  0.00     0.198 A 
ATOM     87  C   UNL A   1      46.826  27.321  35.407  1.00  0.00     0.198 A 
ATOM     88  F   UNL A   1      46.043  28.946  33.897  1.00  0.00    -0.203 F 
ATOM     89  F   UNL A   1      45.168  24.434  36.838  1.00  0.00    -0.200 F 
ATOM     90  C   UNL A   1      46.612  26.173  36.153  1.00  0.00     0.200 A 
ATOM     91  F   UNL A   1      48.017  27.934  35.448  1.00  0.00    -0.200 F 
ATOM     92  F   UNL A   1      47.590  25.684  36.929  1.00  0.00    -0.200 F 
ENDBRANCH  59  82
ENDBRANCH  33  34
ENDBRANCH  26  28
ENDBRANCH  25  26
ENDBRANCH  24  25
ENDBRANCH   1  24
TORSDOF 16
ENDMDL
MODEL 3
REMARK VINA RESULT:     -11.9      1.111      1.948
REMARK SMILES CCOc1ccccc1NC(=O)N[C@@](C)(CC)C(=O)OCCOC(=O)c1ccc(-c2c3nc(c(-c4c(F)c(F)c(F)c(F)c4F)c4ccc([nH]4)c(-c4c(F)c(F)c(F)c(F)c4F)c4nc(c(-c5c(F)c(F)c(F)c(F)c5F)c5ccc2[nH]5)C=C4)C=C3)cc1
REMARK SMILES IDX 21 1 20 2 18 3 19 4 14 5 15 6 13 7 10 8 11 9 12 11 9 13 4 14
REMARK SMILES IDX 5 15 6 16 8 17 7 18 3 19 2 20 1 21 16 22 17 23 22 24 23 25
REMARK SMILES IDX 24 26 25 27 26 28 27 29 88 30 28 31 87 32 29 33 30 34 31 35
REMARK SMILES IDX 81 36 32 37 86 38 80 39 82 40 33 41 85 42 79 43 78 44 34 46
REMARK SMILES IDX 66 47 46 48 65 49 47 50 50 51 64 52 83 53 48 54 49 55 63 57
REMARK SMILES IDX 84 58 51 59 35 60 36 61 44 62 37 63 38 64 42 65 45 66 39 67
REMARK SMILES IDX 40 68 43 69 41 70 67 71 68 72 76 73 69 74 70 75 74 76 77 77
REMARK SMILES IDX 71 78 72 79 75 80 73 81 52 82 53 83 61 84 54 85 55 86 59 87
REMARK SMILES IDX 62 88 56 89 57 90 60 91 58 92
REMARK H PARENT 10 10 13 12 82 45 50 56
REMARK Flexibility Score: inf
ROOT
ATOM      1  C   UNL A   1      32.385  28.985  25.180  1.00  0.00     0.274 C 
ENDROOT
BRANCH   1   2
ATOM      2  O   UNL A   1      31.402  27.984  24.807  1.00  0.00    -0.460 OA
BRANCH   2   3
ATOM      3  C   UNL A   1      31.484  26.840  25.534  1.00  0.00     0.331 C 
ATOM      4  O   UNL A   1      31.152  26.794  26.704  1.00  0.00    -0.249 OA
BRANCH   3   5
ATOM      5  C   UNL A   1      31.938  25.584  24.761  1.00  0.00     0.136 C 
ATOM      6  C   UNL A   1      30.816  24.626  24.339  1.00  0.00     0.047 C 
BRANCH   5   7
ATOM      7  N   UNL A   1      32.699  25.991  23.537  1.00  0.00    -0.322 N 
ATOM      8  N   UNL A   1      33.264  24.031  22.296  1.00  0.00    -0.305 N 
ATOM      9  C   UNL A   1      33.343  25.355  22.531  1.00  0.00     0.320 C 
ATOM     10  H   UNL A   1      33.141  23.831  21.340  1.00  0.00     0.172 HD
ATOM     11  O   UNL A   1      33.814  26.081  21.648  1.00  0.00    -0.248 OA
ATOM     12  H   UNL A   1      32.742  26.970  23.439  1.00  0.00     0.166 HD
BRANCH   8  13
ATOM     13  C   UNL A   1      33.315  22.865  23.079  1.00  0.00     0.085 A 
ATOM     14  C   UNL A   1      34.497  22.613  23.804  1.00  0.00     0.142 A 
ATOM     15  C   UNL A   1      34.652  21.444  24.549  1.00  0.00     0.048 A 
ATOM     16  C   UNL A   1      33.603  20.527  24.603  1.00  0.00     0.004 A 
ATOM     17  C   UNL A   1      32.251  21.984  23.208  1.00  0.00     0.030 A 
ATOM     18  C   UNL A   1      32.401  20.804  23.946  1.00  0.00     0.002 A 
BRANCH  14  19
ATOM     19  O   UNL A   1      35.580  23.426  23.588  1.00  0.00    -0.492 OA
BRANCH  19  20
ATOM     20  C   UNL A   1      36.805  22.875  24.060  1.00  0.00     0.226 C 
ATOM     21  C   UNL A   1      37.201  23.689  25.281  1.00  0.00     0.049 C 
ENDBRANCH  19  20
ENDBRANCH  14  19
ENDBRANCH   8  13
ENDBRANCH   5   7
BRANCH   5  22
ATOM     22  C   UNL A   1      32.878  24.754  25.700  1.00  0.00     0.037 C 
ATOM     23  C   UNL A   1      32.242  23.674  26.565  1.00  0.00     0.007 C 
ENDBRANCH   5  22
ENDBRANCH   3   5
ENDBRANCH   2   3
ENDBRANCH   1   2
BRANCH   1  24
ATOM     24  C   UNL A   1      31.877  30.197  25.993  1.00  0.00     0.275 C 
BRANCH  24  25
ATOM     25  O   UNL A   1      32.544  30.353  27.268  1.00  0.00    -0.458 OA
BRANCH  25  26
ATOM     26  C   UNL A   1      33.287  31.478  27.413  1.00  0.00     0.338 C 
ATOM     27  O   UNL A   1      32.874  32.629  27.418  1.00  0.00    -0.246 OA
BRANCH  26  28
ATOM     28  C   UNL A   1      34.713  31.177  27.678  1.00  0.00     0.060 A 
ATOM     29  C   UNL A   1      35.073  29.848  27.940  1.00  0.00     0.016 A 
ATOM     30  C   UNL A   1      35.638  32.195  27.895  1.00  0.00     0.016 A 
ATOM     31  C   UNL A   1      36.326  29.520  28.444  1.00  0.00     0.010 A 
ATOM     32  C   UNL A   1      36.896  31.874  28.428  1.00  0.00     0.010 A 
ATOM     33  C   UNL A   1      37.225  30.541  28.746  1.00  0.00    -0.014 A 
BRANCH  33  34
ATOM     34  C   UNL A   1      38.380  30.238  29.623  1.00  0.00     0.031 A 
ATOM     35  C   UNL A   1      39.451  29.332  29.085  1.00  0.00     0.074 A 
ATOM     36  C   UNL A   1      38.520  30.806  30.832  1.00  0.00     0.049 A 
ATOM     37  N   UNL A   1      40.461  28.775  29.701  1.00  0.00    -0.248 NA
ATOM     38  C   UNL A   1      39.374  29.017  27.648  1.00  0.00     0.031 C 
ATOM     39  C   UNL A   1      37.635  31.819  31.398  1.00  0.00     0.029 A 
ATOM     40  N   UNL A   1      39.470  30.605  31.802  1.00  0.00    -0.354 N 
ATOM     41  C   UNL A   1      41.112  28.013  28.739  1.00  0.00     0.074 A 
ATOM     42  C   UNL A   1      40.394  28.187  27.496  1.00  0.00     0.031 C 
ATOM     43  C   UNL A   1      38.068  32.136  32.631  1.00  0.00     0.029 A 
ATOM     44  C   UNL A   1      39.227  31.306  32.957  1.00  0.00     0.049 A 
ATOM     45  H   UNL A   1      40.249  30.016  31.682  1.00  0.00     0.167 HD
ATOM     46  C   UNL A   1      42.203  27.226  28.889  1.00  0.00     0.037 A 
ATOM     47  C   UNL A   1      39.848  31.245  34.151  1.00  0.00     0.037 A 
ATOM     48  C   UNL A   1      42.913  27.072  30.129  1.00  0.00     0.049 A 
ATOM     49  C   UNL A   1      41.005  30.293  34.325  1.00  0.00     0.074 A 
ATOM     50  C   UNL A   1      43.992  26.255  30.416  1.00  0.00     0.029 A 
ATOM     51  N   UNL A   1      42.614  27.768  31.291  1.00  0.00    -0.354 N 
ATOM     52  N   UNL A   1      41.564  29.499  33.443  1.00  0.00    -0.248 NA
ATOM     53  C   UNL A   1      41.607  30.216  35.664  1.00  0.00     0.031 C 
ATOM     54  C   UNL A   1      44.326  26.434  31.762  1.00  0.00     0.029 A 
ATOM     55  C   UNL A   1      43.482  27.394  32.301  1.00  0.00     0.049 A 
ATOM     56  H   UNL A   1      41.892  28.431  31.383  1.00  0.00     0.167 HD
ATOM     57  C   UNL A   1      42.596  28.852  34.108  1.00  0.00     0.074 A 
ATOM     58  C   UNL A   1      42.591  29.349  35.469  1.00  0.00     0.031 C 
ATOM     59  C   UNL A   1      43.470  27.928  33.639  1.00  0.00     0.037 A 
BRANCH  46  60
ATOM     60  C   UNL A   1      42.635  26.422  27.701  1.00  0.00     0.064 A 
ATOM     61  C   UNL A   1      43.637  26.865  26.826  1.00  0.00     0.173 A 
ATOM     62  C   UNL A   1      42.020  25.191  27.426  1.00  0.00     0.173 A 
ATOM     63  F   UNL A   1      44.238  28.046  27.033  1.00  0.00    -0.203 F 
ATOM     64  C   UNL A   1      43.989  26.118  25.705  1.00  0.00     0.198 A 
ATOM     65  C   UNL A   1      42.391  24.434  26.318  1.00  0.00     0.198 A 
ATOM     66  F   UNL A   1      41.054  24.723  28.231  1.00  0.00    -0.203 F 
ATOM     67  F   UNL A   1      44.913  26.585  24.852  1.00  0.00    -0.200 F 
ATOM     68  C   UNL A   1      43.369  24.903  25.454  1.00  0.00     0.200 A 
ATOM     69  F   UNL A   1      41.796  23.257  26.082  1.00  0.00    -0.200 F 
ATOM     70  F   UNL A   1      43.706  24.187  24.371  1.00  0.00    -0.200 F 
ENDBRANCH  46  60
BRANCH  47  71
ATOM     71  C   UNL A   1      39.357  32.065  35.290  1.00  0.00     0.064 A 
ATOM     72  C   UNL A   1      39.756  33.400  35.449  1.00  0.00     0.173 A 
ATOM     73  C   UNL A   1      38.497  31.525  36.259  1.00  0.00     0.173 A 
ATOM     74  F   UNL A   1      40.603  33.954  34.568  1.00  0.00    -0.203 F 
ATOM     75  C   UNL A   1      39.325  34.156  36.537  1.00  0.00     0.198 A 
ATOM     76  C   UNL A   1      38.045  32.290  37.332  1.00  0.00     0.198 A 
ATOM     77  F   UNL A   1      38.094  30.249  36.162  1.00  0.00    -0.203 F 
ATOM     78  F   UNL A   1      39.760  35.415  36.690  1.00  0.00    -0.200 F 
ATOM     79  C   UNL A   1      38.465  33.603  37.474  1.00  0.00     0.200 A 
ATOM     80  F   UNL A   1      37.209  31.753  38.230  1.00  0.00    -0.200 F 
ATOM     81  F   UNL A   1      38.051  34.332  38.521  1.00  0.00    -0.200 F 
ENDBRANCH  47  71
BRANCH  59  82
ATOM     82  C   UNL A   1      44.525  27.432  34.582  1.00  0.00     0.064 A 
ATOM     83  C   UNL A   1      45.740  28.110  34.748  1.00  0.00     0.173 A 
ATOM     84  C   UNL A   1      44.283  26.303  35.378  1.00  0.00     0.173 A 
ATOM     85  F   UNL A   1      46.019  29.187  33.998  1.00  0.00    -0.203 F 
ATOM     86  C   UNL A   1      46.682  27.667  35.671  1.00  0.00     0.198 A 
ATOM     87  C   UNL A   1      45.218  25.877  36.317  1.00  0.00     0.198 A 
ATOM     88  F   UNL A   1      43.131  25.625  35.260  1.00  0.00    -0.203 F 
ATOM     89  F   UNL A   1      47.851  28.312  35.794  1.00  0.00    -0.200 F 
ATOM     90  C   UNL A   1      46.417  26.557  36.460  1.00  0.00     0.200 A 
ATOM     91  F   UNL A   1      44.956  24.812  37.086  1.00  0.00    -0.200 F 
ATOM     92  F   UNL A   1      47.321  26.141  37.358  1.00  0.00    -0.200 F 
ENDBRANCH  59  82
ENDBRANCH  33  34
ENDBRANCH  26  28
ENDBRANCH  25  26
ENDBRANCH  24  25
ENDBRANCH   1  24
TORSDOF 16
ENDMDL
