MODEL 1
REMARK VINA RESULT:     -12.6      0.000      0.000
REMARK SMILES COC(=O)c1cccc(NC(=O)[C@@H]2[C@@H]3CC[C@@H](C3)[C@@H]2C(=O)OCCOC(=O)c2ccc(-c3c4nc(c(-c5c(F)c(F)c(F)c(F)c5F)c5ccc([nH]5)c(-c5c(F)c(F)c(F)c(F)c5F)c5nc(c(-c6c(F)c(F)c(F)c(F)c6F)c6ccc3[nH]6)C=C5)C=C4)cc2)c1
REMARK SMILES IDX 23 1 22 2 20 3 21 4 19 5 13 6 14 7 15 8 18 9 17 10 16 11
REMARK SMILES IDX 11 12 10 13 12 15 9 16 5 17 6 18 91 19 7 20 8 21 3 22 4 23
REMARK SMILES IDX 2 24 1 25 24 26 25 27 26 28 27 29 28 30 29 31 90 32 30 33
REMARK SMILES IDX 89 34 31 35 32 36 33 37 83 38 34 39 88 40 82 41 84 42 35 43
REMARK SMILES IDX 87 44 81 45 80 46 36 48 68 49 48 50 67 51 49 52 52 53 66 54
REMARK SMILES IDX 85 55 50 56 51 57 65 59 86 60 53 61 37 62 38 63 46 64 39 65
REMARK SMILES IDX 40 66 44 67 47 68 41 69 42 70 45 71 43 72 69 73 70 74 78 75
REMARK SMILES IDX 71 76 72 77 76 78 79 79 73 80 74 81 77 82 75 83 54 84 55 85
REMARK SMILES IDX 63 86 56 87 57 88 61 89 64 90 58 91 59 92 62 93 60 94
REMARK H PARENT 10 14 84 47 52 58
REMARK Flexibility Score: inf
ROOT
ATOM      1  C   UNL A   1      36.560  22.963  23.578  1.00  0.00     0.274 C 
ENDROOT
BRANCH   1   2
ATOM      2  O   UNL A   1      35.800  23.760  24.517  1.00  0.00    -0.462 OA
BRANCH   2   3
ATOM      3  C   UNL A   1      34.653  24.290  24.000  1.00  0.00     0.310 C 
ATOM      4  O   UNL A   1      34.475  24.452  22.801  1.00  0.00    -0.252 OA
BRANCH   3   5
ATOM      5  C   UNL A   1      33.738  24.826  25.087  1.00  0.00     0.115 C 
ATOM      6  C   UNL A   1      32.192  24.765  25.009  1.00  0.00     0.096 C 
ATOM      7  C   UNL A   1      31.804  26.272  25.145  1.00  0.00     0.003 C 
ATOM      8  C   UNL A   1      32.245  27.115  23.931  1.00  0.00     0.005 C 
ATOM      9  C   UNL A   1      32.807  26.726  26.211  1.00  0.00     0.009 C 
ATOM     10  C   UNL A   1      34.016  26.347  25.354  1.00  0.00     0.004 C 
ATOM     11  C   UNL A   1      33.751  27.250  24.133  1.00  0.00     0.005 C 
BRANCH   6  12
ATOM     12  C   UNL A   1      31.446  24.064  23.890  1.00  0.00     0.228 C 
ATOM     13  N   UNL A   1      31.640  22.777  23.502  1.00  0.00    -0.326 N 
ATOM     14  H   UNL A   1      31.308  22.614  22.589  1.00  0.00     0.169 HD
ATOM     15  O   UNL A   1      30.522  24.644  23.305  1.00  0.00    -0.274 OA
BRANCH  13  16
ATOM     16  C   UNL A   1      32.194  21.620  24.074  1.00  0.00     0.042 A 
ATOM     17  C   UNL A   1      32.629  19.234  23.758  1.00  0.00     0.062 A 
ATOM     18  C   UNL A   1      32.994  19.122  25.100  1.00  0.00     0.016 A 
ATOM     19  C   UNL A   1      32.230  20.477  23.248  1.00  0.00     0.041 A 
ATOM     20  C   UNL A   1      32.988  20.251  25.913  1.00  0.00     0.003 A 
ATOM     21  C   UNL A   1      32.596  21.493  25.400  1.00  0.00     0.026 A 
BRANCH  17  22
ATOM     22  C   UNL A   1      32.647  17.997  22.938  1.00  0.00     0.337 C 
ATOM     23  O   UNL A   1      32.276  17.958  21.783  1.00  0.00    -0.246 OA
BRANCH  22  24
ATOM     24  O   UNL A   1      33.038  16.941  23.696  1.00  0.00    -0.465 OA
ATOM     25  C   UNL A   1      34.314  16.413  23.324  1.00  0.00     0.282 C 
ENDBRANCH  22  24
ENDBRANCH  17  22
ENDBRANCH  13  16
ENDBRANCH   6  12
ENDBRANCH   3   5
ENDBRANCH   2   3
ENDBRANCH   1   2
BRANCH   1  26
ATOM     26  C   UNL A   1      37.073  21.660  24.188  1.00  0.00     0.275 C 
BRANCH  26  27
ATOM     27  O   UNL A   1      37.352  21.844  25.586  1.00  0.00    -0.458 OA
BRANCH  27  28
ATOM     28  C   UNL A   1      38.628  21.617  25.967  1.00  0.00     0.338 C 
ATOM     29  O   UNL A   1      39.284  20.607  25.768  1.00  0.00    -0.246 OA
BRANCH  28  30
ATOM     30  C   UNL A   1      39.204  22.806  26.634  1.00  0.00     0.060 A 
ATOM     31  C   UNL A   1      38.728  24.082  26.358  1.00  0.00     0.016 A 
ATOM     32  C   UNL A   1      40.352  22.664  27.415  1.00  0.00     0.016 A 
ATOM     33  C   UNL A   1      39.459  25.201  26.747  1.00  0.00     0.010 A 
ATOM     34  C   UNL A   1      41.023  23.798  27.899  1.00  0.00     0.010 A 
ATOM     35  C   UNL A   1      40.612  25.089  27.531  1.00  0.00    -0.014 A 
BRANCH  35  36
ATOM     36  C   UNL A   1      41.388  26.306  27.916  1.00  0.00     0.031 A 
ATOM     37  C   UNL A   1      40.777  27.360  28.808  1.00  0.00     0.074 A 
ATOM     38  C   UNL A   1      42.667  26.469  27.514  1.00  0.00     0.049 A 
ATOM     39  N   UNL A   1      41.177  28.588  29.038  1.00  0.00    -0.248 NA
ATOM     40  C   UNL A   1      39.549  26.991  29.527  1.00  0.00     0.031 C 
ATOM     41  C   UNL A   1      43.444  25.505  26.736  1.00  0.00     0.029 A 
ATOM     42  N   UNL A   1      43.546  27.506  27.721  1.00  0.00    -0.354 N 
ATOM     43  C   UNL A   1      40.217  29.153  29.869  1.00  0.00     0.074 A 
ATOM     44  C   UNL A   1      39.219  28.134  30.113  1.00  0.00     0.031 C 
ATOM     45  C   UNL A   1      44.695  25.960  26.589  1.00  0.00     0.029 A 
ATOM     46  C   UNL A   1      44.770  27.311  27.129  1.00  0.00     0.049 A 
ATOM     47  H   UNL A   1      43.321  28.310  28.241  1.00  0.00     0.167 HD
ATOM     48  C   UNL A   1      40.173  30.413  30.370  1.00  0.00     0.037 A 
ATOM     49  C   UNL A   1      45.816  28.141  26.961  1.00  0.00     0.037 A 
ATOM     50  C   UNL A   1      41.207  31.400  30.185  1.00  0.00     0.049 A 
ATOM     51  C   UNL A   1      45.714  29.555  27.453  1.00  0.00     0.074 A 
ATOM     52  C   UNL A   1      41.250  32.705  30.645  1.00  0.00     0.029 A 
ATOM     53  N   UNL A   1      42.396  31.182  29.503  1.00  0.00    -0.354 N 
ATOM     54  N   UNL A   1      44.744  30.130  28.119  1.00  0.00    -0.248 NA
ATOM     55  C   UNL A   1      46.836  30.447  27.132  1.00  0.00     0.031 C 
ATOM     56  C   UNL A   1      42.444  33.288  30.209  1.00  0.00     0.029 A 
ATOM     57  C   UNL A   1      43.168  32.333  29.516  1.00  0.00     0.049 A 
ATOM     58  H   UNL A   1      42.652  30.334  29.073  1.00  0.00     0.167 HD
ATOM     59  C   UNL A   1      45.137  31.447  28.302  1.00  0.00     0.074 A 
ATOM     60  C   UNL A   1      46.448  31.580  27.697  1.00  0.00     0.031 C 
ATOM     61  C   UNL A   1      44.468  32.457  28.908  1.00  0.00     0.037 A 
BRANCH  48  62
ATOM     62  C   UNL A   1      38.942  30.826  31.126  1.00  0.00     0.064 A 
ATOM     63  C   UNL A   1      38.854  30.739  32.522  1.00  0.00     0.173 A 
ATOM     64  C   UNL A   1      37.852  31.378  30.433  1.00  0.00     0.173 A 
ATOM     65  F   UNL A   1      39.861  30.208  33.231  1.00  0.00    -0.203 F 
ATOM     66  C   UNL A   1      37.713  31.175  33.195  1.00  0.00     0.198 A 
ATOM     67  C   UNL A   1      36.726  31.838  31.110  1.00  0.00     0.198 A 
ATOM     68  F   UNL A   1      37.888  31.491  29.097  1.00  0.00    -0.203 F 
ATOM     69  F   UNL A   1      37.635  31.051  34.527  1.00  0.00    -0.200 F 
ATOM     70  C   UNL A   1      36.656  31.731  32.491  1.00  0.00     0.200 A 
ATOM     71  F   UNL A   1      35.713  32.389  30.428  1.00  0.00    -0.200 F 
ATOM     72  F   UNL A   1      35.566  32.162  33.141  1.00  0.00    -0.200 F 
ENDBRANCH  48  62
BRANCH  49  73
ATOM     73  C   UNL A   1      47.011  27.674  26.211  1.00  0.00     0.064 A 
ATOM     74  C   UNL A   1      47.049  27.713  24.811  1.00  0.00     0.173 A 
ATOM     75  C   UNL A   1      48.151  27.201  26.881  1.00  0.00     0.173 A 
ATOM     76  F   UNL A   1      45.974  28.125  24.123  1.00  0.00    -0.203 F 
ATOM     77  C   UNL A   1      48.182  27.302  24.113  1.00  0.00     0.198 A 
ATOM     78  C   UNL A   1      49.295  26.827  26.185  1.00  0.00     0.198 A 
ATOM     79  F   UNL A   1      48.163  27.135  28.221  1.00  0.00    -0.203 F 
ATOM     80  F   UNL A   1      48.181  27.314  22.772  1.00  0.00    -0.200 F 
ATOM     81  C   UNL A   1      49.308  26.872  24.799  1.00  0.00     0.200 A 
ATOM     82  F   UNL A   1      50.385  26.431  26.855  1.00  0.00    -0.200 F 
ATOM     83  F   UNL A   1      50.405  26.497  24.126  1.00  0.00    -0.200 F 
ENDBRANCH  49  73
BRANCH  61  84
ATOM     84  C   UNL A   1      45.155  33.788  28.968  1.00  0.00     0.064 A 
ATOM     85  C   UNL A   1      46.021  34.119  30.020  1.00  0.00     0.173 A 
ATOM     86  C   UNL A   1      44.954  34.739  27.957  1.00  0.00     0.173 A 
ATOM     87  F   UNL A   1      46.230  33.250  31.022  1.00  0.00    -0.203 F 
ATOM     88  C   UNL A   1      46.638  35.365  30.072  1.00  0.00     0.198 A 
ATOM     89  C   UNL A   1      45.594  35.974  27.998  1.00  0.00     0.198 A 
ATOM     90  F   UNL A   1      44.138  34.469  26.927  1.00  0.00    -0.203 F 
ATOM     91  F   UNL A   1      47.421  35.681  31.114  1.00  0.00    -0.200 F 
ATOM     92  C   UNL A   1      46.429  36.289  29.060  1.00  0.00     0.200 A 
ATOM     93  F   UNL A   1      45.397  36.862  27.014  1.00  0.00    -0.200 F 
ATOM     94  F   UNL A   1      47.023  37.490  29.113  1.00  0.00    -0.200 F 
ENDBRANCH  61  84
ENDBRANCH  35  36
ENDBRANCH  28  30
ENDBRANCH  27  28
ENDBRANCH  26  27
ENDBRANCH   1  26
TORSDOF 15
ENDMDL
MODEL 2
REMARK VINA RESULT:     -12.6      0.311      1.605
REMARK SMILES COC(=O)c1cccc(NC(=O)[C@@H]2[C@@H]3CC[C@@H](C3)[C@@H]2C(=O)OCCOC(=O)c2ccc(-c3c4nc(c(-c5c(F)c(F)c(F)c(F)c5F)c5ccc([nH]5)c(-c5c(F)c(F)c(F)c(F)c5F)c5nc(c(-c6c(F)c(F)c(F)c(F)c6F)c6ccc3[nH]6)C=C5)C=C4)cc2)c1
REMARK SMILES IDX 23 1 22 2 20 3 21 4 19 5 13 6 14 7 15 8 18 9 17 10 16 11
REMARK SMILES IDX 11 12 10 13 12 15 9 16 5 17 6 18 91 19 7 20 8 21 3 22 4 23
REMARK SMILES IDX 2 24 1 25 24 26 25 27 26 28 27 29 28 30 29 31 90 32 30 33
REMARK SMILES IDX 89 34 31 35 32 36 33 37 83 38 34 39 88 40 82 41 84 42 35 43
REMARK SMILES IDX 87 44 81 45 80 46 36 48 68 49 48 50 67 51 49 52 52 53 66 54
REMARK SMILES IDX 85 55 50 56 51 57 65 59 86 60 53 61 37 62 38 63 46 64 39 65
REMARK SMILES IDX 40 66 44 67 47 68 41 69 42 70 45 71 43 72 69 73 70 74 78 75
REMARK SMILES IDX 71 76 72 77 76 78 79 79 73 80 74 81 77 82 75 83 54 84 55 85
REMARK SMILES IDX 63 86 56 87 57 88 61 89 64 90 58 91 59 92 62 93 60 94
REMARK H PARENT 10 14 84 47 52 58
REMARK Flexibility Score: inf
ROOT
ATOM      1  C   UNL A   1      36.497  22.999  23.546  1.00  0.00     0.274 C 
ENDROOT
BRANCH   1   2
ATOM      2  O   UNL A   1      35.833  24.068  24.261  1.00  0.00    -0.462 OA
BRANCH   2   3
ATOM      3  C   UNL A   1      34.569  24.334  23.820  1.00  0.00     0.310 C 
ATOM      4  O   UNL A   1      34.255  24.305  22.639  1.00  0.00    -0.252 OA
BRANCH   3   5
ATOM      5  C   UNL A   1      33.679  24.855  24.936  1.00  0.00     0.115 C 
ATOM      6  C   UNL A   1      32.133  24.785  24.898  1.00  0.00     0.096 C 
ATOM      7  C   UNL A   1      31.738  26.288  25.057  1.00  0.00     0.003 C 
ATOM      8  C   UNL A   1      32.142  27.144  23.839  1.00  0.00     0.005 C 
ATOM      9  C   UNL A   1      32.766  26.740  26.101  1.00  0.00     0.009 C 
ATOM     10  C   UNL A   1      33.954  26.375  25.208  1.00  0.00     0.004 C 
ATOM     11  C   UNL A   1      33.652  27.287  24.003  1.00  0.00     0.005 C 
BRANCH   6  12
ATOM     12  C   UNL A   1      31.361  24.088  23.793  1.00  0.00     0.228 C 
ATOM     13  N   UNL A   1      31.551  22.804  23.391  1.00  0.00    -0.326 N 
ATOM     14  H   UNL A   1      31.197  22.646  22.486  1.00  0.00     0.169 HD
ATOM     15  O   UNL A   1      30.420  24.667  23.236  1.00  0.00    -0.274 OA
BRANCH  13  16
ATOM     16  C   UNL A   1      32.124  21.646  23.941  1.00  0.00     0.042 A 
ATOM     17  C   UNL A   1      32.571  19.267  23.593  1.00  0.00     0.062 A 
ATOM     18  C   UNL A   1      32.962  19.144  24.927  1.00  0.00     0.016 A 
ATOM     19  C   UNL A   1      32.153  20.512  23.103  1.00  0.00     0.041 A 
ATOM     20  C   UNL A   1      32.964  20.265  25.750  1.00  0.00     0.003 A 
ATOM     21  C   UNL A   1      32.553  21.510  25.258  1.00  0.00     0.026 A 
BRANCH  17  22
ATOM     22  C   UNL A   1      32.582  18.038  22.760  1.00  0.00     0.337 C 
ATOM     23  O   UNL A   1      32.154  17.999  21.625  1.00  0.00    -0.246 OA
BRANCH  22  24
ATOM     24  O   UNL A   1      33.041  16.987  23.486  1.00  0.00    -0.465 OA
ATOM     25  C   UNL A   1      34.364  16.580  23.126  1.00  0.00     0.282 C 
ENDBRANCH  22  24
ENDBRANCH  17  22
ENDBRANCH  13  16
ENDBRANCH   6  12
ENDBRANCH   3   5
ENDBRANCH   2   3
ENDBRANCH   1   2
BRANCH   1  26
ATOM     26  C   UNL A   1      36.472  21.675  24.307  1.00  0.00     0.275 C 
BRANCH  26  27
ATOM     27  O   UNL A   1      36.963  21.862  25.644  1.00  0.00    -0.458 OA
BRANCH  27  28
ATOM     28  C   UNL A   1      38.284  21.642  25.823  1.00  0.00     0.338 C 
ATOM     29  O   UNL A   1      38.922  20.669  25.452  1.00  0.00    -0.246 OA
BRANCH  28  30
ATOM     30  C   UNL A   1      38.928  22.789  26.500  1.00  0.00     0.060 A 
ATOM     31  C   UNL A   1      38.434  24.079  26.348  1.00  0.00     0.016 A 
ATOM     32  C   UNL A   1      40.147  22.602  27.154  1.00  0.00     0.016 A 
ATOM     33  C   UNL A   1      39.205  25.174  26.729  1.00  0.00     0.010 A 
ATOM     34  C   UNL A   1      40.868  23.706  27.636  1.00  0.00     0.010 A 
ATOM     35  C   UNL A   1      40.429  25.016  27.388  1.00  0.00    -0.014 A 
BRANCH  35  36
ATOM     36  C   UNL A   1      41.245  26.209  27.766  1.00  0.00     0.031 A 
ATOM     37  C   UNL A   1      40.664  27.296  28.637  1.00  0.00     0.074 A 
ATOM     38  C   UNL A   1      42.533  26.320  27.377  1.00  0.00     0.049 A 
ATOM     39  N   UNL A   1      41.107  28.511  28.856  1.00  0.00    -0.248 NA
ATOM     40  C   UNL A   1      39.415  26.982  29.347  1.00  0.00     0.031 C 
ATOM     41  C   UNL A   1      43.283  25.317  26.620  1.00  0.00     0.029 A 
ATOM     42  N   UNL A   1      43.448  27.326  27.580  1.00  0.00    -0.354 N 
ATOM     43  C   UNL A   1      40.159  29.123  29.669  1.00  0.00     0.074 A 
ATOM     44  C   UNL A   1      39.121  28.144  29.915  1.00  0.00     0.031 C 
ATOM     45  C   UNL A   1      44.552  25.724  26.480  1.00  0.00     0.029 A 
ATOM     46  C   UNL A   1      44.671  27.078  27.004  1.00  0.00     0.049 A 
ATOM     47  H   UNL A   1      43.247  28.145  28.088  1.00  0.00     0.167 HD
ATOM     48  C   UNL A   1      40.156  30.389  30.153  1.00  0.00     0.037 A 
ATOM     49  C   UNL A   1      45.747  27.867  26.838  1.00  0.00     0.037 A 
ATOM     50  C   UNL A   1      41.228  31.335  29.967  1.00  0.00     0.049 A 
ATOM     51  C   UNL A   1      45.693  29.290  27.310  1.00  0.00     0.074 A 
ATOM     52  C   UNL A   1      41.313  32.644  30.412  1.00  0.00     0.029 A 
ATOM     53  N   UNL A   1      42.415  31.065  29.301  1.00  0.00    -0.354 N 
ATOM     54  N   UNL A   1      44.738  29.909  27.958  1.00  0.00    -0.248 NA
ATOM     55  C   UNL A   1      46.850  30.136  26.991  1.00  0.00     0.031 C 
ATOM     56  C   UNL A   1      42.533  33.177  29.981  1.00  0.00     0.029 A 
ATOM     57  C   UNL A   1      43.229  32.187  29.309  1.00  0.00     0.049 A 
ATOM     58  H   UNL A   1      42.645  30.202  28.886  1.00  0.00     0.167 HD
ATOM     59  C   UNL A   1      45.177  31.214  28.129  1.00  0.00     0.074 A 
ATOM     60  C   UNL A   1      46.498  31.291  27.537  1.00  0.00     0.031 C 
ATOM     61  C   UNL A   1      44.539  32.255  28.714  1.00  0.00     0.037 A 
BRANCH  48  62
ATOM     62  C   UNL A   1      38.933  30.857  30.890  1.00  0.00     0.064 A 
ATOM     63  C   UNL A   1      37.823  31.403  30.233  1.00  0.00     0.173 A 
ATOM     64  C   UNL A   1      38.856  30.694  32.284  1.00  0.00     0.173 A 
ATOM     65  F   UNL A   1      37.849  31.592  28.906  1.00  0.00    -0.203 F 
ATOM     66  C   UNL A   1      36.686  31.784  30.946  1.00  0.00     0.198 A 
ATOM     67  C   UNL A   1      37.709  31.049  32.988  1.00  0.00     0.198 A 
ATOM     68  F   UNL A   1      39.888  30.169  32.961  1.00  0.00    -0.203 F 
ATOM     69  F   UNL A   1      35.648  32.336  30.302  1.00  0.00    -0.200 F 
ATOM     70  C   UNL A   1      36.627  31.599  32.319  1.00  0.00     0.200 A 
ATOM     71  F   UNL A   1      37.650  30.855  34.313  1.00  0.00    -0.200 F 
ATOM     72  F   UNL A   1      35.528  31.953  32.999  1.00  0.00    -0.200 F 
ENDBRANCH  48  62
BRANCH  49  73
ATOM     73  C   UNL A   1      46.933  27.347  26.107  1.00  0.00     0.064 A 
ATOM     74  C   UNL A   1      47.065  27.521  24.724  1.00  0.00     0.173 A 
ATOM     75  C   UNL A   1      47.971  26.685  26.784  1.00  0.00     0.173 A 
ATOM     76  F   UNL A   1      46.086  28.116  24.027  1.00  0.00    -0.203 F 
ATOM     77  C   UNL A   1      48.191  27.057  24.047  1.00  0.00     0.198 A 
ATOM     78  C   UNL A   1      49.112  26.257  26.113  1.00  0.00     0.198 A 
ATOM     79  F   UNL A   1      47.890  26.485  28.107  1.00  0.00    -0.203 F 
ATOM     80  F   UNL A   1      48.278  27.202  22.717  1.00  0.00    -0.200 F 
ATOM     81  C   UNL A   1      49.219  26.438  24.743  1.00  0.00     0.200 A 
ATOM     82  F   UNL A   1      50.109  25.677  26.795  1.00  0.00    -0.200 F 
ATOM     83  F   UNL A   1      50.311  26.011  24.094  1.00  0.00    -0.200 F 
ENDBRANCH  49  73
BRANCH  61  84
ATOM     84  C   UNL A   1      45.274  33.560  28.765  1.00  0.00     0.064 A 
ATOM     85  C   UNL A   1      45.120  34.530  27.764  1.00  0.00     0.173 A 
ATOM     86  C   UNL A   1      46.136  33.849  29.834  1.00  0.00     0.173 A 
ATOM     87  F   UNL A   1      44.322  34.291  26.711  1.00  0.00    -0.203 F 
ATOM     88  C   UNL A   1      45.824  35.729  27.817  1.00  0.00     0.198 A 
ATOM     89  C   UNL A   1      46.817  35.061  29.897  1.00  0.00     0.198 A 
ATOM     90  F   UNL A   1      46.315  32.956  30.819  1.00  0.00    -0.203 F 
ATOM     91  F   UNL A   1      45.701  36.620  26.822  1.00  0.00    -0.200 F 
ATOM     92  C   UNL A   1      46.667  35.996  28.884  1.00  0.00     0.200 A 
ATOM     93  F   UNL A   1      47.625  35.320  30.934  1.00  0.00    -0.200 F 
ATOM     94  F   UNL A   1      47.345  37.151  28.932  1.00  0.00    -0.200 F 
ENDBRANCH  61  84
ENDBRANCH  35  36
ENDBRANCH  28  30
ENDBRANCH  27  28
ENDBRANCH  26  27
ENDBRANCH   1  26
TORSDOF 15
ENDMDL
MODEL 3
REMARK VINA RESULT:     -12.5      4.176      9.211
REMARK SMILES COC(=O)c1cccc(NC(=O)[C@@H]2[C@@H]3CC[C@@H](C3)[C@@H]2C(=O)OCCOC(=O)c2ccc(-c3c4nc(c(-c5c(F)c(F)c(F)c(F)c5F)c5ccc([nH]5)c(-c5c(F)c(F)c(F)c(F)c5F)c5nc(c(-c6c(F)c(F)c(F)c(F)c6F)c6ccc3[nH]6)C=C5)C=C4)cc2)c1
REMARK SMILES IDX 23 1 22 2 20 3 21 4 19 5 13 6 14 7 15 8 18 9 17 10 16 11
REMARK SMILES IDX 11 12 10 13 12 15 9 16 5 17 6 18 91 19 7 20 8 21 3 22 4 23
REMARK SMILES IDX 2 24 1 25 24 26 25 27 26 28 27 29 28 30 29 31 90 32 30 33
REMARK SMILES IDX 89 34 31 35 32 36 33 37 83 38 34 39 88 40 82 41 84 42 35 43
REMARK SMILES IDX 87 44 81 45 80 46 36 48 68 49 48 50 67 51 49 52 52 53 66 54
REMARK SMILES IDX 85 55 50 56 51 57 65 59 86 60 53 61 37 62 38 63 46 64 39 65
REMARK SMILES IDX 40 66 44 67 47 68 41 69 42 70 45 71 43 72 69 73 70 74 78 75
REMARK SMILES IDX 71 76 72 77 76 78 79 79 73 80 74 81 77 82 75 83 54 84 55 85
REMARK SMILES IDX 63 86 56 87 57 88 61 89 64 90 58 91 59 92 62 93 60 94
REMARK H PARENT 10 14 84 47 52 58
REMARK Flexibility Score: inf
ROOT
ATOM      1  C   UNL A   1      32.094  28.261  27.668  1.00  0.00     0.274 C 
ENDROOT
BRANCH   1   2
ATOM      2  O   UNL A   1      31.492  27.067  27.114  1.00  0.00    -0.462 OA
BRANCH   2   3
ATOM      3  C   UNL A   1      32.232  26.471  26.134  1.00  0.00     0.310 C 
ATOM      4  O   UNL A   1      33.437  26.636  26.015  1.00  0.00    -0.252 OA
BRANCH   3   5
ATOM      5  C   UNL A   1      31.355  25.761  25.117  1.00  0.00     0.115 C 
ATOM      6  C   UNL A   1      31.911  25.055  23.856  1.00  0.00     0.096 C 
ATOM      7  C   UNL A   1      31.145  25.793  22.710  1.00  0.00     0.003 C 
ATOM      8  C   UNL A   1      31.561  27.272  22.571  1.00  0.00     0.005 C 
ATOM      9  C   UNL A   1      29.755  25.926  23.340  1.00  0.00     0.009 C 
ATOM     10  C   UNL A   1      30.278  26.738  24.526  1.00  0.00     0.004 C 
ATOM     11  C   UNL A   1      30.879  27.936  23.764  1.00  0.00     0.005 C 
BRANCH   6  12
ATOM     12  C   UNL A   1      33.394  24.909  23.574  1.00  0.00     0.228 C 
ATOM     13  N   UNL A   1      34.269  24.190  24.323  1.00  0.00    -0.326 N 
ATOM     14  H   UNL A   1      35.200  24.471  24.171  1.00  0.00     0.169 HD
ATOM     15  O   UNL A   1      33.879  25.400  22.546  1.00  0.00    -0.274 OA
BRANCH  13  16
ATOM     16  C   UNL A   1      34.181  23.147  25.260  1.00  0.00     0.042 A 
ATOM     17  C   UNL A   1      33.586  20.800  25.603  1.00  0.00     0.062 A 
ATOM     18  C   UNL A   1      33.668  20.980  26.984  1.00  0.00     0.016 A 
ATOM     19  C   UNL A   1      33.840  21.880  24.745  1.00  0.00     0.041 A 
ATOM     20  C   UNL A   1      34.033  22.220  27.497  1.00  0.00     0.003 A 
ATOM     21  C   UNL A   1      34.293  23.296  26.639  1.00  0.00     0.026 A 
BRANCH  17  22
ATOM     22  C   UNL A   1      33.186  19.458  25.109  1.00  0.00     0.337 C 
ATOM     23  O   UNL A   1      32.265  18.823  25.580  1.00  0.00    -0.246 OA
BRANCH  22  24
ATOM     24  O   UNL A   1      34.050  19.038  24.150  1.00  0.00    -0.465 OA
ATOM     25  C   UNL A   1      34.545  17.714  24.368  1.00  0.00     0.282 C 
ENDBRANCH  22  24
ENDBRANCH  17  22
ENDBRANCH  13  16
ENDBRANCH   6  12
ENDBRANCH   3   5
ENDBRANCH   2   3
ENDBRANCH   1   2
BRANCH   1  26
ATOM     26  C   UNL A   1      31.755  29.519  26.871  1.00  0.00     0.275 C 
BRANCH  26  27
ATOM     27  O   UNL A   1      32.957  30.129  26.374  1.00  0.00    -0.458 OA
BRANCH  27  28
ATOM     28  C   UNL A   1      33.433  31.168  27.095  1.00  0.00     0.338 C 
ATOM     29  O   UNL A   1      32.840  32.197  27.377  1.00  0.00    -0.246 OA
BRANCH  28  30
ATOM     30  C   UNL A   1      34.801  30.893  27.587  1.00  0.00     0.060 A 
ATOM     31  C   UNL A   1      35.226  29.591  27.827  1.00  0.00     0.016 A 
ATOM     32  C   UNL A   1      35.614  31.956  27.983  1.00  0.00     0.016 A 
ATOM     33  C   UNL A   1      36.384  29.358  28.565  1.00  0.00     0.010 A 
ATOM     34  C   UNL A   1      36.835  31.710  28.628  1.00  0.00     0.010 A 
ATOM     35  C   UNL A   1      37.218  30.404  28.972  1.00  0.00    -0.014 A 
BRANCH  35  36
ATOM     36  C   UNL A   1      38.443  30.125  29.781  1.00  0.00     0.031 A 
ATOM     37  C   UNL A   1      39.561  29.280  29.222  1.00  0.00     0.074 A 
ATOM     38  C   UNL A   1      38.598  30.660  31.012  1.00  0.00     0.049 A 
ATOM     39  N   UNL A   1      40.567  28.714  29.844  1.00  0.00    -0.248 NA
ATOM     40  C   UNL A   1      39.541  29.028  27.773  1.00  0.00     0.031 C 
ATOM     41  C   UNL A   1      37.666  31.580  31.664  1.00  0.00     0.029 A 
ATOM     42  N   UNL A   1      39.611  30.517  31.930  1.00  0.00    -0.354 N 
ATOM     43  C   UNL A   1      41.254  27.987  28.879  1.00  0.00     0.074 A 
ATOM     44  C   UNL A   1      40.559  28.191  27.625  1.00  0.00     0.031 C 
ATOM     45  C   UNL A   1      38.177  31.969  32.840  1.00  0.00     0.029 A 
ATOM     46  C   UNL A   1      39.397  31.215  33.094  1.00  0.00     0.049 A 
ATOM     47  H   UNL A   1      40.412  29.968  31.771  1.00  0.00     0.167 HD
ATOM     48  C   UNL A   1      42.357  27.214  29.033  1.00  0.00     0.037 A 
ATOM     49  C   UNL A   1      40.053  31.201  34.269  1.00  0.00     0.037 A 
ATOM     50  C   UNL A   1      43.088  27.074  30.268  1.00  0.00     0.049 A 
ATOM     51  C   UNL A   1      41.223  30.278  34.443  1.00  0.00     0.074 A 
ATOM     52  C   UNL A   1      44.212  26.308  30.526  1.00  0.00     0.029 A 
ATOM     53  N   UNL A   1      42.782  27.738  31.447  1.00  0.00    -0.354 N 
ATOM     54  N   UNL A   1      41.788  29.486  33.567  1.00  0.00    -0.248 NA
ATOM     55  C   UNL A   1      41.820  30.218  35.784  1.00  0.00     0.031 C 
ATOM     56  C   UNL A   1      44.562  26.476  31.870  1.00  0.00     0.029 A 
ATOM     57  C   UNL A   1      43.685  27.384  32.438  1.00  0.00     0.049 A 
ATOM     58  H   UNL A   1      42.034  28.368  31.563  1.00  0.00     0.167 HD
ATOM     59  C   UNL A   1      42.808  28.835  34.245  1.00  0.00     0.074 A 
ATOM     60  C   UNL A   1      42.800  29.345  35.601  1.00  0.00     0.031 C 
ATOM     61  C   UNL A   1      43.666  27.893  33.786  1.00  0.00     0.037 A 
BRANCH  48  62
ATOM     62  C   UNL A   1      42.821  26.408  27.853  1.00  0.00     0.064 A 
ATOM     63  C   UNL A   1      42.321  25.129  27.573  1.00  0.00     0.173 A 
ATOM     64  C   UNL A   1      43.746  26.963  26.952  1.00  0.00     0.173 A 
ATOM     65  F   UNL A   1      41.447  24.549  28.407  1.00  0.00    -0.203 F 
ATOM     66  C   UNL A   1      42.740  24.430  26.442  1.00  0.00     0.198 A 
ATOM     67  C   UNL A   1      44.141  26.272  25.810  1.00  0.00     0.198 A 
ATOM     68  F   UNL A   1      44.250  28.187  27.169  1.00  0.00    -0.203 F 
ATOM     69  F   UNL A   1      42.276  23.194  26.211  1.00  0.00    -0.200 F 
ATOM     70  C   UNL A   1      43.642  25.004  25.559  1.00  0.00     0.200 A 
ATOM     71  F   UNL A   1      45.001  26.837  24.950  1.00  0.00    -0.200 F 
ATOM     72  F   UNL A   1      44.033  24.334  24.466  1.00  0.00    -0.200 F 
ENDBRANCH  48  62
BRANCH  49  73
ATOM     73  C   UNL A   1      39.552  32.027  35.399  1.00  0.00     0.064 A 
ATOM     74  C   UNL A   1      38.627  31.513  36.317  1.00  0.00     0.173 A 
ATOM     75  C   UNL A   1      40.008  33.340  35.598  1.00  0.00     0.173 A 
ATOM     76  F   UNL A   1      38.136  30.277  36.152  1.00  0.00    -0.203 F 
ATOM     77  C   UNL A   1      38.182  32.280  37.392  1.00  0.00     0.198 A 
ATOM     78  C   UNL A   1      39.592  34.091  36.692  1.00  0.00     0.198 A 
ATOM     79  F   UNL A   1      40.888  33.883  34.742  1.00  0.00    -0.203 F 
ATOM     80  F   UNL A   1      37.269  31.780  38.236  1.00  0.00    -0.200 F 
ATOM     81  C   UNL A   1      38.674  33.562  37.586  1.00  0.00     0.200 A 
ATOM     82  F   UNL A   1      40.086  35.321  36.884  1.00  0.00    -0.200 F 
ATOM     83  F   UNL A   1      38.261  34.291  38.632  1.00  0.00    -0.200 F 
ENDBRANCH  49  73
BRANCH  61  84
ATOM     84  C   UNL A   1      44.686  27.373  34.754  1.00  0.00     0.064 A 
ATOM     85  C   UNL A   1      45.927  28.004  34.922  1.00  0.00     0.173 A 
ATOM     86  C   UNL A   1      44.413  26.237  35.532  1.00  0.00     0.173 A 
ATOM     87  F   UNL A   1      46.241  29.081  34.187  1.00  0.00    -0.203 F 
ATOM     88  C   UNL A   1      46.870  27.498  35.812  1.00  0.00     0.198 A 
ATOM     89  C   UNL A   1      45.348  25.751  36.441  1.00  0.00     0.198 A 
ATOM     90  F   UNL A   1      43.239  25.600  35.411  1.00  0.00    -0.203 F 
ATOM     91  F   UNL A   1      48.070  28.086  35.919  1.00  0.00    -0.200 F 
ATOM     92  C   UNL A   1      46.579  26.377  36.574  1.00  0.00     0.200 A 
ATOM     93  F   UNL A   1      45.062  24.672  37.182  1.00  0.00    -0.200 F 
ATOM     94  F   UNL A   1      47.489  25.891  37.429  1.00  0.00    -0.200 F 
ENDBRANCH  61  84
ENDBRANCH  35  36
ENDBRANCH  28  30
ENDBRANCH  27  28
ENDBRANCH  26  27
ENDBRANCH   1  26
TORSDOF 15
ENDMDL
