MODEL 1
REMARK VINA RESULT:     -14.5      0.000      0.000
REMARK SMILES Cc1c(C(=O)OCCOC(=O)c2ccc(-c3c4nc(c(-c5c(F)c(F)c(F)c(F)c5F)c5ccc([nH]5)c(-c5c(F)c(F)c(F)c(F)c5F)c5nc(c(-c6c(F)c(F)c(F)c(F)c6F)c6ccc3[nH]6)C=C5)C=C4)cc2)oc2c1/C(=N/NC(=O)C(c1ccccc1)c1ccccc1)CCC2
REMARK SMILES IDX 7 1 6 2 4 3 5 4 3 5 1 6 2 7 77 8 75 9 76 10 78 11 98 12
REMARK SMILES IDX 79 13 96 14 97 15 80 16 81 17 82 19 83 20 84 21 85 22 89 23
REMARK SMILES IDX 86 24 88 25 87 26 90 27 91 28 95 29 92 30 94 31 93 32 8 33
REMARK SMILES IDX 9 34 10 35 11 36 12 37 13 38 74 39 14 40 73 41 15 42 16 43
REMARK SMILES IDX 17 44 67 45 18 46 72 47 66 48 68 49 19 50 71 51 65 52 64 53
REMARK SMILES IDX 20 55 52 56 32 57 51 58 33 59 36 60 50 61 69 62 34 63 35 64
REMARK SMILES IDX 49 66 70 67 37 68 21 69 22 70 30 71 23 72 24 73 28 74 31 75
REMARK SMILES IDX 25 76 26 77 29 78 27 79 53 80 54 81 62 82 55 83 56 84 60 85
REMARK SMILES IDX 63 86 57 87 58 88 61 89 59 90 38 91 39 92 47 93 40 94 41 95
REMARK SMILES IDX 45 96 48 97 42 98 43 99 46 100 44 101
REMARK H PARENT 80 18 68 54 36 65
REMARK Flexibility Score: inf
ROOT
ATOM      1  C   UNL A   1      37.169  21.784  25.499  1.00  0.00     0.275 C 
ENDROOT
BRANCH   1   2
ATOM      2  O   UNL A   1      36.706  23.052  25.033  1.00  0.00    -0.456 OA
BRANCH   2   3
ATOM      3  C   UNL A   1      36.008  23.160  23.863  1.00  0.00     0.374 C 
ATOM      4  O   UNL A   1      36.477  23.010  22.735  1.00  0.00    -0.242 OA
BRANCH   3   5
ATOM      5  C   UNL A   1      34.631  23.399  24.206  1.00  0.00     0.215 A 
ATOM      6  C   UNL A   1      33.576  25.123  22.570  1.00  0.00     0.049 C 
ATOM      7  C   UNL A   1      33.582  24.193  23.728  1.00  0.00     0.012 A 
ATOM      8  C   UNL A   1      32.512  23.989  24.658  1.00  0.00     0.043 A 
ATOM      9  O   UNL A   1      34.209  22.664  25.272  1.00  0.00    -0.453 OA
ATOM     10  C   UNL A   1      32.967  23.030  25.541  1.00  0.00     0.114 A 
ATOM     11  C   UNL A   1      31.226  24.636  24.925  1.00  0.00     0.072 C 
ATOM     12  C   UNL A   1      32.396  22.487  26.783  1.00  0.00     0.076 C 
ATOM     13  N   UNL A   1      30.709  25.339  23.959  1.00  0.00    -0.177 NA
ATOM     14  C   UNL A   1      30.873  24.406  26.381  1.00  0.00     0.059 C 
ATOM     15  C   UNL A   1      30.969  22.960  26.865  1.00  0.00     0.014 C 
BRANCH  13  16
ATOM     16  N   UNL A   1      29.594  26.130  23.774  1.00  0.00    -0.246 N 
ATOM     17  C   UNL A   1      29.259  27.453  23.522  1.00  0.00     0.252 C 
ATOM     18  H   UNL A   1      28.779  25.584  23.844  1.00  0.00     0.193 HD
ATOM     19  O   UNL A   1      28.055  27.746  23.501  1.00  0.00    -0.272 OA
BRANCH  17  20
ATOM     20  C   UNL A   1      30.312  28.538  23.249  1.00  0.00     0.140 C 
BRANCH  20  21
ATOM     21  C   UNL A   1      29.501  29.840  22.826  1.00  0.00    -0.031 A 
ATOM     22  C   UNL A   1      29.077  30.120  21.519  1.00  0.00     0.005 A 
ATOM     23  C   UNL A   1      29.205  30.852  23.788  1.00  0.00     0.005 A 
ATOM     24  C   UNL A   1      28.542  31.389  21.188  1.00  0.00     0.000 A 
ATOM     25  C   UNL A   1      28.730  32.122  23.457  1.00  0.00     0.000 A 
ATOM     26  C   UNL A   1      28.409  32.399  22.145  1.00  0.00     0.000 A 
ENDBRANCH  20  21
BRANCH  20  27
ATOM     27  C   UNL A   1      31.364  28.420  24.442  1.00  0.00    -0.031 A 
ATOM     28  C   UNL A   1      31.038  28.277  25.801  1.00  0.00     0.005 A 
ATOM     29  C   UNL A   1      32.753  28.319  24.135  1.00  0.00     0.005 A 
ATOM     30  C   UNL A   1      32.003  27.798  26.720  1.00  0.00     0.000 A 
ATOM     31  C   UNL A   1      33.694  27.803  25.027  1.00  0.00     0.000 A 
ATOM     32  C   UNL A   1      33.307  27.500  26.318  1.00  0.00     0.000 A 
ENDBRANCH  20  27
ENDBRANCH  17  20
ENDBRANCH  13  16
ENDBRANCH   3   5
ENDBRANCH   2   3
ENDBRANCH   1   2
BRANCH   1  33
ATOM     33  C   UNL A   1      38.672  21.803  25.732  1.00  0.00     0.275 C 
BRANCH  33  34
ATOM     34  O   UNL A   1      39.006  22.944  26.509  1.00  0.00    -0.458 OA
BRANCH  34  35
ATOM     35  C   UNL A   1      40.183  22.879  27.167  1.00  0.00     0.338 C 
ATOM     36  O   UNL A   1      40.645  21.933  27.778  1.00  0.00    -0.246 OA
BRANCH  35  37
ATOM     37  C   UNL A   1      40.805  24.201  27.124  1.00  0.00     0.060 A 
ATOM     38  C   UNL A   1      41.862  24.433  28.006  1.00  0.00     0.016 A 
ATOM     39  C   UNL A   1      40.121  25.236  26.473  1.00  0.00     0.016 A 
ATOM     40  C   UNL A   1      42.042  25.717  28.456  1.00  0.00     0.010 A 
ATOM     41  C   UNL A   1      40.305  26.515  26.916  1.00  0.00     0.010 A 
ATOM     42  C   UNL A   1      41.169  26.704  27.988  1.00  0.00    -0.014 A 
BRANCH  42  43
ATOM     43  C   UNL A   1      41.160  27.984  28.649  1.00  0.00     0.031 A 
ATOM     44  C   UNL A   1      42.321  28.819  28.282  1.00  0.00     0.074 A 
ATOM     45  C   UNL A   1      40.124  28.342  29.431  1.00  0.00     0.049 A 
ATOM     46  N   UNL A   1      43.262  29.234  29.059  1.00  0.00    -0.248 NA
ATOM     47  C   UNL A   1      42.575  29.048  26.850  1.00  0.00     0.031 C 
ATOM     48  C   UNL A   1      38.849  27.652  29.657  1.00  0.00     0.029 A 
ATOM     49  N   UNL A   1      39.967  29.497  30.128  1.00  0.00    -0.354 N 
ATOM     50  C   UNL A   1      44.143  29.933  28.243  1.00  0.00     0.074 A 
ATOM     51  C   UNL A   1      43.768  29.640  26.887  1.00  0.00     0.031 C 
ATOM     52  C   UNL A   1      37.968  28.508  30.225  1.00  0.00     0.029 A 
ATOM     53  C   UNL A   1      38.658  29.747  30.527  1.00  0.00     0.049 A 
ATOM     54  H   UNL A   1      40.715  30.103  30.333  1.00  0.00     0.167 HD
ATOM     55  C   UNL A   1      44.972  30.877  28.762  1.00  0.00     0.037 A 
ATOM     56  C   UNL A   1      38.210  30.953  30.962  1.00  0.00     0.037 A 
ATOM     57  C   UNL A   1      45.103  30.718  30.187  1.00  0.00     0.049 A 
ATOM     58  C   UNL A   1      39.414  31.721  31.398  1.00  0.00     0.074 A 
ATOM     59  C   UNL A   1      45.634  29.730  30.993  1.00  0.00     0.029 A 
ATOM     60  N   UNL A   1      44.283  31.468  30.995  1.00  0.00    -0.354 N 
ATOM     61  N   UNL A   1      40.139  31.376  32.431  1.00  0.00    -0.248 NA
ATOM     62  C   UNL A   1      40.103  32.517  30.390  1.00  0.00     0.031 C 
ATOM     63  C   UNL A   1      44.742  29.640  32.100  1.00  0.00     0.029 A 
ATOM     64  C   UNL A   1      43.769  30.629  31.952  1.00  0.00     0.049 A 
ATOM     65  H   UNL A   1      44.096  32.430  30.904  1.00  0.00     0.167 HD
ATOM     66  C   UNL A   1      41.454  31.547  32.017  1.00  0.00     0.074 A 
ATOM     67  C   UNL A   1      41.369  32.295  30.763  1.00  0.00     0.031 C 
ATOM     68  C   UNL A   1      42.468  30.809  32.553  1.00  0.00     0.037 A 
BRANCH  55  69
ATOM     69  C   UNL A   1      45.354  32.145  28.052  1.00  0.00     0.064 A 
ATOM     70  C   UNL A   1      44.339  33.042  27.670  1.00  0.00     0.173 A 
ATOM     71  C   UNL A   1      46.618  32.361  27.460  1.00  0.00     0.173 A 
ATOM     72  F   UNL A   1      43.100  32.926  28.171  1.00  0.00    -0.203 F 
ATOM     73  C   UNL A   1      44.550  34.018  26.696  1.00  0.00     0.198 A 
ATOM     74  C   UNL A   1      46.839  33.370  26.527  1.00  0.00     0.198 A 
ATOM     75  F   UNL A   1      47.658  31.545  27.669  1.00  0.00    -0.203 F 
ATOM     76  F   UNL A   1      43.523  34.762  26.267  1.00  0.00    -0.200 F 
ATOM     77  C   UNL A   1      45.797  34.173  26.117  1.00  0.00     0.200 A 
ATOM     78  F   UNL A   1      48.050  33.494  25.967  1.00  0.00    -0.200 F 
ATOM     79  F   UNL A   1      45.985  35.060  25.131  1.00  0.00    -0.200 F 
ENDBRANCH  55  69
BRANCH  56  80
ATOM     80  C   UNL A   1      36.910  31.593  30.647  1.00  0.00     0.064 A 
ATOM     81  C   UNL A   1      35.978  31.892  31.653  1.00  0.00     0.173 A 
ATOM     82  C   UNL A   1      36.667  32.163  29.381  1.00  0.00     0.173 A 
ATOM     83  F   UNL A   1      36.162  31.433  32.898  1.00  0.00    -0.203 F 
ATOM     84  C   UNL A   1      34.874  32.721  31.408  1.00  0.00     0.198 A 
ATOM     85  C   UNL A   1      35.565  32.985  29.136  1.00  0.00     0.198 A 
ATOM     86  F   UNL A   1      37.542  32.009  28.377  1.00  0.00    -0.203 F 
ATOM     87  F   UNL A   1      34.031  33.025  32.404  1.00  0.00    -0.200 F 
ATOM     88  C   UNL A   1      34.674  33.272  30.153  1.00  0.00     0.200 A 
ATOM     89  F   UNL A   1      35.407  33.544  27.928  1.00  0.00    -0.200 F 
ATOM     90  F   UNL A   1      33.651  34.109  29.933  1.00  0.00    -0.200 F 
ENDBRANCH  56  80
BRANCH  68  91
ATOM     91  C   UNL A   1      42.159  29.934  33.735  1.00  0.00     0.064 A 
ATOM     92  C   UNL A   1      41.700  28.608  33.628  1.00  0.00     0.173 A 
ATOM     93  C   UNL A   1      42.525  30.387  35.008  1.00  0.00     0.173 A 
ATOM     94  F   UNL A   1      41.428  28.069  32.435  1.00  0.00    -0.203 F 
ATOM     95  C   UNL A   1      41.587  27.789  34.751  1.00  0.00     0.198 A 
ATOM     96  C   UNL A   1      42.446  29.557  36.122  1.00  0.00     0.198 A 
ATOM     97  F   UNL A   1      43.028  31.622  35.158  1.00  0.00    -0.203 F 
ATOM     98  F   UNL A   1      41.151  26.527  34.623  1.00  0.00    -0.200 F 
ATOM     99  C   UNL A   1      41.970  28.262  35.995  1.00  0.00     0.200 A 
ATOM    100  F   UNL A   1      42.869  30.001  37.313  1.00  0.00    -0.200 F 
ATOM    101  F   UNL A   1      41.910  27.460  37.069  1.00  0.00    -0.200 F 
ENDBRANCH  68  91
ENDBRANCH  42  43
ENDBRANCH  35  37
ENDBRANCH  34  35
ENDBRANCH  33  34
ENDBRANCH   1  33
TORSDOF 15
ENDMDL
MODEL 2
REMARK VINA RESULT:     -14.2      0.436      1.557
REMARK SMILES Cc1c(C(=O)OCCOC(=O)c2ccc(-c3c4nc(c(-c5c(F)c(F)c(F)c(F)c5F)c5ccc([nH]5)c(-c5c(F)c(F)c(F)c(F)c5F)c5nc(c(-c6c(F)c(F)c(F)c(F)c6F)c6ccc3[nH]6)C=C5)C=C4)cc2)oc2c1/C(=N/NC(=O)C(c1ccccc1)c1ccccc1)CCC2
REMARK SMILES IDX 7 1 6 2 4 3 5 4 3 5 1 6 2 7 77 8 75 9 76 10 78 11 98 12
REMARK SMILES IDX 79 13 96 14 97 15 80 16 81 17 82 19 83 20 84 21 85 22 89 23
REMARK SMILES IDX 86 24 88 25 87 26 90 27 91 28 95 29 92 30 94 31 93 32 8 33
REMARK SMILES IDX 9 34 10 35 11 36 12 37 13 38 74 39 14 40 73 41 15 42 16 43
REMARK SMILES IDX 17 44 67 45 18 46 72 47 66 48 68 49 19 50 71 51 65 52 64 53
REMARK SMILES IDX 20 55 52 56 32 57 51 58 33 59 36 60 50 61 69 62 34 63 35 64
REMARK SMILES IDX 49 66 70 67 37 68 21 69 22 70 30 71 23 72 24 73 28 74 31 75
REMARK SMILES IDX 25 76 26 77 29 78 27 79 53 80 54 81 62 82 55 83 56 84 60 85
REMARK SMILES IDX 63 86 57 87 58 88 61 89 59 90 38 91 39 92 47 93 40 94 41 95
REMARK SMILES IDX 45 96 48 97 42 98 43 99 46 100 44 101
REMARK H PARENT 80 18 68 54 36 65
REMARK Flexibility Score: inf
ROOT
ATOM      1  C   UNL A   1      37.484  21.466  25.331  1.00  0.00     0.275 C 
ENDROOT
BRANCH   1   2
ATOM      2  O   UNL A   1      36.819  22.730  25.282  1.00  0.00    -0.456 OA
BRANCH   2   3
ATOM      3  C   UNL A   1      36.239  23.175  24.127  1.00  0.00     0.374 C 
ATOM      4  O   UNL A   1      36.806  23.291  23.042  1.00  0.00    -0.242 OA
BRANCH   3   5
ATOM      5  C   UNL A   1      34.845  23.400  24.407  1.00  0.00     0.215 A 
ATOM      6  C   UNL A   1      33.848  25.111  22.721  1.00  0.00     0.049 C 
ATOM      7  C   UNL A   1      33.811  24.182  23.880  1.00  0.00     0.012 A 
ATOM      8  C   UNL A   1      32.702  23.968  24.761  1.00  0.00     0.043 A 
ATOM      9  O   UNL A   1      34.383  22.662  25.454  1.00  0.00    -0.453 OA
ATOM     10  C   UNL A   1      33.126  23.015  25.665  1.00  0.00     0.114 A 
ATOM     11  C   UNL A   1      31.398  24.602  24.967  1.00  0.00     0.072 C 
ATOM     12  C   UNL A   1      32.505  22.468  26.881  1.00  0.00     0.076 C 
ATOM     13  N   UNL A   1      30.918  25.297  23.977  1.00  0.00    -0.177 NA
ATOM     14  C   UNL A   1      30.981  24.370  26.406  1.00  0.00     0.059 C 
ATOM     15  C   UNL A   1      31.071  22.926  26.897  1.00  0.00     0.014 C 
BRANCH  13  16
ATOM     16  N   UNL A   1      29.805  26.076  23.741  1.00  0.00    -0.246 N 
ATOM     17  C   UNL A   1      29.466  27.398  23.491  1.00  0.00     0.252 C 
ATOM     18  H   UNL A   1      28.995  25.517  23.752  1.00  0.00     0.193 HD
ATOM     19  O   UNL A   1      28.261  27.676  23.404  1.00  0.00    -0.272 OA
BRANCH  17  20
ATOM     20  C   UNL A   1      30.517  28.502  23.299  1.00  0.00     0.140 C 
BRANCH  20  21
ATOM     21  C   UNL A   1      29.712  29.803  22.859  1.00  0.00    -0.031 A 
ATOM     22  C   UNL A   1      29.329  30.091  21.541  1.00  0.00     0.005 A 
ATOM     23  C   UNL A   1      29.378  30.806  23.819  1.00  0.00     0.005 A 
ATOM     24  C   UNL A   1      28.797  31.359  21.203  1.00  0.00     0.000 A 
ATOM     25  C   UNL A   1      28.906  32.075  23.482  1.00  0.00     0.000 A 
ATOM     26  C   UNL A   1      28.627  32.361  22.163  1.00  0.00     0.000 A 
ENDBRANCH  20  21
BRANCH  20  27
ATOM     27  C   UNL A   1      31.503  28.373  24.546  1.00  0.00    -0.031 A 
ATOM     28  C   UNL A   1      31.105  28.288  25.890  1.00  0.00     0.005 A 
ATOM     29  C   UNL A   1      32.898  28.196  24.311  1.00  0.00     0.005 A 
ATOM     30  C   UNL A   1      32.000  27.792  26.870  1.00  0.00     0.000 A 
ATOM     31  C   UNL A   1      33.769  27.663  25.263  1.00  0.00     0.000 A 
ATOM     32  C   UNL A   1      33.307  27.421  26.541  1.00  0.00     0.000 A 
ENDBRANCH  20  27
ENDBRANCH  17  20
ENDBRANCH  13  16
ENDBRANCH   3   5
ENDBRANCH   2   3
ENDBRANCH   1   2
BRANCH   1  33
ATOM     33  C   UNL A   1      38.943  21.634  25.730  1.00  0.00     0.275 C 
BRANCH  33  34
ATOM     34  O   UNL A   1      39.065  22.768  26.575  1.00  0.00    -0.458 OA
BRANCH  34  35
ATOM     35  C   UNL A   1      40.172  22.807  27.346  1.00  0.00     0.338 C 
ATOM     36  O   UNL A   1      40.591  21.944  28.096  1.00  0.00    -0.246 OA
BRANCH  35  37
ATOM     37  C   UNL A   1      40.771  24.134  27.221  1.00  0.00     0.060 A 
ATOM     38  C   UNL A   1      41.869  24.414  28.037  1.00  0.00     0.016 A 
ATOM     39  C   UNL A   1      40.038  25.135  26.569  1.00  0.00     0.016 A 
ATOM     40  C   UNL A   1      42.052  25.717  28.428  1.00  0.00     0.010 A 
ATOM     41  C   UNL A   1      40.226  26.431  26.953  1.00  0.00     0.010 A 
ATOM     42  C   UNL A   1      41.141  26.673  27.970  1.00  0.00    -0.014 A 
BRANCH  42  43
ATOM     43  C   UNL A   1      41.146  27.977  28.582  1.00  0.00     0.031 A 
ATOM     44  C   UNL A   1      42.243  28.832  28.084  1.00  0.00     0.074 A 
ATOM     45  C   UNL A   1      40.171  28.334  29.439  1.00  0.00     0.049 A 
ATOM     46  N   UNL A   1      43.233  29.306  28.759  1.00  0.00    -0.248 NA
ATOM     47  C   UNL A   1      42.362  29.012  26.628  1.00  0.00     0.031 C 
ATOM     48  C   UNL A   1      38.945  27.615  29.803  1.00  0.00     0.029 A 
ATOM     49  N   UNL A   1      40.037  29.510  30.106  1.00  0.00    -0.354 N 
ATOM     50  C   UNL A   1      44.016  29.998  27.843  1.00  0.00     0.074 A 
ATOM     51  C   UNL A   1      43.534  29.642  26.537  1.00  0.00     0.031 C 
ATOM     52  C   UNL A   1      38.089  28.466  30.415  1.00  0.00     0.029 A 
ATOM     53  C   UNL A   1      38.760  29.735  30.610  1.00  0.00     0.049 A 
ATOM     54  H   UNL A   1      40.779  30.146  30.221  1.00  0.00     0.167 HD
ATOM     55  C   UNL A   1      44.854  30.986  28.253  1.00  0.00     0.037 A 
ATOM     56  C   UNL A   1      38.312  30.943  31.038  1.00  0.00     0.037 A 
ATOM     57  C   UNL A   1      45.115  30.888  29.665  1.00  0.00     0.049 A 
ATOM     58  C   UNL A   1      39.523  31.764  31.338  1.00  0.00     0.074 A 
ATOM     59  C   UNL A   1      45.747  29.948  30.456  1.00  0.00     0.029 A 
ATOM     60  N   UNL A   1      44.343  31.643  30.515  1.00  0.00    -0.354 N 
ATOM     61  N   UNL A   1      40.347  31.482  32.314  1.00  0.00    -0.248 NA
ATOM     62  C   UNL A   1      40.094  32.541  30.244  1.00  0.00     0.031 C 
ATOM     63  C   UNL A   1      44.959  29.875  31.640  1.00  0.00     0.029 A 
ATOM     64  C   UNL A   1      43.944  30.827  31.544  1.00  0.00     0.049 A 
ATOM     65  H   UNL A   1      44.117  32.595  30.406  1.00  0.00     0.167 HD
ATOM     66  C   UNL A   1      41.614  31.677  31.780  1.00  0.00     0.074 A 
ATOM     67  C   UNL A   1      41.394  32.372  30.512  1.00  0.00     0.031 C 
ATOM     68  C   UNL A   1      42.695  30.991  32.251  1.00  0.00     0.037 A 
BRANCH  55  69
ATOM     69  C   UNL A   1      45.130  32.237  27.466  1.00  0.00     0.064 A 
ATOM     70  C   UNL A   1      46.363  32.360  26.798  1.00  0.00     0.173 A 
ATOM     71  C   UNL A   1      44.384  33.428  27.599  1.00  0.00     0.173 A 
ATOM     72  F   UNL A   1      47.153  31.290  26.618  1.00  0.00    -0.203 F 
ATOM     73  C   UNL A   1      46.854  33.599  26.384  1.00  0.00     0.198 A 
ATOM     74  C   UNL A   1      44.853  34.655  27.138  1.00  0.00     0.198 A 
ATOM     75  F   UNL A   1      43.230  33.481  28.275  1.00  0.00    -0.203 F 
ATOM     76  F   UNL A   1      48.088  33.688  25.873  1.00  0.00    -0.200 F 
ATOM     77  C   UNL A   1      46.103  34.747  26.565  1.00  0.00     0.200 A 
ATOM     78  F   UNL A   1      44.117  35.757  27.336  1.00  0.00    -0.200 F 
ATOM     79  F   UNL A   1      46.601  35.946  26.234  1.00  0.00    -0.200 F 
ENDBRANCH  55  69
BRANCH  56  80
ATOM     80  C   UNL A   1      36.969  31.531  30.817  1.00  0.00     0.064 A 
ATOM     81  C   UNL A   1      36.113  31.831  31.889  1.00  0.00     0.173 A 
ATOM     82  C   UNL A   1      36.601  32.053  29.560  1.00  0.00     0.173 A 
ATOM     83  F   UNL A   1      36.417  31.416  33.127  1.00  0.00    -0.203 F 
ATOM     84  C   UNL A   1      34.965  32.615  31.716  1.00  0.00     0.198 A 
ATOM     85  C   UNL A   1      35.454  32.832  29.387  1.00  0.00     0.198 A 
ATOM     86  F   UNL A   1      37.393  31.897  28.491  1.00  0.00    -0.203 F 
ATOM     87  F   UNL A   1      34.198  32.922  32.770  1.00  0.00    -0.200 F 
ATOM     88  C   UNL A   1      34.642  33.121  30.467  1.00  0.00     0.200 A 
ATOM     89  F   UNL A   1      35.177  33.347  28.181  1.00  0.00    -0.200 F 
ATOM     90  F   UNL A   1      33.575  33.917  30.311  1.00  0.00    -0.200 F 
ENDBRANCH  56  80
BRANCH  68  91
ATOM     91  C   UNL A   1      42.520  30.154  33.486  1.00  0.00     0.064 A 
ATOM     92  C   UNL A   1      42.600  30.664  34.794  1.00  0.00     0.173 A 
ATOM     93  C   UNL A   1      42.063  28.839  33.335  1.00  0.00     0.173 A 
ATOM     94  F   UNL A   1      42.928  31.942  35.015  1.00  0.00    -0.203 F 
ATOM     95  C   UNL A   1      42.266  29.880  35.899  1.00  0.00     0.198 A 
ATOM     96  C   UNL A   1      41.696  28.071  34.436  1.00  0.00     0.198 A 
ATOM     97  F   UNL A   1      41.908  28.323  32.107  1.00  0.00    -0.203 F 
ATOM     98  F   UNL A   1      42.346  30.392  37.137  1.00  0.00    -0.200 F 
ATOM     99  C   UNL A   1      41.805  28.588  35.717  1.00  0.00     0.200 A 
ATOM    100  F   UNL A   1      41.199  26.840  34.250  1.00  0.00    -0.200 F 
ATOM    101  F   UNL A   1      41.434  27.849  36.773  1.00  0.00    -0.200 F 
ENDBRANCH  68  91
ENDBRANCH  42  43
ENDBRANCH  35  37
ENDBRANCH  34  35
ENDBRANCH  33  34
ENDBRANCH   1  33
TORSDOF 15
ENDMDL
MODEL 3
REMARK VINA RESULT:     -14.2      1.126      2.248
REMARK SMILES Cc1c(C(=O)OCCOC(=O)c2ccc(-c3c4nc(c(-c5c(F)c(F)c(F)c(F)c5F)c5ccc([nH]5)c(-c5c(F)c(F)c(F)c(F)c5F)c5nc(c(-c6c(F)c(F)c(F)c(F)c6F)c6ccc3[nH]6)C=C5)C=C4)cc2)oc2c1/C(=N/NC(=O)C(c1ccccc1)c1ccccc1)CCC2
REMARK SMILES IDX 7 1 6 2 4 3 5 4 3 5 1 6 2 7 77 8 75 9 76 10 78 11 98 12
REMARK SMILES IDX 79 13 96 14 97 15 80 16 81 17 82 19 83 20 84 21 85 22 89 23
REMARK SMILES IDX 86 24 88 25 87 26 90 27 91 28 95 29 92 30 94 31 93 32 8 33
REMARK SMILES IDX 9 34 10 35 11 36 12 37 13 38 74 39 14 40 73 41 15 42 16 43
REMARK SMILES IDX 17 44 67 45 18 46 72 47 66 48 68 49 19 50 71 51 65 52 64 53
REMARK SMILES IDX 20 55 52 56 32 57 51 58 33 59 36 60 50 61 69 62 34 63 35 64
REMARK SMILES IDX 49 66 70 67 37 68 21 69 22 70 30 71 23 72 24 73 28 74 31 75
REMARK SMILES IDX 25 76 26 77 29 78 27 79 53 80 54 81 62 82 55 83 56 84 60 85
REMARK SMILES IDX 63 86 57 87 58 88 61 89 59 90 38 91 39 92 47 93 40 94 41 95
REMARK SMILES IDX 45 96 48 97 42 98 43 99 46 100 44 101
REMARK H PARENT 80 18 68 54 36 65
REMARK Flexibility Score: inf
ROOT
ATOM      1  C   UNL A   1      37.574  21.495  24.969  1.00  0.00     0.275 C 
ENDROOT
BRANCH   1   2
ATOM      2  O   UNL A   1      36.498  20.892  25.690  1.00  0.00    -0.456 OA
BRANCH   2   3
ATOM      3  C   UNL A   1      35.340  20.535  25.057  1.00  0.00     0.374 C 
ATOM      4  O   UNL A   1      35.043  19.395  24.702  1.00  0.00    -0.242 OA
BRANCH   3   5
ATOM      5  C   UNL A   1      34.522  21.715  24.963  1.00  0.00     0.215 A 
ATOM      6  C   UNL A   1      35.448  23.315  23.135  1.00  0.00     0.049 C 
ATOM      7  C   UNL A   1      34.511  22.893  24.208  1.00  0.00     0.012 A 
ATOM      8  C   UNL A   1      33.439  23.671  24.753  1.00  0.00     0.043 A 
ATOM      9  O   UNL A   1      33.465  21.704  25.822  1.00  0.00    -0.453 OA
ATOM     10  C   UNL A   1      32.844  22.865  25.703  1.00  0.00     0.114 A 
ATOM     11  C   UNL A   1      32.990  25.059  24.627  1.00  0.00     0.072 C 
ATOM     12  C   UNL A   1      31.784  23.127  26.689  1.00  0.00     0.076 C 
ATOM     13  N   UNL A   1      33.381  25.710  23.570  1.00  0.00    -0.177 NA
ATOM     14  C   UNL A   1      32.245  25.433  25.893  1.00  0.00     0.059 C 
ATOM     15  C   UNL A   1      31.162  24.452  26.338  1.00  0.00     0.014 C 
BRANCH  13  16
ATOM     16  N   UNL A   1      33.255  26.991  23.073  1.00  0.00    -0.246 N 
ATOM     17  C   UNL A   1      32.496  28.137  23.267  1.00  0.00     0.252 C 
ATOM     18  H   UNL A   1      33.910  27.139  22.354  1.00  0.00     0.193 HD
ATOM     19  O   UNL A   1      32.691  29.091  22.501  1.00  0.00    -0.272 OA
BRANCH  17  20
ATOM     20  C   UNL A   1      31.461  28.265  24.395  1.00  0.00     0.140 C 
BRANCH  20  21
ATOM     21  C   UNL A   1      32.181  29.073  25.561  1.00  0.00    -0.031 A 
ATOM     22  C   UNL A   1      31.709  30.280  26.099  1.00  0.00     0.005 A 
ATOM     23  C   UNL A   1      33.422  28.616  26.098  1.00  0.00     0.005 A 
ATOM     24  C   UNL A   1      32.510  31.037  26.988  1.00  0.00     0.000 A 
ATOM     25  C   UNL A   1      34.237  29.385  26.931  1.00  0.00     0.000 A 
ATOM     26  C   UNL A   1      33.786  30.612  27.368  1.00  0.00     0.000 A 
ENDBRANCH  20  21
BRANCH  20  27
ATOM     27  C   UNL A   1      30.093  28.655  23.674  1.00  0.00    -0.031 A 
ATOM     28  C   UNL A   1      29.044  27.765  23.387  1.00  0.00     0.005 A 
ATOM     29  C   UNL A   1      29.819  30.027  23.399  1.00  0.00     0.005 A 
ATOM     30  C   UNL A   1      27.745  28.257  23.112  1.00  0.00     0.000 A 
ATOM     31  C   UNL A   1      28.531  30.517  23.174  1.00  0.00     0.000 A 
ATOM     32  C   UNL A   1      27.479  29.629  23.071  1.00  0.00     0.000 A 
ENDBRANCH  20  27
ENDBRANCH  17  20
ENDBRANCH  13  16
ENDBRANCH   3   5
ENDBRANCH   2   3
ENDBRANCH   1   2
BRANCH   1  33
ATOM     33  C   UNL A   1      38.870  21.424  25.763  1.00  0.00     0.275 C 
BRANCH  33  34
ATOM     34  O   UNL A   1      39.127  22.694  26.345  1.00  0.00    -0.458 OA
BRANCH  34  35
ATOM     35  C   UNL A   1      40.160  22.741  27.213  1.00  0.00     0.338 C 
ATOM     36  O   UNL A   1      40.517  21.879  27.996  1.00  0.00    -0.246 OA
BRANCH  35  37
ATOM     37  C   UNL A   1      40.754  24.074  27.146  1.00  0.00     0.060 A 
ATOM     38  C   UNL A   1      41.868  24.313  27.953  1.00  0.00     0.016 A 
ATOM     39  C   UNL A   1      40.006  25.106  26.563  1.00  0.00     0.016 A 
ATOM     40  C   UNL A   1      42.057  25.594  28.409  1.00  0.00     0.010 A 
ATOM     41  C   UNL A   1      40.199  26.381  27.011  1.00  0.00     0.010 A 
ATOM     42  C   UNL A   1      41.134  26.571  28.021  1.00  0.00    -0.014 A 
BRANCH  42  43
ATOM     43  C   UNL A   1      41.151  27.841  28.701  1.00  0.00     0.031 A 
ATOM     44  C   UNL A   1      42.316  28.668  28.328  1.00  0.00     0.074 A 
ATOM     45  C   UNL A   1      40.131  28.199  29.505  1.00  0.00     0.049 A 
ATOM     46  N   UNL A   1      43.273  29.061  29.096  1.00  0.00    -0.248 NA
ATOM     47  C   UNL A   1      42.549  28.916  26.896  1.00  0.00     0.031 C 
ATOM     48  C   UNL A   1      38.853  27.519  29.742  1.00  0.00     0.029 A 
ATOM     49  N   UNL A   1      39.999  29.344  30.222  1.00  0.00    -0.354 N 
ATOM     50  C   UNL A   1      44.149  29.762  28.276  1.00  0.00     0.074 A 
ATOM     51  C   UNL A   1      43.749  29.495  26.922  1.00  0.00     0.031 C 
ATOM     52  C   UNL A   1      37.991  28.377  30.337  1.00  0.00     0.029 A 
ATOM     53  C   UNL A   1      38.699  29.603  30.646  1.00  0.00     0.049 A 
ATOM     54  H   UNL A   1      40.757  29.939  30.424  1.00  0.00     0.167 HD
ATOM     55  C   UNL A   1      44.996  30.689  28.796  1.00  0.00     0.037 A 
ATOM     56  C   UNL A   1      38.273  30.807  31.105  1.00  0.00     0.037 A 
ATOM     57  C   UNL A   1      45.149  30.507  30.216  1.00  0.00     0.049 A 
ATOM     58  C   UNL A   1      39.492  31.555  31.534  1.00  0.00     0.074 A 
ATOM     59  C   UNL A   1      45.682  29.501  30.998  1.00  0.00     0.029 A 
ATOM     60  N   UNL A   1      44.350  31.254  31.048  1.00  0.00    -0.354 N 
ATOM     61  N   UNL A   1      40.229  31.186  32.549  1.00  0.00    -0.248 NA
ATOM     62  C   UNL A   1      40.174  32.359  30.526  1.00  0.00     0.031 C 
ATOM     63  C   UNL A   1      44.807  29.404  32.118  1.00  0.00     0.029 A 
ATOM     64  C   UNL A   1      43.843  30.406  32.001  1.00  0.00     0.049 A 
ATOM     65  H   UNL A   1      44.173  32.220  30.975  1.00  0.00     0.167 HD
ATOM     66  C   UNL A   1      41.539  31.349  32.117  1.00  0.00     0.074 A 
ATOM     67  C   UNL A   1      41.442  32.117  30.876  1.00  0.00     0.031 C 
ATOM     68  C   UNL A   1      42.554  30.591  32.626  1.00  0.00     0.037 A 
BRANCH  55  69
ATOM     69  C   UNL A   1      45.382  31.964  28.099  1.00  0.00     0.064 A 
ATOM     70  C   UNL A   1      44.373  32.885  27.762  1.00  0.00     0.173 A 
ATOM     71  C   UNL A   1      46.632  32.169  27.476  1.00  0.00     0.173 A 
ATOM     72  F   UNL A   1      43.146  32.781  28.295  1.00  0.00    -0.203 F 
ATOM     73  C   UNL A   1      44.574  33.876  26.800  1.00  0.00     0.198 A 
ATOM     74  C   UNL A   1      46.845  33.191  26.555  1.00  0.00     0.198 A 
ATOM     75  F   UNL A   1      47.663  31.331  27.640  1.00  0.00    -0.203 F 
ATOM     76  F   UNL A   1      43.549  34.646  26.414  1.00  0.00    -0.200 F 
ATOM     77  C   UNL A   1      45.807  34.020  26.189  1.00  0.00     0.200 A 
ATOM     78  F   UNL A   1      48.043  33.305  25.964  1.00  0.00    -0.200 F 
ATOM     79  F   UNL A   1      45.984  34.922  25.215  1.00  0.00    -0.200 F 
ENDBRANCH  55  69
BRANCH  56  80
ATOM     80  C   UNL A   1      36.975  31.466  30.822  1.00  0.00     0.064 A 
ATOM     81  C   UNL A   1      36.072  31.782  31.850  1.00  0.00     0.173 A 
ATOM     82  C   UNL A   1      36.709  32.037  29.560  1.00  0.00     0.173 A 
ATOM     83  F   UNL A   1      36.280  31.322  33.091  1.00  0.00    -0.203 F 
ATOM     84  C   UNL A   1      34.976  32.627  31.630  1.00  0.00     0.198 A 
ATOM     85  C   UNL A   1      35.614  32.875  29.341  1.00  0.00     0.198 A 
ATOM     86  F   UNL A   1      37.556  31.868  28.535  1.00  0.00    -0.203 F 
ATOM     87  F   UNL A   1      34.163  32.946  32.646  1.00  0.00    -0.200 F 
ATOM     88  C   UNL A   1      34.753  33.178  30.379  1.00  0.00     0.200 A 
ATOM     89  F   UNL A   1      35.435  33.434  28.136  1.00  0.00    -0.200 F 
ATOM     90  F   UNL A   1      33.737  34.030  30.182  1.00  0.00    -0.200 F 
ENDBRANCH  56  80
BRANCH  68  91
ATOM     91  C   UNL A   1      42.253  29.702  33.799  1.00  0.00     0.064 A 
ATOM     92  C   UNL A   1      41.766  28.388  33.680  1.00  0.00     0.173 A 
ATOM     93  C   UNL A   1      42.657  30.126  35.071  1.00  0.00     0.173 A 
ATOM     94  F   UNL A   1      41.456  27.875  32.484  1.00  0.00    -0.203 F 
ATOM     95  C   UNL A   1      41.661  27.552  34.791  1.00  0.00     0.198 A 
ATOM     96  C   UNL A   1      42.586  29.278  36.172  1.00  0.00     0.198 A 
ATOM     97  F   UNL A   1      43.188  31.348  35.231  1.00  0.00    -0.203 F 
ATOM     98  F   UNL A   1      41.197  26.301  34.651  1.00  0.00    -0.200 F 
ATOM     99  C   UNL A   1      42.081  27.995  36.034  1.00  0.00     0.200 A 
ATOM    100  F   UNL A   1      43.044  29.693  37.360  1.00  0.00    -0.200 F 
ATOM    101  F   UNL A   1      42.030  27.176  37.095  1.00  0.00    -0.200 F 
ENDBRANCH  68  91
ENDBRANCH  42  43
ENDBRANCH  35  37
ENDBRANCH  34  35
ENDBRANCH  33  34
ENDBRANCH   1  33
TORSDOF 15
ENDMDL
