MODEL 1
REMARK VINA RESULT:     -11.2      0.000      0.000
REMARK SMILES C=C1C=C[C@H](C(=O)OCCOC(=O)c2ccc(-c3c4nc(c(-c5c(F)c(F)c(F)c(F)c5F)c5ccc([nH]5)c(-c5c(F)c(F)c(F)c(F)c5F)c5nc(c(-c6c(F)c(F)c(F)c(F)c6F)c6ccc3[nH]6)C=C5)C=C4)cc2)C(=S)N1
REMARK SMILES IDX 10 1 9 2 8 3 6 4 7 5 5 6 1 7 2 8 3 9 79 10 4 11 77 12 78 14
REMARK SMILES IDX 11 15 12 16 13 17 14 18 15 19 76 20 16 21 75 22 17 23 18 24
REMARK SMILES IDX 19 25 69 26 20 27 74 28 68 29 70 30 21 31 73 32 67 33 66 34
REMARK SMILES IDX 22 36 54 37 34 38 53 39 35 40 38 41 52 42 71 43 36 44 37 45
REMARK SMILES IDX 51 47 72 48 39 49 23 50 24 51 32 52 25 53 26 54 30 55 33 56
REMARK SMILES IDX 27 57 28 58 31 59 29 60 55 61 56 62 64 63 57 64 58 65 62 66
REMARK SMILES IDX 65 67 59 68 60 69 63 70 61 71 40 72 41 73 49 74 42 75 43 76
REMARK SMILES IDX 47 77 50 78 44 79 45 80 48 81 46 82
REMARK H PARENT 79 13 70 35 38 46
REMARK Flexibility Score: inf
ROOT
ATOM      1  C   UNL A   1      37.885  20.173  24.892  1.00  0.00     0.275 C 
ENDROOT
BRANCH   1   2
ATOM      2  C   UNL A   1      36.359  20.135  24.915  1.00  0.00     0.274 C 
BRANCH   2   3
ATOM      3  O   UNL A   1      35.826  21.418  25.297  1.00  0.00    -0.461 OA
BRANCH   3   4
ATOM      4  C   UNL A   1      34.938  22.008  24.453  1.00  0.00     0.319 C 
ATOM      5  O   UNL A   1      35.265  22.745  23.529  1.00  0.00    -0.251 OA
BRANCH   4   6
ATOM      6  C   UNL A   1      33.485  21.715  24.853  1.00  0.00     0.180 C 
ATOM      7  C   UNL A   1      32.644  17.638  25.729  1.00  0.00     0.037 C 
ATOM      8  C   UNL A   1      32.808  18.937  25.453  1.00  0.00     0.031 C 
ATOM      9  C   UNL A   1      32.618  19.470  24.125  1.00  0.00     0.022 C 
ATOM     10  N   UNL A   1      33.120  19.822  26.452  1.00  0.00    -0.350 N 
ATOM     11  C   UNL A   1      32.899  20.750  23.839  1.00  0.00    -0.003 C 
ATOM     12  C   UNL A   1      33.317  21.170  26.277  1.00  0.00     0.098 C 
ATOM     13  H   UNL A   1      33.210  19.465  27.365  1.00  0.00     0.167 HD
ATOM     14  S   UNL A   1      33.315  22.159  27.636  1.00  0.00    -0.064 S 
ENDBRANCH   4   6
ENDBRANCH   3   4
ENDBRANCH   2   3
ENDBRANCH   1   2
BRANCH   1  15
ATOM     15  O   UNL A   1      38.357  21.223  25.755  1.00  0.00    -0.458 OA
BRANCH  15  16
ATOM     16  C   UNL A   1      39.554  21.010  26.342  1.00  0.00     0.338 C 
ATOM     17  O   UNL A   1      40.168  19.965  26.456  1.00  0.00    -0.246 OA
BRANCH  16  18
ATOM     18  C   UNL A   1      40.079  22.297  26.812  1.00  0.00     0.060 A 
ATOM     19  C   UNL A   1      39.583  23.467  26.238  1.00  0.00     0.016 A 
ATOM     20  C   UNL A   1      41.129  22.342  27.727  1.00  0.00     0.016 A 
ATOM     21  C   UNL A   1      40.175  24.691  26.532  1.00  0.00     0.010 A 
ATOM     22  C   UNL A   1      41.691  23.579  28.062  1.00  0.00     0.010 A 
ATOM     23  C   UNL A   1      41.240  24.759  27.443  1.00  0.00    -0.014 A 
BRANCH  23  24
ATOM     24  C   UNL A   1      41.912  26.057  27.699  1.00  0.00     0.031 A 
ATOM     25  C   UNL A   1      41.228  27.106  28.531  1.00  0.00     0.074 A 
ATOM     26  C   UNL A   1      43.146  26.287  27.215  1.00  0.00     0.049 A 
ATOM     27  N   UNL A   1      41.604  28.333  28.790  1.00  0.00    -0.248 NA
ATOM     28  C   UNL A   1      39.951  26.724  29.154  1.00  0.00     0.031 C 
ATOM     29  C   UNL A   1      43.936  25.341  26.429  1.00  0.00     0.029 A 
ATOM     30  N   UNL A   1      43.955  27.391  27.321  1.00  0.00    -0.354 N 
ATOM     31  C   UNL A   1      40.593  28.882  29.567  1.00  0.00     0.074 A 
ATOM     32  C   UNL A   1      39.589  27.855  29.745  1.00  0.00     0.031 C 
ATOM     33  C   UNL A   1      45.125  25.894  26.143  1.00  0.00     0.029 A 
ATOM     34  C   UNL A   1      45.162  27.250  26.682  1.00  0.00     0.049 A 
ATOM     35  H   UNL A   1      43.695  28.205  27.810  1.00  0.00     0.167 HD
ATOM     36  C   UNL A   1      40.510  30.131  30.083  1.00  0.00     0.037 A 
ATOM     37  C   UNL A   1      46.174  28.124  26.530  1.00  0.00     0.037 A 
ATOM     38  C   UNL A   1      41.524  31.143  29.945  1.00  0.00     0.049 A 
ATOM     39  C   UNL A   1      46.055  29.506  27.110  1.00  0.00     0.074 A 
ATOM     40  C   UNL A   1      41.528  32.436  30.438  1.00  0.00     0.029 A 
ATOM     41  N   UNL A   1      42.724  30.967  29.274  1.00  0.00    -0.354 N 
ATOM     42  N   UNL A   1      45.075  30.028  27.804  1.00  0.00    -0.248 NA
ATOM     43  C   UNL A   1      47.179  30.423  26.870  1.00  0.00     0.031 C 
ATOM     44  C   UNL A   1      42.725  33.049  30.049  1.00  0.00     0.029 A 
ATOM     45  C   UNL A   1      43.475  32.129  29.336  1.00  0.00     0.049 A 
ATOM     46  H   UNL A   1      43.002  30.138  28.820  1.00  0.00     0.167 HD
ATOM     47  C   UNL A   1      45.459  31.332  28.083  1.00  0.00     0.074 A 
ATOM     48  C   UNL A   1      46.774  31.516  27.504  1.00  0.00     0.031 C 
ATOM     49  C   UNL A   1      44.779  32.293  28.751  1.00  0.00     0.037 A 
BRANCH  36  50
ATOM     50  C   UNL A   1      39.260  30.485  30.828  1.00  0.00     0.064 A 
ATOM     51  C   UNL A   1      39.153  30.302  32.213  1.00  0.00     0.173 A 
ATOM     52  C   UNL A   1      38.170  31.049  30.148  1.00  0.00     0.173 A 
ATOM     53  F   UNL A   1      40.163  29.751  32.901  1.00  0.00    -0.203 F 
ATOM     54  C   UNL A   1      37.990  30.658  32.890  1.00  0.00     0.198 A 
ATOM     55  C   UNL A   1      37.016  31.420  30.831  1.00  0.00     0.198 A 
ATOM     56  F   UNL A   1      38.228  31.244  28.823  1.00  0.00    -0.203 F 
ATOM     57  F   UNL A   1      37.894  30.447  34.210  1.00  0.00    -0.200 F 
ATOM     58  C   UNL A   1      36.925  31.221  32.201  1.00  0.00     0.200 A 
ATOM     59  F   UNL A   1      35.990  31.969  30.165  1.00  0.00    -0.200 F 
ATOM     60  F   UNL A   1      35.808  31.566  32.856  1.00  0.00    -0.200 F 
ENDBRANCH  36  50
BRANCH  37  61
ATOM     61  C   UNL A   1      47.386  27.720  25.777  1.00  0.00     0.064 A 
ATOM     62  C   UNL A   1      47.409  27.766  24.377  1.00  0.00     0.173 A 
ATOM     63  C   UNL A   1      48.543  27.289  26.440  1.00  0.00     0.173 A 
ATOM     64  F   UNL A   1      46.316  28.148  23.701  1.00  0.00    -0.203 F 
ATOM     65  C   UNL A   1      48.546  27.390  23.667  1.00  0.00     0.198 A 
ATOM     66  C   UNL A   1      49.686  26.932  25.730  1.00  0.00     0.198 A 
ATOM     67  F   UNL A   1      48.564  27.226  27.779  1.00  0.00    -0.203 F 
ATOM     68  F   UNL A   1      48.535  27.413  22.327  1.00  0.00    -0.200 F 
ATOM     69  C   UNL A   1      49.686  26.979  24.343  1.00  0.00     0.200 A 
ATOM     70  F   UNL A   1      50.787  26.543  26.386  1.00  0.00    -0.200 F 
ATOM     71  F   UNL A   1      50.781  26.622  23.659  1.00  0.00    -0.200 F 
ENDBRANCH  37  61
BRANCH  49  72
ATOM     72  C   UNL A   1      45.445  33.626  28.893  1.00  0.00     0.064 A 
ATOM     73  C   UNL A   1      46.300  33.898  29.971  1.00  0.00     0.173 A 
ATOM     74  C   UNL A   1      45.255  34.626  27.930  1.00  0.00     0.173 A 
ATOM     75  F   UNL A   1      46.499  32.975  30.925  1.00  0.00    -0.203 F 
ATOM     76  C   UNL A   1      46.932  35.133  30.086  1.00  0.00     0.198 A 
ATOM     77  C   UNL A   1      45.900  35.854  28.040  1.00  0.00     0.198 A 
ATOM     78  F   UNL A   1      44.447  34.410  26.882  1.00  0.00    -0.203 F 
ATOM     79  F   UNL A   1      47.722  35.385  31.139  1.00  0.00    -0.200 F 
ATOM     80  C   UNL A   1      46.735  36.108  29.119  1.00  0.00     0.200 A 
ATOM     81  F   UNL A   1      45.713  36.794  27.104  1.00  0.00    -0.200 F 
ATOM     82  F   UNL A   1      47.345  37.296  29.230  1.00  0.00    -0.200 F 
ENDBRANCH  49  72
ENDBRANCH  23  24
ENDBRANCH  16  18
ENDBRANCH  15  16
ENDBRANCH   1  15
TORSDOF 11
ENDMDL
MODEL 2
REMARK VINA RESULT:     -11.2      0.384      7.840
REMARK SMILES C=C1C=C[C@H](C(=O)OCCOC(=O)c2ccc(-c3c4nc(c(-c5c(F)c(F)c(F)c(F)c5F)c5ccc([nH]5)c(-c5c(F)c(F)c(F)c(F)c5F)c5nc(c(-c6c(F)c(F)c(F)c(F)c6F)c6ccc3[nH]6)C=C5)C=C4)cc2)C(=S)N1
REMARK SMILES IDX 10 1 9 2 8 3 6 4 7 5 5 6 1 7 2 8 3 9 79 10 4 11 77 12 78 14
REMARK SMILES IDX 11 15 12 16 13 17 14 18 15 19 76 20 16 21 75 22 17 23 18 24
REMARK SMILES IDX 19 25 69 26 20 27 74 28 68 29 70 30 21 31 73 32 67 33 66 34
REMARK SMILES IDX 22 36 54 37 34 38 53 39 35 40 38 41 52 42 71 43 36 44 37 45
REMARK SMILES IDX 51 47 72 48 39 49 23 50 24 51 32 52 25 53 26 54 30 55 33 56
REMARK SMILES IDX 27 57 28 58 31 59 29 60 55 61 56 62 64 63 57 64 58 65 62 66
REMARK SMILES IDX 65 67 59 68 60 69 63 70 61 71 40 72 41 73 49 74 42 75 43 76
REMARK SMILES IDX 47 77 50 78 44 79 45 80 48 81 46 82
REMARK H PARENT 79 13 70 35 38 46
REMARK Flexibility Score: inf
ROOT
ATOM      1  C   UNL A   1      38.203  19.781  25.001  1.00  0.00     0.275 C 
ENDROOT
BRANCH   1   2
ATOM      2  C   UNL A   1      36.696  19.840  24.769  1.00  0.00     0.274 C 
BRANCH   2   3
ATOM      3  O   UNL A   1      36.144  21.048  25.329  1.00  0.00    -0.461 OA
BRANCH   3   4
ATOM      4  C   UNL A   1      35.355  21.811  24.526  1.00  0.00     0.319 C 
ATOM      5  O   UNL A   1      35.792  22.576  23.672  1.00  0.00    -0.251 OA
BRANCH   4   6
ATOM      6  C   UNL A   1      33.868  21.668  24.879  1.00  0.00     0.180 C 
ATOM      7  C   UNL A   1      32.597  17.703  25.750  1.00  0.00     0.037 C 
ATOM      8  C   UNL A   1      32.898  18.976  25.473  1.00  0.00     0.031 C 
ATOM      9  C   UNL A   1      32.805  19.514  24.136  1.00  0.00     0.022 C 
ATOM     10  N   UNL A   1      33.265  19.836  26.476  1.00  0.00    -0.350 N 
ATOM     11  C   UNL A   1      33.221  20.757  23.852  1.00  0.00    -0.003 C 
ATOM     12  C   UNL A   1      33.601  21.156  26.300  1.00  0.00     0.098 C 
ATOM     13  H   UNL A   1      33.289  19.479  27.393  1.00  0.00     0.167 HD
ATOM     14  S   UNL A   1      33.653  22.152  27.652  1.00  0.00    -0.064 S 
ENDBRANCH   4   6
ENDBRANCH   3   4
ENDBRANCH   2   3
ENDBRANCH   1   2
BRANCH   1  15
ATOM     15  O   UNL A   1      38.630  20.952  25.718  1.00  0.00    -0.458 OA
BRANCH  15  16
ATOM     16  C   UNL A   1      39.790  20.837  26.399  1.00  0.00     0.338 C 
ATOM     17  O   UNL A   1      40.453  19.836  26.603  1.00  0.00    -0.246 OA
BRANCH  16  18
ATOM     18  C   UNL A   1      40.205  22.172  26.845  1.00  0.00     0.060 A 
ATOM     19  C   UNL A   1      39.638  23.285  26.226  1.00  0.00     0.016 A 
ATOM     20  C   UNL A   1      41.224  22.320  27.785  1.00  0.00     0.016 A 
ATOM     21  C   UNL A   1      40.129  24.558  26.501  1.00  0.00     0.010 A 
ATOM     22  C   UNL A   1      41.682  23.604  28.099  1.00  0.00     0.010 A 
ATOM     23  C   UNL A   1      41.160  24.729  27.436  1.00  0.00    -0.014 A 
BRANCH  23  24
ATOM     24  C   UNL A   1      41.726  26.081  27.673  1.00  0.00     0.031 A 
ATOM     25  C   UNL A   1      43.074  26.440  27.112  1.00  0.00     0.074 A 
ATOM     26  C   UNL A   1      41.023  26.997  28.362  1.00  0.00     0.049 A 
ATOM     27  N   UNL A   1      43.781  27.528  27.286  1.00  0.00    -0.248 NA
ATOM     28  C   UNL A   1      43.713  25.441  26.240  1.00  0.00     0.031 C 
ATOM     29  C   UNL A   1      39.689  26.792  28.925  1.00  0.00     0.029 A 
ATOM     30  N   UNL A   1      41.333  28.291  28.700  1.00  0.00    -0.354 N 
ATOM     31  C   UNL A   1      44.961  27.329  26.583  1.00  0.00     0.074 A 
ATOM     32  C   UNL A   1      44.877  26.018  25.974  1.00  0.00     0.031 C 
ATOM     33  C   UNL A   1      39.285  27.926  29.518  1.00  0.00     0.029 A 
ATOM     34  C   UNL A   1      40.349  28.921  29.421  1.00  0.00     0.049 A 
ATOM     35  H   UNL A   1      42.180  28.726  28.449  1.00  0.00     0.167 HD
ATOM     36  C   UNL A   1      46.021  28.163  26.461  1.00  0.00     0.037 A 
ATOM     37  C   UNL A   1      40.318  30.154  29.961  1.00  0.00     0.037 A 
ATOM     38  C   UNL A   1      46.093  29.483  27.029  1.00  0.00     0.049 A 
ATOM     39  C   UNL A   1      41.508  31.058  29.813  1.00  0.00     0.074 A 
ATOM     40  C   UNL A   1      47.125  30.403  26.953  1.00  0.00     0.029 A 
ATOM     41  N   UNL A   1      45.082  30.078  27.769  1.00  0.00    -0.354 N 
ATOM     42  N   UNL A   1      42.637  30.842  29.185  1.00  0.00    -0.248 NA
ATOM     43  C   UNL A   1      41.424  32.375  30.463  1.00  0.00     0.031 C 
ATOM     44  C   UNL A   1      46.745  31.548  27.662  1.00  0.00     0.029 A 
ATOM     45  C   UNL A   1      45.467  31.349  28.158  1.00  0.00     0.049 A 
ATOM     46  H   UNL A   1      44.218  29.658  27.985  1.00  0.00     0.167 HD
ATOM     47  C   UNL A   1      43.398  31.989  29.364  1.00  0.00     0.074 A 
ATOM     48  C   UNL A   1      42.594  32.909  30.140  1.00  0.00     0.031 C 
ATOM     49  C   UNL A   1      44.655  32.250  28.932  1.00  0.00     0.037 A 
BRANCH  36  50
ATOM     50  C   UNL A   1      47.208  27.660  25.699  1.00  0.00     0.064 A 
ATOM     51  C   UNL A   1      47.302  27.800  24.308  1.00  0.00     0.173 A 
ATOM     52  C   UNL A   1      48.280  27.062  26.378  1.00  0.00     0.173 A 
ATOM     53  F   UNL A   1      46.293  28.350  23.616  1.00  0.00    -0.203 F 
ATOM     54  C   UNL A   1      48.423  27.345  23.620  1.00  0.00     0.198 A 
ATOM     55  C   UNL A   1      49.407  26.624  25.690  1.00  0.00     0.198 A 
ATOM     56  F   UNL A   1      48.234  26.908  27.709  1.00  0.00    -0.203 F 
ATOM     57  F   UNL A   1      48.482  27.459  22.286  1.00  0.00    -0.200 F 
ATOM     58  C   UNL A   1      49.477  26.762  24.311  1.00  0.00     0.200 A 
ATOM     59  F   UNL A   1      50.426  26.066  26.359  1.00  0.00    -0.200 F 
ATOM     60  F   UNL A   1      50.557  26.328  23.647  1.00  0.00    -0.200 F 
ENDBRANCH  36  50
BRANCH  37  61
ATOM     61  C   UNL A   1      39.118  30.596  30.711  1.00  0.00     0.064 A 
ATOM     62  C   UNL A   1      39.003  30.359  32.087  1.00  0.00     0.173 A 
ATOM     63  C   UNL A   1      38.068  31.270  30.070  1.00  0.00     0.173 A 
ATOM     64  F   UNL A   1      39.972  29.696  32.734  1.00  0.00    -0.203 F 
ATOM     65  C   UNL A   1      37.878  30.776  32.794  1.00  0.00     0.198 A 
ATOM     66  C   UNL A   1      36.954  31.703  30.782  1.00  0.00     0.198 A 
ATOM     67  F   UNL A   1      38.134  31.515  28.753  1.00  0.00    -0.203 F 
ATOM     68  F   UNL A   1      37.778  30.512  34.104  1.00  0.00    -0.200 F 
ATOM     69  C   UNL A   1      36.858  31.454  32.143  1.00  0.00     0.200 A 
ATOM     70  F   UNL A   1      35.973  32.363  30.151  1.00  0.00    -0.200 F 
ATOM     71  F   UNL A   1      35.779  31.858  32.826  1.00  0.00    -0.200 F 
ENDBRANCH  37  61
BRANCH  49  72
ATOM     72  C   UNL A   1      45.233  33.584  29.286  1.00  0.00     0.064 A 
ATOM     73  C   UNL A   1      45.986  33.761  30.456  1.00  0.00     0.173 A 
ATOM     74  C   UNL A   1      45.063  34.685  28.435  1.00  0.00     0.173 A 
ATOM     75  F   UNL A   1      46.161  32.738  31.307  1.00  0.00    -0.203 F 
ATOM     76  C   UNL A   1      46.538  34.999  30.769  1.00  0.00     0.198 A 
ATOM     77  C   UNL A   1      45.629  35.919  28.744  1.00  0.00     0.198 A 
ATOM     78  F   UNL A   1      44.351  34.562  27.306  1.00  0.00    -0.203 F 
ATOM     79  F   UNL A   1      47.228  35.156  31.906  1.00  0.00    -0.200 F 
ATOM     80  C   UNL A   1      46.362  36.076  29.911  1.00  0.00     0.200 A 
ATOM     81  F   UNL A   1      45.463  36.957  27.913  1.00  0.00    -0.200 F 
ATOM     82  F   UNL A   1      46.895  37.268  30.214  1.00  0.00    -0.200 F 
ENDBRANCH  49  72
ENDBRANCH  23  24
ENDBRANCH  16  18
ENDBRANCH  15  16
ENDBRANCH   1  15
TORSDOF 11
ENDMDL
MODEL 3
REMARK VINA RESULT:     -11.2      5.346     10.366
REMARK SMILES C=C1C=C[C@H](C(=O)OCCOC(=O)c2ccc(-c3c4nc(c(-c5c(F)c(F)c(F)c(F)c5F)c5ccc([nH]5)c(-c5c(F)c(F)c(F)c(F)c5F)c5nc(c(-c6c(F)c(F)c(F)c(F)c6F)c6ccc3[nH]6)C=C5)C=C4)cc2)C(=S)N1
REMARK SMILES IDX 10 1 9 2 8 3 6 4 7 5 5 6 1 7 2 8 3 9 79 10 4 11 77 12 78 14
REMARK SMILES IDX 11 15 12 16 13 17 14 18 15 19 76 20 16 21 75 22 17 23 18 24
REMARK SMILES IDX 19 25 69 26 20 27 74 28 68 29 70 30 21 31 73 32 67 33 66 34
REMARK SMILES IDX 22 36 54 37 34 38 53 39 35 40 38 41 52 42 71 43 36 44 37 45
REMARK SMILES IDX 51 47 72 48 39 49 23 50 24 51 32 52 25 53 26 54 30 55 33 56
REMARK SMILES IDX 27 57 28 58 31 59 29 60 55 61 56 62 64 63 57 64 58 65 62 66
REMARK SMILES IDX 65 67 59 68 60 69 63 70 61 71 40 72 41 73 49 74 42 75 43 76
REMARK SMILES IDX 47 77 50 78 44 79 45 80 48 81 46 82
REMARK H PARENT 79 13 70 35 38 46
REMARK Flexibility Score: inf
ROOT
ATOM      1  C   UNL A   1      31.779  29.995  26.103  1.00  0.00     0.275 C 
ENDROOT
BRANCH   1   2
ATOM      2  C   UNL A   1      31.623  28.568  26.622  1.00  0.00     0.274 C 
BRANCH   2   3
ATOM      3  O   UNL A   1      32.071  27.618  25.634  1.00  0.00    -0.461 OA
BRANCH   3   4
ATOM      4  C   UNL A   1      31.331  26.490  25.465  1.00  0.00     0.319 C 
ATOM      5  O   UNL A   1      31.113  25.680  26.360  1.00  0.00    -0.251 OA
BRANCH   4   6
ATOM      6  C   UNL A   1      30.885  26.308  24.007  1.00  0.00     0.180 C 
ATOM      7  C   UNL A   1      29.807  29.897  21.993  1.00  0.00     0.037 C 
ATOM      8  C   UNL A   1      30.105  28.717  22.548  1.00  0.00     0.031 C 
ATOM      9  C   UNL A   1      29.116  27.918  23.232  1.00  0.00     0.022 C 
ATOM     10  N   UNL A   1      31.370  28.202  22.441  1.00  0.00    -0.350 N 
ATOM     11  C   UNL A   1      29.453  26.796  23.884  1.00  0.00    -0.003 C 
ATOM     12  C   UNL A   1      31.784  27.007  22.978  1.00  0.00     0.098 C 
ATOM     13  H   UNL A   1      32.035  28.728  21.939  1.00  0.00     0.167 HD
ATOM     14  S   UNL A   1      33.234  26.350  22.440  1.00  0.00    -0.064 S 
ENDBRANCH   4   6
ENDBRANCH   3   4
ENDBRANCH   2   3
ENDBRANCH   1   2
BRANCH   1  15
ATOM     15  O   UNL A   1      33.164  30.380  26.151  1.00  0.00    -0.458 OA
BRANCH  15  16
ATOM     16  C   UNL A   1      33.478  31.345  27.041  1.00  0.00     0.338 C 
ATOM     17  O   UNL A   1      32.823  32.320  27.364  1.00  0.00    -0.246 OA
BRANCH  16  18
ATOM     18  C   UNL A   1      34.773  31.018  27.649  1.00  0.00     0.060 A 
ATOM     19  C   UNL A   1      35.039  29.688  27.971  1.00  0.00     0.016 A 
ATOM     20  C   UNL A   1      35.667  32.029  27.998  1.00  0.00     0.016 A 
ATOM     21  C   UNL A   1      36.179  29.365  28.700  1.00  0.00     0.010 A 
ATOM     22  C   UNL A   1      36.838  31.697  28.687  1.00  0.00     0.010 A 
ATOM     23  C   UNL A   1      37.087  30.367  29.071  1.00  0.00    -0.014 A 
BRANCH  23  24
ATOM     24  C   UNL A   1      38.264  30.025  29.909  1.00  0.00     0.031 A 
ATOM     25  C   UNL A   1      39.352  29.150  29.353  1.00  0.00     0.074 A 
ATOM     26  C   UNL A   1      38.375  30.522  31.154  1.00  0.00     0.049 A 
ATOM     27  N   UNL A   1      40.409  28.660  29.952  1.00  0.00    -0.248 NA
ATOM     28  C   UNL A   1      39.237  28.773  27.935  1.00  0.00     0.031 C 
ATOM     29  C   UNL A   1      37.412  31.414  31.798  1.00  0.00     0.029 A 
ATOM     30  N   UNL A   1      39.356  30.351  32.098  1.00  0.00    -0.354 N 
ATOM     31  C   UNL A   1      41.058  27.887  29.000  1.00  0.00     0.074 A 
ATOM     32  C   UNL A   1      40.283  27.973  27.781  1.00  0.00     0.031 C 
ATOM     33  C   UNL A   1      37.860  31.731  33.023  1.00  0.00     0.029 A 
ATOM     34  C   UNL A   1      39.115  31.027  33.269  1.00  0.00     0.049 A 
ATOM     35  H   UNL A   1      40.157  29.797  31.951  1.00  0.00     0.167 HD
ATOM     36  C   UNL A   1      42.197  27.166  29.134  1.00  0.00     0.037 A 
ATOM     37  C   UNL A   1      39.815  31.056  34.418  1.00  0.00     0.037 A 
ATOM     38  C   UNL A   1      42.995  27.110  30.330  1.00  0.00     0.049 A 
ATOM     39  C   UNL A   1      41.074  30.246  34.541  1.00  0.00     0.074 A 
ATOM     40  C   UNL A   1      44.168  26.410  30.556  1.00  0.00     0.029 A 
ATOM     41  N   UNL A   1      42.706  27.794  31.501  1.00  0.00    -0.354 N 
ATOM     42  N   UNL A   1      41.655  29.481  33.650  1.00  0.00    -0.248 NA
ATOM     43  C   UNL A   1      41.767  30.291  35.837  1.00  0.00     0.031 C 
ATOM     44  C   UNL A   1      44.580  26.658  31.871  1.00  0.00     0.029 A 
ATOM     45  C   UNL A   1      43.676  27.530  32.454  1.00  0.00     0.049 A 
ATOM     46  H   UNL A   1      41.927  28.381  31.635  1.00  0.00     0.167 HD
ATOM     47  C   UNL A   1      42.776  28.954  34.273  1.00  0.00     0.074 A 
ATOM     48  C   UNL A   1      42.810  29.503  35.612  1.00  0.00     0.031 C 
ATOM     49  C   UNL A   1      43.691  28.084  33.781  1.00  0.00     0.037 A 
BRANCH  36  50
ATOM     50  C   UNL A   1      42.639  26.354  27.956  1.00  0.00     0.064 A 
ATOM     51  C   UNL A   1      42.162  25.055  27.738  1.00  0.00     0.173 A 
ATOM     52  C   UNL A   1      43.525  26.901  27.015  1.00  0.00     0.173 A 
ATOM     53  F   UNL A   1      41.327  24.486  28.620  1.00  0.00    -0.203 F 
ATOM     54  C   UNL A   1      42.568  24.325  26.625  1.00  0.00     0.198 A 
ATOM     55  C   UNL A   1      43.915  26.174  25.894  1.00  0.00     0.198 A 
ATOM     56  F   UNL A   1      44.006  28.141  27.182  1.00  0.00    -0.203 F 
ATOM     57  F   UNL A   1      42.125  23.072  26.449  1.00  0.00    -0.200 F 
ATOM     58  C   UNL A   1      43.439  24.886  25.701  1.00  0.00     0.200 A 
ATOM     59  F   UNL A   1      44.752  26.720  25.001  1.00  0.00    -0.200 F 
ATOM     60  F   UNL A   1      43.826  24.182  24.629  1.00  0.00    -0.200 F 
ENDBRANCH  36  50
BRANCH  37  61
ATOM     61  C   UNL A   1      39.326  31.874  35.555  1.00  0.00     0.064 A 
ATOM     62  C   UNL A   1      39.743  33.202  35.715  1.00  0.00     0.173 A 
ATOM     63  C   UNL A   1      38.429  31.348  36.495  1.00  0.00     0.173 A 
ATOM     64  F   UNL A   1      40.619  33.737  34.853  1.00  0.00    -0.203 F 
ATOM     65  C   UNL A   1      39.282  33.973  36.779  1.00  0.00     0.198 A 
ATOM     66  C   UNL A   1      37.954  32.126  37.547  1.00  0.00     0.198 A 
ATOM     67  F   UNL A   1      38.006  30.080  36.382  1.00  0.00    -0.203 F 
ATOM     68  F   UNL A   1      39.718  35.231  36.929  1.00  0.00    -0.200 F 
ATOM     69  C   UNL A   1      38.384  33.438  37.691  1.00  0.00     0.200 A 
ATOM     70  F   UNL A   1      37.082  31.608  38.421  1.00  0.00    -0.200 F 
ATOM     71  F   UNL A   1      37.938  34.182  38.711  1.00  0.00    -0.200 F 
ENDBRANCH  37  61
BRANCH  49  72
ATOM     72  C   UNL A   1      44.804  27.677  34.696  1.00  0.00     0.064 A 
ATOM     73  C   UNL A   1      44.695  26.540  35.508  1.00  0.00     0.173 A 
ATOM     74  C   UNL A   1      45.999  28.409  34.736  1.00  0.00     0.173 A 
ATOM     75  F   UNL A   1      43.563  25.819  35.513  1.00  0.00    -0.203 F 
ATOM     76  C   UNL A   1      45.742  26.155  36.341  1.00  0.00     0.198 A 
ATOM     77  C   UNL A   1      47.049  28.013  35.559  1.00  0.00     0.198 A 
ATOM     78  F   UNL A   1      46.147  29.503  33.975  1.00  0.00    -0.203 F 
ATOM     79  F   UNL A   1      45.608  25.083  37.133  1.00  0.00    -0.200 F 
ATOM     80  C   UNL A   1      46.919  26.890  36.363  1.00  0.00     0.200 A 
ATOM     81  F   UNL A   1      48.187  28.720  35.576  1.00  0.00    -0.200 F 
ATOM     82  F   UNL A   1      47.926  26.518  37.165  1.00  0.00    -0.200 F 
ENDBRANCH  49  72
ENDBRANCH  23  24
ENDBRANCH  16  18
ENDBRANCH  15  16
ENDBRANCH   1  15
TORSDOF 11
ENDMDL
