MODEL 1
REMARK VINA RESULT:     -13.3      0.000      0.000
REMARK SMILES Cc1nn(C)c(C)c1[C@@H](C(=O)OCCOC(=O)c1ccc(-c2c3nc(c(-c4c(F)c(F)c(F)c(F)c4F)c4ccc([nH]4)c(-c4c(F)c(F)c(F)c(F)c4F)c4nc(c(-c5c(F)c(F)c(F)c(F)c5F)c5ccc2[nH]5)C=C4)C=C3)cc1)[NH+]1CCN(c2ccccc2F)CC1
REMARK SMILES IDX 13 1 12 2 10 3 11 4 9 5 8 6 1 7 2 8 3 9 4 10 6 11 5 12 7 13
REMARK SMILES IDX 81 14 82 15 93 16 83 18 92 19 84 20 85 21 86 22 90 23 87 24
REMARK SMILES IDX 89 25 91 26 88 27 14 28 15 29 16 30 17 31 18 32 19 33 80 34
REMARK SMILES IDX 20 35 79 36 21 37 22 38 23 39 73 40 24 41 78 42 72 43 74 44
REMARK SMILES IDX 25 45 77 46 71 47 70 48 26 50 58 51 38 52 57 53 39 54 42 55
REMARK SMILES IDX 56 56 75 57 40 58 41 59 55 61 76 62 43 63 27 64 28 65 36 66
REMARK SMILES IDX 29 67 30 68 34 69 37 70 31 71 32 72 35 73 33 74 59 75 60 76
REMARK SMILES IDX 68 77 61 78 62 79 66 80 69 81 63 82 64 83 67 84 65 85 44 86
REMARK SMILES IDX 45 87 53 88 46 89 47 90 51 91 54 92 48 93 49 94 52 95 50 96
REMARK H PARENT 81 17 74 49 42 60
REMARK Flexibility Score: inf
ROOT
ATOM      1  C   UNL A   1      31.789  28.150  26.674  1.00  0.00     0.274 C 
ENDROOT
BRANCH   1   2
ATOM      2  O   UNL A   1      32.551  26.936  26.502  1.00  0.00    -0.457 OA
BRANCH   2   3
ATOM      3  C   UNL A   1      31.823  25.783  26.420  1.00  0.00     0.370 C 
ATOM      4  O   UNL A   1      30.629  25.723  26.711  1.00  0.00    -0.245 OA
BRANCH   3   5
ATOM      5  C   UNL A   1      32.663  24.538  26.063  1.00  0.00     0.330 C 
BRANCH   5   6
ATOM      6  C   UNL A   1      33.147  24.395  24.642  1.00  0.00     0.065 A 
ATOM      7  C   UNL A   1      35.702  23.942  25.135  1.00  0.00     0.069 C 
ATOM      8  C   UNL A   1      34.499  24.098  24.275  1.00  0.00     0.069 A 
ATOM      9  N   UNL A   1      34.632  23.925  22.960  1.00  0.00    -0.178 NA
ATOM     10  N   UNL A   1      33.407  24.139  22.467  1.00  0.00    -0.272 N 
ATOM     11  C   UNL A   1      32.496  24.536  23.416  1.00  0.00     0.045 A 
ATOM     12  C   UNL A   1      33.206  23.909  21.054  1.00  0.00     0.174 C 
ATOM     13  C   UNL A   1      31.131  25.002  23.052  1.00  0.00     0.067 C 
ENDBRANCH   5   6
BRANCH   5  14
ATOM     14  N   UNL A   1      32.078  23.296  26.619  1.00  0.00    -0.316 N 
ATOM     15  C   UNL A   1      31.248  22.465  25.750  1.00  0.00     0.284 C 
ATOM     16  C   UNL A   1      32.941  22.479  27.485  1.00  0.00     0.284 C 
ATOM     17  H   UNL A   1      31.409  23.760  27.235  1.00  0.00     0.349 HD
ATOM     18  C   UNL A   1      31.915  21.260  25.062  1.00  0.00     0.178 C 
ATOM     19  C   UNL A   1      33.676  21.296  26.809  1.00  0.00     0.178 C 
ATOM     20  N   UNL A   1      32.749  20.502  25.991  1.00  0.00    -0.358 N 
BRANCH  20  21
ATOM     21  C   UNL A   1      33.254  19.291  25.506  1.00  0.00     0.073 A 
ATOM     22  C   UNL A   1      32.628  18.066  25.786  1.00  0.00     0.029 A 
ATOM     23  C   UNL A   1      34.427  19.259  24.735  1.00  0.00     0.146 A 
ATOM     24  C   UNL A   1      33.178  16.856  25.350  1.00  0.00     0.002 A 
ATOM     25  C   UNL A   1      34.983  18.058  24.301  1.00  0.00     0.041 A 
ATOM     26  F   UNL A   1      35.057  20.403  24.424  1.00  0.00    -0.205 F 
ATOM     27  C   UNL A   1      34.361  16.851  24.616  1.00  0.00     0.003 A 
ENDBRANCH  20  21
ENDBRANCH   5  14
ENDBRANCH   3   5
ENDBRANCH   2   3
ENDBRANCH   1   2
BRANCH   1  28
ATOM     28  C   UNL A   1      31.991  29.119  25.511  1.00  0.00     0.275 C 
BRANCH  28  29
ATOM     29  O   UNL A   1      33.194  29.881  25.709  1.00  0.00    -0.458 OA
BRANCH  29  30
ATOM     30  C   UNL A   1      33.161  30.800  26.697  1.00  0.00     0.338 C 
ATOM     31  O   UNL A   1      32.242  31.570  26.947  1.00  0.00    -0.246 OA
BRANCH  30  32
ATOM     32  C   UNL A   1      34.394  30.746  27.517  1.00  0.00     0.060 A 
ATOM     33  C   UNL A   1      35.183  31.877  27.741  1.00  0.00     0.016 A 
ATOM     34  C   UNL A   1      34.832  29.504  27.982  1.00  0.00     0.016 A 
ATOM     35  C   UNL A   1      36.442  31.752  28.333  1.00  0.00     0.010 A 
ATOM     36  C   UNL A   1      36.046  29.400  28.667  1.00  0.00     0.010 A 
ATOM     37  C   UNL A   1      36.879  30.519  28.833  1.00  0.00    -0.014 A 
BRANCH  37  38
ATOM     38  C   UNL A   1      38.175  30.368  29.553  1.00  0.00     0.031 A 
ATOM     39  C   UNL A   1      39.263  29.505  28.974  1.00  0.00     0.074 A 
ATOM     40  C   UNL A   1      38.358  30.932  30.763  1.00  0.00     0.049 A 
ATOM     41  N   UNL A   1      40.270  28.924  29.576  1.00  0.00    -0.248 NA
ATOM     42  C   UNL A   1      39.199  29.249  27.527  1.00  0.00     0.031 C 
ATOM     43  C   UNL A   1      37.435  31.854  31.424  1.00  0.00     0.029 A 
ATOM     44  N   UNL A   1      39.383  30.785  31.668  1.00  0.00    -0.354 N 
ATOM     45  C   UNL A   1      40.918  28.181  28.597  1.00  0.00     0.074 A 
ATOM     46  C   UNL A   1      40.204  28.399  27.357  1.00  0.00     0.031 C 
ATOM     47  C   UNL A   1      37.934  32.197  32.620  1.00  0.00     0.029 A 
ATOM     48  C   UNL A   1      39.150  31.430  32.857  1.00  0.00     0.049 A 
ATOM     49  H   UNL A   1      40.200  30.269  31.481  1.00  0.00     0.167 HD
ATOM     50  C   UNL A   1      42.002  27.380  28.735  1.00  0.00     0.037 A 
ATOM     51  C   UNL A   1      39.790  31.356  34.040  1.00  0.00     0.037 A 
ATOM     52  C   UNL A   1      42.741  27.219  29.962  1.00  0.00     0.049 A 
ATOM     53  C   UNL A   1      40.954  30.423  34.190  1.00  0.00     0.074 A 
ATOM     54  C   UNL A   1      43.849  26.427  30.209  1.00  0.00     0.029 A 
ATOM     55  N   UNL A   1      42.457  27.885  31.144  1.00  0.00    -0.354 N 
ATOM     56  N   UNL A   1      41.491  29.625  33.301  1.00  0.00    -0.248 NA
ATOM     57  C   UNL A   1      41.581  30.355  35.517  1.00  0.00     0.031 C 
ATOM     58  C   UNL A   1      44.222  26.598  31.548  1.00  0.00     0.029 A 
ATOM     59  C   UNL A   1      43.367  27.523  32.123  1.00  0.00     0.049 A 
ATOM     60  H   UNL A   1      41.717  28.524  31.269  1.00  0.00     0.167 HD
ATOM     61  C   UNL A   1      42.524  28.970  33.952  1.00  0.00     0.074 A 
ATOM     62  C   UNL A   1      42.546  29.469  35.312  1.00  0.00     0.031 C 
ATOM     63  C   UNL A   1      43.377  28.036  33.468  1.00  0.00     0.037 A 
BRANCH  50  64
ATOM     64  C   UNL A   1      42.444  26.579  27.546  1.00  0.00     0.064 A 
ATOM     65  C   UNL A   1      43.463  27.017  26.690  1.00  0.00     0.173 A 
ATOM     66  C   UNL A   1      41.881  25.314  27.304  1.00  0.00     0.173 A 
ATOM     67  F   UNL A   1      44.025  28.222  26.872  1.00  0.00    -0.203 F 
ATOM     68  C   UNL A   1      43.897  26.225  25.630  1.00  0.00     0.198 A 
ATOM     69  C   UNL A   1      42.335  24.515  26.258  1.00  0.00     0.198 A 
ATOM     70  F   UNL A   1      40.907  24.845  28.097  1.00  0.00    -0.203 F 
ATOM     71  F   UNL A   1      44.856  26.674  24.808  1.00  0.00    -0.200 F 
ATOM     72  C   UNL A   1      43.341  24.971  25.421  1.00  0.00     0.200 A 
ATOM     73  F   UNL A   1      41.803  23.299  26.067  1.00  0.00    -0.200 F 
ATOM     74  F   UNL A   1      43.771  24.204  24.410  1.00  0.00    -0.200 F 
ENDBRANCH  50  64
BRANCH  51  75
ATOM     75  C   UNL A   1      39.283  32.146  35.190  1.00  0.00     0.064 A 
ATOM     76  C   UNL A   1      38.465  31.555  36.161  1.00  0.00     0.173 A 
ATOM     77  C   UNL A   1      39.644  33.490  35.365  1.00  0.00     0.173 A 
ATOM     78  F   UNL A   1      38.072  30.281  36.021  1.00  0.00    -0.203 F 
ATOM     79  C   UNL A   1      38.031  32.279  37.270  1.00  0.00     0.198 A 
ATOM     80  C   UNL A   1      39.234  34.204  36.489  1.00  0.00     0.198 A 
ATOM     81  F   UNL A   1      40.426  34.099  34.462  1.00  0.00    -0.203 F 
ATOM     82  F   UNL A   1      37.231  31.700  38.174  1.00  0.00    -0.200 F 
ATOM     83  C   UNL A   1      38.427  33.598  37.439  1.00  0.00     0.200 A 
ATOM     84  F   UNL A   1      39.632  35.473  36.656  1.00  0.00    -0.200 F 
ATOM     85  F   UNL A   1      38.026  34.287  38.516  1.00  0.00    -0.200 F 
ENDBRANCH  51  75
BRANCH  63  86
ATOM     86  C   UNL A   1      44.430  27.527  34.402  1.00  0.00     0.064 A 
ATOM     87  C   UNL A   1      45.649  28.199  34.565  1.00  0.00     0.173 A 
ATOM     88  C   UNL A   1      44.202  26.373  35.165  1.00  0.00     0.173 A 
ATOM     89  F   UNL A   1      45.917  29.298  33.843  1.00  0.00    -0.203 F 
ATOM     90  C   UNL A   1      46.612  27.722  35.450  1.00  0.00     0.198 A 
ATOM     91  C   UNL A   1      45.158  25.910  36.063  1.00  0.00     0.198 A 
ATOM     92  F   UNL A   1      43.048  25.699  35.042  1.00  0.00    -0.203 F 
ATOM     93  F   UNL A   1      47.785  28.359  35.568  1.00  0.00    -0.200 F 
ATOM     94  C   UNL A   1      46.364  26.583  36.202  1.00  0.00     0.200 A 
ATOM     95  F   UNL A   1      44.916  24.812  36.791  1.00  0.00    -0.200 F 
ATOM     96  F   UNL A   1      47.292  26.126  37.055  1.00  0.00    -0.200 F 
ENDBRANCH  63  86
ENDBRANCH  37  38
ENDBRANCH  30  32
ENDBRANCH  29  30
ENDBRANCH  28  29
ENDBRANCH   1  28
TORSDOF 14
ENDMDL
MODEL 2
REMARK VINA RESULT:     -13.1      0.561      1.658
REMARK SMILES Cc1nn(C)c(C)c1[C@@H](C(=O)OCCOC(=O)c1ccc(-c2c3nc(c(-c4c(F)c(F)c(F)c(F)c4F)c4ccc([nH]4)c(-c4c(F)c(F)c(F)c(F)c4F)c4nc(c(-c5c(F)c(F)c(F)c(F)c5F)c5ccc2[nH]5)C=C4)C=C3)cc1)[NH+]1CCN(c2ccccc2F)CC1
REMARK SMILES IDX 13 1 12 2 10 3 11 4 9 5 8 6 1 7 2 8 3 9 4 10 6 11 5 12 7 13
REMARK SMILES IDX 81 14 82 15 93 16 83 18 92 19 84 20 85 21 86 22 90 23 87 24
REMARK SMILES IDX 89 25 91 26 88 27 14 28 15 29 16 30 17 31 18 32 19 33 80 34
REMARK SMILES IDX 20 35 79 36 21 37 22 38 23 39 73 40 24 41 78 42 72 43 74 44
REMARK SMILES IDX 25 45 77 46 71 47 70 48 26 50 58 51 38 52 57 53 39 54 42 55
REMARK SMILES IDX 56 56 75 57 40 58 41 59 55 61 76 62 43 63 27 64 28 65 36 66
REMARK SMILES IDX 29 67 30 68 34 69 37 70 31 71 32 72 35 73 33 74 59 75 60 76
REMARK SMILES IDX 68 77 61 78 62 79 66 80 69 81 63 82 64 83 67 84 65 85 44 86
REMARK SMILES IDX 45 87 53 88 46 89 47 90 51 91 54 92 48 93 49 94 52 95 50 96
REMARK H PARENT 81 17 74 49 42 60
REMARK Flexibility Score: inf
ROOT
ATOM      1  C   UNL A   1      31.723  28.491  26.420  1.00  0.00     0.274 C 
ENDROOT
BRANCH   1   2
ATOM      2  O   UNL A   1      32.437  27.243  26.285  1.00  0.00    -0.457 OA
BRANCH   2   3
ATOM      3  C   UNL A   1      31.665  26.117  26.253  1.00  0.00     0.370 C 
ATOM      4  O   UNL A   1      30.581  26.032  26.828  1.00  0.00    -0.245 OA
BRANCH   3   5
ATOM      5  C   UNL A   1      32.338  24.919  25.548  1.00  0.00     0.330 C 
BRANCH   5   6
ATOM      6  C   UNL A   1      32.759  25.091  24.110  1.00  0.00     0.065 A 
ATOM      7  C   UNL A   1      35.184  24.059  24.282  1.00  0.00     0.069 C 
ATOM      8  C   UNL A   1      34.021  24.666  23.582  1.00  0.00     0.069 A 
ATOM      9  N   UNL A   1      34.096  24.845  22.263  1.00  0.00    -0.178 NA
ATOM     10  N   UNL A   1      32.927  25.409  21.934  1.00  0.00    -0.272 N 
ATOM     11  C   UNL A   1      32.129  25.686  23.016  1.00  0.00     0.045 A 
ATOM     12  C   UNL A   1      32.661  25.621  20.530  1.00  0.00     0.174 C 
ATOM     13  C   UNL A   1      30.875  26.476  22.889  1.00  0.00     0.067 C 
ENDBRANCH   5   6
BRANCH   5  14
ATOM     14  N   UNL A   1      31.622  23.649  25.808  1.00  0.00    -0.316 N 
ATOM     15  C   UNL A   1      31.170  22.855  24.668  1.00  0.00     0.284 C 
ATOM     16  C   UNL A   1      32.143  22.797  26.888  1.00  0.00     0.284 C 
ATOM     17  H   UNL A   1      30.769  24.079  26.167  1.00  0.00     0.349 HD
ATOM     18  C   UNL A   1      32.063  21.688  24.210  1.00  0.00     0.178 C 
ATOM     19  C   UNL A   1      33.095  21.652  26.466  1.00  0.00     0.178 C 
ATOM     20  N   UNL A   1      32.534  20.892  25.340  1.00  0.00    -0.358 N 
BRANCH  20  21
ATOM     21  C   UNL A   1      33.204  19.708  25.014  1.00  0.00     0.073 A 
ATOM     22  C   UNL A   1      32.533  18.478  24.938  1.00  0.00     0.029 A 
ATOM     23  C   UNL A   1      34.587  19.709  24.773  1.00  0.00     0.146 A 
ATOM     24  C   UNL A   1      33.225  17.291  24.675  1.00  0.00     0.002 A 
ATOM     25  C   UNL A   1      35.284  18.531  24.515  1.00  0.00     0.041 A 
ATOM     26  F   UNL A   1      35.275  20.862  24.817  1.00  0.00    -0.205 F 
ATOM     27  C   UNL A   1      34.602  17.316  24.473  1.00  0.00     0.003 A 
ENDBRANCH  20  21
ENDBRANCH   5  14
ENDBRANCH   3   5
ENDBRANCH   2   3
ENDBRANCH   1   2
BRANCH   1  28
ATOM     28  C   UNL A   1      32.175  29.520  25.386  1.00  0.00     0.275 C 
BRANCH  28  29
ATOM     29  O   UNL A   1      33.439  30.085  25.774  1.00  0.00    -0.458 OA
BRANCH  29  30
ATOM     30  C   UNL A   1      33.412  30.949  26.811  1.00  0.00     0.338 C 
ATOM     31  O   UNL A   1      32.496  31.705  27.107  1.00  0.00    -0.246 OA
BRANCH  30  32
ATOM     32  C   UNL A   1      34.649  30.847  27.621  1.00  0.00     0.060 A 
ATOM     33  C   UNL A   1      35.461  31.955  27.871  1.00  0.00     0.016 A 
ATOM     34  C   UNL A   1      35.065  29.584  28.049  1.00  0.00     0.016 A 
ATOM     35  C   UNL A   1      36.721  31.789  28.453  1.00  0.00     0.010 A 
ATOM     36  C   UNL A   1      36.279  29.437  28.724  1.00  0.00     0.010 A 
ATOM     37  C   UNL A   1      37.135  30.535  28.916  1.00  0.00    -0.014 A 
BRANCH  37  38
ATOM     38  C   UNL A   1      38.432  30.338  29.623  1.00  0.00     0.031 A 
ATOM     39  C   UNL A   1      39.487  29.443  29.031  1.00  0.00     0.074 A 
ATOM     40  C   UNL A   1      38.645  30.890  30.833  1.00  0.00     0.049 A 
ATOM     41  N   UNL A   1      40.479  28.826  29.621  1.00  0.00    -0.248 NA
ATOM     42  C   UNL A   1      39.401  29.196  27.583  1.00  0.00     0.031 C 
ATOM     43  C   UNL A   1      37.758  31.839  31.507  1.00  0.00     0.029 A 
ATOM     44  N   UNL A   1      39.672  30.706  31.729  1.00  0.00    -0.354 N 
ATOM     45  C   UNL A   1      41.095  28.067  28.633  1.00  0.00     0.074 A 
ATOM     46  C   UNL A   1      40.377  28.314  27.400  1.00  0.00     0.031 C 
ATOM     47  C   UNL A   1      38.278  32.160  32.700  1.00  0.00     0.029 A 
ATOM     48  C   UNL A   1      39.471  31.353  32.923  1.00  0.00     0.049 A 
ATOM     49  H   UNL A   1      40.470  30.164  31.533  1.00  0.00     0.167 HD
ATOM     50  C   UNL A   1      42.153  27.231  28.757  1.00  0.00     0.037 A 
ATOM     51  C   UNL A   1      40.119  31.252  34.099  1.00  0.00     0.037 A 
ATOM     52  C   UNL A   1      42.897  27.040  29.978  1.00  0.00     0.049 A 
ATOM     53  C   UNL A   1      41.253  30.281  34.235  1.00  0.00     0.074 A 
ATOM     54  C   UNL A   1      43.981  26.211  30.211  1.00  0.00     0.029 A 
ATOM     55  N   UNL A   1      42.645  27.710  31.165  1.00  0.00    -0.354 N 
ATOM     56  N   UNL A   1      41.756  29.471  33.337  1.00  0.00    -0.248 NA
ATOM     57  C   UNL A   1      41.889  30.187  35.556  1.00  0.00     0.031 C 
ATOM     58  C   UNL A   1      44.371  26.364  31.547  1.00  0.00     0.029 A 
ATOM     59  C   UNL A   1      43.552  27.314  32.134  1.00  0.00     0.049 A 
ATOM     60  H   UNL A   1      41.928  28.372  31.300  1.00  0.00     0.167 HD
ATOM     61  C   UNL A   1      42.773  28.778  33.977  1.00  0.00     0.074 A 
ATOM     62  C   UNL A   1      42.822  29.271  35.338  1.00  0.00     0.031 C 
ATOM     63  C   UNL A   1      43.590  27.820  33.481  1.00  0.00     0.037 A 
BRANCH  50  64
ATOM     64  C   UNL A   1      42.558  26.421  27.561  1.00  0.00     0.064 A 
ATOM     65  C   UNL A   1      43.566  26.842  26.685  1.00  0.00     0.173 A 
ATOM     66  C   UNL A   1      41.970  25.165  27.333  1.00  0.00     0.173 A 
ATOM     67  F   UNL A   1      44.151  28.038  26.853  1.00  0.00    -0.203 F 
ATOM     68  C   UNL A   1      43.966  26.041  25.617  1.00  0.00     0.198 A 
ATOM     69  C   UNL A   1      42.390  24.357  26.280  1.00  0.00     0.198 A 
ATOM     70  F   UNL A   1      41.005  24.713  28.147  1.00  0.00    -0.203 F 
ATOM     71  F   UNL A   1      44.915  26.474  24.775  1.00  0.00    -0.200 F 
ATOM     72  C   UNL A   1      43.385  24.797  25.421  1.00  0.00     0.200 A 
ATOM     73  F   UNL A   1      41.835  23.150  26.101  1.00  0.00    -0.200 F 
ATOM     74  F   UNL A   1      43.783  24.021  24.403  1.00  0.00    -0.200 F 
ENDBRANCH  50  64
BRANCH  51  75
ATOM     75  C   UNL A   1      39.648  32.053  35.257  1.00  0.00     0.064 A 
ATOM     76  C   UNL A   1      40.092  33.366  35.450  1.00  0.00     0.173 A 
ATOM     77  C   UNL A   1      38.710  31.537  36.165  1.00  0.00     0.173 A 
ATOM     78  F   UNL A   1      41.008  33.891  34.623  1.00  0.00    -0.203 F 
ATOM     79  C   UNL A   1      39.611  34.139  36.505  1.00  0.00     0.198 A 
ATOM     80  C   UNL A   1      38.208  32.320  37.202  1.00  0.00     0.198 A 
ATOM     81  F   UNL A   1      38.255  30.284  36.022  1.00  0.00    -0.203 F 
ATOM     82  F   UNL A   1      40.068  35.386  36.682  1.00  0.00    -0.200 F 
ATOM     83  C   UNL A   1      38.661  33.619  37.372  1.00  0.00     0.200 A 
ATOM     84  F   UNL A   1      37.278  31.819  38.027  1.00  0.00    -0.200 F 
ATOM     85  F   UNL A   1      38.183  34.371  38.374  1.00  0.00    -0.200 F 
ENDBRANCH  51  75
BRANCH  63  86
ATOM     86  C   UNL A   1      44.634  27.272  34.403  1.00  0.00     0.064 A 
ATOM     87  C   UNL A   1      44.405  26.120  35.166  1.00  0.00     0.173 A 
ATOM     88  C   UNL A   1      45.889  27.891  34.497  1.00  0.00     0.173 A 
ATOM     89  F   UNL A   1      43.213  25.505  35.120  1.00  0.00    -0.203 F 
ATOM     90  C   UNL A   1      45.392  25.614  36.007  1.00  0.00     0.198 A 
ATOM     91  C   UNL A   1      46.881  27.371  35.324  1.00  0.00     0.198 A 
ATOM     92  F   UNL A   1      46.154  28.995  33.783  1.00  0.00    -0.203 F 
ATOM     93  F   UNL A   1      45.142  24.530  36.755  1.00  0.00    -0.200 F 
ATOM     94  C   UNL A   1      46.630  26.236  36.080  1.00  0.00     0.200 A 
ATOM     95  F   UNL A   1      48.078  27.970  35.391  1.00  0.00    -0.200 F 
ATOM     96  F   UNL A   1      47.580  25.746  36.889  1.00  0.00    -0.200 F 
ENDBRANCH  63  86
ENDBRANCH  37  38
ENDBRANCH  30  32
ENDBRANCH  29  30
ENDBRANCH  28  29
ENDBRANCH   1  28
TORSDOF 14
ENDMDL
MODEL 3
REMARK VINA RESULT:     -13.0      1.467      2.648
REMARK SMILES Cc1nn(C)c(C)c1[C@@H](C(=O)OCCOC(=O)c1ccc(-c2c3nc(c(-c4c(F)c(F)c(F)c(F)c4F)c4ccc([nH]4)c(-c4c(F)c(F)c(F)c(F)c4F)c4nc(c(-c5c(F)c(F)c(F)c(F)c5F)c5ccc2[nH]5)C=C4)C=C3)cc1)[NH+]1CCN(c2ccccc2F)CC1
REMARK SMILES IDX 13 1 12 2 10 3 11 4 9 5 8 6 1 7 2 8 3 9 4 10 6 11 5 12 7 13
REMARK SMILES IDX 81 14 82 15 93 16 83 18 92 19 84 20 85 21 86 22 90 23 87 24
REMARK SMILES IDX 89 25 91 26 88 27 14 28 15 29 16 30 17 31 18 32 19 33 80 34
REMARK SMILES IDX 20 35 79 36 21 37 22 38 23 39 73 40 24 41 78 42 72 43 74 44
REMARK SMILES IDX 25 45 77 46 71 47 70 48 26 50 58 51 38 52 57 53 39 54 42 55
REMARK SMILES IDX 56 56 75 57 40 58 41 59 55 61 76 62 43 63 27 64 28 65 36 66
REMARK SMILES IDX 29 67 30 68 34 69 37 70 31 71 32 72 35 73 33 74 59 75 60 76
REMARK SMILES IDX 68 77 61 78 62 79 66 80 69 81 63 82 64 83 67 84 65 85 44 86
REMARK SMILES IDX 45 87 53 88 46 89 47 90 51 91 54 92 48 93 49 94 52 95 50 96
REMARK H PARENT 81 17 74 49 42 60
REMARK Flexibility Score: inf
ROOT
ATOM      1  C   UNL A   1      31.827  28.524  27.574  1.00  0.00     0.274 C 
ENDROOT
BRANCH   1   2
ATOM      2  O   UNL A   1      32.196  27.271  26.960  1.00  0.00    -0.457 OA
BRANCH   2   3
ATOM      3  C   UNL A   1      31.213  26.644  26.250  1.00  0.00     0.370 C 
ATOM      4  O   UNL A   1      30.226  26.136  26.779  1.00  0.00    -0.245 OA
BRANCH   3   5
ATOM      5  C   UNL A   1      31.519  26.511  24.742  1.00  0.00     0.330 C 
BRANCH   5   6
ATOM      6  C   UNL A   1      30.777  27.411  23.787  1.00  0.00     0.065 A 
ATOM      7  C   UNL A   1      28.381  26.318  23.994  1.00  0.00     0.069 C 
ATOM      8  C   UNL A   1      29.376  27.311  23.508  1.00  0.00     0.069 A 
ATOM      9  N   UNL A   1      28.955  28.292  22.709  1.00  0.00    -0.178 NA
ATOM     10  N   UNL A   1      30.058  28.999  22.436  1.00  0.00    -0.272 N 
ATOM     11  C   UNL A   1      31.203  28.454  22.964  1.00  0.00     0.045 A 
ATOM     12  C   UNL A   1      29.900  30.214  21.670  1.00  0.00     0.174 C 
ATOM     13  C   UNL A   1      32.554  28.977  22.626  1.00  0.00     0.067 C 
ENDBRANCH   5   6
BRANCH   5  14
ATOM     14  N   UNL A   1      31.565  25.095  24.309  1.00  0.00    -0.316 N 
ATOM     15  C   UNL A   1      32.386  24.744  23.152  1.00  0.00     0.284 C 
ATOM     16  C   UNL A   1      31.656  24.075  25.365  1.00  0.00     0.284 C 
ATOM     17  H   UNL A   1      30.608  25.060  23.957  1.00  0.00     0.349 HD
ATOM     18  C   UNL A   1      33.800  24.198  23.417  1.00  0.00     0.178 C 
ATOM     19  C   UNL A   1      33.074  23.550  25.699  1.00  0.00     0.178 C 
ATOM     20  N   UNL A   1      33.801  23.190  24.474  1.00  0.00    -0.358 N 
BRANCH  20  21
ATOM     21  C   UNL A   1      35.007  22.508  24.664  1.00  0.00     0.073 A 
ATOM     22  C   UNL A   1      36.239  23.180  24.687  1.00  0.00     0.029 A 
ATOM     23  C   UNL A   1      35.026  21.112  24.815  1.00  0.00     0.146 A 
ATOM     24  C   UNL A   1      37.443  22.480  24.812  1.00  0.00     0.002 A 
ATOM     25  C   UNL A   1      36.222  20.407  24.936  1.00  0.00     0.041 A 
ATOM     26  F   UNL A   1      33.875  20.421  24.817  1.00  0.00    -0.205 F 
ATOM     27  C   UNL A   1      37.436  21.093  24.927  1.00  0.00     0.003 A 
ENDBRANCH  20  21
ENDBRANCH   5  14
ENDBRANCH   3   5
ENDBRANCH   2   3
ENDBRANCH   1   2
BRANCH   1  28
ATOM     28  C   UNL A   1      31.736  29.655  26.551  1.00  0.00     0.275 C 
BRANCH  28  29
ATOM     29  O   UNL A   1      33.049  30.170  26.269  1.00  0.00    -0.458 OA
BRANCH  29  30
ATOM     30  C   UNL A   1      33.465  31.195  27.043  1.00  0.00     0.338 C 
ATOM     31  O   UNL A   1      32.842  32.219  27.294  1.00  0.00    -0.246 OA
BRANCH  30  32
ATOM     32  C   UNL A   1      34.800  30.918  27.622  1.00  0.00     0.060 A 
ATOM     33  C   UNL A   1      35.210  29.623  27.948  1.00  0.00     0.016 A 
ATOM     34  C   UNL A   1      35.623  31.998  27.950  1.00  0.00     0.016 A 
ATOM     35  C   UNL A   1      36.380  29.418  28.684  1.00  0.00     0.010 A 
ATOM     36  C   UNL A   1      36.843  31.780  28.595  1.00  0.00     0.010 A 
ATOM     37  C   UNL A   1      37.229  30.488  28.990  1.00  0.00    -0.014 A 
BRANCH  37  38
ATOM     38  C   UNL A   1      38.529  30.294  29.692  1.00  0.00     0.031 A 
ATOM     39  C   UNL A   1      39.588  29.411  29.090  1.00  0.00     0.074 A 
ATOM     40  C   UNL A   1      38.742  30.839  30.906  1.00  0.00     0.049 A 
ATOM     41  N   UNL A   1      40.586  28.796  29.672  1.00  0.00    -0.248 NA
ATOM     42  C   UNL A   1      39.499  29.174  27.641  1.00  0.00     0.031 C 
ATOM     43  C   UNL A   1      37.851  31.777  31.590  1.00  0.00     0.029 A 
ATOM     44  N   UNL A   1      39.773  30.654  31.797  1.00  0.00    -0.354 N 
ATOM     45  C   UNL A   1      41.203  28.049  28.677  1.00  0.00     0.074 A 
ATOM     46  C   UNL A   1      40.480  28.301  27.449  1.00  0.00     0.031 C 
ATOM     47  C   UNL A   1      38.372  32.092  32.784  1.00  0.00     0.029 A 
ATOM     48  C   UNL A   1      39.571  31.291  32.997  1.00  0.00     0.049 A 
ATOM     49  H   UNL A   1      40.573  30.119  31.595  1.00  0.00     0.167 HD
ATOM     50  C   UNL A   1      42.267  27.218  28.792  1.00  0.00     0.037 A 
ATOM     51  C   UNL A   1      40.223  31.185  34.171  1.00  0.00     0.037 A 
ATOM     52  C   UNL A   1      43.016  27.023  30.009  1.00  0.00     0.049 A 
ATOM     53  C   UNL A   1      41.364  30.221  34.295  1.00  0.00     0.074 A 
ATOM     54  C   UNL A   1      44.106  26.199  30.233  1.00  0.00     0.029 A 
ATOM     55  N   UNL A   1      42.763  27.682  31.202  1.00  0.00    -0.354 N 
ATOM     56  N   UNL A   1      41.869  29.420  33.390  1.00  0.00    -0.248 NA
ATOM     57  C   UNL A   1      42.004  30.120  35.614  1.00  0.00     0.031 C 
ATOM     58  C   UNL A   1      44.499  26.344  31.568  1.00  0.00     0.029 A 
ATOM     59  C   UNL A   1      43.676  27.284  32.165  1.00  0.00     0.049 A 
ATOM     60  H   UNL A   1      42.042  28.338  31.344  1.00  0.00     0.167 HD
ATOM     61  C   UNL A   1      42.892  28.730  34.021  1.00  0.00     0.074 A 
ATOM     62  C   UNL A   1      42.943  29.212  35.386  1.00  0.00     0.031 C 
ATOM     63  C   UNL A   1      43.714  27.780  33.516  1.00  0.00     0.037 A 
BRANCH  50  64
ATOM     64  C   UNL A   1      42.674  26.420  27.588  1.00  0.00     0.064 A 
ATOM     65  C   UNL A   1      43.682  26.851  26.716  1.00  0.00     0.173 A 
ATOM     66  C   UNL A   1      42.088  25.166  27.348  1.00  0.00     0.173 A 
ATOM     67  F   UNL A   1      44.265  28.046  26.896  1.00  0.00    -0.203 F 
ATOM     68  C   UNL A   1      44.083  26.061  25.641  1.00  0.00     0.198 A 
ATOM     69  C   UNL A   1      42.509  24.368  26.288  1.00  0.00     0.198 A 
ATOM     70  F   UNL A   1      41.123  24.704  28.157  1.00  0.00    -0.203 F 
ATOM     71  F   UNL A   1      45.032  26.503  24.804  1.00  0.00    -0.200 F 
ATOM     72  C   UNL A   1      43.505  24.817  25.434  1.00  0.00     0.200 A 
ATOM     73  F   UNL A   1      41.956  23.162  26.097  1.00  0.00    -0.200 F 
ATOM     74  F   UNL A   1      43.904  24.052  24.409  1.00  0.00    -0.200 F 
ENDBRANCH  50  64
BRANCH  51  75
ATOM     75  C   UNL A   1      39.750  31.974  35.336  1.00  0.00     0.064 A 
ATOM     76  C   UNL A   1      40.237  33.265  35.574  1.00  0.00     0.173 A 
ATOM     77  C   UNL A   1      38.770  31.471  36.206  1.00  0.00     0.173 A 
ATOM     78  F   UNL A   1      41.194  33.775  34.785  1.00  0.00    -0.203 F 
ATOM     79  C   UNL A   1      39.756  34.028  36.636  1.00  0.00     0.198 A 
ATOM     80  C   UNL A   1      38.269  32.247  37.249  1.00  0.00     0.198 A 
ATOM     81  F   UNL A   1      38.273  30.240  36.019  1.00  0.00    -0.203 F 
ATOM     82  F   UNL A   1      40.253  35.252  36.857  1.00  0.00    -0.200 F 
ATOM     83  C   UNL A   1      38.764  33.523  37.464  1.00  0.00     0.200 A 
ATOM     84  F   UNL A   1      37.299  31.760  38.036  1.00  0.00    -0.200 F 
ATOM     85  F   UNL A   1      38.287  34.267  38.472  1.00  0.00    -0.200 F 
ENDBRANCH  51  75
BRANCH  63  86
ATOM     86  C   UNL A   1      44.765  27.233  34.431  1.00  0.00     0.064 A 
ATOM     87  C   UNL A   1      46.019  27.845  34.553  1.00  0.00     0.173 A 
ATOM     88  C   UNL A   1      44.499  26.103  35.217  1.00  0.00     0.173 A 
ATOM     89  F   UNL A   1      46.323  28.918  33.807  1.00  0.00    -0.203 F 
ATOM     90  C   UNL A   1      46.980  27.333  35.420  1.00  0.00     0.198 A 
ATOM     91  C   UNL A   1      45.454  25.605  36.098  1.00  0.00     0.198 A 
ATOM     92  F   UNL A   1      43.311  25.486  35.135  1.00  0.00    -0.203 F 
ATOM     93  F   UNL A   1      48.186  27.912  35.498  1.00  0.00    -0.200 F 
ATOM     94  C   UNL A   1      46.695  26.219  36.196  1.00  0.00     0.200 A 
ATOM     95  F   UNL A   1      45.177  24.532  36.850  1.00  0.00    -0.200 F 
ATOM     96  F   UNL A   1      47.621  25.728  37.032  1.00  0.00    -0.200 F 
ENDBRANCH  63  86
ENDBRANCH  37  38
ENDBRANCH  30  32
ENDBRANCH  29  30
ENDBRANCH  28  29
ENDBRANCH   1  28
TORSDOF 14
ENDMDL
