MODEL 1
REMARK VINA RESULT:     -14.2      0.000      0.000
REMARK SMILES Cc1ccccc1C(=O)Nc1cc(NC(=O)c2ccccc2C)cc(C(=O)OCCOC(=O)c2ccc(-c3c4nc(c(-c5c(F)c(F)c(F)c(F)c5F)c5ccc([nH]5)c(-c5c(F)c(F)c(F)c(F)c5F)c5nc(c(-c6c(F)c(F)c(F)c(F)c6F)c6ccc3[nH]6)C=C5)C=C4)cc2)c1
REMARK SMILES IDX 29 1 28 2 26 3 27 4 25 5 11 6 12 7 97 8 13 9 24 10 10 11
REMARK SMILES IDX 8 12 9 13 7 15 1 16 2 17 3 18 4 19 6 20 5 21 14 22 15 23
REMARK SMILES IDX 16 25 17 26 18 27 22 28 19 29 21 30 23 31 20 32 30 33 31 34
REMARK SMILES IDX 32 35 33 36 34 37 35 38 96 39 36 40 95 41 37 42 38 43 39 44
REMARK SMILES IDX 89 45 40 46 94 47 88 48 90 49 41 50 93 51 87 52 86 53 42 55
REMARK SMILES IDX 74 56 54 57 73 58 55 59 58 60 72 61 91 62 56 63 57 64 71 66
REMARK SMILES IDX 92 67 59 68 43 69 44 70 52 71 45 72 46 73 50 74 53 75 47 76
REMARK SMILES IDX 48 77 51 78 49 79 75 80 76 81 84 82 77 83 78 84 82 85 85 86
REMARK SMILES IDX 79 87 80 88 83 89 81 90 60 91 61 92 69 93 62 94 63 95 67 96
REMARK SMILES IDX 70 97 64 98 65 99 68 100 66 101
REMARK H PARENT 10 14 14 24 90 54 58 65
REMARK Flexibility Score: inf
ROOT
ATOM      1  C   UNL A   1      36.948  22.073  25.664  1.00  0.00     0.275 C 
ENDROOT
BRANCH   1   2
ATOM      2  O   UNL A   1      36.011  23.021  26.218  1.00  0.00    -0.458 OA
BRANCH   2   3
ATOM      3  C   UNL A   1      35.562  23.876  25.263  1.00  0.00     0.338 C 
ATOM      4  O   UNL A   1      36.129  24.080  24.194  1.00  0.00    -0.246 OA
BRANCH   3   5
ATOM      5  C   UNL A   1      34.389  24.707  25.603  1.00  0.00     0.064 A 
ATOM      6  C   UNL A   1      33.244  26.745  26.249  1.00  0.00     0.044 A 
ATOM      7  C   UNL A   1      32.166  25.984  26.698  1.00  0.00     0.052 A 
ATOM      8  C   UNL A   1      34.297  26.106  25.565  1.00  0.00     0.042 A 
ATOM      9  C   UNL A   1      32.214  24.595  26.631  1.00  0.00     0.044 A 
ATOM     10  C   UNL A   1      33.361  23.965  26.186  1.00  0.00     0.042 A 
BRANCH   6  11
ATOM     11  N   UNL A   1      33.330  28.127  26.522  1.00  0.00    -0.322 N 
ATOM     12  C   UNL A   1      33.008  29.230  25.737  1.00  0.00     0.255 C 
ATOM     13  O   UNL A   1      33.379  30.345  26.109  1.00  0.00    -0.269 OA
ATOM     14  H   UNL A   1      33.676  28.347  27.417  1.00  0.00     0.170 HD
BRANCH  12  15
ATOM     15  C   UNL A   1      32.193  29.143  24.478  1.00  0.00     0.043 A 
ATOM     16  C   UNL A   1      34.140  28.579  22.888  1.00  0.00     0.045 C 
ATOM     17  C   UNL A   1      32.714  28.951  23.181  1.00  0.00    -0.038 A 
ATOM     18  C   UNL A   1      31.849  29.063  22.074  1.00  0.00     0.004 A 
ATOM     19  C   UNL A   1      30.473  29.203  22.246  1.00  0.00     0.000 A 
ATOM     20  C   UNL A   1      30.794  29.210  24.637  1.00  0.00     0.014 A 
ATOM     21  C   UNL A   1      29.940  29.224  23.530  1.00  0.00     0.001 A 
ENDBRANCH  12  15
ENDBRANCH   6  11
BRANCH   9  22
ATOM     22  N   UNL A   1      31.141  23.764  26.949  1.00  0.00    -0.322 N 
ATOM     23  C   UNL A   1      30.603  22.729  26.224  1.00  0.00     0.255 C 
ATOM     24  H   UNL A   1      30.709  23.945  27.815  1.00  0.00     0.170 HD
ATOM     25  O   UNL A   1      29.577  22.185  26.630  1.00  0.00    -0.269 OA
BRANCH  23  26
ATOM     26  C   UNL A   1      31.252  22.230  24.981  1.00  0.00     0.043 A 
ATOM     27  C   UNL A   1      31.945  21.019  25.135  1.00  0.00     0.014 A 
ATOM     28  C   UNL A   1      31.216  22.867  23.720  1.00  0.00    -0.038 A 
ATOM     29  C   UNL A   1      32.541  20.400  24.040  1.00  0.00     0.001 A 
ATOM     30  C   UNL A   1      31.783  22.198  22.621  1.00  0.00     0.004 A 
ATOM     31  C   UNL A   1      30.603  24.212  23.440  1.00  0.00     0.045 C 
ATOM     32  C   UNL A   1      32.439  20.978  22.779  1.00  0.00     0.000 A 
ENDBRANCH  23  26
ENDBRANCH   9  22
ENDBRANCH   3   5
ENDBRANCH   2   3
ENDBRANCH   1   2
BRANCH   1  33
ATOM     33  C   UNL A   1      38.422  22.303  26.029  1.00  0.00     0.275 C 
BRANCH  33  34
ATOM     34  O   UNL A   1      38.890  23.634  26.375  1.00  0.00    -0.458 OA
BRANCH  34  35
ATOM     35  C   UNL A   1      39.780  23.951  27.340  1.00  0.00     0.338 C 
ATOM     36  O   UNL A   1      40.558  23.128  27.814  1.00  0.00    -0.246 OA
BRANCH  35  37
ATOM     37  C   UNL A   1      39.794  25.347  27.801  1.00  0.00     0.060 A 
ATOM     38  C   UNL A   1      40.114  26.360  26.881  1.00  0.00     0.016 A 
ATOM     39  C   UNL A   1      39.360  25.653  29.083  1.00  0.00     0.016 A 
ATOM     40  C   UNL A   1      39.890  27.688  27.199  1.00  0.00     0.010 A 
ATOM     41  C   UNL A   1      38.978  26.939  29.348  1.00  0.00     0.010 A 
ATOM     42  C   UNL A   1      39.314  27.952  28.436  1.00  0.00    -0.014 A 
BRANCH  42  43
ATOM     43  C   UNL A   1      39.398  29.251  29.070  1.00  0.00     0.031 A 
ATOM     44  C   UNL A   1      38.396  30.286  28.797  1.00  0.00     0.074 A 
ATOM     45  C   UNL A   1      40.373  29.230  30.008  1.00  0.00     0.049 A 
ATOM     46  N   UNL A   1      38.577  31.538  29.010  1.00  0.00    -0.248 NA
ATOM     47  C   UNL A   1      37.098  30.016  28.184  1.00  0.00     0.031 C 
ATOM     48  C   UNL A   1      40.684  30.084  31.133  1.00  0.00     0.029 A 
ATOM     49  N   UNL A   1      41.449  28.311  29.992  1.00  0.00    -0.354 N 
ATOM     50  C   UNL A   1      37.331  32.140  28.973  1.00  0.00     0.074 A 
ATOM     51  C   UNL A   1      36.496  31.210  28.266  1.00  0.00     0.031 C 
ATOM     52  C   UNL A   1      41.985  29.901  31.452  1.00  0.00     0.029 A 
ATOM     53  C   UNL A   1      42.563  29.011  30.446  1.00  0.00     0.049 A 
ATOM     54  H   UNL A   1      41.416  27.367  29.716  1.00  0.00     0.167 HD
ATOM     55  C   UNL A   1      37.138  33.245  29.755  1.00  0.00     0.037 A 
ATOM     56  C   UNL A   1      43.501  29.345  29.510  1.00  0.00     0.037 A 
ATOM     57  C   UNL A   1      38.409  33.573  30.406  1.00  0.00     0.049 A 
ATOM     58  C   UNL A   1      43.497  30.842  29.320  1.00  0.00     0.074 A 
ATOM     59  C   UNL A   1      38.911  33.234  31.652  1.00  0.00     0.029 A 
ATOM     60  N   UNL A   1      39.498  33.935  29.622  1.00  0.00    -0.354 N 
ATOM     61  N   UNL A   1      42.424  31.590  29.377  1.00  0.00    -0.248 NA
ATOM     62  C   UNL A   1      44.728  31.607  29.193  1.00  0.00     0.031 C 
ATOM     63  C   UNL A   1      40.329  33.294  31.573  1.00  0.00     0.029 A 
ATOM     64  C   UNL A   1      40.681  33.659  30.283  1.00  0.00     0.049 A 
ATOM     65  H   UNL A   1      39.436  34.332  28.723  1.00  0.00     0.167 HD
ATOM     66  C   UNL A   1      42.810  32.904  29.427  1.00  0.00     0.074 A 
ATOM     67  C   UNL A   1      44.256  32.861  29.274  1.00  0.00     0.031 C 
ATOM     68  C   UNL A   1      41.955  33.947  29.648  1.00  0.00     0.037 A 
BRANCH  55  69
ATOM     69  C   UNL A   1      35.815  33.836  30.214  1.00  0.00     0.064 A 
ATOM     70  C   UNL A   1      34.956  34.452  29.270  1.00  0.00     0.173 A 
ATOM     71  C   UNL A   1      35.340  33.882  31.540  1.00  0.00     0.173 A 
ATOM     72  F   UNL A   1      35.227  34.430  27.958  1.00  0.00    -0.203 F 
ATOM     73  C   UNL A   1      33.779  35.118  29.629  1.00  0.00     0.198 A 
ATOM     74  C   UNL A   1      34.165  34.559  31.901  1.00  0.00     0.198 A 
ATOM     75  F   UNL A   1      35.964  33.251  32.537  1.00  0.00    -0.203 F 
ATOM     76  F   UNL A   1      33.030  35.699  28.682  1.00  0.00    -0.200 F 
ATOM     77  C   UNL A   1      33.390  35.184  30.948  1.00  0.00     0.200 A 
ATOM     78  F   UNL A   1      33.790  34.594  33.188  1.00  0.00    -0.200 F 
ATOM     79  F   UNL A   1      32.267  35.828  31.295  1.00  0.00    -0.200 F 
ENDBRANCH  55  69
BRANCH  56  80
ATOM     80  C   UNL A   1      43.701  28.308  28.435  1.00  0.00     0.064 A 
ATOM     81  C   UNL A   1      43.147  28.547  27.152  1.00  0.00     0.173 A 
ATOM     82  C   UNL A   1      44.615  27.251  28.526  1.00  0.00     0.173 A 
ATOM     83  F   UNL A   1      42.256  29.540  26.981  1.00  0.00    -0.203 F 
ATOM     84  C   UNL A   1      43.563  27.853  26.015  1.00  0.00     0.198 A 
ATOM     85  C   UNL A   1      45.010  26.532  27.386  1.00  0.00     0.198 A 
ATOM     86  F   UNL A   1      45.201  26.955  29.694  1.00  0.00    -0.203 F 
ATOM     87  F   UNL A   1      43.112  28.215  24.805  1.00  0.00    -0.200 F 
ATOM     88  C   UNL A   1      44.503  26.848  26.133  1.00  0.00     0.200 A 
ATOM     89  F   UNL A   1      45.969  25.598  27.482  1.00  0.00    -0.200 F 
ATOM     90  F   UNL A   1      44.974  26.233  25.038  1.00  0.00    -0.200 F 
ENDBRANCH  56  80
BRANCH  68  91
ATOM     91  C   UNL A   1      42.278  35.388  29.359  1.00  0.00     0.064 A 
ATOM     92  C   UNL A   1      43.137  36.154  30.161  1.00  0.00     0.173 A 
ATOM     93  C   UNL A   1      41.880  35.985  28.138  1.00  0.00     0.173 A 
ATOM     94  F   UNL A   1      43.697  35.649  31.268  1.00  0.00    -0.203 F 
ATOM     95  C   UNL A   1      43.502  37.452  29.810  1.00  0.00     0.198 A 
ATOM     96  C   UNL A   1      42.320  37.246  27.750  1.00  0.00     0.198 A 
ATOM     97  F   UNL A   1      41.085  35.351  27.263  1.00  0.00    -0.203 F 
ATOM     98  F   UNL A   1      44.271  38.166  30.643  1.00  0.00    -0.200 F 
ATOM     99  C   UNL A   1      43.111  37.989  28.600  1.00  0.00     0.200 A 
ATOM    100  F   UNL A   1      41.995  37.719  26.541  1.00  0.00    -0.200 F 
ATOM    101  F   UNL A   1      43.515  39.213  28.240  1.00  0.00    -0.200 F 
ENDBRANCH  68  91
ENDBRANCH  42  43
ENDBRANCH  35  37
ENDBRANCH  34  35
ENDBRANCH  33  34
ENDBRANCH   1  33
TORSDOF 15
ENDMDL
MODEL 2
REMARK VINA RESULT:     -14.1      3.745     10.078
REMARK SMILES Cc1ccccc1C(=O)Nc1cc(NC(=O)c2ccccc2C)cc(C(=O)OCCOC(=O)c2ccc(-c3c4nc(c(-c5c(F)c(F)c(F)c(F)c5F)c5ccc([nH]5)c(-c5c(F)c(F)c(F)c(F)c5F)c5nc(c(-c6c(F)c(F)c(F)c(F)c6F)c6ccc3[nH]6)C=C5)C=C4)cc2)c1
REMARK SMILES IDX 29 1 28 2 26 3 27 4 25 5 11 6 12 7 97 8 13 9 24 10 10 11
REMARK SMILES IDX 8 12 9 13 7 15 1 16 2 17 3 18 4 19 6 20 5 21 14 22 15 23
REMARK SMILES IDX 16 25 17 26 18 27 22 28 19 29 21 30 23 31 20 32 30 33 31 34
REMARK SMILES IDX 32 35 33 36 34 37 35 38 96 39 36 40 95 41 37 42 38 43 39 44
REMARK SMILES IDX 89 45 40 46 94 47 88 48 90 49 41 50 93 51 87 52 86 53 42 55
REMARK SMILES IDX 74 56 54 57 73 58 55 59 58 60 72 61 91 62 56 63 57 64 71 66
REMARK SMILES IDX 92 67 59 68 43 69 44 70 52 71 45 72 46 73 50 74 53 75 47 76
REMARK SMILES IDX 48 77 51 78 49 79 75 80 76 81 84 82 77 83 78 84 82 85 85 86
REMARK SMILES IDX 79 87 80 88 83 89 81 90 60 91 61 92 69 93 62 94 63 95 67 96
REMARK SMILES IDX 70 97 64 98 65 99 68 100 66 101
REMARK H PARENT 10 14 14 24 90 54 58 65
REMARK Flexibility Score: inf
ROOT
ATOM      1  C   UNL A   1      33.336  28.198  26.971  1.00  0.00     0.275 C 
ENDROOT
BRANCH   1   2
ATOM      2  O   UNL A   1      33.344  26.844  26.471  1.00  0.00    -0.458 OA
BRANCH   2   3
ATOM      3  C   UNL A   1      32.093  26.315  26.478  1.00  0.00     0.338 C 
ATOM      4  O   UNL A   1      31.188  26.685  27.220  1.00  0.00    -0.246 OA
BRANCH   3   5
ATOM      5  C   UNL A   1      31.861  25.129  25.627  1.00  0.00     0.064 A 
ATOM      6  C   UNL A   1      31.739  22.757  25.138  1.00  0.00     0.044 A 
ATOM      7  C   UNL A   1      31.880  23.041  23.781  1.00  0.00     0.052 A 
ATOM      8  C   UNL A   1      31.583  23.821  26.049  1.00  0.00     0.042 A 
ATOM      9  C   UNL A   1      32.044  24.355  23.354  1.00  0.00     0.044 A 
ATOM     10  C   UNL A   1      32.140  25.374  24.282  1.00  0.00     0.042 A 
BRANCH   6  11
ATOM     11  N   UNL A   1      31.814  21.433  25.623  1.00  0.00    -0.322 N 
ATOM     12  C   UNL A   1      32.906  20.589  25.793  1.00  0.00     0.255 C 
ATOM     13  O   UNL A   1      32.697  19.396  26.023  1.00  0.00    -0.269 OA
ATOM     14  H   UNL A   1      30.949  21.043  25.885  1.00  0.00     0.170 HD
BRANCH  12  15
ATOM     15  C   UNL A   1      34.333  21.058  25.752  1.00  0.00     0.043 A 
ATOM     16  C   UNL A   1      34.217  22.577  27.830  1.00  0.00     0.045 C 
ATOM     17  C   UNL A   1      34.896  22.029  26.607  1.00  0.00    -0.038 A 
ATOM     18  C   UNL A   1      36.199  22.497  26.343  1.00  0.00     0.004 A 
ATOM     19  C   UNL A   1      36.990  21.909  25.359  1.00  0.00     0.000 A 
ATOM     20  C   UNL A   1      35.169  20.425  24.812  1.00  0.00     0.014 A 
ATOM     21  C   UNL A   1      36.493  20.836  24.628  1.00  0.00     0.001 A 
ENDBRANCH  12  15
ENDBRANCH   6  11
BRANCH   9  22
ATOM     22  N   UNL A   1      32.077  24.739  22.015  1.00  0.00    -0.322 N 
ATOM     23  C   UNL A   1      31.806  25.965  21.459  1.00  0.00     0.255 C 
ATOM     24  H   UNL A   1      32.329  24.032  21.379  1.00  0.00     0.170 HD
ATOM     25  O   UNL A   1      31.781  26.074  20.233  1.00  0.00    -0.269 OA
BRANCH  23  26
ATOM     26  C   UNL A   1      31.577  27.169  22.304  1.00  0.00     0.043 A 
ATOM     27  C   UNL A   1      30.235  27.383  22.656  1.00  0.00     0.014 A 
ATOM     28  C   UNL A   1      32.575  28.065  22.751  1.00  0.00    -0.038 A 
ATOM     29  C   UNL A   1      29.883  28.433  23.499  1.00  0.00     0.001 A 
ATOM     30  C   UNL A   1      32.201  29.086  23.641  1.00  0.00     0.004 A 
ATOM     31  C   UNL A   1      34.028  28.013  22.364  1.00  0.00     0.045 C 
ATOM     32  C   UNL A   1      30.869  29.269  24.011  1.00  0.00     0.000 A 
ENDBRANCH  23  26
ENDBRANCH   9  22
ENDBRANCH   3   5
ENDBRANCH   2   3
ENDBRANCH   1   2
BRANCH   1  33
ATOM     33  C   UNL A   1      34.669  28.953  26.871  1.00  0.00     0.275 C 
BRANCH  33  34
ATOM     34  O   UNL A   1      34.968  30.034  27.794  1.00  0.00    -0.458 OA
BRANCH  34  35
ATOM     35  C   UNL A   1      36.158  30.652  27.954  1.00  0.00     0.338 C 
ATOM     36  O   UNL A   1      36.277  31.873  27.905  1.00  0.00    -0.246 OA
BRANCH  35  37
ATOM     37  C   UNL A   1      37.325  29.796  28.210  1.00  0.00     0.060 A 
ATOM     38  C   UNL A   1      37.312  28.951  29.333  1.00  0.00     0.016 A 
ATOM     39  C   UNL A   1      38.349  29.730  27.275  1.00  0.00     0.016 A 
ATOM     40  C   UNL A   1      38.262  27.954  29.468  1.00  0.00     0.010 A 
ATOM     41  C   UNL A   1      39.187  28.650  27.307  1.00  0.00     0.010 A 
ATOM     42  C   UNL A   1      39.184  27.818  28.438  1.00  0.00    -0.014 A 
BRANCH  42  43
ATOM     43  C   UNL A   1      40.446  27.131  28.613  1.00  0.00     0.031 A 
ATOM     44  C   UNL A   1      40.556  25.688  28.373  1.00  0.00     0.074 A 
ATOM     45  C   UNL A   1      41.427  28.039  28.826  1.00  0.00     0.049 A 
ATOM     46  N   UNL A   1      41.497  24.949  28.836  1.00  0.00    -0.248 NA
ATOM     47  C   UNL A   1      39.564  24.912  27.633  1.00  0.00     0.031 C 
ATOM     48  C   UNL A   1      42.870  27.978  28.744  1.00  0.00     0.029 A 
ATOM     49  N   UNL A   1      41.185  29.342  29.323  1.00  0.00    -0.354 N 
ATOM     50  C   UNL A   1      41.466  23.761  28.128  1.00  0.00     0.074 A 
ATOM     51  C   UNL A   1      40.148  23.710  27.556  1.00  0.00     0.031 C 
ATOM     52  C   UNL A   1      43.375  28.988  29.487  1.00  0.00     0.029 A 
ATOM     53  C   UNL A   1      42.255  29.640  30.162  1.00  0.00     0.049 A 
ATOM     54  H   UNL A   1      40.417  29.920  29.115  1.00  0.00     0.167 HD
ATOM     55  C   UNL A   1      42.649  23.102  27.943  1.00  0.00     0.037 A 
ATOM     56  C   UNL A   1      42.000  29.632  31.505  1.00  0.00     0.037 A 
ATOM     57  C   UNL A   1      43.697  23.833  28.661  1.00  0.00     0.049 A 
ATOM     58  C   UNL A   1      42.724  28.469  32.137  1.00  0.00     0.074 A 
ATOM     59  C   UNL A   1      44.593  24.799  28.234  1.00  0.00     0.029 A 
ATOM     60  N   UNL A   1      43.618  23.944  30.044  1.00  0.00    -0.354 N 
ATOM     61  N   UNL A   1      42.898  27.307  31.560  1.00  0.00    -0.248 NA
ATOM     62  C   UNL A   1      43.421  28.592  33.408  1.00  0.00     0.031 C 
ATOM     63  C   UNL A   1      44.969  25.566  29.371  1.00  0.00     0.029 A 
ATOM     64  C   UNL A   1      44.297  25.068  30.477  1.00  0.00     0.049 A 
ATOM     65  H   UNL A   1      43.146  23.312  30.633  1.00  0.00     0.167 HD
ATOM     66  C   UNL A   1      43.809  26.589  32.289  1.00  0.00     0.074 A 
ATOM     67  C   UNL A   1      44.077  27.421  33.452  1.00  0.00     0.031 C 
ATOM     68  C   UNL A   1      44.341  25.395  31.891  1.00  0.00     0.037 A 
BRANCH  55  69
ATOM     69  C   UNL A   1      42.968  22.044  26.899  1.00  0.00     0.064 A 
ATOM     70  C   UNL A   1      42.340  20.775  26.971  1.00  0.00     0.173 A 
ATOM     71  C   UNL A   1      43.892  22.168  25.843  1.00  0.00     0.173 A 
ATOM     72  F   UNL A   1      41.383  20.518  27.873  1.00  0.00    -0.203 F 
ATOM     73  C   UNL A   1      42.663  19.713  26.120  1.00  0.00     0.198 A 
ATOM     74  C   UNL A   1      44.224  21.101  24.996  1.00  0.00     0.198 A 
ATOM     75  F   UNL A   1      44.487  23.329  25.558  1.00  0.00    -0.203 F 
ATOM     76  F   UNL A   1      42.044  18.533  26.265  1.00  0.00    -0.200 F 
ATOM     77  C   UNL A   1      43.617  19.871  25.140  1.00  0.00     0.200 A 
ATOM     78  F   UNL A   1      45.140  21.279  24.032  1.00  0.00    -0.200 F 
ATOM     79  F   UNL A   1      43.935  18.853  24.329  1.00  0.00    -0.200 F 
ENDBRANCH  55  69
BRANCH  56  80
ATOM     80  C   UNL A   1      40.634  30.146  31.881  1.00  0.00     0.064 A 
ATOM     81  C   UNL A   1      39.642  29.210  32.269  1.00  0.00     0.173 A 
ATOM     82  C   UNL A   1      40.345  31.493  32.131  1.00  0.00     0.173 A 
ATOM     83  F   UNL A   1      39.840  27.897  32.057  1.00  0.00    -0.203 F 
ATOM     84  C   UNL A   1      38.491  29.585  32.965  1.00  0.00     0.198 A 
ATOM     85  C   UNL A   1      39.171  31.872  32.804  1.00  0.00     0.198 A 
ATOM     86  F   UNL A   1      41.226  32.450  31.810  1.00  0.00    -0.203 F 
ATOM     87  F   UNL A   1      37.656  28.646  33.433  1.00  0.00    -0.200 F 
ATOM     88  C   UNL A   1      38.260  30.918  33.239  1.00  0.00     0.200 A 
ATOM     89  F   UNL A   1      38.971  33.158  33.130  1.00  0.00    -0.200 F 
ATOM     90  F   UNL A   1      37.204  31.282  33.980  1.00  0.00    -0.200 F 
ENDBRANCH  56  80
BRANCH  68  91
ATOM     91  C   UNL A   1      45.049  24.432  32.806  1.00  0.00     0.064 A 
ATOM     92  C   UNL A   1      46.336  24.666  33.312  1.00  0.00     0.173 A 
ATOM     93  C   UNL A   1      44.361  23.325  33.360  1.00  0.00     0.173 A 
ATOM     94  F   UNL A   1      47.034  25.758  32.975  1.00  0.00    -0.203 F 
ATOM     95  C   UNL A   1      46.924  23.809  34.240  1.00  0.00     0.198 A 
ATOM     96  C   UNL A   1      44.918  22.526  34.352  1.00  0.00     0.198 A 
ATOM     97  F   UNL A   1      43.112  23.006  32.987  1.00  0.00    -0.203 F 
ATOM     98  F   UNL A   1      48.181  24.039  34.643  1.00  0.00    -0.200 F 
ATOM     99  C   UNL A   1      46.210  22.754  34.773  1.00  0.00     0.200 A 
ATOM    100  F   UNL A   1      44.184  21.556  34.912  1.00  0.00    -0.200 F 
ATOM    101  F   UNL A   1      46.758  21.971  35.710  1.00  0.00    -0.200 F 
ENDBRANCH  68  91
ENDBRANCH  42  43
ENDBRANCH  35  37
ENDBRANCH  34  35
ENDBRANCH  33  34
ENDBRANCH   1  33
TORSDOF 15
ENDMDL
MODEL 3
REMARK VINA RESULT:     -13.8      3.765      9.674
REMARK SMILES Cc1ccccc1C(=O)Nc1cc(NC(=O)c2ccccc2C)cc(C(=O)OCCOC(=O)c2ccc(-c3c4nc(c(-c5c(F)c(F)c(F)c(F)c5F)c5ccc([nH]5)c(-c5c(F)c(F)c(F)c(F)c5F)c5nc(c(-c6c(F)c(F)c(F)c(F)c6F)c6ccc3[nH]6)C=C5)C=C4)cc2)c1
REMARK SMILES IDX 29 1 28 2 26 3 27 4 25 5 11 6 12 7 97 8 13 9 24 10 10 11
REMARK SMILES IDX 8 12 9 13 7 15 1 16 2 17 3 18 4 19 6 20 5 21 14 22 15 23
REMARK SMILES IDX 16 25 17 26 18 27 22 28 19 29 21 30 23 31 20 32 30 33 31 34
REMARK SMILES IDX 32 35 33 36 34 37 35 38 96 39 36 40 95 41 37 42 38 43 39 44
REMARK SMILES IDX 89 45 40 46 94 47 88 48 90 49 41 50 93 51 87 52 86 53 42 55
REMARK SMILES IDX 74 56 54 57 73 58 55 59 58 60 72 61 91 62 56 63 57 64 71 66
REMARK SMILES IDX 92 67 59 68 43 69 44 70 52 71 45 72 46 73 50 74 53 75 47 76
REMARK SMILES IDX 48 77 51 78 49 79 75 80 76 81 84 82 77 83 78 84 82 85 85 86
REMARK SMILES IDX 79 87 80 88 83 89 81 90 60 91 61 92 69 93 62 94 63 95 67 96
REMARK SMILES IDX 70 97 64 98 65 99 68 100 66 101
REMARK H PARENT 10 14 14 24 90 54 58 65
REMARK Flexibility Score: inf
ROOT
ATOM      1  C   UNL A   1      33.617  29.285  26.356  1.00  0.00     0.275 C 
ENDROOT
BRANCH   1   2
ATOM      2  O   UNL A   1      32.267  29.397  26.852  1.00  0.00    -0.458 OA
BRANCH   2   3
ATOM      3  C   UNL A   1      31.739  28.171  27.107  1.00  0.00     0.338 C 
ATOM      4  O   UNL A   1      31.030  27.910  28.074  1.00  0.00    -0.246 OA
BRANCH   3   5
ATOM      5  C   UNL A   1      32.166  27.060  26.232  1.00  0.00     0.064 A 
ATOM      6  C   UNL A   1      32.462  25.909  24.118  1.00  0.00     0.044 A 
ATOM      7  C   UNL A   1      32.560  24.699  24.803  1.00  0.00     0.052 A 
ATOM      8  C   UNL A   1      32.411  27.110  24.851  1.00  0.00     0.042 A 
ATOM      9  C   UNL A   1      32.428  24.666  26.188  1.00  0.00     0.044 A 
ATOM     10  C   UNL A   1      32.126  25.825  26.879  1.00  0.00     0.042 A 
BRANCH   6  11
ATOM     11  N   UNL A   1      32.350  25.948  22.711  1.00  0.00    -0.322 N 
ATOM     12  C   UNL A   1      31.433  26.598  21.891  1.00  0.00     0.255 C 
ATOM     13  O   UNL A   1      31.402  26.303  20.695  1.00  0.00    -0.269 OA
ATOM     14  H   UNL A   1      33.035  25.429  22.231  1.00  0.00     0.170 HD
BRANCH  12  15
ATOM     15  C   UNL A   1      30.503  27.674  22.375  1.00  0.00     0.043 A 
ATOM     16  C   UNL A   1      28.964  26.148  23.769  1.00  0.00     0.045 C 
ATOM     17  C   UNL A   1      29.335  27.459  23.136  1.00  0.00    -0.038 A 
ATOM     18  C   UNL A   1      28.465  28.543  23.372  1.00  0.00     0.004 A 
ATOM     19  C   UNL A   1      28.815  29.841  23.005  1.00  0.00     0.000 A 
ATOM     20  C   UNL A   1      30.876  28.999  22.076  1.00  0.00     0.014 A 
ATOM     21  C   UNL A   1      30.046  30.076  22.403  1.00  0.00     0.001 A 
ENDBRANCH  12  15
ENDBRANCH   6  11
BRANCH   9  22
ATOM     22  N   UNL A   1      32.624  23.524  26.961  1.00  0.00    -0.322 N 
ATOM     23  C   UNL A   1      33.582  22.547  26.834  1.00  0.00     0.255 C 
ATOM     24  H   UNL A   1      31.987  23.400  27.701  1.00  0.00     0.170 HD
ATOM     25  O   UNL A   1      33.517  21.551  27.554  1.00  0.00    -0.269 OA
BRANCH  23  26
ATOM     26  C   UNL A   1      34.710  22.683  25.874  1.00  0.00     0.043 A 
ATOM     27  C   UNL A   1      35.760  23.499  26.324  1.00  0.00     0.014 A 
ATOM     28  C   UNL A   1      34.787  22.074  24.601  1.00  0.00    -0.038 A 
ATOM     29  C   UNL A   1      36.910  23.661  25.558  1.00  0.00     0.001 A 
ATOM     30  C   UNL A   1      35.979  22.212  23.869  1.00  0.00     0.004 A 
ATOM     31  C   UNL A   1      33.695  21.265  23.954  1.00  0.00     0.045 C 
ATOM     32  C   UNL A   1      37.029  22.997  24.341  1.00  0.00     0.000 A 
ENDBRANCH  23  26
ENDBRANCH   9  22
ENDBRANCH   3   5
ENDBRANCH   2   3
ENDBRANCH   1   2
BRANCH   1  33
ATOM     33  C   UNL A   1      34.725  29.393  27.414  1.00  0.00     0.275 C 
BRANCH  33  34
ATOM     34  O   UNL A   1      35.741  30.426  27.306  1.00  0.00    -0.458 OA
BRANCH  34  35
ATOM     35  C   UNL A   1      36.631  30.784  28.256  1.00  0.00     0.338 C 
ATOM     36  O   UNL A   1      36.516  31.815  28.912  1.00  0.00    -0.246 OA
BRANCH  35  37
ATOM     37  C   UNL A   1      37.758  29.869  28.492  1.00  0.00     0.060 A 
ATOM     38  C   UNL A   1      37.675  28.952  29.554  1.00  0.00     0.016 A 
ATOM     39  C   UNL A   1      38.812  29.828  27.589  1.00  0.00     0.016 A 
ATOM     40  C   UNL A   1      38.584  27.913  29.652  1.00  0.00     0.010 A 
ATOM     41  C   UNL A   1      39.610  28.717  27.575  1.00  0.00     0.010 A 
ATOM     42  C   UNL A   1      39.538  27.812  28.646  1.00  0.00    -0.014 A 
BRANCH  42  43
ATOM     43  C   UNL A   1      40.768  27.069  28.816  1.00  0.00     0.031 A 
ATOM     44  C   UNL A   1      40.824  25.632  28.524  1.00  0.00     0.074 A 
ATOM     45  C   UNL A   1      41.780  27.928  29.079  1.00  0.00     0.049 A 
ATOM     46  N   UNL A   1      41.727  24.840  28.974  1.00  0.00    -0.248 NA
ATOM     47  C   UNL A   1      39.815  24.925  27.739  1.00  0.00     0.031 C 
ATOM     48  C   UNL A   1      43.221  27.811  29.018  1.00  0.00     0.029 A 
ATOM     49  N   UNL A   1      41.582  29.220  29.620  1.00  0.00    -0.354 N 
ATOM     50  C   UNL A   1      41.661  23.680  28.221  1.00  0.00     0.074 A 
ATOM     51  C   UNL A   1      40.353  23.704  27.627  1.00  0.00     0.031 C 
ATOM     52  C   UNL A   1      43.752  28.772  29.807  1.00  0.00     0.029 A 
ATOM     53  C   UNL A   1      42.647  29.444  30.487  1.00  0.00     0.049 A 
ATOM     54  H   UNL A   1      40.841  29.837  29.421  1.00  0.00     0.167 HD
ATOM     55  C   UNL A   1      42.820  22.981  28.031  1.00  0.00     0.037 A 
ATOM     56  C   UNL A   1      42.369  29.397  31.825  1.00  0.00     0.037 A 
ATOM     57  C   UNL A   1      43.883  23.642  28.794  1.00  0.00     0.049 A 
ATOM     58  C   UNL A   1      43.034  28.182  32.424  1.00  0.00     0.074 A 
ATOM     59  C   UNL A   1      44.824  24.586  28.417  1.00  0.00     0.029 A 
ATOM     60  N   UNL A   1      43.783  23.705  30.178  1.00  0.00    -0.354 N 
ATOM     61  N   UNL A   1      43.172  27.037  31.807  1.00  0.00    -0.248 NA
ATOM     62  C   UNL A   1      43.712  28.230  33.710  1.00  0.00     0.031 C 
ATOM     63  C   UNL A   1      45.210  25.294  29.588  1.00  0.00     0.029 A 
ATOM     64  C   UNL A   1      44.499  24.784  30.663  1.00  0.00     0.049 A 
ATOM     65  H   UNL A   1      43.276  23.072  30.735  1.00  0.00     0.167 HD
ATOM     66  C   UNL A   1      44.040  26.256  32.524  1.00  0.00     0.074 A 
ATOM     67  C   UNL A   1      44.320  27.034  33.721  1.00  0.00     0.031 C 
ATOM     68  C   UNL A   1      44.531  25.057  32.090  1.00  0.00     0.037 A 
BRANCH  55  69
ATOM     69  C   UNL A   1      43.115  21.950  26.954  1.00  0.00     0.064 A 
ATOM     70  C   UNL A   1      42.455  20.696  26.983  1.00  0.00     0.173 A 
ATOM     71  C   UNL A   1      44.044  22.086  25.904  1.00  0.00     0.173 A 
ATOM     72  F   UNL A   1      41.490  20.434  27.875  1.00  0.00    -0.203 F 
ATOM     73  C   UNL A   1      42.753  19.655  26.099  1.00  0.00     0.198 A 
ATOM     74  C   UNL A   1      44.352  21.038  25.023  1.00  0.00     0.198 A 
ATOM     75  F   UNL A   1      44.669  23.240  25.658  1.00  0.00    -0.203 F 
ATOM     76  F   UNL A   1      42.104  18.487  26.203  1.00  0.00    -0.200 F 
ATOM     77  C   UNL A   1      43.713  19.820  25.126  1.00  0.00     0.200 A 
ATOM     78  F   UNL A   1      45.274  21.225  24.067  1.00  0.00    -0.200 F 
ATOM     79  F   UNL A   1      44.008  18.822  24.282  1.00  0.00    -0.200 F 
ENDBRANCH  55  69
BRANCH  56  80
ATOM     80  C   UNL A   1      41.018  29.952  32.197  1.00  0.00     0.064 A 
ATOM     81  C   UNL A   1      40.676  31.254  31.753  1.00  0.00     0.173 A 
ATOM     82  C   UNL A   1      39.972  29.183  32.723  1.00  0.00     0.173 A 
ATOM     83  F   UNL A   1      41.624  32.058  31.241  1.00  0.00    -0.203 F 
ATOM     84  C   UNL A   1      39.358  31.714  31.728  1.00  0.00     0.198 A 
ATOM     85  C   UNL A   1      38.650  29.660  32.726  1.00  0.00     0.198 A 
ATOM     86  F   UNL A   1      40.195  27.936  33.158  1.00  0.00    -0.203 F 
ATOM     87  F   UNL A   1      39.072  32.898  31.166  1.00  0.00    -0.200 F 
ATOM     88  C   UNL A   1      38.343  30.911  32.209  1.00  0.00     0.200 A 
ATOM     89  F   UNL A   1      37.651  28.861  33.132  1.00  0.00    -0.200 F 
ATOM     90  F   UNL A   1      37.065  31.306  32.111  1.00  0.00    -0.200 F 
ENDBRANCH  56  80
BRANCH  68  91
ATOM     91  C   UNL A   1      45.184  24.033  32.979  1.00  0.00     0.064 A 
ATOM     92  C   UNL A   1      46.484  24.178  33.485  1.00  0.00     0.173 A 
ATOM     93  C   UNL A   1      44.433  22.956  33.511  1.00  0.00     0.173 A 
ATOM     94  F   UNL A   1      47.244  25.235  33.170  1.00  0.00    -0.203 F 
ATOM     95  C   UNL A   1      47.023  23.267  34.390  1.00  0.00     0.198 A 
ATOM     96  C   UNL A   1      44.945  22.103  34.482  1.00  0.00     0.198 A 
ATOM     97  F   UNL A   1      43.166  22.721  33.137  1.00  0.00    -0.203 F 
ATOM     98  F   UNL A   1      48.292  23.413  34.793  1.00  0.00    -0.200 F 
ATOM     99  C   UNL A   1      46.250  22.244  34.903  1.00  0.00     0.200 A 
ATOM    100  F   UNL A   1      44.157  21.166  35.024  1.00  0.00    -0.200 F 
ATOM    101  F   UNL A   1      46.753  21.409  35.819  1.00  0.00    -0.200 F 
ENDBRANCH  68  91
ENDBRANCH  42  43
ENDBRANCH  35  37
ENDBRANCH  34  35
ENDBRANCH  33  34
ENDBRANCH   1  33
TORSDOF 15
ENDMDL
