MODEL 1
REMARK VINA RESULT:     -12.5      0.000      0.000
REMARK SMILES CC(C)Cc1cc2c(cc1Cl)C=C(C(=O)OCCOC(=O)c1ccc(-c3c4nc(c(-c5c(F)c(F)c(F)c(F)c5F)c5ccc([nH]5)c(-c5c(F)c(F)c(F)c(F)c5F)c5nc(c(-c6c(F)c(F)c(F)c(F)c6F)c6ccc3[nH]6)C=C5)C=C4)cc1)[C@@H](C(F)(F)F)O2
REMARK SMILES IDX 17 1 16 2 14 3 15 4 13 5 5 6 6 7 10 8 7 9 9 10 11 11 8 12
REMARK SMILES IDX 90 13 12 14 85 15 4 16 2 17 1 18 3 19 86 20 87 21 88 22
REMARK SMILES IDX 89 23 18 24 19 25 20 26 21 27 22 28 23 29 84 30 24 31 83 32
REMARK SMILES IDX 25 33 26 34 27 35 77 36 28 37 82 38 76 39 78 40 29 41 81 42
REMARK SMILES IDX 75 43 74 44 30 46 62 47 42 48 61 49 43 50 46 51 60 52 79 53
REMARK SMILES IDX 44 54 45 55 59 57 80 58 47 59 31 60 32 61 40 62 33 63 34 64
REMARK SMILES IDX 38 65 41 66 35 67 36 68 39 69 37 70 63 71 64 72 72 73 65 74
REMARK SMILES IDX 66 75 70 76 73 77 67 78 68 79 71 80 69 81 48 82 49 83 57 84
REMARK SMILES IDX 50 85 51 86 55 87 58 88 52 89 53 90 56 91 54 92
REMARK H PARENT 78 45 46 56
REMARK Flexibility Score: inf
ROOT
ATOM      1  C   UNL A   1      31.156  30.329  25.210  1.00  0.00     0.275 C 
ENDROOT
BRANCH   1   2
ATOM      2  O   UNL A   1      31.304  28.910  25.445  1.00  0.00    -0.459 OA
BRANCH   2   3
ATOM      3  C   UNL A   1      30.953  28.106  24.415  1.00  0.00     0.338 C 
ATOM      4  O   UNL A   1      29.993  28.244  23.674  1.00  0.00    -0.246 OA
BRANCH   3   5
ATOM      5  C   UNL A   1      31.931  27.014  24.256  1.00  0.00     0.087 C 
ATOM      6  C   UNL A   1      35.106  23.192  25.041  1.00  0.00    -0.025 A 
ATOM      7  C   UNL A   1      34.934  24.142  24.013  1.00  0.00     0.052 A 
ATOM      8  C   UNL A   1      34.260  23.248  26.157  1.00  0.00     0.045 A 
ATOM      9  C   UNL A   1      33.922  25.095  24.073  1.00  0.00     0.128 A 
ATOM     10  C   UNL A   1      33.275  24.232  26.240  1.00  0.00     0.032 A 
ATOM     11  Cl  UNL A   1      34.376  22.127  27.464  1.00  0.00    -0.084 Cl
ATOM     12  C   UNL A   1      33.107  25.149  25.196  1.00  0.00     0.019 A 
ATOM     13  O   UNL A   1      33.783  25.912  22.990  1.00  0.00    -0.475 OA
ATOM     14  C   UNL A   1      32.098  26.179  25.287  1.00  0.00     0.027 C 
ATOM     15  C   UNL A   1      32.770  26.959  23.010  1.00  0.00     0.316 C 
BRANCH   6  16
ATOM     16  C   UNL A   1      36.150  22.116  24.853  1.00  0.00     0.040 C 
BRANCH  16  17
ATOM     17  C   UNL A   1      37.586  22.625  25.103  1.00  0.00    -0.013 C 
ATOM     18  C   UNL A   1      37.633  23.785  26.103  1.00  0.00     0.008 C 
ATOM     19  C   UNL A   1      38.456  21.477  25.615  1.00  0.00     0.008 C 
ENDBRANCH  16  17
ENDBRANCH   6  16
BRANCH  15  20
ATOM     20  C   UNL A   1      33.477  28.298  22.747  1.00  0.00     0.430 C 
ATOM     21  F   UNL A   1      34.061  28.776  23.871  1.00  0.00    -0.167 F 
ATOM     22  F   UNL A   1      34.460  28.173  21.824  1.00  0.00    -0.167 F 
ATOM     23  F   UNL A   1      32.619  29.243  22.301  1.00  0.00    -0.167 F 
ENDBRANCH  15  20
ENDBRANCH   3   5
ENDBRANCH   2   3
ENDBRANCH   1   2
BRANCH   1  24
ATOM     24  C   UNL A   1      31.537  31.149  26.443  1.00  0.00     0.275 C 
BRANCH  24  25
ATOM     25  O   UNL A   1      32.923  30.944  26.772  1.00  0.00    -0.458 OA
BRANCH  25  26
ATOM     26  C   UNL A   1      33.537  31.990  27.366  1.00  0.00     0.338 C 
ATOM     27  O   UNL A   1      33.071  33.089  27.615  1.00  0.00    -0.246 OA
BRANCH  26  28
ATOM     28  C   UNL A   1      34.883  31.593  27.802  1.00  0.00     0.060 A 
ATOM     29  C   UNL A   1      35.866  32.530  28.090  1.00  0.00     0.016 A 
ATOM     30  C   UNL A   1      35.092  30.255  28.113  1.00  0.00     0.016 A 
ATOM     31  C   UNL A   1      37.057  32.102  28.689  1.00  0.00     0.010 A 
ATOM     32  C   UNL A   1      36.194  29.864  28.863  1.00  0.00     0.010 A 
ATOM     33  C   UNL A   1      37.220  30.772  29.135  1.00  0.00    -0.014 A 
BRANCH  33  34
ATOM     34  C   UNL A   1      38.442  30.340  29.878  1.00  0.00     0.031 A 
ATOM     35  C   UNL A   1      38.688  30.763  31.310  1.00  0.00     0.074 A 
ATOM     36  C   UNL A   1      39.365  29.580  29.251  1.00  0.00     0.049 A 
ATOM     37  N   UNL A   1      39.668  30.423  32.113  1.00  0.00    -0.248 NA
ATOM     38  C   UNL A   1      37.750  31.727  31.908  1.00  0.00     0.031 C 
ATOM     39  C   UNL A   1      39.330  29.206  27.835  1.00  0.00     0.029 A 
ATOM     40  N   UNL A   1      40.497  28.962  29.724  1.00  0.00    -0.354 N 
ATOM     41  C   UNL A   1      39.469  31.145  33.285  1.00  0.00     0.074 A 
ATOM     42  C   UNL A   1      38.334  32.008  33.062  1.00  0.00     0.031 C 
ATOM     43  C   UNL A   1      40.327  28.345  27.582  1.00  0.00     0.029 A 
ATOM     44  C   UNL A   1      41.097  28.135  28.803  1.00  0.00     0.049 A 
ATOM     45  H   UNL A   1      40.845  29.096  30.635  1.00  0.00     0.167 HD
ATOM     46  C   UNL A   1      40.132  31.059  34.463  1.00  0.00     0.037 A 
ATOM     47  C   UNL A   1      42.128  27.278  28.933  1.00  0.00     0.037 A 
ATOM     48  C   UNL A   1      41.217  30.150  34.711  1.00  0.00     0.049 A 
ATOM     49  C   UNL A   1      42.804  27.139  30.270  1.00  0.00     0.074 A 
ATOM     50  C   UNL A   1      41.897  29.922  35.895  1.00  0.00     0.029 A 
ATOM     51  N   UNL A   1      41.771  29.308  33.760  1.00  0.00    -0.354 N 
ATOM     52  N   UNL A   1      42.537  27.752  31.396  1.00  0.00    -0.248 NA
ATOM     53  C   UNL A   1      43.919  26.185  30.356  1.00  0.00     0.031 C 
ATOM     54  C   UNL A   1      42.884  28.963  35.651  1.00  0.00     0.029 A 
ATOM     55  C   UNL A   1      42.790  28.563  34.328  1.00  0.00     0.049 A 
ATOM     56  H   UNL A   1      41.482  29.248  32.821  1.00  0.00     0.167 HD
ATOM     57  C   UNL A   1      43.432  27.245  32.328  1.00  0.00     0.074 A 
ATOM     58  C   UNL A   1      44.241  26.262  31.640  1.00  0.00     0.031 C 
ATOM     59  C   UNL A   1      43.573  27.573  33.635  1.00  0.00     0.037 A 
BRANCH  46  60
ATOM     60  C   UNL A   1      39.666  31.928  35.599  1.00  0.00     0.064 A 
ATOM     61  C   UNL A   1      38.646  31.508  36.468  1.00  0.00     0.173 A 
ATOM     62  C   UNL A   1      40.284  33.159  35.865  1.00  0.00     0.173 A 
ATOM     63  F   UNL A   1      38.018  30.340  36.257  1.00  0.00    -0.203 F 
ATOM     64  C   UNL A   1      38.244  32.298  37.541  1.00  0.00     0.198 A 
ATOM     65  C   UNL A   1      39.902  33.932  36.960  1.00  0.00     0.198 A 
ATOM     66  F   UNL A   1      41.274  33.605  35.076  1.00  0.00    -0.203 F 
ATOM     67  F   UNL A   1      37.238  31.894  38.328  1.00  0.00    -0.200 F 
ATOM     68  C   UNL A   1      38.879  33.504  37.792  1.00  0.00     0.200 A 
ATOM     69  F   UNL A   1      40.528  35.089  37.213  1.00  0.00    -0.200 F 
ATOM     70  F   UNL A   1      38.502  34.256  38.836  1.00  0.00    -0.200 F 
ENDBRANCH  46  60
BRANCH  47  71
ATOM     71  C   UNL A   1      42.513  26.416  27.785  1.00  0.00     0.064 A 
ATOM     72  C   UNL A   1      41.832  25.216  27.536  1.00  0.00     0.173 A 
ATOM     73  C   UNL A   1      43.528  26.787  26.891  1.00  0.00     0.173 A 
ATOM     74  F   UNL A   1      40.864  24.809  28.371  1.00  0.00    -0.203 F 
ATOM     75  C   UNL A   1      42.154  24.417  26.441  1.00  0.00     0.198 A 
ATOM     76  C   UNL A   1      43.832  26.000  25.782  1.00  0.00     0.198 A 
ATOM     77  F   UNL A   1      44.204  27.930  27.080  1.00  0.00    -0.203 F 
ATOM     78  F   UNL A   1      41.504  23.262  26.242  1.00  0.00    -0.200 F 
ATOM     79  C   UNL A   1      43.147  24.814  25.558  1.00  0.00     0.200 A 
ATOM     80  F   UNL A   1      44.780  26.396  24.921  1.00  0.00    -0.200 F 
ATOM     81  F   UNL A   1      43.445  24.055  24.496  1.00  0.00    -0.200 F 
ENDBRANCH  47  71
BRANCH  59  82
ATOM     82  C   UNL A   1      44.622  26.855  34.429  1.00  0.00     0.064 A 
ATOM     83  C   UNL A   1      45.905  27.394  34.597  1.00  0.00     0.173 A 
ATOM     84  C   UNL A   1      44.305  25.673  35.115  1.00  0.00     0.173 A 
ATOM     85  F   UNL A   1      46.256  28.516  33.953  1.00  0.00    -0.203 F 
ATOM     86  C   UNL A   1      46.837  26.770  35.421  1.00  0.00     0.198 A 
ATOM     87  C   UNL A   1      45.231  25.067  35.959  1.00  0.00     0.198 A 
ATOM     88  F   UNL A   1      43.086  25.127  34.994  1.00  0.00    -0.203 F 
ATOM     89  F   UNL A   1      48.065  27.288  35.553  1.00  0.00    -0.200 F 
ATOM     90  C   UNL A   1      46.495  25.615  36.110  1.00  0.00     0.200 A 
ATOM     91  F   UNL A   1      44.893  23.961  36.636  1.00  0.00    -0.200 F 
ATOM     92  F   UNL A   1      47.386  25.030  36.923  1.00  0.00    -0.200 F 
ENDBRANCH  59  82
ENDBRANCH  33  34
ENDBRANCH  26  28
ENDBRANCH  25  26
ENDBRANCH  24  25
ENDBRANCH   1  24
TORSDOF 14
ENDMDL
MODEL 2
REMARK VINA RESULT:     -12.4      1.626      2.602
REMARK SMILES CC(C)Cc1cc2c(cc1Cl)C=C(C(=O)OCCOC(=O)c1ccc(-c3c4nc(c(-c5c(F)c(F)c(F)c(F)c5F)c5ccc([nH]5)c(-c5c(F)c(F)c(F)c(F)c5F)c5nc(c(-c6c(F)c(F)c(F)c(F)c6F)c6ccc3[nH]6)C=C5)C=C4)cc1)[C@@H](C(F)(F)F)O2
REMARK SMILES IDX 17 1 16 2 14 3 15 4 13 5 5 6 6 7 10 8 7 9 9 10 11 11 8 12
REMARK SMILES IDX 90 13 12 14 85 15 4 16 2 17 1 18 3 19 86 20 87 21 88 22
REMARK SMILES IDX 89 23 18 24 19 25 20 26 21 27 22 28 23 29 84 30 24 31 83 32
REMARK SMILES IDX 25 33 26 34 27 35 77 36 28 37 82 38 76 39 78 40 29 41 81 42
REMARK SMILES IDX 75 43 74 44 30 46 62 47 42 48 61 49 43 50 46 51 60 52 79 53
REMARK SMILES IDX 44 54 45 55 59 57 80 58 47 59 31 60 32 61 40 62 33 63 34 64
REMARK SMILES IDX 38 65 41 66 35 67 36 68 39 69 37 70 63 71 64 72 72 73 65 74
REMARK SMILES IDX 66 75 70 76 73 77 67 78 68 79 71 80 69 81 48 82 49 83 57 84
REMARK SMILES IDX 50 85 51 86 55 87 58 88 52 89 53 90 56 91 54 92
REMARK H PARENT 78 45 46 56
REMARK Flexibility Score: inf
ROOT
ATOM      1  C   UNL A   1      31.366  28.706  25.282  1.00  0.00     0.275 C 
ENDROOT
BRANCH   1   2
ATOM      2  O   UNL A   1      32.373  27.724  25.619  1.00  0.00    -0.459 OA
BRANCH   2   3
ATOM      3  C   UNL A   1      33.038  27.185  24.573  1.00  0.00     0.338 C 
ATOM      4  O   UNL A   1      33.566  27.789  23.652  1.00  0.00    -0.246 OA
BRANCH   3   5
ATOM      5  C   UNL A   1      33.092  25.716  24.696  1.00  0.00     0.087 C 
ATOM      6  C   UNL A   1      34.528  20.895  24.678  1.00  0.00    -0.025 A 
ATOM      7  C   UNL A   1      33.284  21.559  24.661  1.00  0.00     0.052 A 
ATOM      8  C   UNL A   1      35.699  21.664  24.685  1.00  0.00     0.045 A 
ATOM      9  C   UNL A   1      33.206  22.947  24.692  1.00  0.00     0.128 A 
ATOM     10  C   UNL A   1      35.624  23.057  24.669  1.00  0.00     0.032 A 
ATOM     11  Cl  UNL A   1      37.273  20.955  24.719  1.00  0.00    -0.084 Cl
ATOM     12  C   UNL A   1      34.376  23.693  24.676  1.00  0.00     0.019 A 
ATOM     13  O   UNL A   1      31.956  23.491  24.760  1.00  0.00    -0.475 OA
ATOM     14  C   UNL A   1      34.295  25.135  24.644  1.00  0.00     0.027 C 
ATOM     15  C   UNL A   1      31.806  24.940  24.751  1.00  0.00     0.316 C 
BRANCH   6  16
ATOM     16  C   UNL A   1      34.534  19.387  24.761  1.00  0.00     0.040 C 
BRANCH  16  17
ATOM     17  C   UNL A   1      33.158  18.764  24.439  1.00  0.00    -0.013 C 
ATOM     18  C   UNL A   1      33.216  17.792  23.255  1.00  0.00     0.008 C 
ATOM     19  C   UNL A   1      32.624  18.034  25.670  1.00  0.00     0.008 C 
ENDBRANCH  16  17
ENDBRANCH   6  16
BRANCH  15  20
ATOM     20  C   UNL A   1      30.876  25.306  23.584  1.00  0.00     0.430 C 
ATOM     21  F   UNL A   1      30.114  24.251  23.211  1.00  0.00    -0.167 F 
ATOM     22  F   UNL A   1      30.020  26.301  23.919  1.00  0.00    -0.167 F 
ATOM     23  F   UNL A   1      31.566  25.714  22.495  1.00  0.00    -0.167 F 
ENDBRANCH  15  20
ENDBRANCH   3   5
ENDBRANCH   2   3
ENDBRANCH   1   2
BRANCH   1  24
ATOM     24  C   UNL A   1      31.836  30.128  25.590  1.00  0.00     0.275 C 
BRANCH  24  25
ATOM     25  O   UNL A   1      32.482  30.174  26.876  1.00  0.00    -0.458 OA
BRANCH  25  26
ATOM     26  C   UNL A   1      33.084  31.345  27.179  1.00  0.00     0.338 C 
ATOM     27  O   UNL A   1      32.586  32.457  27.206  1.00  0.00    -0.246 OA
BRANCH  26  28
ATOM     28  C   UNL A   1      34.469  31.095  27.604  1.00  0.00     0.060 A 
ATOM     29  C   UNL A   1      35.338  32.132  27.911  1.00  0.00     0.016 A 
ATOM     30  C   UNL A   1      34.831  29.783  27.883  1.00  0.00     0.016 A 
ATOM     31  C   UNL A   1      36.574  31.831  28.498  1.00  0.00     0.010 A 
ATOM     32  C   UNL A   1      35.974  29.504  28.622  1.00  0.00     0.010 A 
ATOM     33  C   UNL A   1      36.890  30.518  28.913  1.00  0.00    -0.014 A 
BRANCH  33  34
ATOM     34  C   UNL A   1      38.157  30.213  29.644  1.00  0.00     0.031 A 
ATOM     35  C   UNL A   1      38.384  30.684  31.064  1.00  0.00     0.074 A 
ATOM     36  C   UNL A   1      39.136  29.528  29.016  1.00  0.00     0.049 A 
ATOM     37  N   UNL A   1      39.402  30.449  31.858  1.00  0.00    -0.248 NA
ATOM     38  C   UNL A   1      37.370  31.570  31.660  1.00  0.00     0.031 C 
ATOM     39  C   UNL A   1      39.115  29.126  27.607  1.00  0.00     0.029 A 
ATOM     40  N   UNL A   1      40.327  29.024  29.482  1.00  0.00    -0.354 N 
ATOM     41  C   UNL A   1      39.155  31.172  33.019  1.00  0.00     0.074 A 
ATOM     42  C   UNL A   1      37.944  31.924  32.800  1.00  0.00     0.031 C 
ATOM     43  C   UNL A   1      40.183  28.354  27.353  1.00  0.00     0.029 A 
ATOM     44  C   UNL A   1      40.985  28.238  28.565  1.00  0.00     0.049 A 
ATOM     45  H   UNL A   1      40.673  29.207  30.384  1.00  0.00     0.167 HD
ATOM     46  C   UNL A   1      39.840  31.168  34.188  1.00  0.00     0.037 A 
ATOM     47  C   UNL A   1      42.093  27.480  28.694  1.00  0.00     0.037 A 
ATOM     48  C   UNL A   1      41.007  30.367  34.435  1.00  0.00     0.049 A 
ATOM     49  C   UNL A   1      42.797  27.428  30.022  1.00  0.00     0.074 A 
ATOM     50  C   UNL A   1      41.722  30.224  35.611  1.00  0.00     0.029 A 
ATOM     51  N   UNL A   1      41.621  29.560  33.489  1.00  0.00    -0.354 N 
ATOM     52  N   UNL A   1      42.492  28.036  31.141  1.00  0.00    -0.248 NA
ATOM     53  C   UNL A   1      43.996  26.581  30.106  1.00  0.00     0.031 C 
ATOM     54  C   UNL A   1      42.789  29.353  35.368  1.00  0.00     0.029 A 
ATOM     55  C   UNL A   1      42.712  28.922  34.054  1.00  0.00     0.049 A 
ATOM     56  H   UNL A   1      41.326  29.457  32.556  1.00  0.00     0.167 HD
ATOM     57  C   UNL A   1      43.442  27.630  32.067  1.00  0.00     0.074 A 
ATOM     58  C   UNL A   1      44.328  26.711  31.384  1.00  0.00     0.031 C 
ATOM     59  C   UNL A   1      43.572  27.994  33.366  1.00  0.00     0.037 A 
BRANCH  46  60
ATOM     60  C   UNL A   1      39.313  32.013  35.316  1.00  0.00     0.064 A 
ATOM     61  C   UNL A   1      38.498  31.464  36.318  1.00  0.00     0.173 A 
ATOM     62  C   UNL A   1      39.678  33.362  35.436  1.00  0.00     0.173 A 
ATOM     63  F   UNL A   1      38.116  30.179  36.250  1.00  0.00    -0.203 F 
ATOM     64  C   UNL A   1      38.044  32.240  37.382  1.00  0.00     0.198 A 
ATOM     65  C   UNL A   1      39.249  34.128  36.520  1.00  0.00     0.198 A 
ATOM     66  F   UNL A   1      40.466  33.937  34.515  1.00  0.00    -0.203 F 
ATOM     67  F   UNL A   1      37.230  31.703  38.301  1.00  0.00    -0.200 F 
ATOM     68  C   UNL A   1      38.428  33.567  37.486  1.00  0.00     0.200 A 
ATOM     69  F   UNL A   1      39.635  35.406  36.630  1.00  0.00    -0.200 F 
ATOM     70  F   UNL A   1      38.004  34.308  38.520  1.00  0.00    -0.200 F 
ENDBRANCH  46  60
BRANCH  47  71
ATOM     71  C   UNL A   1      42.538  26.635  27.555  1.00  0.00     0.064 A 
ATOM     72  C   UNL A   1      43.546  27.082  26.689  1.00  0.00     0.173 A 
ATOM     73  C   UNL A   1      42.006  25.357  27.331  1.00  0.00     0.173 A 
ATOM     74  F   UNL A   1      44.075  28.304  26.851  1.00  0.00    -0.203 F 
ATOM     75  C   UNL A   1      44.002  26.286  25.641  1.00  0.00     0.198 A 
ATOM     76  C   UNL A   1      42.481  24.551  26.298  1.00  0.00     0.198 A 
ATOM     77  F   UNL A   1      41.046  24.880  28.137  1.00  0.00    -0.203 F 
ATOM     78  F   UNL A   1      44.949  26.749  24.813  1.00  0.00    -0.200 F 
ATOM     79  C   UNL A   1      43.477  25.017  25.452  1.00  0.00     0.200 A 
ATOM     80  F   UNL A   1      41.983  23.318  26.130  1.00  0.00    -0.200 F 
ATOM     81  F   UNL A   1      43.927  24.244  24.455  1.00  0.00    -0.200 F 
ENDBRANCH  47  71
BRANCH  59  82
ATOM     82  C   UNL A   1      44.693  27.389  34.156  1.00  0.00     0.064 A 
ATOM     83  C   UNL A   1      44.543  26.158  34.807  1.00  0.00     0.173 A 
ATOM     84  C   UNL A   1      45.958  27.996  34.169  1.00  0.00     0.173 A 
ATOM     85  F   UNL A   1      43.350  25.546  34.829  1.00  0.00    -0.203 F 
ATOM     86  C   UNL A   1      45.621  25.556  35.450  1.00  0.00     0.198 A 
ATOM     87  C   UNL A   1      47.039  27.379  34.790  1.00  0.00     0.198 A 
ATOM     88  F   UNL A   1      46.151  29.170  33.550  1.00  0.00    -0.203 F 
ATOM     89  F   UNL A   1      45.453  24.388  36.085  1.00  0.00    -0.200 F 
ATOM     90  C   UNL A   1      46.870  26.161  35.431  1.00  0.00     0.200 A 
ATOM     91  F   UNL A   1      48.248  27.957  34.756  1.00  0.00    -0.200 F 
ATOM     92  F   UNL A   1      47.912  25.567  36.029  1.00  0.00    -0.200 F 
ENDBRANCH  59  82
ENDBRANCH  33  34
ENDBRANCH  26  28
ENDBRANCH  25  26
ENDBRANCH  24  25
ENDBRANCH   1  24
TORSDOF 14
ENDMDL
MODEL 3
REMARK VINA RESULT:     -12.3      4.514      9.984
REMARK SMILES CC(C)Cc1cc2c(cc1Cl)C=C(C(=O)OCCOC(=O)c1ccc(-c3c4nc(c(-c5c(F)c(F)c(F)c(F)c5F)c5ccc([nH]5)c(-c5c(F)c(F)c(F)c(F)c5F)c5nc(c(-c6c(F)c(F)c(F)c(F)c6F)c6ccc3[nH]6)C=C5)C=C4)cc1)[C@@H](C(F)(F)F)O2
REMARK SMILES IDX 17 1 16 2 14 3 15 4 13 5 5 6 6 7 10 8 7 9 9 10 11 11 8 12
REMARK SMILES IDX 90 13 12 14 85 15 4 16 2 17 1 18 3 19 86 20 87 21 88 22
REMARK SMILES IDX 89 23 18 24 19 25 20 26 21 27 22 28 23 29 84 30 24 31 83 32
REMARK SMILES IDX 25 33 26 34 27 35 77 36 28 37 82 38 76 39 78 40 29 41 81 42
REMARK SMILES IDX 75 43 74 44 30 46 62 47 42 48 61 49 43 50 46 51 60 52 79 53
REMARK SMILES IDX 44 54 45 55 59 57 80 58 47 59 31 60 32 61 40 62 33 63 34 64
REMARK SMILES IDX 38 65 41 66 35 67 36 68 39 69 37 70 63 71 64 72 72 73 65 74
REMARK SMILES IDX 66 75 70 76 73 77 67 78 68 79 71 80 69 81 48 82 49 83 57 84
REMARK SMILES IDX 50 85 51 86 55 87 58 88 52 89 53 90 56 91 54 92
REMARK H PARENT 78 45 46 56
REMARK Flexibility Score: inf
ROOT
ATOM      1  C   UNL A   1      35.913  20.368  24.987  1.00  0.00     0.275 C 
ENDROOT
BRANCH   1   2
ATOM      2  O   UNL A   1      35.301  21.511  24.345  1.00  0.00    -0.459 OA
BRANCH   2   3
ATOM      3  C   UNL A   1      33.950  21.528  24.342  1.00  0.00     0.338 C 
ATOM      4  O   UNL A   1      33.207  20.607  24.037  1.00  0.00    -0.246 OA
BRANCH   3   5
ATOM      5  C   UNL A   1      33.447  22.834  24.809  1.00  0.00     0.087 C 
ATOM      6  C   UNL A   1      32.634  27.746  25.522  1.00  0.00    -0.025 A 
ATOM      7  C   UNL A   1      32.378  26.580  26.273  1.00  0.00     0.052 A 
ATOM      8  C   UNL A   1      33.275  27.620  24.283  1.00  0.00     0.045 A 
ATOM      9  C   UNL A   1      32.713  25.320  25.786  1.00  0.00     0.128 A 
ATOM     10  C   UNL A   1      33.653  26.362  23.814  1.00  0.00     0.032 A 
ATOM     11  Cl  UNL A   1      33.624  28.979  23.278  1.00  0.00    -0.084 Cl
ATOM     12  C   UNL A   1      33.367  25.216  24.567  1.00  0.00     0.019 A 
ATOM     13  O   UNL A   1      32.347  24.250  26.549  1.00  0.00    -0.475 OA
ATOM     14  C   UNL A   1      33.772  23.913  24.091  1.00  0.00     0.027 C 
ATOM     15  C   UNL A   1      32.707  22.907  26.115  1.00  0.00     0.316 C 
BRANCH   6  16
ATOM     16  C   UNL A   1      32.138  29.068  26.061  1.00  0.00     0.040 C 
BRANCH  16  17
ATOM     17  C   UNL A   1      33.028  29.624  27.193  1.00  0.00    -0.013 C 
ATOM     18  C   UNL A   1      34.504  29.250  27.018  1.00  0.00     0.008 C 
ATOM     19  C   UNL A   1      32.893  31.145  27.252  1.00  0.00     0.008 C 
ENDBRANCH  16  17
ENDBRANCH   6  16
BRANCH  15  20
ATOM     20  C   UNL A   1      33.502  22.247  27.252  1.00  0.00     0.430 C 
ATOM     21  F   UNL A   1      34.793  22.656  27.254  1.00  0.00    -0.167 F 
ATOM     22  F   UNL A   1      32.995  22.563  28.468  1.00  0.00    -0.167 F 
ATOM     23  F   UNL A   1      33.503  20.898  27.152  1.00  0.00    -0.167 F 
ENDBRANCH  15  20
ENDBRANCH   3   5
ENDBRANCH   2   3
ENDBRANCH   1   2
BRANCH   1  24
ATOM     24  C   UNL A   1      37.439  20.437  24.930  1.00  0.00     0.275 C 
BRANCH  24  25
ATOM     25  O   UNL A   1      37.942  21.279  25.984  1.00  0.00    -0.458 OA
BRANCH  25  26
ATOM     26  C   UNL A   1      39.269  21.180  26.220  1.00  0.00     0.338 C 
ATOM     27  O   UNL A   1      40.021  20.276  25.897  1.00  0.00    -0.246 OA
BRANCH  26  28
ATOM     28  C   UNL A   1      39.753  22.414  26.855  1.00  0.00     0.060 A 
ATOM     29  C   UNL A   1      40.877  22.425  27.668  1.00  0.00     0.016 A 
ATOM     30  C   UNL A   1      39.171  23.612  26.464  1.00  0.00     0.016 A 
ATOM     31  C   UNL A   1      41.404  23.656  28.081  1.00  0.00     0.010 A 
ATOM     32  C   UNL A   1      39.795  24.825  26.728  1.00  0.00     0.010 A 
ATOM     33  C   UNL A   1      40.905  24.876  27.574  1.00  0.00    -0.014 A 
BRANCH  33  34
ATOM     34  C   UNL A   1      41.538  26.185  27.921  1.00  0.00     0.031 A 
ATOM     35  C   UNL A   1      42.925  26.546  27.436  1.00  0.00     0.074 A 
ATOM     36  C   UNL A   1      40.873  27.053  28.711  1.00  0.00     0.049 A 
ATOM     37  N   UNL A   1      43.590  27.665  27.599  1.00  0.00    -0.248 NA
ATOM     38  C   UNL A   1      43.689  25.511  26.720  1.00  0.00     0.031 C 
ATOM     39  C   UNL A   1      39.588  26.789  29.363  1.00  0.00     0.029 A 
ATOM     40  N   UNL A   1      41.167  28.344  29.082  1.00  0.00    -0.354 N 
ATOM     41  C   UNL A   1      44.840  27.453  27.029  1.00  0.00     0.074 A 
ATOM     42  C   UNL A   1      44.880  26.077  26.598  1.00  0.00     0.031 C 
ATOM     43  C   UNL A   1      39.157  27.910  29.962  1.00  0.00     0.029 A 
ATOM     44  C   UNL A   1      40.151  28.961  29.774  1.00  0.00     0.049 A 
ATOM     45  H   UNL A   1      42.021  28.784  28.870  1.00  0.00     0.167 HD
ATOM     46  C   UNL A   1      45.847  28.336  26.827  1.00  0.00     0.037 A 
ATOM     47  C   UNL A   1      40.017  30.239  30.182  1.00  0.00     0.037 A 
ATOM     48  C   UNL A   1      45.784  29.725  27.191  1.00  0.00     0.049 A 
ATOM     49  C   UNL A   1      41.112  31.225  29.882  1.00  0.00     0.074 A 
ATOM     50  C   UNL A   1      46.713  30.722  26.951  1.00  0.00     0.029 A 
ATOM     51  N   UNL A   1      44.723  30.315  27.861  1.00  0.00    -0.354 N 
ATOM     52  N   UNL A   1      42.243  31.033  29.250  1.00  0.00    -0.248 NA
ATOM     53  C   UNL A   1      40.910  32.605  30.345  1.00  0.00     0.031 C 
ATOM     54  C   UNL A   1      46.228  31.911  27.504  1.00  0.00     0.029 A 
ATOM     55  C   UNL A   1      44.979  31.662  28.049  1.00  0.00     0.049 A 
ATOM     56  H   UNL A   1      43.911  29.846  28.158  1.00  0.00     0.167 HD
ATOM     57  C   UNL A   1      42.878  32.267  29.219  1.00  0.00     0.074 A 
ATOM     58  C   UNL A   1      41.998  33.206  29.883  1.00  0.00     0.031 C 
ATOM     59  C   UNL A   1      44.084  32.589  28.694  1.00  0.00     0.037 A 
BRANCH  46  60
ATOM     60  C   UNL A   1      47.085  27.846  26.127  1.00  0.00     0.064 A 
ATOM     61  C   UNL A   1      48.199  27.391  26.851  1.00  0.00     0.173 A 
ATOM     62  C   UNL A   1      47.138  27.766  24.728  1.00  0.00     0.173 A 
ATOM     63  F   UNL A   1      48.203  27.448  28.191  1.00  0.00    -0.203 F 
ATOM     64  C   UNL A   1      49.329  26.902  26.200  1.00  0.00     0.198 A 
ATOM     65  C   UNL A   1      48.257  27.244  24.080  1.00  0.00     0.198 A 
ATOM     66  F   UNL A   1      46.097  28.175  23.986  1.00  0.00    -0.203 F 
ATOM     67  F   UNL A   1      50.395  26.515  26.913  1.00  0.00    -0.200 F 
ATOM     68  C   UNL A   1      49.352  26.820  24.817  1.00  0.00     0.200 A 
ATOM     69  F   UNL A   1      48.272  27.149  22.744  1.00  0.00    -0.200 F 
ATOM     70  F   UNL A   1      50.434  26.333  24.192  1.00  0.00    -0.200 F 
ENDBRANCH  46  60
BRANCH  47  71
ATOM     71  C   UNL A   1      38.751  30.671  30.830  1.00  0.00     0.064 A 
ATOM     72  C   UNL A   1      38.650  30.726  32.228  1.00  0.00     0.173 A 
ATOM     73  C   UNL A   1      37.638  31.078  30.080  1.00  0.00     0.173 A 
ATOM     74  F   UNL A   1      39.681  30.331  32.990  1.00  0.00    -0.203 F 
ATOM     75  C   UNL A   1      37.484  31.166  32.850  1.00  0.00     0.198 A 
ATOM     76  C   UNL A   1      36.482  31.543  30.704  1.00  0.00     0.198 A 
ATOM     77  F   UNL A   1      37.687  31.052  28.740  1.00  0.00    -0.203 F 
ATOM     78  F   UNL A   1      37.406  31.184  34.188  1.00  0.00    -0.200 F 
ATOM     79  C   UNL A   1      36.404  31.584  32.088  1.00  0.00     0.200 A 
ATOM     80  F   UNL A   1      35.447  31.962  29.963  1.00  0.00    -0.200 F 
ATOM     81  F   UNL A   1      35.289  32.024  32.686  1.00  0.00    -0.200 F 
ENDBRANCH  47  71
BRANCH  59  82
ATOM     82  C   UNL A   1      44.531  34.016  28.785  1.00  0.00     0.064 A 
ATOM     83  C   UNL A   1      45.304  34.470  29.862  1.00  0.00     0.173 A 
ATOM     84  C   UNL A   1      44.273  34.908  27.733  1.00  0.00     0.173 A 
ATOM     85  F   UNL A   1      45.567  33.657  30.895  1.00  0.00    -0.203 F 
ATOM     86  C   UNL A   1      45.800  35.771  29.885  1.00  0.00     0.198 A 
ATOM     87  C   UNL A   1      44.793  36.198  27.746  1.00  0.00     0.198 A 
ATOM     88  F   UNL A   1      43.547  34.514  26.676  1.00  0.00    -0.203 F 
ATOM     89  F   UNL A   1      46.520  36.193  30.933  1.00  0.00    -0.200 F 
ATOM     90  C   UNL A   1      45.554  36.629  28.822  1.00  0.00     0.200 A 
ATOM     91  F   UNL A   1      44.568  37.020  26.712  1.00  0.00    -0.200 F 
ATOM     92  F   UNL A   1      46.054  37.873  28.834  1.00  0.00    -0.200 F 
ENDBRANCH  59  82
ENDBRANCH  33  34
ENDBRANCH  26  28
ENDBRANCH  25  26
ENDBRANCH  24  25
ENDBRANCH   1  24
TORSDOF 14
ENDMDL
