MODEL 1
REMARK VINA RESULT:     -12.0      0.000      0.000
REMARK SMILES Cc1nc(C)c(C(=O)N[C@@H](Cc2ccccc2)C(=O)OCCOC(=O)c2ccc(-c3c4nc(c(-c5c(F)c(F)c(F)c(F)c5F)c5ccc([nH]5)c(-c5c(F)c(F)c(F)c(F)c5F)c5nc(c(-c6c(F)c(F)c(F)c(F)c6F)c6ccc3[nH]6)C=C5)C=C4)cc2)s1
REMARK SMILES IDX 21 1 20 2 18 3 19 4 10 5 9 6 7 7 8 8 6 10 1 11 2 12 3 13
REMARK SMILES IDX 89 14 4 15 5 16 11 17 12 18 13 19 17 20 14 21 16 22 15 23
REMARK SMILES IDX 22 24 23 25 24 26 25 27 26 28 27 29 88 30 28 31 87 32 29 33
REMARK SMILES IDX 30 34 31 35 81 36 32 37 86 38 80 39 82 40 33 41 85 42 79 43
REMARK SMILES IDX 78 44 34 46 66 47 46 48 65 49 47 50 50 51 64 52 83 53 48 54
REMARK SMILES IDX 49 55 63 57 84 58 51 59 35 60 36 61 44 62 37 63 38 64 42 65
REMARK SMILES IDX 45 66 39 67 40 68 43 69 41 70 67 71 68 72 76 73 69 74 70 75
REMARK SMILES IDX 74 76 77 77 71 78 72 79 75 80 73 81 52 82 53 83 61 84 54 85
REMARK SMILES IDX 55 86 59 87 62 88 56 89 57 90 60 91 58 92
REMARK H PARENT 9 9 82 45 50 56
REMARK Flexibility Score: inf
ROOT
ATOM      1  C   UNL A   1      31.637  29.040  25.166  1.00  0.00     0.274 C 
ENDROOT
BRANCH   1   2
ATOM      2  O   UNL A   1      32.563  28.167  25.841  1.00  0.00    -0.461 OA
BRANCH   2   3
ATOM      3  C   UNL A   1      32.021  27.071  26.437  1.00  0.00     0.329 C 
ATOM      4  O   UNL A   1      31.400  27.077  27.496  1.00  0.00    -0.250 OA
BRANCH   3   5
ATOM      5  C   UNL A   1      32.306  25.772  25.666  1.00  0.00     0.197 C 
BRANCH   5   6
ATOM      6  N   UNL A   1      31.354  25.473  24.590  1.00  0.00    -0.338 N 
ATOM      7  C   UNL A   1      30.979  24.340  23.910  1.00  0.00     0.263 C 
ATOM      8  O   UNL A   1      30.185  24.552  22.989  1.00  0.00    -0.268 OA
ATOM      9  H   UNL A   1      30.869  26.274  24.283  1.00  0.00     0.164 HD
BRANCH   7  10
ATOM     10  C   UNL A   1      31.413  22.989  24.250  1.00  0.00     0.115 A 
ATOM     11  C   UNL A   1      33.260  19.555  24.253  1.00  0.00     0.079 C 
ATOM     12  C   UNL A   1      32.425  20.774  24.439  1.00  0.00     0.091 A 
ATOM     13  N   UNL A   1      31.774  21.055  25.542  1.00  0.00    -0.246 NA
ATOM     14  S   UNL A   1      32.238  21.921  23.186  1.00  0.00    -0.113 S 
ATOM     15  C   UNL A   1      31.142  22.287  25.427  1.00  0.00     0.061 A 
ATOM     16  C   UNL A   1      30.292  22.688  26.584  1.00  0.00     0.068 C 
ENDBRANCH   7  10
ENDBRANCH   5   6
BRANCH   5  17
ATOM     17  C   UNL A   1      33.750  25.804  25.129  1.00  0.00     0.072 C 
BRANCH  17  18
ATOM     18  C   UNL A   1      34.482  24.490  25.302  1.00  0.00    -0.045 A 
ATOM     19  C   UNL A   1      34.323  23.726  26.465  1.00  0.00     0.004 A 
ATOM     20  C   UNL A   1      35.279  23.988  24.261  1.00  0.00     0.004 A 
ATOM     21  C   UNL A   1      34.932  22.475  26.575  1.00  0.00     0.000 A 
ATOM     22  C   UNL A   1      35.884  22.737  24.373  1.00  0.00     0.000 A 
ATOM     23  C   UNL A   1      35.707  21.979  25.527  1.00  0.00     0.000 A 
ENDBRANCH  17  18
ENDBRANCH   5  17
ENDBRANCH   3   5
ENDBRANCH   2   3
ENDBRANCH   1   2
BRANCH   1  24
ATOM     24  C   UNL A   1      31.752  30.461  25.710  1.00  0.00     0.275 C 
BRANCH  24  25
ATOM     25  O   UNL A   1      32.456  30.453  26.964  1.00  0.00    -0.458 OA
BRANCH  25  26
ATOM     26  C   UNL A   1      33.124  31.594  27.251  1.00  0.00     0.338 C 
ATOM     27  O   UNL A   1      32.725  32.740  27.171  1.00  0.00    -0.246 OA
BRANCH  26  28
ATOM     28  C   UNL A   1      34.455  31.254  27.770  1.00  0.00     0.060 A 
ATOM     29  C   UNL A   1      34.734  29.923  28.072  1.00  0.00     0.016 A 
ATOM     30  C   UNL A   1      35.365  32.260  28.087  1.00  0.00     0.016 A 
ATOM     31  C   UNL A   1      35.903  29.595  28.749  1.00  0.00     0.010 A 
ATOM     32  C   UNL A   1      36.564  31.921  28.724  1.00  0.00     0.010 A 
ATOM     33  C   UNL A   1      36.827  30.590  29.093  1.00  0.00    -0.014 A 
BRANCH  33  34
ATOM     34  C   UNL A   1      38.022  30.245  29.910  1.00  0.00     0.031 A 
ATOM     35  C   UNL A   1      39.113  29.398  29.316  1.00  0.00     0.074 A 
ATOM     36  C   UNL A   1      38.159  30.718  31.163  1.00  0.00     0.049 A 
ATOM     37  N   UNL A   1      40.134  28.828  29.906  1.00  0.00    -0.248 NA
ATOM     38  C   UNL A   1      39.039  29.148  27.868  1.00  0.00     0.031 C 
ATOM     39  C   UNL A   1      37.217  31.608  31.842  1.00  0.00     0.029 A 
ATOM     40  N   UNL A   1      39.156  30.521  32.087  1.00  0.00    -0.354 N 
ATOM     41  C   UNL A   1      40.783  28.100  28.918  1.00  0.00     0.074 A 
ATOM     42  C   UNL A   1      40.051  28.310  27.687  1.00  0.00     0.031 C 
ATOM     43  C   UNL A   1      37.696  31.906  33.060  1.00  0.00     0.029 A 
ATOM     44  C   UNL A   1      38.936  31.167  33.278  1.00  0.00     0.049 A 
ATOM     45  H   UNL A   1      39.952  29.968  31.912  1.00  0.00     0.167 HD
ATOM     46  C   UNL A   1      41.888  27.325  29.030  1.00  0.00     0.037 A 
ATOM     47  C   UNL A   1      39.634  31.137  34.430  1.00  0.00     0.037 A 
ATOM     48  C   UNL A   1      42.660  27.178  30.236  1.00  0.00     0.049 A 
ATOM     49  C   UNL A   1      40.851  30.263  34.534  1.00  0.00     0.074 A 
ATOM     50  C   UNL A   1      43.799  26.419  30.446  1.00  0.00     0.029 A 
ATOM     51  N   UNL A   1      42.387  27.828  31.429  1.00  0.00    -0.354 N 
ATOM     52  N   UNL A   1      41.405  29.504  33.621  1.00  0.00    -0.248 NA
ATOM     53  C   UNL A   1      41.526  30.222  35.839  1.00  0.00     0.031 C 
ATOM     54  C   UNL A   1      44.205  26.597  31.774  1.00  0.00     0.029 A 
ATOM     55  C   UNL A   1      43.335  27.488  32.381  1.00  0.00     0.049 A 
ATOM     56  H   UNL A   1      41.631  28.441  31.579  1.00  0.00     0.167 HD
ATOM     57  C   UNL A   1      42.489  28.895  34.238  1.00  0.00     0.074 A 
ATOM     58  C   UNL A   1      42.532  29.393  35.597  1.00  0.00     0.031 C 
ATOM     59  C   UNL A   1      43.362  27.995  33.727  1.00  0.00     0.037 A 
BRANCH  46  60
ATOM     60  C   UNL A   1      42.312  26.543  27.824  1.00  0.00     0.064 A 
ATOM     61  C   UNL A   1      43.301  27.009  26.947  1.00  0.00     0.173 A 
ATOM     62  C   UNL A   1      41.746  25.284  27.569  1.00  0.00     0.173 A 
ATOM     63  F   UNL A   1      43.864  28.210  27.144  1.00  0.00    -0.203 F 
ATOM     64  C   UNL A   1      43.695  26.251  25.847  1.00  0.00     0.198 A 
ATOM     65  C   UNL A   1      42.158  24.520  26.483  1.00  0.00     0.198 A 
ATOM     66  F   UNL A   1      40.799  24.792  28.384  1.00  0.00    -0.203 F 
ATOM     67  F   UNL A   1      44.618  26.729  25.001  1.00  0.00    -0.200 F 
ATOM     68  C   UNL A   1      43.128  25.006  25.619  1.00  0.00     0.200 A 
ATOM     69  F   UNL A   1      41.617  23.311  26.271  1.00  0.00    -0.200 F 
ATOM     70  F   UNL A   1      43.515  24.274  24.566  1.00  0.00    -0.200 F 
ENDBRANCH  46  60
BRANCH  47  71
ATOM     71  C   UNL A   1      39.172  31.937  35.593  1.00  0.00     0.064 A 
ATOM     72  C   UNL A   1      39.582  33.267  35.756  1.00  0.00     0.173 A 
ATOM     73  C   UNL A   1      38.315  31.392  36.559  1.00  0.00     0.173 A 
ATOM     74  F   UNL A   1      40.423  33.823  34.870  1.00  0.00    -0.203 F 
ATOM     75  C   UNL A   1      39.155  34.020  36.848  1.00  0.00     0.198 A 
ATOM     76  C   UNL A   1      37.869  32.154  37.636  1.00  0.00     0.198 A 
ATOM     77  F   UNL A   1      37.898  30.122  36.447  1.00  0.00    -0.203 F 
ATOM     78  F   UNL A   1      39.589  35.279  37.000  1.00  0.00    -0.200 F 
ATOM     79  C   UNL A   1      38.294  33.466  37.783  1.00  0.00     0.200 A 
ATOM     80  F   UNL A   1      37.027  31.618  38.530  1.00  0.00    -0.200 F 
ATOM     81  F   UNL A   1      37.877  34.193  38.827  1.00  0.00    -0.200 F 
ENDBRANCH  47  71
BRANCH  59  82
ATOM     82  C   UNL A   1      44.444  27.500  34.639  1.00  0.00     0.064 A 
ATOM     83  C   UNL A   1      45.664  28.180  34.756  1.00  0.00     0.173 A 
ATOM     84  C   UNL A   1      44.246  26.355  35.424  1.00  0.00     0.173 A 
ATOM     85  F   UNL A   1      45.904  29.270  34.010  1.00  0.00    -0.203 F 
ATOM     86  C   UNL A   1      46.658  27.720  35.615  1.00  0.00     0.198 A 
ATOM     87  C   UNL A   1      45.234  25.910  36.297  1.00  0.00     0.198 A 
ATOM     88  F   UNL A   1      43.094  25.674  35.347  1.00  0.00    -0.203 F 
ATOM     89  F   UNL A   1      47.831  28.363  35.684  1.00  0.00    -0.200 F 
ATOM     90  C   UNL A   1      46.440  26.590  36.389  1.00  0.00     0.200 A 
ATOM     91  F   UNL A   1      45.022  24.820  37.049  1.00  0.00    -0.200 F 
ATOM     92  F   UNL A   1      47.398  26.149  37.216  1.00  0.00    -0.200 F 
ENDBRANCH  59  82
ENDBRANCH  33  34
ENDBRANCH  26  28
ENDBRANCH  25  26
ENDBRANCH  24  25
ENDBRANCH   1  24
TORSDOF 15
ENDMDL
MODEL 2
REMARK VINA RESULT:     -11.8      4.524      9.749
REMARK SMILES Cc1nc(C)c(C(=O)N[C@@H](Cc2ccccc2)C(=O)OCCOC(=O)c2ccc(-c3c4nc(c(-c5c(F)c(F)c(F)c(F)c5F)c5ccc([nH]5)c(-c5c(F)c(F)c(F)c(F)c5F)c5nc(c(-c6c(F)c(F)c(F)c(F)c6F)c6ccc3[nH]6)C=C5)C=C4)cc2)s1
REMARK SMILES IDX 21 1 20 2 18 3 19 4 10 5 9 6 7 7 8 8 6 10 1 11 2 12 3 13
REMARK SMILES IDX 89 14 4 15 5 16 11 17 12 18 13 19 17 20 14 21 16 22 15 23
REMARK SMILES IDX 22 24 23 25 24 26 25 27 26 28 27 29 88 30 28 31 87 32 29 33
REMARK SMILES IDX 30 34 31 35 81 36 32 37 86 38 80 39 82 40 33 41 85 42 79 43
REMARK SMILES IDX 78 44 34 46 66 47 46 48 65 49 47 50 50 51 64 52 83 53 48 54
REMARK SMILES IDX 49 55 63 57 84 58 51 59 35 60 36 61 44 62 37 63 38 64 42 65
REMARK SMILES IDX 45 66 39 67 40 68 43 69 41 70 67 71 68 72 76 73 69 74 70 75
REMARK SMILES IDX 74 76 77 77 71 78 72 79 75 80 73 81 52 82 53 83 61 84 54 85
REMARK SMILES IDX 55 86 59 87 62 88 56 89 57 90 60 91 58 92
REMARK H PARENT 9 9 82 45 50 56
REMARK Flexibility Score: inf
ROOT
ATOM      1  C   UNL A   1      36.652  22.641  23.720  1.00  0.00     0.274 C 
ENDROOT
BRANCH   1   2
ATOM      2  O   UNL A   1      35.261  22.876  24.009  1.00  0.00    -0.461 OA
BRANCH   2   3
ATOM      3  C   UNL A   1      35.001  23.815  24.958  1.00  0.00     0.329 C 
ATOM      4  O   UNL A   1      35.304  23.724  26.143  1.00  0.00    -0.250 OA
BRANCH   3   5
ATOM      5  C   UNL A   1      34.223  25.020  24.405  1.00  0.00     0.197 C 
BRANCH   5   6
ATOM      6  N   UNL A   1      33.998  24.994  22.954  1.00  0.00    -0.338 N 
ATOM      7  C   UNL A   1      33.232  25.722  22.076  1.00  0.00     0.263 C 
ATOM      8  O   UNL A   1      33.268  25.299  20.916  1.00  0.00    -0.268 OA
ATOM      9  H   UNL A   1      34.519  24.290  22.505  1.00  0.00     0.164 HD
BRANCH   7  10
ATOM     10  C   UNL A   1      32.478  26.920  22.431  1.00  0.00     0.115 A 
ATOM     11  C   UNL A   1      29.614  29.352  23.472  1.00  0.00     0.079 C 
ATOM     12  C   UNL A   1      30.847  28.626  23.057  1.00  0.00     0.091 A 
ATOM     13  N   UNL A   1      32.058  29.116  23.165  1.00  0.00    -0.246 NA
ATOM     14  S   UNL A   1      30.767  27.060  22.376  1.00  0.00    -0.113 S 
ATOM     15  C   UNL A   1      32.996  28.176  22.755  1.00  0.00     0.061 A 
ATOM     16  C   UNL A   1      34.413  28.639  22.745  1.00  0.00     0.068 C 
ENDBRANCH   7  10
ENDBRANCH   5   6
BRANCH   5  17
ATOM     17  C   UNL A   1      32.890  25.160  25.165  1.00  0.00     0.072 C 
BRANCH  17  18
ATOM     18  C   UNL A   1      32.779  26.451  25.948  1.00  0.00    -0.045 A 
ATOM     19  C   UNL A   1      33.895  27.276  26.135  1.00  0.00     0.004 A 
ATOM     20  C   UNL A   1      31.532  26.871  26.438  1.00  0.00     0.004 A 
ATOM     21  C   UNL A   1      33.762  28.506  26.781  1.00  0.00     0.000 A 
ATOM     22  C   UNL A   1      31.402  28.101  27.080  1.00  0.00     0.000 A 
ATOM     23  C   UNL A   1      32.515  28.920  27.248  1.00  0.00     0.000 A 
ENDBRANCH  17  18
ENDBRANCH   5  17
ENDBRANCH   3   5
ENDBRANCH   2   3
ENDBRANCH   1   2
BRANCH   1  24
ATOM     24  C   UNL A   1      37.130  21.363  24.403  1.00  0.00     0.275 C 
BRANCH  24  25
ATOM     25  O   UNL A   1      37.543  21.651  25.751  1.00  0.00    -0.458 OA
BRANCH  25  26
ATOM     26  C   UNL A   1      38.856  21.448  26.001  1.00  0.00     0.338 C 
ATOM     27  O   UNL A   1      39.526  20.462  25.757  1.00  0.00    -0.246 OA
BRANCH  26  28
ATOM     28  C   UNL A   1      39.430  22.670  26.579  1.00  0.00     0.060 A 
ATOM     29  C   UNL A   1      38.966  23.903  26.128  1.00  0.00     0.016 A 
ATOM     30  C   UNL A   1      40.513  22.596  27.453  1.00  0.00     0.016 A 
ATOM     31  C   UNL A   1      39.622  25.071  26.502  1.00  0.00     0.010 A 
ATOM     32  C   UNL A   1      41.139  23.776  27.868  1.00  0.00     0.010 A 
ATOM     33  C   UNL A   1      40.722  25.022  27.367  1.00  0.00    -0.014 A 
BRANCH  33  34
ATOM     34  C   UNL A   1      41.482  26.262  27.676  1.00  0.00     0.031 A 
ATOM     35  C   UNL A   1      40.854  27.329  28.530  1.00  0.00     0.074 A 
ATOM     36  C   UNL A   1      42.744  26.426  27.235  1.00  0.00     0.049 A 
ATOM     37  N   UNL A   1      41.260  28.553  28.759  1.00  0.00    -0.248 NA
ATOM     38  C   UNL A   1      39.597  26.977  29.206  1.00  0.00     0.031 C 
ATOM     39  C   UNL A   1      43.505  25.446  26.460  1.00  0.00     0.029 A 
ATOM     40  N   UNL A   1      43.614  27.477  27.388  1.00  0.00    -0.354 N 
ATOM     41  C   UNL A   1      40.277  29.136  29.547  1.00  0.00     0.074 A 
ATOM     42  C   UNL A   1      39.261  28.128  29.771  1.00  0.00     0.031 C 
ATOM     43  C   UNL A   1      44.737  25.928  26.233  1.00  0.00     0.029 A 
ATOM     44  C   UNL A   1      44.827  27.280  26.777  1.00  0.00     0.049 A 
ATOM     45  H   UNL A   1      43.388  28.295  27.888  1.00  0.00     0.167 HD
ATOM     46  C   UNL A   1      40.226  30.398  30.037  1.00  0.00     0.037 A 
ATOM     47  C   UNL A   1      45.880  28.108  26.636  1.00  0.00     0.037 A 
ATOM     48  C   UNL A   1      41.272  31.374  29.880  1.00  0.00     0.049 A 
ATOM     49  C   UNL A   1      45.798  29.507  27.179  1.00  0.00     0.074 A 
ATOM     50  C   UNL A   1      41.315  32.677  30.346  1.00  0.00     0.029 A 
ATOM     51  N   UNL A   1      42.473  31.143  29.229  1.00  0.00    -0.354 N 
ATOM     52  N   UNL A   1      44.824  30.080  27.844  1.00  0.00    -0.248 NA
ATOM     53  C   UNL A   1      46.952  30.382  26.931  1.00  0.00     0.031 C 
ATOM     54  C   UNL A   1      42.536  33.240  29.960  1.00  0.00     0.029 A 
ATOM     55  C   UNL A   1      43.265  32.278  29.280  1.00  0.00     0.049 A 
ATOM     56  H   UNL A   1      42.727  30.296  28.795  1.00  0.00     0.167 HD
ATOM     57  C   UNL A   1      45.245  31.379  28.091  1.00  0.00     0.074 A 
ATOM     58  C   UNL A   1      46.574  31.503  27.529  1.00  0.00     0.031 C 
ATOM     59  C   UNL A   1      44.585  32.382  28.716  1.00  0.00     0.037 A 
BRANCH  46  60
ATOM     60  C   UNL A   1      38.981  30.811  30.762  1.00  0.00     0.064 A 
ATOM     61  C   UNL A   1      37.864  31.319  30.086  1.00  0.00     0.173 A 
ATOM     62  C   UNL A   1      38.894  30.653  32.154  1.00  0.00     0.173 A 
ATOM     63  F   UNL A   1      37.903  31.497  28.757  1.00  0.00    -0.203 F 
ATOM     64  C   UNL A   1      36.709  31.672  30.781  1.00  0.00     0.198 A 
ATOM     65  C   UNL A   1      37.732  30.986  32.841  1.00  0.00     0.198 A 
ATOM     66  F   UNL A   1      39.937  30.165  32.845  1.00  0.00    -0.203 F 
ATOM     67  F   UNL A   1      35.662  32.187  30.121  1.00  0.00    -0.200 F 
ATOM     68  C   UNL A   1      36.641  31.499  32.155  1.00  0.00     0.200 A 
ATOM     69  F   UNL A   1      37.665  30.807  34.169  1.00  0.00    -0.200 F 
ATOM     70  F   UNL A   1      35.526  31.831  32.821  1.00  0.00    -0.200 F 
ENDBRANCH  46  60
BRANCH  47  71
ATOM     71  C   UNL A   1      47.091  27.645  25.914  1.00  0.00     0.064 A 
ATOM     72  C   UNL A   1      48.188  27.126  26.614  1.00  0.00     0.173 A 
ATOM     73  C   UNL A   1      47.178  27.710  24.516  1.00  0.00     0.173 A 
ATOM     74  F   UNL A   1      48.162  27.068  27.954  1.00  0.00    -0.203 F 
ATOM     75  C   UNL A   1      49.329  26.694  25.941  1.00  0.00     0.198 A 
ATOM     76  C   UNL A   1      48.309  27.255  23.843  1.00  0.00     0.198 A 
ATOM     77  F   UNL A   1      46.154  28.203  23.803  1.00  0.00    -0.203 F 
ATOM     78  F   UNL A   1      50.379  26.233  26.635  1.00  0.00    -0.200 F 
ATOM     79  C   UNL A   1      49.386  26.752  24.557  1.00  0.00     0.200 A 
ATOM     80  F   UNL A   1      48.354  27.301  22.505  1.00  0.00    -0.200 F 
ATOM     81  F   UNL A   1      50.480  26.328  23.910  1.00  0.00    -0.200 F 
ENDBRANCH  47  71
BRANCH  59  82
ATOM     82  C   UNL A   1      45.294  33.697  28.835  1.00  0.00     0.064 A 
ATOM     83  C   UNL A   1      45.142  34.697  27.865  1.00  0.00     0.173 A 
ATOM     84  C   UNL A   1      46.109  33.969  29.944  1.00  0.00     0.173 A 
ATOM     85  F   UNL A   1      44.386  34.474  26.778  1.00  0.00    -0.203 F 
ATOM     86  C   UNL A   1      45.795  35.919  27.992  1.00  0.00     0.198 A 
ATOM     87  C   UNL A   1      46.744  35.200  30.077  1.00  0.00     0.198 A 
ATOM     88  F   UNL A   1      46.283  33.043  30.898  1.00  0.00    -0.203 F 
ATOM     89  F   UNL A   1      45.666  36.849  27.035  1.00  0.00    -0.200 F 
ATOM     90  C   UNL A   1      46.591  36.172  29.100  1.00  0.00     0.200 A 
ATOM     91  F   UNL A   1      47.509  35.445  31.151  1.00  0.00    -0.200 F 
ATOM     92  F   UNL A   1      47.218  37.350  29.220  1.00  0.00    -0.200 F 
ENDBRANCH  59  82
ENDBRANCH  33  34
ENDBRANCH  26  28
ENDBRANCH  25  26
ENDBRANCH  24  25
ENDBRANCH   1  24
TORSDOF 15
ENDMDL
MODEL 3
REMARK VINA RESULT:     -11.8      1.171      2.047
REMARK SMILES Cc1nc(C)c(C(=O)N[C@@H](Cc2ccccc2)C(=O)OCCOC(=O)c2ccc(-c3c4nc(c(-c5c(F)c(F)c(F)c(F)c5F)c5ccc([nH]5)c(-c5c(F)c(F)c(F)c(F)c5F)c5nc(c(-c6c(F)c(F)c(F)c(F)c6F)c6ccc3[nH]6)C=C5)C=C4)cc2)s1
REMARK SMILES IDX 21 1 20 2 18 3 19 4 10 5 9 6 7 7 8 8 6 10 1 11 2 12 3 13
REMARK SMILES IDX 89 14 4 15 5 16 11 17 12 18 13 19 17 20 14 21 16 22 15 23
REMARK SMILES IDX 22 24 23 25 24 26 25 27 26 28 27 29 88 30 28 31 87 32 29 33
REMARK SMILES IDX 30 34 31 35 81 36 32 37 86 38 80 39 82 40 33 41 85 42 79 43
REMARK SMILES IDX 78 44 34 46 66 47 46 48 65 49 47 50 50 51 64 52 83 53 48 54
REMARK SMILES IDX 49 55 63 57 84 58 51 59 35 60 36 61 44 62 37 63 38 64 42 65
REMARK SMILES IDX 45 66 39 67 40 68 43 69 41 70 67 71 68 72 76 73 69 74 70 75
REMARK SMILES IDX 74 76 77 77 71 78 72 79 75 80 73 81 52 82 53 83 61 84 54 85
REMARK SMILES IDX 55 86 59 87 62 88 56 89 57 90 60 91 58 92
REMARK H PARENT 9 9 82 45 50 56
REMARK Flexibility Score: inf
ROOT
ATOM      1  C   UNL A   1      32.329  28.712  25.036  1.00  0.00     0.274 C 
ENDROOT
BRANCH   1   2
ATOM      2  O   UNL A   1      32.980  27.813  25.955  1.00  0.00    -0.461 OA
BRANCH   2   3
ATOM      3  C   UNL A   1      32.280  26.695  26.290  1.00  0.00     0.329 C 
ATOM      4  O   UNL A   1      31.207  26.686  26.885  1.00  0.00    -0.250 OA
BRANCH   3   5
ATOM      5  C   UNL A   1      33.002  25.399  25.888  1.00  0.00     0.197 C 
BRANCH   5   6
ATOM      6  N   UNL A   1      32.163  24.420  25.186  1.00  0.00    -0.338 N 
ATOM      7  C   UNL A   1      31.175  24.492  24.235  1.00  0.00     0.263 C 
ATOM      8  O   UNL A   1      30.652  23.403  23.978  1.00  0.00    -0.268 OA
ATOM      9  H   UNL A   1      32.355  23.494  25.462  1.00  0.00     0.164 HD
BRANCH   7  10
ATOM     10  C   UNL A   1      30.788  25.711  23.532  1.00  0.00     0.115 A 
ATOM     11  C   UNL A   1      29.130  29.116  22.608  1.00  0.00     0.079 C 
ATOM     12  C   UNL A   1      29.864  27.827  22.737  1.00  0.00     0.091 A 
ATOM     13  N   UNL A   1      30.900  27.497  22.004  1.00  0.00    -0.246 NA
ATOM     14  S   UNL A   1      29.387  26.644  23.874  1.00  0.00    -0.113 S 
ATOM     15  C   UNL A   1      31.401  26.264  22.405  1.00  0.00     0.061 A 
ATOM     16  C   UNL A   1      32.530  25.730  21.593  1.00  0.00     0.068 C 
ENDBRANCH   7  10
ENDBRANCH   5   6
BRANCH   5  17
ATOM     17  C   UNL A   1      34.252  25.747  25.057  1.00  0.00     0.072 C 
BRANCH  17  18
ATOM     18  C   UNL A   1      35.138  24.552  24.778  1.00  0.00    -0.045 A 
ATOM     19  C   UNL A   1      35.148  23.943  23.517  1.00  0.00     0.004 A 
ATOM     20  C   UNL A   1      36.017  24.083  25.767  1.00  0.00     0.004 A 
ATOM     21  C   UNL A   1      36.035  22.900  23.245  1.00  0.00     0.000 A 
ATOM     22  C   UNL A   1      36.903  23.043  25.492  1.00  0.00     0.000 A 
ATOM     23  C   UNL A   1      36.915  22.454  24.231  1.00  0.00     0.000 A 
ENDBRANCH  17  18
ENDBRANCH   5  17
ENDBRANCH   3   5
ENDBRANCH   2   3
ENDBRANCH   1   2
BRANCH   1  24
ATOM     24  C   UNL A   1      31.893  29.985  25.755  1.00  0.00     0.275 C 
BRANCH  24  25
ATOM     25  O   UNL A   1      32.555  30.082  27.029  1.00  0.00    -0.458 OA
BRANCH  25  26
ATOM     26  C   UNL A   1      33.205  31.248  27.247  1.00  0.00     0.338 C 
ATOM     27  O   UNL A   1      32.781  32.381  27.122  1.00  0.00    -0.246 OA
BRANCH  26  28
ATOM     28  C   UNL A   1      34.553  30.959  27.751  1.00  0.00     0.060 A 
ATOM     29  C   UNL A   1      34.895  29.637  28.024  1.00  0.00     0.016 A 
ATOM     30  C   UNL A   1      35.419  31.999  28.084  1.00  0.00     0.016 A 
ATOM     31  C   UNL A   1      36.082  29.348  28.688  1.00  0.00     0.010 A 
ATOM     32  C   UNL A   1      36.637  31.702  28.706  1.00  0.00     0.010 A 
ATOM     33  C   UNL A   1      36.962  30.377  29.046  1.00  0.00    -0.014 A 
BRANCH  33  34
ATOM     34  C   UNL A   1      38.177  30.071  29.849  1.00  0.00     0.031 A 
ATOM     35  C   UNL A   1      39.267  29.221  29.257  1.00  0.00     0.074 A 
ATOM     36  C   UNL A   1      38.332  30.581  31.086  1.00  0.00     0.049 A 
ATOM     37  N   UNL A   1      40.307  28.682  29.843  1.00  0.00    -0.248 NA
ATOM     38  C   UNL A   1      39.170  28.930  27.820  1.00  0.00     0.031 C 
ATOM     39  C   UNL A   1      37.392  31.477  31.757  1.00  0.00     0.029 A 
ATOM     40  N   UNL A   1      39.349  30.422  31.995  1.00  0.00    -0.354 N 
ATOM     41  C   UNL A   1      40.947  27.934  28.864  1.00  0.00     0.074 A 
ATOM     42  C   UNL A   1      40.189  28.100  27.642  1.00  0.00     0.031 C 
ATOM     43  C   UNL A   1      37.890  31.815  32.957  1.00  0.00     0.029 A 
ATOM     44  C   UNL A   1      39.143  31.099  33.172  1.00  0.00     0.049 A 
ATOM     45  H   UNL A   1      40.148  29.875  31.820  1.00  0.00     0.167 HD
ATOM     46  C   UNL A   1      42.064  27.176  28.976  1.00  0.00     0.037 A 
ATOM     47  C   UNL A   1      39.863  31.111  34.310  1.00  0.00     0.037 A 
ATOM     48  C   UNL A   1      42.861  27.074  30.170  1.00  0.00     0.049 A 
ATOM     49  C   UNL A   1      41.094  30.256  34.415  1.00  0.00     0.074 A 
ATOM     50  C   UNL A   1      44.014  26.336  30.380  1.00  0.00     0.029 A 
ATOM     51  N   UNL A   1      42.602  27.753  31.350  1.00  0.00    -0.354 N 
ATOM     52  N   UNL A   1      41.640  29.478  33.512  1.00  0.00    -0.248 NA
ATOM     53  C   UNL A   1      41.794  30.260  35.707  1.00  0.00     0.031 C 
ATOM     54  C   UNL A   1      44.442  26.555  31.694  1.00  0.00     0.029 A 
ATOM     55  C   UNL A   1      43.573  27.453  32.292  1.00  0.00     0.049 A 
ATOM     56  H   UNL A   1      41.841  28.361  31.497  1.00  0.00     0.167 HD
ATOM     57  C   UNL A   1      42.744  28.900  34.125  1.00  0.00     0.074 A 
ATOM     58  C   UNL A   1      42.807  29.437  35.468  1.00  0.00     0.031 C 
ATOM     59  C   UNL A   1      43.619  27.997  33.623  1.00  0.00     0.037 A 
BRANCH  46  60
ATOM     60  C   UNL A   1      42.475  26.366  27.784  1.00  0.00     0.064 A 
ATOM     61  C   UNL A   1      43.468  26.803  26.897  1.00  0.00     0.173 A 
ATOM     62  C   UNL A   1      41.891  25.111  27.554  1.00  0.00     0.173 A 
ATOM     63  F   UNL A   1      44.048  27.999  27.070  1.00  0.00    -0.203 F 
ATOM     64  C   UNL A   1      43.850  26.018  25.811  1.00  0.00     0.198 A 
ATOM     65  C   UNL A   1      42.291  24.320  26.482  1.00  0.00     0.198 A 
ATOM     66  F   UNL A   1      40.940  24.647  28.380  1.00  0.00    -0.203 F 
ATOM     67  F   UNL A   1      44.778  26.468  24.955  1.00  0.00    -0.200 F 
ATOM     68  C   UNL A   1      43.267  24.777  25.608  1.00  0.00     0.200 A 
ATOM     69  F   UNL A   1      41.734  23.115  26.294  1.00  0.00    -0.200 F 
ATOM     70  F   UNL A   1      43.641  24.020  24.567  1.00  0.00    -0.200 F 
ENDBRANCH  46  60
BRANCH  47  71
ATOM     71  C   UNL A   1      39.413  31.937  35.459  1.00  0.00     0.064 A 
ATOM     72  C   UNL A   1      39.857  33.258  35.609  1.00  0.00     0.173 A 
ATOM     73  C   UNL A   1      38.535  31.427  36.425  1.00  0.00     0.173 A 
ATOM     74  F   UNL A   1      40.718  33.780  34.723  1.00  0.00    -0.203 F 
ATOM     75  C   UNL A   1      39.441  34.036  36.687  1.00  0.00     0.198 A 
ATOM     76  C   UNL A   1      38.100  32.214  37.488  1.00  0.00     0.198 A 
ATOM     77  F   UNL A   1      38.086  30.167  36.326  1.00  0.00    -0.203 F 
ATOM     78  F   UNL A   1      39.905  35.285  36.827  1.00  0.00    -0.200 F 
ATOM     79  C   UNL A   1      38.558  33.516  37.622  1.00  0.00     0.200 A 
ATOM     80  F   UNL A   1      37.238  31.712  38.382  1.00  0.00    -0.200 F 
ATOM     81  F   UNL A   1      38.152  34.267  38.654  1.00  0.00    -0.200 F 
ENDBRANCH  47  71
BRANCH  59  82
ATOM     82  C   UNL A   1      44.724  27.543  34.527  1.00  0.00     0.064 A 
ATOM     83  C   UNL A   1      45.931  28.251  34.614  1.00  0.00     0.173 A 
ATOM     84  C   UNL A   1      44.564  26.407  35.334  1.00  0.00     0.173 A 
ATOM     85  F   UNL A   1      46.135  29.334  33.847  1.00  0.00    -0.203 F 
ATOM     86  C   UNL A   1      46.946  27.828  35.466  1.00  0.00     0.198 A 
ATOM     87  C   UNL A   1      45.574  25.999  36.200  1.00  0.00     0.198 A 
ATOM     88  F   UNL A   1      43.427  25.699  35.285  1.00  0.00    -0.203 F 
ATOM     89  F   UNL A   1      48.106  28.498  35.508  1.00  0.00    -0.200 F 
ATOM     90  C   UNL A   1      46.765  26.706  36.262  1.00  0.00     0.200 A 
ATOM     91  F   UNL A   1      45.396  24.918  36.972  1.00  0.00    -0.200 F 
ATOM     92  F   UNL A   1      47.745  26.301  37.083  1.00  0.00    -0.200 F 
ENDBRANCH  59  82
ENDBRANCH  33  34
ENDBRANCH  26  28
ENDBRANCH  25  26
ENDBRANCH  24  25
ENDBRANCH   1  24
TORSDOF 15
ENDMDL
