MODEL 1
REMARK VINA RESULT:     -11.0      0.000      0.000
REMARK SMILES C[C@H](CC(=O)OCCOC(=O)c1ccc(-c2c3nc(c(-c4c(F)c(F)c(F)c(F)c4F)c4ccc([nH]4)c(-c4c(F)c(F)c(F)c(F)c4F)c4nc(c(-c5c(F)c(F)c(F)c(F)c5F)c5ccc2[nH]5)C=C4)C=C3)cc1)NC(=O)CS[C@H]1CCS(=O)(=O)C1
REMARK SMILES IDX 6 1 4 2 5 3 3 4 2 5 1 6 75 7 76 8 77 10 78 11 79 12 80 13
REMARK SMILES IDX 81 14 86 15 82 16 83 17 84 18 85 19 7 20 8 21 9 22 10 23
REMARK SMILES IDX 11 24 12 25 13 26 74 27 14 28 73 29 15 30 16 31 17 32 67 33
REMARK SMILES IDX 18 34 72 35 66 36 68 37 19 38 71 39 65 40 64 41 20 43 52 44
REMARK SMILES IDX 32 45 51 46 33 47 36 48 50 49 69 50 34 51 35 52 49 54 70 55
REMARK SMILES IDX 37 56 21 57 22 58 30 59 23 60 24 61 28 62 31 63 25 64 26 65
REMARK SMILES IDX 29 66 27 67 53 68 54 69 62 70 55 71 56 72 60 73 63 74 57 75
REMARK SMILES IDX 58 76 61 77 59 78 38 79 39 80 47 81 40 82 41 83 45 84 48 85
REMARK SMILES IDX 42 86 43 87 46 88 44 89
REMARK H PARENT 75 9 68 42 36 53
REMARK Flexibility Score: inf
ROOT
ATOM      1  O   UNL A   1      32.874  28.250  25.491  1.00  0.00    -0.462 OA
ENDROOT
BRANCH   1   2
ATOM      2  C   UNL A   1      33.663  27.446  24.741  1.00  0.00     0.307 C 
ATOM      3  O   UNL A   1      34.053  27.710  23.614  1.00  0.00    -0.252 OA
BRANCH   2   4
ATOM      4  C   UNL A   1      34.069  26.196  25.475  1.00  0.00     0.147 C 
BRANCH   4   5
ATOM      5  C   UNL A   1      33.124  25.039  25.122  1.00  0.00     0.090 C 
ATOM      6  C   UNL A   1      33.801  23.689  25.325  1.00  0.00     0.031 C 
BRANCH   5   7
ATOM      7  N   UNL A   1      31.898  25.130  25.927  1.00  0.00    -0.352 N 
ATOM      8  C   UNL A   1      30.650  25.587  25.592  1.00  0.00     0.230 C 
ATOM      9  H   UNL A   1      31.986  24.810  26.855  1.00  0.00     0.163 HD
ATOM     10  O   UNL A   1      29.839  25.756  26.503  1.00  0.00    -0.274 OA
BRANCH   8  11
ATOM     11  C   UNL A   1      30.299  25.843  24.134  1.00  0.00     0.169 C 
BRANCH  11  12
ATOM     12  S   UNL A   1      28.613  26.496  23.863  1.00  0.00    -0.148 SA
BRANCH  12  13
ATOM     13  C   UNL A   1      28.811  28.255  23.381  1.00  0.00     0.063 C 
ATOM     14  C   UNL A   1      29.967  28.418  22.388  1.00  0.00     0.031 C 
ATOM     15  C   UNL A   1      27.649  28.994  22.755  1.00  0.00     0.151 C 
ATOM     16  C   UNL A   1      30.045  29.912  22.100  1.00  0.00     0.138 C 
ATOM     17  S   UNL A   1      28.357  30.438  21.954  1.00  0.00     0.151 S 
ATOM     18  O   UNL A   1      28.204  31.621  22.776  1.00  0.00    -0.229 OA
ATOM     19  O   UNL A   1      27.993  30.420  20.553  1.00  0.00    -0.229 OA
ENDBRANCH  12  13
ENDBRANCH  11  12
ENDBRANCH   8  11
ENDBRANCH   5   7
ENDBRANCH   4   5
ENDBRANCH   2   4
ENDBRANCH   1   2
BRANCH   1  20
ATOM     20  C   UNL A   1      32.350  29.409  24.802  1.00  0.00     0.274 C 
BRANCH  20  21
ATOM     21  C   UNL A   1      31.644  30.390  25.748  1.00  0.00     0.275 C 
BRANCH  21  22
ATOM     22  O   UNL A   1      32.295  30.447  27.037  1.00  0.00    -0.458 OA
BRANCH  22  23
ATOM     23  C   UNL A   1      33.071  31.544  27.241  1.00  0.00     0.338 C 
ATOM     24  O   UNL A   1      32.709  32.706  27.131  1.00  0.00    -0.246 OA
BRANCH  23  25
ATOM     25  C   UNL A   1      34.444  31.190  27.688  1.00  0.00     0.060 A 
ATOM     26  C   UNL A   1      34.767  29.866  27.933  1.00  0.00     0.016 A 
ATOM     27  C   UNL A   1      35.367  32.175  28.045  1.00  0.00     0.016 A 
ATOM     28  C   UNL A   1      35.911  29.536  28.672  1.00  0.00     0.010 A 
ATOM     29  C   UNL A   1      36.584  31.827  28.670  1.00  0.00     0.010 A 
ATOM     30  C   UNL A   1      36.852  30.501  29.056  1.00  0.00    -0.014 A 
BRANCH  30  31
ATOM     31  C   UNL A   1      38.046  30.115  29.897  1.00  0.00     0.031 A 
ATOM     32  C   UNL A   1      39.146  29.233  29.332  1.00  0.00     0.074 A 
ATOM     33  C   UNL A   1      38.222  30.609  31.144  1.00  0.00     0.049 A 
ATOM     34  N   UNL A   1      40.188  28.703  29.934  1.00  0.00    -0.248 NA
ATOM     35  C   UNL A   1      39.067  28.908  27.901  1.00  0.00     0.031 C 
ATOM     36  C   UNL A   1      37.316  31.531  31.828  1.00  0.00     0.029 A 
ATOM     37  N   UNL A   1      39.243  30.427  32.055  1.00  0.00    -0.354 N 
ATOM     38  C   UNL A   1      40.850  27.945  28.971  1.00  0.00     0.074 A 
ATOM     39  C   UNL A   1      40.092  28.082  27.746  1.00  0.00     0.031 C 
ATOM     40  C   UNL A   1      37.846  31.886  33.007  1.00  0.00     0.029 A 
ATOM     41  C   UNL A   1      39.070  31.124  33.229  1.00  0.00     0.049 A 
ATOM     42  H   UNL A   1      40.022  29.851  31.881  1.00  0.00     0.167 HD
ATOM     43  C   UNL A   1      41.980  27.200  29.090  1.00  0.00     0.037 A 
ATOM     44  C   UNL A   1      39.772  31.124  34.381  1.00  0.00     0.037 A 
ATOM     45  C   UNL A   1      42.773  27.091  30.291  1.00  0.00     0.049 A 
ATOM     46  C   UNL A   1      40.980  30.235  34.516  1.00  0.00     0.074 A 
ATOM     47  C   UNL A   1      43.918  26.340  30.508  1.00  0.00     0.029 A 
ATOM     48  N   UNL A   1      42.515  27.763  31.477  1.00  0.00    -0.354 N 
ATOM     49  N   UNL A   1      41.540  29.456  33.623  1.00  0.00    -0.248 NA
ATOM     50  C   UNL A   1      41.642  30.212  35.828  1.00  0.00     0.031 C 
ATOM     51  C   UNL A   1      44.317  26.511  31.838  1.00  0.00     0.029 A 
ATOM     52  C   UNL A   1      43.465  27.426  32.433  1.00  0.00     0.049 A 
ATOM     53  H   UNL A   1      41.767  28.388  31.620  1.00  0.00     0.167 HD
ATOM     54  C   UNL A   1      42.626  28.867  34.259  1.00  0.00     0.074 A 
ATOM     55  C   UNL A   1      42.665  29.403  35.603  1.00  0.00     0.031 C 
ATOM     56  C   UNL A   1      43.508  27.961  33.770  1.00  0.00     0.037 A 
BRANCH  43  57
ATOM     57  C   UNL A   1      42.400  26.377  27.899  1.00  0.00     0.064 A 
ATOM     58  C   UNL A   1      41.836  25.125  27.610  1.00  0.00     0.173 A 
ATOM     59  C   UNL A   1      43.374  26.872  27.016  1.00  0.00     0.173 A 
ATOM     60  F   UNL A   1      40.907  24.599  28.422  1.00  0.00    -0.203 F 
ATOM     61  C   UNL A   1      42.262  24.384  26.509  1.00  0.00     0.198 A 
ATOM     62  C   UNL A   1      43.771  26.145  25.897  1.00  0.00     0.198 A 
ATOM     63  F   UNL A   1      43.936  28.071  27.232  1.00  0.00    -0.203 F 
ATOM     64  F   UNL A   1      41.754  23.163  26.288  1.00  0.00    -0.200 F 
ATOM     65  C   UNL A   1      43.225  24.894  25.651  1.00  0.00     0.200 A 
ATOM     66  F   UNL A   1      44.688  26.650  25.061  1.00  0.00    -0.200 F 
ATOM     67  F   UNL A   1      43.633  24.180  24.593  1.00  0.00    -0.200 F 
ENDBRANCH  43  57
BRANCH  44  68
ATOM     68  C   UNL A   1      39.312  31.943  35.540  1.00  0.00     0.064 A 
ATOM     69  C   UNL A   1      39.743  33.264  35.721  1.00  0.00     0.173 A 
ATOM     70  C   UNL A   1      38.450  31.406  36.510  1.00  0.00     0.173 A 
ATOM     71  F   UNL A   1      40.596  33.817  34.845  1.00  0.00    -0.203 F 
ATOM     72  C   UNL A   1      39.347  34.008  36.833  1.00  0.00     0.198 A 
ATOM     73  C   UNL A   1      38.020  32.164  37.597  1.00  0.00     0.198 A 
ATOM     74  F   UNL A   1      38.014  30.142  36.396  1.00  0.00    -0.203 F 
ATOM     75  F   UNL A   1      39.825  35.247  37.012  1.00  0.00    -0.200 F 
ATOM     76  C   UNL A   1      38.477  33.460  37.763  1.00  0.00     0.200 A 
ATOM     77  F   UNL A   1      37.166  31.633  38.484  1.00  0.00    -0.200 F 
ATOM     78  F   UNL A   1      38.090  34.178  38.826  1.00  0.00    -0.200 F 
ENDBRANCH  44  68
BRANCH  56  79
ATOM     79  C   UNL A   1      44.623  27.526  34.681  1.00  0.00     0.064 A 
ATOM     80  C   UNL A   1      45.848  28.209  34.739  1.00  0.00     0.173 A 
ATOM     81  C   UNL A   1      44.466  26.401  35.506  1.00  0.00     0.173 A 
ATOM     82  F   UNL A   1      46.059  29.283  33.962  1.00  0.00    -0.203 F 
ATOM     83  C   UNL A   1      46.887  27.756  35.550  1.00  0.00     0.198 A 
ATOM     84  C   UNL A   1      45.493  25.973  36.343  1.00  0.00     0.198 A 
ATOM     85  F   UNL A   1      43.315  25.712  35.500  1.00  0.00    -0.203 F 
ATOM     86  F   UNL A   1      48.072  28.383  35.532  1.00  0.00    -0.200 F 
ATOM     87  C   UNL A   1      46.707  26.641  36.355  1.00  0.00     0.200 A 
ATOM     88  F   UNL A   1      45.312  24.903  37.131  1.00  0.00    -0.200 F 
ATOM     89  F   UNL A   1      47.709  26.203  37.130  1.00  0.00    -0.200 F 
ENDBRANCH  56  79
ENDBRANCH  30  31
ENDBRANCH  23  25
ENDBRANCH  22  23
ENDBRANCH  21  22
ENDBRANCH  20  21
ENDBRANCH   1  20
TORSDOF 16
ENDMDL
MODEL 2
REMARK VINA RESULT:     -10.9      5.061     10.291
REMARK SMILES C[C@H](CC(=O)OCCOC(=O)c1ccc(-c2c3nc(c(-c4c(F)c(F)c(F)c(F)c4F)c4ccc([nH]4)c(-c4c(F)c(F)c(F)c(F)c4F)c4nc(c(-c5c(F)c(F)c(F)c(F)c5F)c5ccc2[nH]5)C=C4)C=C3)cc1)NC(=O)CS[C@H]1CCS(=O)(=O)C1
REMARK SMILES IDX 6 1 4 2 5 3 3 4 2 5 1 6 75 7 76 8 77 10 78 11 79 12 80 13
REMARK SMILES IDX 81 14 86 15 82 16 83 17 84 18 85 19 7 20 8 21 9 22 10 23
REMARK SMILES IDX 11 24 12 25 13 26 74 27 14 28 73 29 15 30 16 31 17 32 67 33
REMARK SMILES IDX 18 34 72 35 66 36 68 37 19 38 71 39 65 40 64 41 20 43 52 44
REMARK SMILES IDX 32 45 51 46 33 47 36 48 50 49 69 50 34 51 35 52 49 54 70 55
REMARK SMILES IDX 37 56 21 57 22 58 30 59 23 60 24 61 28 62 31 63 25 64 26 65
REMARK SMILES IDX 29 66 27 67 53 68 54 69 62 70 55 71 56 72 60 73 63 74 57 75
REMARK SMILES IDX 58 76 61 77 59 78 38 79 39 80 47 81 40 82 41 83 45 84 48 85
REMARK SMILES IDX 42 86 43 87 46 88 44 89
REMARK H PARENT 75 9 68 42 36 53
REMARK Flexibility Score: inf
ROOT
ATOM      1  O   UNL A   1      35.576  23.445  24.148  1.00  0.00    -0.462 OA
ENDROOT
BRANCH   1   2
ATOM      2  C   UNL A   1      34.509  23.724  23.364  1.00  0.00     0.307 C 
ATOM      3  O   UNL A   1      34.354  23.306  22.226  1.00  0.00    -0.252 OA
BRANCH   2   4
ATOM      4  C   UNL A   1      33.483  24.568  24.071  1.00  0.00     0.147 C 
BRANCH   4   5
ATOM      5  C   UNL A   1      33.873  24.760  25.543  1.00  0.00     0.090 C 
ATOM      6  C   UNL A   1      34.162  26.223  25.854  1.00  0.00     0.031 C 
BRANCH   5   7
ATOM      7  N   UNL A   1      32.807  24.246  26.415  1.00  0.00    -0.352 N 
ATOM      8  C   UNL A   1      32.417  22.957  26.673  1.00  0.00     0.230 C 
ATOM      9  H   UNL A   1      32.291  24.937  26.891  1.00  0.00     0.163 HD
ATOM     10  O   UNL A   1      31.360  22.790  27.281  1.00  0.00    -0.274 OA
BRANCH   8  11
ATOM     11  C   UNL A   1      33.295  21.794  26.235  1.00  0.00     0.169 C 
BRANCH  11  12
ATOM     12  S   UNL A   1      32.553  20.726  24.950  1.00  0.00    -0.148 SA
BRANCH  12  13
ATOM     13  C   UNL A   1      33.256  19.050  25.202  1.00  0.00     0.063 C 
ATOM     14  C   UNL A   1      32.157  17.986  25.128  1.00  0.00     0.031 C 
ATOM     15  C   UNL A   1      34.349  18.552  24.281  1.00  0.00     0.151 C 
ATOM     16  C   UNL A   1      32.861  16.659  25.385  1.00  0.00     0.138 C 
ATOM     17  S   UNL A   1      34.382  16.766  24.479  1.00  0.00     0.151 S 
ATOM     18  O   UNL A   1      35.445  16.360  25.377  1.00  0.00    -0.229 OA
ATOM     19  O   UNL A   1      34.188  16.149  23.184  1.00  0.00    -0.229 OA
ENDBRANCH  12  13
ENDBRANCH  11  12
ENDBRANCH   8  11
ENDBRANCH   5   7
ENDBRANCH   4   5
ENDBRANCH   2   4
ENDBRANCH   1   2
BRANCH   1  20
ATOM     20  C   UNL A   1      36.637  22.706  23.499  1.00  0.00     0.274 C 
BRANCH  20  21
ATOM     21  C   UNL A   1      36.986  21.405  24.235  1.00  0.00     0.275 C 
BRANCH  21  22
ATOM     22  O   UNL A   1      37.317  21.650  25.620  1.00  0.00    -0.458 OA
BRANCH  22  23
ATOM     23  C   UNL A   1      38.625  21.466  25.940  1.00  0.00     0.338 C 
ATOM     24  O   UNL A   1      39.295  20.481  25.672  1.00  0.00    -0.246 OA
BRANCH  23  25
ATOM     25  C   UNL A   1      39.210  22.649  26.625  1.00  0.00     0.060 A 
ATOM     26  C   UNL A   1      38.671  23.905  26.408  1.00  0.00     0.016 A 
ATOM     27  C   UNL A   1      40.405  22.553  27.342  1.00  0.00     0.016 A 
ATOM     28  C   UNL A   1      39.391  25.058  26.748  1.00  0.00     0.010 A 
ATOM     29  C   UNL A   1      41.061  23.715  27.802  1.00  0.00     0.010 A 
ATOM     30  C   UNL A   1      40.600  24.998  27.456  1.00  0.00    -0.014 A 
BRANCH  30  31
ATOM     31  C   UNL A   1      41.373  26.260  27.759  1.00  0.00     0.031 A 
ATOM     32  C   UNL A   1      40.779  27.350  28.634  1.00  0.00     0.074 A 
ATOM     33  C   UNL A   1      42.649  26.425  27.339  1.00  0.00     0.049 A 
ATOM     34  N   UNL A   1      41.243  28.548  28.913  1.00  0.00    -0.248 NA
ATOM     35  C   UNL A   1      39.496  27.051  29.287  1.00  0.00     0.031 C 
ATOM     36  C   UNL A   1      43.417  25.458  26.555  1.00  0.00     0.029 A 
ATOM     37  N   UNL A   1      43.541  27.460  27.535  1.00  0.00    -0.354 N 
ATOM     38  C   UNL A   1      40.287  29.158  29.722  1.00  0.00     0.074 A 
ATOM     39  C   UNL A   1      39.217  28.198  29.889  1.00  0.00     0.031 C 
ATOM     40  C   UNL A   1      44.671  25.905  26.398  1.00  0.00     0.029 A 
ATOM     41  C   UNL A   1      44.772  27.249  26.957  1.00  0.00     0.049 A 
ATOM     42  H   UNL A   1      43.317  28.274  28.041  1.00  0.00     0.167 HD
ATOM     43  C   UNL A   1      40.292  30.399  30.274  1.00  0.00     0.037 A 
ATOM     44  C   UNL A   1      45.850  28.050  26.832  1.00  0.00     0.037 A 
ATOM     45  C   UNL A   1      41.371  31.350  30.155  1.00  0.00     0.049 A 
ATOM     46  C   UNL A   1      45.806  29.448  27.388  1.00  0.00     0.074 A 
ATOM     47  C   UNL A   1      41.450  32.638  30.661  1.00  0.00     0.029 A 
ATOM     48  N   UNL A   1      42.569  31.113  29.497  1.00  0.00    -0.354 N 
ATOM     49  N   UNL A   1      44.859  30.039  28.074  1.00  0.00    -0.248 NA
ATOM     50  C   UNL A   1      46.979  30.298  27.134  1.00  0.00     0.031 C 
ATOM     51  C   UNL A   1      42.668  33.200  30.259  1.00  0.00     0.029 A 
ATOM     52  C   UNL A   1      43.381  32.238  29.565  1.00  0.00     0.049 A 
ATOM     53  H   UNL A   1      42.809  30.270  29.048  1.00  0.00     0.167 HD
ATOM     54  C   UNL A   1      45.327  31.318  28.347  1.00  0.00     0.074 A 
ATOM     55  C   UNL A   1      46.656  31.407  27.780  1.00  0.00     0.031 C 
ATOM     56  C   UNL A   1      44.706  32.328  29.006  1.00  0.00     0.037 A 
BRANCH  43  57
ATOM     57  C   UNL A   1      39.052  30.839  31.009  1.00  0.00     0.064 A 
ATOM     58  C   UNL A   1      37.971  31.457  30.363  1.00  0.00     0.173 A 
ATOM     59  C   UNL A   1      38.940  30.610  32.390  1.00  0.00     0.173 A 
ATOM     60  F   UNL A   1      38.024  31.708  29.047  1.00  0.00    -0.203 F 
ATOM     61  C   UNL A   1      36.847  31.867  31.079  1.00  0.00     0.198 A 
ATOM     62  C   UNL A   1      37.801  30.988  33.097  1.00  0.00     0.198 A 
ATOM     63  F   UNL A   1      39.935  30.007  33.059  1.00  0.00    -0.203 F 
ATOM     64  F   UNL A   1      35.853  32.512  30.451  1.00  0.00    -0.200 F 
ATOM     65  C   UNL A   1      36.760  31.629  32.443  1.00  0.00     0.200 A 
ATOM     66  F   UNL A   1      37.713  30.739  34.410  1.00  0.00    -0.200 F 
ATOM     67  F   UNL A   1      35.678  32.023  33.129  1.00  0.00    -0.200 F 
ENDBRANCH  43  57
BRANCH  44  68
ATOM     68  C   UNL A   1      47.052  27.578  26.083  1.00  0.00     0.064 A 
ATOM     69  C   UNL A   1      48.154  27.019  26.743  1.00  0.00     0.173 A 
ATOM     70  C   UNL A   1      47.132  27.708  24.687  1.00  0.00     0.173 A 
ATOM     71  F   UNL A   1      48.147  26.904  28.080  1.00  0.00    -0.203 F 
ATOM     72  C   UNL A   1      49.294  26.625  26.041  1.00  0.00     0.198 A 
ATOM     73  C   UNL A   1      48.252  27.274  23.982  1.00  0.00     0.198 A 
ATOM     74  F   UNL A   1      46.112  28.248  24.002  1.00  0.00    -0.203 F 
ATOM     75  F   UNL A   1      50.356  26.151  26.705  1.00  0.00    -0.200 F 
ATOM     76  C   UNL A   1      49.336  26.743  24.660  1.00  0.00     0.200 A 
ATOM     77  F   UNL A   1      48.280  27.376  22.646  1.00  0.00    -0.200 F 
ATOM     78  F   UNL A   1      50.427  26.357  23.985  1.00  0.00    -0.200 F 
ENDBRANCH  44  68
BRANCH  56  79
ATOM     79  C   UNL A   1      45.480  33.604  29.193  1.00  0.00     0.064 A 
ATOM     80  C   UNL A   1      46.301  33.822  30.310  1.00  0.00     0.173 A 
ATOM     81  C   UNL A   1      45.390  34.632  28.242  1.00  0.00     0.173 A 
ATOM     82  F   UNL A   1      46.413  32.879  31.259  1.00  0.00    -0.203 F 
ATOM     83  C   UNL A   1      46.965  35.033  30.491  1.00  0.00     0.198 A 
ATOM     84  C   UNL A   1      46.084  35.829  28.406  1.00  0.00     0.198 A 
ATOM     85  F   UNL A   1      44.626  34.480  27.149  1.00  0.00    -0.203 F 
ATOM     86  F   UNL A   1      47.685  35.242  31.602  1.00  0.00    -0.200 F 
ATOM     87  C   UNL A   1      46.859  36.034  29.536  1.00  0.00     0.200 A 
ATOM     88  F   UNL A   1      45.992  36.789  27.475  1.00  0.00    -0.200 F 
ATOM     89  F   UNL A   1      47.494  37.201  29.714  1.00  0.00    -0.200 F 
ENDBRANCH  56  79
ENDBRANCH  30  31
ENDBRANCH  23  25
ENDBRANCH  22  23
ENDBRANCH  21  22
ENDBRANCH  20  21
ENDBRANCH   1  20
TORSDOF 16
ENDMDL
MODEL 3
REMARK VINA RESULT:     -10.8      4.537      9.783
REMARK SMILES C[C@H](CC(=O)OCCOC(=O)c1ccc(-c2c3nc(c(-c4c(F)c(F)c(F)c(F)c4F)c4ccc([nH]4)c(-c4c(F)c(F)c(F)c(F)c4F)c4nc(c(-c5c(F)c(F)c(F)c(F)c5F)c5ccc2[nH]5)C=C4)C=C3)cc1)NC(=O)CS[C@H]1CCS(=O)(=O)C1
REMARK SMILES IDX 6 1 4 2 5 3 3 4 2 5 1 6 75 7 76 8 77 10 78 11 79 12 80 13
REMARK SMILES IDX 81 14 86 15 82 16 83 17 84 18 85 19 7 20 8 21 9 22 10 23
REMARK SMILES IDX 11 24 12 25 13 26 74 27 14 28 73 29 15 30 16 31 17 32 67 33
REMARK SMILES IDX 18 34 72 35 66 36 68 37 19 38 71 39 65 40 64 41 20 43 52 44
REMARK SMILES IDX 32 45 51 46 33 47 36 48 50 49 69 50 34 51 35 52 49 54 70 55
REMARK SMILES IDX 37 56 21 57 22 58 30 59 23 60 24 61 28 62 31 63 25 64 26 65
REMARK SMILES IDX 29 66 27 67 53 68 54 69 62 70 55 71 56 72 60 73 63 74 57 75
REMARK SMILES IDX 58 76 61 77 59 78 38 79 39 80 47 81 40 82 41 83 45 84 48 85
REMARK SMILES IDX 42 86 43 87 46 88 44 89
REMARK H PARENT 75 9 68 42 36 53
REMARK Flexibility Score: inf
ROOT
ATOM      1  O   UNL A   1      34.400  20.876  24.451  1.00  0.00    -0.462 OA
ENDROOT
BRANCH   1   2
ATOM      2  C   UNL A   1      33.849  22.058  24.091  1.00  0.00     0.307 C 
ATOM      3  O   UNL A   1      32.755  22.182  23.561  1.00  0.00    -0.252 OA
BRANCH   2   4
ATOM      4  C   UNL A   1      34.709  23.232  24.473  1.00  0.00     0.147 C 
BRANCH   4   5
ATOM      5  C   UNL A   1      33.906  24.536  24.380  1.00  0.00     0.090 C 
ATOM      6  C   UNL A   1      34.395  25.562  25.395  1.00  0.00     0.031 C 
BRANCH   5   7
ATOM      7  N   UNL A   1      33.984  25.078  23.016  1.00  0.00    -0.352 N 
ATOM      8  C   UNL A   1      33.037  25.722  22.262  1.00  0.00     0.230 C 
ATOM      9  H   UNL A   1      34.856  24.961  22.573  1.00  0.00     0.163 HD
ATOM     10  O   UNL A   1      33.279  25.896  21.067  1.00  0.00    -0.274 OA
BRANCH   8  11
ATOM     11  C   UNL A   1      31.754  26.216  22.912  1.00  0.00     0.169 C 
BRANCH  11  12
ATOM     12  S   UNL A   1      31.489  28.021  22.793  1.00  0.00    -0.148 SA
BRANCH  12  13
ATOM     13  C   UNL A   1      31.675  28.684  24.494  1.00  0.00     0.063 C 
ATOM     14  C   UNL A   1      31.385  27.597  25.534  1.00  0.00     0.031 C 
ATOM     15  C   UNL A   1      32.994  29.293  24.919  1.00  0.00     0.151 C 
ATOM     16  C   UNL A   1      31.539  28.282  26.887  1.00  0.00     0.138 C 
ATOM     17  S   UNL A   1      32.968  29.318  26.715  1.00  0.00     0.151 S 
ATOM     18  O   UNL A   1      32.610  30.629  27.215  1.00  0.00    -0.229 OA
ATOM     19  O   UNL A   1      34.120  28.593  27.208  1.00  0.00    -0.229 OA
ENDBRANCH  12  13
ENDBRANCH  11  12
ENDBRANCH   8  11
ENDBRANCH   5   7
ENDBRANCH   4   5
ENDBRANCH   2   4
ENDBRANCH   1   2
BRANCH   1  20
ATOM     20  C   UNL A   1      35.438  20.966  25.455  1.00  0.00     0.274 C 
BRANCH  20  21
ATOM     21  C   UNL A   1      36.757  20.325  25.001  1.00  0.00     0.275 C 
BRANCH  21  22
ATOM     22  O   UNL A   1      37.832  21.290  24.961  1.00  0.00    -0.458 OA
BRANCH  22  23
ATOM     23  C   UNL A   1      38.871  21.027  25.796  1.00  0.00     0.338 C 
ATOM     24  O   UNL A   1      39.385  19.934  25.977  1.00  0.00    -0.246 OA
BRANCH  23  25
ATOM     25  C   UNL A   1      39.390  22.255  26.456  1.00  0.00     0.060 A 
ATOM     26  C   UNL A   1      38.846  23.488  26.137  1.00  0.00     0.016 A 
ATOM     27  C   UNL A   1      40.535  22.220  27.254  1.00  0.00     0.016 A 
ATOM     28  C   UNL A   1      39.522  24.671  26.464  1.00  0.00     0.010 A 
ATOM     29  C   UNL A   1      41.139  23.417  27.695  1.00  0.00     0.010 A 
ATOM     30  C   UNL A   1      40.681  24.672  27.253  1.00  0.00    -0.014 A 
BRANCH  30  31
ATOM     31  C   UNL A   1      41.411  25.962  27.540  1.00  0.00     0.031 A 
ATOM     32  C   UNL A   1      40.781  27.041  28.404  1.00  0.00     0.074 A 
ATOM     33  C   UNL A   1      42.680  26.166  27.115  1.00  0.00     0.049 A 
ATOM     34  N   UNL A   1      41.204  28.257  28.668  1.00  0.00    -0.248 NA
ATOM     35  C   UNL A   1      39.511  26.706  29.063  1.00  0.00     0.031 C 
ATOM     36  C   UNL A   1      43.479  25.217  26.341  1.00  0.00     0.029 A 
ATOM     37  N   UNL A   1      43.536  27.233  27.298  1.00  0.00    -0.354 N 
ATOM     38  C   UNL A   1      40.230  28.843  29.472  1.00  0.00     0.074 A 
ATOM     39  C   UNL A   1      39.193  27.849  29.653  1.00  0.00     0.031 C 
ATOM     40  C   UNL A   1      44.717  25.705  26.176  1.00  0.00     0.029 A 
ATOM     41  C   UNL A   1      44.772  27.058  26.720  1.00  0.00     0.049 A 
ATOM     42  H   UNL A   1      43.285  28.044  27.795  1.00  0.00     0.167 HD
ATOM     43  C   UNL A   1      40.193  30.091  30.010  1.00  0.00     0.037 A 
ATOM     44  C   UNL A   1      45.823  27.894  26.584  1.00  0.00     0.037 A 
ATOM     45  C   UNL A   1      41.239  31.076  29.879  1.00  0.00     0.049 A 
ATOM     46  C   UNL A   1      45.732  29.296  27.123  1.00  0.00     0.074 A 
ATOM     47  C   UNL A   1      41.274  32.372  30.369  1.00  0.00     0.029 A 
ATOM     48  N   UNL A   1      42.443  30.872  29.221  1.00  0.00    -0.354 N 
ATOM     49  N   UNL A   1      44.766  29.862  27.805  1.00  0.00    -0.248 NA
ATOM     50  C   UNL A   1      46.874  30.182  26.858  1.00  0.00     0.031 C 
ATOM     51  C   UNL A   1      42.472  32.970  29.959  1.00  0.00     0.029 A 
ATOM     52  C   UNL A   1      43.217  32.025  29.274  1.00  0.00     0.049 A 
ATOM     53  H   UNL A   1      42.711  30.033  28.780  1.00  0.00     0.167 HD
ATOM     54  C   UNL A   1      45.190  31.159  28.063  1.00  0.00     0.074 A 
ATOM     55  C   UNL A   1      46.514  31.287  27.492  1.00  0.00     0.031 C 
ATOM     56  C   UNL A   1      44.537  32.155  28.711  1.00  0.00     0.037 A 
BRANCH  43  57
ATOM     57  C   UNL A   1      38.940  30.495  30.743  1.00  0.00     0.064 A 
ATOM     58  C   UNL A   1      37.802  30.980  30.081  1.00  0.00     0.173 A 
ATOM     59  C   UNL A   1      38.876  30.370  32.140  1.00  0.00     0.173 A 
ATOM     60  F   UNL A   1      37.807  31.128  28.748  1.00  0.00    -0.203 F 
ATOM     61  C   UNL A   1      36.666  31.362  30.793  1.00  0.00     0.198 A 
ATOM     62  C   UNL A   1      37.727  30.719  32.846  1.00  0.00     0.198 A 
ATOM     63  F   UNL A   1      39.928  29.897  32.826  1.00  0.00    -0.203 F 
ATOM     64  F   UNL A   1      35.613  31.880  30.145  1.00  0.00    -0.200 F 
ATOM     65  C   UNL A   1      36.627  31.228  32.174  1.00  0.00     0.200 A 
ATOM     66  F   UNL A   1      37.688  30.571  34.177  1.00  0.00    -0.200 F 
ATOM     67  F   UNL A   1      35.534  31.596  32.856  1.00  0.00    -0.200 F 
ENDBRANCH  43  57
BRANCH  44  68
ATOM     68  C   UNL A   1      47.038  27.455  25.837  1.00  0.00     0.064 A 
ATOM     69  C   UNL A   1      48.145  26.905  26.498  1.00  0.00     0.173 A 
ATOM     70  C   UNL A   1      47.127  27.608  24.444  1.00  0.00     0.173 A 
ATOM     71  F   UNL A   1      48.130  26.770  27.832  1.00  0.00    -0.203 F 
ATOM     72  C   UNL A   1      49.297  26.542  25.799  1.00  0.00     0.198 A 
ATOM     73  C   UNL A   1      48.261  27.204  23.742  1.00  0.00     0.198 A 
ATOM     74  F   UNL A   1      46.104  28.140  23.759  1.00  0.00    -0.203 F 
ATOM     75  F   UNL A   1      50.363  26.077  26.465  1.00  0.00    -0.200 F 
ATOM     76  C   UNL A   1      49.349  26.682  24.421  1.00  0.00     0.200 A 
ATOM     77  F   UNL A   1      48.298  27.327  22.408  1.00  0.00    -0.200 F 
ATOM     78  F   UNL A   1      50.452  26.326  23.749  1.00  0.00    -0.200 F 
ENDBRANCH  44  68
BRANCH  56  79
ATOM     79  C   UNL A   1      45.266  33.459  28.883  1.00  0.00     0.064 A 
ATOM     80  C   UNL A   1      46.089  33.713  29.991  1.00  0.00     0.173 A 
ATOM     81  C   UNL A   1      45.133  34.476  27.924  1.00  0.00     0.173 A 
ATOM     82  F   UNL A   1      46.241  32.782  30.946  1.00  0.00    -0.203 F 
ATOM     83  C   UNL A   1      46.711  34.949  30.157  1.00  0.00     0.198 A 
ATOM     84  C   UNL A   1      45.786  35.697  28.074  1.00  0.00     0.198 A 
ATOM     85  F   UNL A   1      44.365  34.288  26.840  1.00  0.00    -0.203 F 
ATOM     86  F   UNL A   1      47.433  35.192  31.260  1.00  0.00    -0.200 F 
ATOM     87  C   UNL A   1      46.562  35.938  29.196  1.00  0.00     0.200 A 
ATOM     88  F   UNL A   1      45.652  36.647  27.137  1.00  0.00    -0.200 F 
ATOM     89  F   UNL A   1      47.157  37.128  29.360  1.00  0.00    -0.200 F 
ENDBRANCH  56  79
ENDBRANCH  30  31
ENDBRANCH  23  25
ENDBRANCH  22  23
ENDBRANCH  21  22
ENDBRANCH  20  21
ENDBRANCH   1  20
TORSDOF 16
ENDMDL
