MODEL 1
REMARK VINA RESULT:     -12.3      0.000      0.000
REMARK SMILES N#C/C(=C/c1cc2c(cc1Br)OCO2)C(=O)OCCOC(=O)c1ccc(-c2c3nc(c(-c4c(F)c(F)c(F)c(F)c4F)c4ccc([nH]4)c(-c4c(F)c(F)c(F)c(F)c4F)c4nc(c(-c5c(F)c(F)c(F)c(F)c5F)c5ccc2[nH]5)C=C4)C=C3)cc1
REMARK SMILES IDX 19 1 18 2 17 3 15 4 16 5 3 6 4 7 2 8 1 9 5 10 6 11 10 12
REMARK SMILES IDX 7 13 9 14 11 15 8 16 14 17 12 18 13 19 20 20 21 21 22 22
REMARK SMILES IDX 23 23 24 24 85 25 25 26 84 27 26 28 27 29 28 30 78 31 29 32
REMARK SMILES IDX 83 33 77 34 79 35 30 36 82 37 76 38 75 39 31 41 63 42 43 43
REMARK SMILES IDX 62 44 44 45 47 46 61 47 80 48 45 49 46 50 60 52 81 53 48 54
REMARK SMILES IDX 32 55 33 56 41 57 34 58 35 59 39 60 42 61 36 62 37 63 40 64
REMARK SMILES IDX 38 65 64 66 65 67 73 68 66 69 67 70 71 71 74 72 68 73 69 74
REMARK SMILES IDX 72 75 70 76 49 77 50 78 58 79 51 80 52 81 56 82 59 83 53 84
REMARK SMILES IDX 54 85 57 86 55 87
REMARK H PARENT 79 40 47 51
REMARK Flexibility Score: inf
ROOT
ATOM      1  C   UNL A   1      31.732  29.610  26.382  1.00  0.00     0.275 C 
ENDROOT
BRANCH   1   2
ATOM      2  C   UNL A   1      31.695  28.581  27.509  1.00  0.00     0.275 C 
BRANCH   2   3
ATOM      3  O   UNL A   1      31.143  27.335  27.041  1.00  0.00    -0.458 OA
BRANCH   3   4
ATOM      4  C   UNL A   1      32.022  26.454  26.501  1.00  0.00     0.349 C 
ATOM      5  O   UNL A   1      33.226  26.621  26.391  1.00  0.00    -0.245 OA
BRANCH   4   6
ATOM      6  C   UNL A   1      31.341  25.214  26.060  1.00  0.00     0.138 C 
ATOM      7  C   UNL A   1      30.708  25.128  24.868  1.00  0.00     0.036 C 
BRANCH   6   8
ATOM      8  C   UNL A   1      31.613  23.947  26.854  1.00  0.00     0.107 C 
ATOM      9  N   UNL A   1      31.838  22.895  27.512  1.00  0.00    -0.192 NA
ENDBRANCH   6   8
BRANCH   7  10
ATOM     10  C   UNL A   1      30.511  26.240  23.915  1.00  0.00    -0.006 A 
ATOM     11  C   UNL A   1      29.250  26.860  23.930  1.00  0.00     0.060 A 
ATOM     12  C   UNL A   1      31.511  26.734  23.034  1.00  0.00     0.029 A 
ATOM     13  C   UNL A   1      29.054  27.965  23.127  1.00  0.00     0.166 A 
ATOM     14  C   UNL A   1      31.291  27.877  22.256  1.00  0.00     0.067 A 
ATOM     15  Br  UNL A   1      33.190  25.866  22.808  1.00  0.00    -0.050 Br
ATOM     16  C   UNL A   1      30.051  28.471  22.330  1.00  0.00     0.166 A 
ATOM     17  O   UNL A   1      27.902  28.682  23.032  1.00  0.00    -0.454 OA
ATOM     18  O   UNL A   1      29.660  29.579  21.647  1.00  0.00    -0.454 OA
ATOM     19  C   UNL A   1      28.289  29.696  22.081  1.00  0.00     0.468 C 
ENDBRANCH   7  10
ENDBRANCH   4   6
ENDBRANCH   3   4
ENDBRANCH   2   3
ENDBRANCH   1   2
BRANCH   1  20
ATOM     20  O   UNL A   1      33.072  30.107  26.205  1.00  0.00    -0.458 OA
BRANCH  20  21
ATOM     21  C   UNL A   1      33.427  31.118  27.023  1.00  0.00     0.338 C 
ATOM     22  O   UNL A   1      32.719  32.035  27.431  1.00  0.00    -0.246 OA
BRANCH  21  23
ATOM     23  C   UNL A   1      34.794  30.913  27.509  1.00  0.00     0.060 A 
ATOM     24  C   UNL A   1      35.185  29.614  27.801  1.00  0.00     0.016 A 
ATOM     25  C   UNL A   1      35.616  31.979  27.857  1.00  0.00     0.016 A 
ATOM     26  C   UNL A   1      36.326  29.364  28.544  1.00  0.00     0.010 A 
ATOM     27  C   UNL A   1      36.832  31.719  28.503  1.00  0.00     0.010 A 
ATOM     28  C   UNL A   1      37.180  30.409  28.889  1.00  0.00    -0.014 A 
BRANCH  28  29
ATOM     29  C   UNL A   1      38.380  30.122  29.716  1.00  0.00     0.031 A 
ATOM     30  C   UNL A   1      39.501  29.308  29.135  1.00  0.00     0.074 A 
ATOM     31  C   UNL A   1      38.505  30.638  30.955  1.00  0.00     0.049 A 
ATOM     32  N   UNL A   1      40.515  28.743  29.736  1.00  0.00    -0.248 NA
ATOM     33  C   UNL A   1      39.468  29.088  27.680  1.00  0.00     0.031 C 
ATOM     34  C   UNL A   1      37.552  31.541  31.603  1.00  0.00     0.029 A 
ATOM     35  N   UNL A   1      39.502  30.493  31.889  1.00  0.00    -0.354 N 
ATOM     36  C   UNL A   1      41.187  28.031  28.752  1.00  0.00     0.074 A 
ATOM     37  C   UNL A   1      40.482  28.252  27.509  1.00  0.00     0.031 C 
ATOM     38  C   UNL A   1      38.033  31.911  32.799  1.00  0.00     0.029 A 
ATOM     39  C   UNL A   1      39.266  31.180  33.054  1.00  0.00     0.049 A 
ATOM     40  H   UNL A   1      40.307  29.948  31.737  1.00  0.00     0.167 HD
ATOM     41  C   UNL A   1      42.286  27.252  28.890  1.00  0.00     0.037 A 
ATOM     42  C   UNL A   1      39.938  31.178  34.220  1.00  0.00     0.037 A 
ATOM     43  C   UNL A   1      43.025  27.115  30.117  1.00  0.00     0.049 A 
ATOM     44  C   UNL A   1      41.132  30.276  34.362  1.00  0.00     0.074 A 
ATOM     45  C   UNL A   1      44.153  26.356  30.370  1.00  0.00     0.029 A 
ATOM     46  N   UNL A   1      42.719  27.783  31.296  1.00  0.00    -0.354 N 
ATOM     47  N   UNL A   1      41.696  29.504  33.465  1.00  0.00    -0.248 NA
ATOM     48  C   UNL A   1      41.760  30.217  35.688  1.00  0.00     0.031 C 
ATOM     49  C   UNL A   1      44.512  26.538  31.710  1.00  0.00     0.029 A 
ATOM     50  C   UNL A   1      43.630  27.443  32.282  1.00  0.00     0.049 A 
ATOM     51  H   UNL A   1      41.966  28.405  31.413  1.00  0.00     0.167 HD
ATOM     52  C   UNL A   1      42.747  28.873  34.113  1.00  0.00     0.074 A 
ATOM     53  C   UNL A   1      42.756  29.370  35.473  1.00  0.00     0.031 C 
ATOM     54  C   UNL A   1      43.620  27.957  33.628  1.00  0.00     0.037 A 
BRANCH  41  55
ATOM     55  C   UNL A   1      42.713  26.439  27.703  1.00  0.00     0.064 A 
ATOM     56  C   UNL A   1      43.680  26.885  26.793  1.00  0.00     0.173 A 
ATOM     57  C   UNL A   1      42.144  25.172  27.489  1.00  0.00     0.173 A 
ATOM     58  F   UNL A   1      44.240  28.095  26.941  1.00  0.00    -0.203 F 
ATOM     59  C   UNL A   1      44.044  26.105  25.697  1.00  0.00     0.198 A 
ATOM     60  C   UNL A   1      42.531  24.384  26.409  1.00  0.00     0.198 A 
ATOM     61  F   UNL A   1      41.215  24.698  28.332  1.00  0.00    -0.203 F 
ATOM     62  F   UNL A   1      44.936  26.571  24.812  1.00  0.00    -0.200 F 
ATOM     63  C   UNL A   1      43.475  24.854  25.510  1.00  0.00     0.200 A 
ATOM     64  F   UNL A   1      41.986  23.172  26.238  1.00  0.00    -0.200 F 
ATOM     65  F   UNL A   1      43.829  24.104  24.458  1.00  0.00    -0.200 F 
ENDBRANCH  41  55
BRANCH  42  66
ATOM     66  C   UNL A   1      39.456  32.003  35.359  1.00  0.00     0.064 A 
ATOM     67  C   UNL A   1      38.548  31.484  36.291  1.00  0.00     0.173 A 
ATOM     68  C   UNL A   1      39.897  33.323  35.545  1.00  0.00     0.173 A 
ATOM     69  F   UNL A   1      38.071  30.239  36.140  1.00  0.00    -0.203 F 
ATOM     70  C   UNL A   1      38.096  32.253  37.363  1.00  0.00     0.198 A 
ATOM     71  C   UNL A   1      39.470  34.079  36.634  1.00  0.00     0.198 A 
ATOM     72  F   UNL A   1      40.759  33.872  34.677  1.00  0.00    -0.203 F 
ATOM     73  F   UNL A   1      37.198  31.746  38.217  1.00  0.00    -0.200 F 
ATOM     74  C   UNL A   1      38.567  33.546  37.539  1.00  0.00     0.200 A 
ATOM     75  F   UNL A   1      39.938  35.323  36.807  1.00  0.00    -0.200 F 
ATOM     76  F   UNL A   1      38.141  34.280  38.576  1.00  0.00    -0.200 F 
ENDBRANCH  42  66
BRANCH  54  77
ATOM     77  C   UNL A   1      44.673  27.461  34.571  1.00  0.00     0.064 A 
ATOM     78  C   UNL A   1      45.895  28.129  34.721  1.00  0.00     0.173 A 
ATOM     79  C   UNL A   1      44.441  26.320  35.353  1.00  0.00     0.173 A 
ATOM     80  F   UNL A   1      46.167  29.214  33.980  1.00  0.00    -0.203 F 
ATOM     81  C   UNL A   1      46.861  27.658  35.606  1.00  0.00     0.198 A 
ATOM     82  C   UNL A   1      45.398  25.868  36.256  1.00  0.00     0.198 A 
ATOM     83  F   UNL A   1      43.284  25.650  35.248  1.00  0.00    -0.203 F 
ATOM     84  F   UNL A   1      48.041  28.286  35.702  1.00  0.00    -0.200 F 
ATOM     85  C   UNL A   1      46.609  26.532  36.377  1.00  0.00     0.200 A 
ATOM     86  F   UNL A   1      45.151  24.786  37.006  1.00  0.00    -0.200 F 
ATOM     87  F   UNL A   1      47.538  26.084  37.231  1.00  0.00    -0.200 F 
ENDBRANCH  54  77
ENDBRANCH  28  29
ENDBRANCH  21  23
ENDBRANCH  20  21
ENDBRANCH   1  20
TORSDOF 13
ENDMDL
MODEL 2
REMARK VINA RESULT:     -12.3      0.060      1.630
REMARK SMILES N#C/C(=C/c1cc2c(cc1Br)OCO2)C(=O)OCCOC(=O)c1ccc(-c2c3nc(c(-c4c(F)c(F)c(F)c(F)c4F)c4ccc([nH]4)c(-c4c(F)c(F)c(F)c(F)c4F)c4nc(c(-c5c(F)c(F)c(F)c(F)c5F)c5ccc2[nH]5)C=C4)C=C3)cc1
REMARK SMILES IDX 19 1 18 2 17 3 15 4 16 5 3 6 4 7 2 8 1 9 5 10 6 11 10 12
REMARK SMILES IDX 7 13 9 14 11 15 8 16 14 17 12 18 13 19 20 20 21 21 22 22
REMARK SMILES IDX 23 23 24 24 85 25 25 26 84 27 26 28 27 29 28 30 78 31 29 32
REMARK SMILES IDX 83 33 77 34 79 35 30 36 82 37 76 38 75 39 31 41 63 42 43 43
REMARK SMILES IDX 62 44 44 45 47 46 61 47 80 48 45 49 46 50 60 52 81 53 48 54
REMARK SMILES IDX 32 55 33 56 41 57 34 58 35 59 39 60 42 61 36 62 37 63 40 64
REMARK SMILES IDX 38 65 64 66 65 67 73 68 66 69 67 70 71 71 74 72 68 73 69 74
REMARK SMILES IDX 72 75 70 76 49 77 50 78 58 79 51 80 52 81 56 82 59 83 53 84
REMARK SMILES IDX 54 85 57 86 55 87
REMARK H PARENT 79 40 47 51
REMARK Flexibility Score: inf
ROOT
ATOM      1  C   UNL A   1      31.733  29.633  26.478  1.00  0.00     0.275 C 
ENDROOT
BRANCH   1   2
ATOM      2  C   UNL A   1      31.730  28.561  27.565  1.00  0.00     0.275 C 
BRANCH   2   3
ATOM      3  O   UNL A   1      31.162  27.334  27.066  1.00  0.00    -0.458 OA
BRANCH   3   4
ATOM      4  C   UNL A   1      32.027  26.465  26.484  1.00  0.00     0.349 C 
ATOM      5  O   UNL A   1      33.226  26.641  26.335  1.00  0.00    -0.245 OA
BRANCH   4   6
ATOM      6  C   UNL A   1      31.338  25.226  26.052  1.00  0.00     0.138 C 
ATOM      7  C   UNL A   1      30.702  25.137  24.863  1.00  0.00     0.036 C 
BRANCH   6   8
ATOM      8  C   UNL A   1      31.606  23.962  26.852  1.00  0.00     0.107 C 
ATOM      9  N   UNL A   1      31.828  22.913  27.516  1.00  0.00    -0.192 NA
ENDBRANCH   6   8
BRANCH   7  10
ATOM     10  C   UNL A   1      30.507  26.245  23.905  1.00  0.00    -0.006 A 
ATOM     11  C   UNL A   1      29.250  26.873  23.922  1.00  0.00     0.060 A 
ATOM     12  C   UNL A   1      31.506  26.726  23.016  1.00  0.00     0.029 A 
ATOM     13  C   UNL A   1      29.058  27.974  23.114  1.00  0.00     0.166 A 
ATOM     14  C   UNL A   1      31.290  27.866  22.231  1.00  0.00     0.067 A 
ATOM     15  Br  UNL A   1      33.178  25.846  22.786  1.00  0.00    -0.050 Br
ATOM     16  C   UNL A   1      30.054  28.469  22.309  1.00  0.00     0.166 A 
ATOM     17  O   UNL A   1      27.910  28.698  23.020  1.00  0.00    -0.454 OA
ATOM     18  O   UNL A   1      29.667  29.576  21.621  1.00  0.00    -0.454 OA
ATOM     19  C   UNL A   1      28.299  29.705  22.061  1.00  0.00     0.468 C 
ENDBRANCH   7  10
ENDBRANCH   4   6
ENDBRANCH   3   4
ENDBRANCH   2   3
ENDBRANCH   1   2
BRANCH   1  20
ATOM     20  O   UNL A   1      33.071  30.122  26.265  1.00  0.00    -0.458 OA
BRANCH  20  21
ATOM     21  C   UNL A   1      33.447  31.142  27.064  1.00  0.00     0.338 C 
ATOM     22  O   UNL A   1      32.756  32.077  27.461  1.00  0.00    -0.246 OA
BRANCH  21  23
ATOM     23  C   UNL A   1      34.814  30.922  27.545  1.00  0.00     0.060 A 
ATOM     24  C   UNL A   1      35.186  29.622  27.854  1.00  0.00     0.016 A 
ATOM     25  C   UNL A   1      35.654  31.981  27.873  1.00  0.00     0.016 A 
ATOM     26  C   UNL A   1      36.328  29.366  28.594  1.00  0.00     0.010 A 
ATOM     27  C   UNL A   1      36.870  31.712  28.516  1.00  0.00     0.010 A 
ATOM     28  C   UNL A   1      37.199  30.403  28.920  1.00  0.00    -0.014 A 
BRANCH  28  29
ATOM     29  C   UNL A   1      38.400  30.109  29.744  1.00  0.00     0.031 A 
ATOM     30  C   UNL A   1      39.514  29.287  29.162  1.00  0.00     0.074 A 
ATOM     31  C   UNL A   1      38.531  30.626  30.983  1.00  0.00     0.049 A 
ATOM     32  N   UNL A   1      40.526  28.716  29.762  1.00  0.00    -0.248 NA
ATOM     33  C   UNL A   1      39.476  29.064  27.707  1.00  0.00     0.031 C 
ATOM     34  C   UNL A   1      37.585  31.537  31.631  1.00  0.00     0.029 A 
ATOM     35  N   UNL A   1      39.529  30.476  31.913  1.00  0.00    -0.354 N 
ATOM     36  C   UNL A   1      41.191  27.998  28.777  1.00  0.00     0.074 A 
ATOM     37  C   UNL A   1      40.483  28.221  27.535  1.00  0.00     0.031 C 
ATOM     38  C   UNL A   1      38.072  31.906  32.825  1.00  0.00     0.029 A 
ATOM     39  C   UNL A   1      39.301  31.168  33.078  1.00  0.00     0.049 A 
ATOM     40  H   UNL A   1      40.331  29.926  31.761  1.00  0.00     0.167 HD
ATOM     41  C   UNL A   1      42.285  27.212  28.914  1.00  0.00     0.037 A 
ATOM     42  C   UNL A   1      39.976  31.163  34.243  1.00  0.00     0.037 A 
ATOM     43  C   UNL A   1      43.026  27.073  30.140  1.00  0.00     0.049 A 
ATOM     44  C   UNL A   1      41.164  30.254  34.383  1.00  0.00     0.074 A 
ATOM     45  C   UNL A   1      44.149  26.307  30.391  1.00  0.00     0.029 A 
ATOM     46  N   UNL A   1      42.727  27.745  31.318  1.00  0.00    -0.354 N 
ATOM     47  N   UNL A   1      41.721  29.477  33.486  1.00  0.00    -0.248 NA
ATOM     48  C   UNL A   1      41.795  30.193  35.708  1.00  0.00     0.031 C 
ATOM     49  C   UNL A   1      44.512  26.489  31.730  1.00  0.00     0.029 A 
ATOM     50  C   UNL A   1      43.638  27.401  32.302  1.00  0.00     0.049 A 
ATOM     51  H   UNL A   1      41.978  28.372  31.436  1.00  0.00     0.167 HD
ATOM     52  C   UNL A   1      42.769  28.840  34.132  1.00  0.00     0.074 A 
ATOM     53  C   UNL A   1      42.785  29.339  35.492  1.00  0.00     0.031 C 
ATOM     54  C   UNL A   1      43.635  27.917  33.647  1.00  0.00     0.037 A 
BRANCH  41  55
ATOM     55  C   UNL A   1      42.703  26.394  27.728  1.00  0.00     0.064 A 
ATOM     56  C   UNL A   1      42.172  25.124  27.463  1.00  0.00     0.173 A 
ATOM     57  C   UNL A   1      43.650  26.910  26.828  1.00  0.00     0.173 A 
ATOM     58  F   UNL A   1      41.278  24.578  28.301  1.00  0.00    -0.203 F 
ATOM     59  C   UNL A   1      42.592  24.391  26.355  1.00  0.00     0.198 A 
ATOM     60  C   UNL A   1      44.047  26.186  25.708  1.00  0.00     0.198 A 
ATOM     61  F   UNL A   1      44.190  28.121  27.035  1.00  0.00    -0.203 F 
ATOM     62  F   UNL A   1      42.107  23.159  26.147  1.00  0.00    -0.200 F 
ATOM     63  C   UNL A   1      43.523  24.924  25.476  1.00  0.00     0.200 A 
ATOM     64  F   UNL A   1      44.939  26.709  24.855  1.00  0.00    -0.200 F 
ATOM     65  F   UNL A   1      43.923  24.218  24.409  1.00  0.00    -0.200 F 
ENDBRANCH  41  55
BRANCH  42  66
ATOM     66  C   UNL A   1      39.502  31.993  35.382  1.00  0.00     0.064 A 
ATOM     67  C   UNL A   1      39.962  33.304  35.558  1.00  0.00     0.173 A 
ATOM     68  C   UNL A   1      38.574  31.497  36.312  1.00  0.00     0.173 A 
ATOM     69  F   UNL A   1      40.873  33.814  34.716  1.00  0.00    -0.203 F 
ATOM     70  C   UNL A   1      39.516  34.087  36.623  1.00  0.00     0.198 A 
ATOM     71  C   UNL A   1      38.105  32.291  37.355  1.00  0.00     0.198 A 
ATOM     72  F   UNL A   1      38.107  30.245  36.195  1.00  0.00    -0.203 F 
ATOM     73  F   UNL A   1      40.002  35.324  36.792  1.00  0.00    -0.200 F 
ATOM     74  C   UNL A   1      38.580  33.583  37.513  1.00  0.00     0.200 A 
ATOM     75  F   UNL A   1      37.190  31.804  38.206  1.00  0.00    -0.200 F 
ATOM     76  F   UNL A   1      38.143  34.340  38.529  1.00  0.00    -0.200 F 
ENDBRANCH  42  66
BRANCH  54  77
ATOM     77  C   UNL A   1      44.687  27.415  34.589  1.00  0.00     0.064 A 
ATOM     78  C   UNL A   1      45.912  28.079  34.738  1.00  0.00     0.173 A 
ATOM     79  C   UNL A   1      44.452  26.274  35.370  1.00  0.00     0.173 A 
ATOM     80  F   UNL A   1      46.187  29.164  33.998  1.00  0.00    -0.203 F 
ATOM     81  C   UNL A   1      46.877  27.604  35.621  1.00  0.00     0.198 A 
ATOM     82  C   UNL A   1      45.408  25.818  36.271  1.00  0.00     0.198 A 
ATOM     83  F   UNL A   1      43.291  25.609  35.265  1.00  0.00    -0.203 F 
ATOM     84  F   UNL A   1      48.059  28.227  35.718  1.00  0.00    -0.200 F 
ATOM     85  C   UNL A   1      46.621  26.478  36.391  1.00  0.00     0.200 A 
ATOM     86  F   UNL A   1      45.158  24.736  37.020  1.00  0.00    -0.200 F 
ATOM     87  F   UNL A   1      47.550  26.024  37.244  1.00  0.00    -0.200 F 
ENDBRANCH  54  77
ENDBRANCH  28  29
ENDBRANCH  21  23
ENDBRANCH  20  21
ENDBRANCH   1  20
TORSDOF 13
ENDMDL
MODEL 3
REMARK VINA RESULT:     -12.3      0.241      1.647
REMARK SMILES N#C/C(=C/c1cc2c(cc1Br)OCO2)C(=O)OCCOC(=O)c1ccc(-c2c3nc(c(-c4c(F)c(F)c(F)c(F)c4F)c4ccc([nH]4)c(-c4c(F)c(F)c(F)c(F)c4F)c4nc(c(-c5c(F)c(F)c(F)c(F)c5F)c5ccc2[nH]5)C=C4)C=C3)cc1
REMARK SMILES IDX 19 1 18 2 17 3 15 4 16 5 3 6 4 7 2 8 1 9 5 10 6 11 10 12
REMARK SMILES IDX 7 13 9 14 11 15 8 16 14 17 12 18 13 19 20 20 21 21 22 22
REMARK SMILES IDX 23 23 24 24 85 25 25 26 84 27 26 28 27 29 28 30 78 31 29 32
REMARK SMILES IDX 83 33 77 34 79 35 30 36 82 37 76 38 75 39 31 41 63 42 43 43
REMARK SMILES IDX 62 44 44 45 47 46 61 47 80 48 45 49 46 50 60 52 81 53 48 54
REMARK SMILES IDX 32 55 33 56 41 57 34 58 35 59 39 60 42 61 36 62 37 63 40 64
REMARK SMILES IDX 38 65 64 66 65 67 73 68 66 69 67 70 71 71 74 72 68 73 69 74
REMARK SMILES IDX 72 75 70 76 49 77 50 78 58 79 51 80 52 81 56 82 59 83 53 84
REMARK SMILES IDX 54 85 57 86 55 87
REMARK H PARENT 79 40 47 51
REMARK Flexibility Score: inf
ROOT
ATOM      1  C   UNL A   1      31.777  29.685  26.574  1.00  0.00     0.275 C 
ENDROOT
BRANCH   1   2
ATOM      2  C   UNL A   1      31.772  28.579  27.626  1.00  0.00     0.275 C 
BRANCH   2   3
ATOM      3  O   UNL A   1      31.179  27.377  27.097  1.00  0.00    -0.458 OA
BRANCH   3   4
ATOM      4  C   UNL A   1      32.026  26.501  26.502  1.00  0.00     0.349 C 
ATOM      5  O   UNL A   1      33.225  26.663  26.339  1.00  0.00    -0.245 OA
BRANCH   4   6
ATOM      6  C   UNL A   1      31.318  25.272  26.074  1.00  0.00     0.138 C 
ATOM      7  C   UNL A   1      30.677  25.190  24.887  1.00  0.00     0.036 C 
BRANCH   6   8
ATOM      8  C   UNL A   1      31.569  24.005  26.875  1.00  0.00     0.107 C 
ATOM      9  N   UNL A   1      31.778  22.954  27.540  1.00  0.00    -0.192 NA
ENDBRANCH   6   8
BRANCH   7  10
ATOM     10  C   UNL A   1      30.495  26.299  23.928  1.00  0.00    -0.006 A 
ATOM     11  C   UNL A   1      29.242  26.934  23.935  1.00  0.00     0.060 A 
ATOM     12  C   UNL A   1      31.504  26.776  23.047  1.00  0.00     0.029 A 
ATOM     13  C   UNL A   1      29.062  28.037  23.126  1.00  0.00     0.166 A 
ATOM     14  C   UNL A   1      31.300  27.917  22.261  1.00  0.00     0.067 A 
ATOM     15  Br  UNL A   1      33.173  25.886  22.831  1.00  0.00    -0.050 Br
ATOM     16  C   UNL A   1      30.067  28.526  22.329  1.00  0.00     0.166 A 
ATOM     17  O   UNL A   1      27.919  28.767  23.023  1.00  0.00    -0.454 OA
ATOM     18  O   UNL A   1      29.692  29.636  21.639  1.00  0.00    -0.454 OA
ATOM     19  C   UNL A   1      28.321  29.772  22.068  1.00  0.00     0.468 C 
ENDBRANCH   7  10
ENDBRANCH   4   6
ENDBRANCH   3   4
ENDBRANCH   2   3
ENDBRANCH   1   2
BRANCH   1  20
ATOM     20  O   UNL A   1      33.121  30.152  26.348  1.00  0.00    -0.458 OA
BRANCH  20  21
ATOM     21  C   UNL A   1      33.518  31.175  27.132  1.00  0.00     0.338 C 
ATOM     22  O   UNL A   1      32.848  32.132  27.510  1.00  0.00    -0.246 OA
BRANCH  21  23
ATOM     23  C   UNL A   1      34.875  30.929  27.626  1.00  0.00     0.060 A 
ATOM     24  C   UNL A   1      35.233  29.617  27.901  1.00  0.00     0.016 A 
ATOM     25  C   UNL A   1      35.719  31.970  27.998  1.00  0.00     0.016 A 
ATOM     26  C   UNL A   1      36.362  29.329  28.649  1.00  0.00     0.010 A 
ATOM     27  C   UNL A   1      36.923  31.671  28.650  1.00  0.00     0.010 A 
ATOM     28  C   UNL A   1      37.237  30.348  29.018  1.00  0.00    -0.014 A 
BRANCH  28  29
ATOM     29  C   UNL A   1      38.423  30.019  29.850  1.00  0.00     0.031 A 
ATOM     30  C   UNL A   1      39.528  29.185  29.266  1.00  0.00     0.074 A 
ATOM     31  C   UNL A   1      38.551  30.515  31.097  1.00  0.00     0.049 A 
ATOM     32  N   UNL A   1      40.522  28.587  29.868  1.00  0.00    -0.248 NA
ATOM     33  C   UNL A   1      39.501  28.985  27.808  1.00  0.00     0.031 C 
ATOM     34  C   UNL A   1      37.615  31.433  31.750  1.00  0.00     0.029 A 
ATOM     35  N   UNL A   1      39.536  30.332  32.036  1.00  0.00    -0.354 N 
ATOM     36  C   UNL A   1      41.184  27.871  28.879  1.00  0.00     0.074 A 
ATOM     37  C   UNL A   1      40.494  28.126  27.634  1.00  0.00     0.031 C 
ATOM     38  C   UNL A   1      38.096  31.775  32.954  1.00  0.00     0.029 A 
ATOM     39  C   UNL A   1      39.309  31.010  33.209  1.00  0.00     0.049 A 
ATOM     40  H   UNL A   1      40.329  29.769  31.883  1.00  0.00     0.167 HD
ATOM     41  C   UNL A   1      42.262  27.063  29.015  1.00  0.00     0.037 A 
ATOM     42  C   UNL A   1      39.971  30.975  34.380  1.00  0.00     0.037 A 
ATOM     43  C   UNL A   1      42.987  26.891  30.246  1.00  0.00     0.049 A 
ATOM     44  C   UNL A   1      41.140  30.042  34.518  1.00  0.00     0.074 A 
ATOM     45  C   UNL A   1      44.093  26.100  30.497  1.00  0.00     0.029 A 
ATOM     46  N   UNL A   1      42.689  27.550  31.431  1.00  0.00    -0.354 N 
ATOM     47  N   UNL A   1      41.693  29.268  33.615  1.00  0.00    -0.248 NA
ATOM     48  C   UNL A   1      41.756  29.948  35.848  1.00  0.00     0.031 C 
ATOM     49  C   UNL A   1      44.446  26.255  31.842  1.00  0.00     0.029 A 
ATOM     50  C   UNL A   1      43.583  27.175  32.419  1.00  0.00     0.049 A 
ATOM     51  H   UNL A   1      41.950  28.190  31.551  1.00  0.00     0.167 HD
ATOM     52  C   UNL A   1      42.722  28.602  34.262  1.00  0.00     0.074 A 
ATOM     53  C   UNL A   1      42.733  29.079  35.630  1.00  0.00     0.031 C 
ATOM     54  C   UNL A   1      43.575  27.670  33.771  1.00  0.00     0.037 A 
BRANCH  41  55
ATOM     55  C   UNL A   1      42.677  26.255  27.821  1.00  0.00     0.064 A 
ATOM     56  C   UNL A   1      43.680  26.678  26.937  1.00  0.00     0.173 A 
ATOM     57  C   UNL A   1      42.061  25.018  27.571  1.00  0.00     0.173 A 
ATOM     58  F   UNL A   1      44.287  27.859  27.120  1.00  0.00    -0.203 F 
ATOM     59  C   UNL A   1      44.032  25.904  25.833  1.00  0.00     0.198 A 
ATOM     60  C   UNL A   1      42.435  24.234  26.483  1.00  0.00     0.198 A 
ATOM     61  F   UNL A   1      41.096  24.567  28.386  1.00  0.00    -0.203 F 
ATOM     62  F   UNL A   1      44.960  26.349  24.974  1.00  0.00    -0.200 F 
ATOM     63  C   UNL A   1      43.415  24.681  25.611  1.00  0.00     0.200 A 
ATOM     64  F   UNL A   1      41.843  23.050  26.278  1.00  0.00    -0.200 F 
ATOM     65  F   UNL A   1      43.758  23.937  24.551  1.00  0.00    -0.200 F 
ENDBRANCH  41  55
BRANCH  42  66
ATOM     66  C   UNL A   1      39.500  31.796  35.527  1.00  0.00     0.064 A 
ATOM     67  C   UNL A   1      40.001  33.086  35.742  1.00  0.00     0.173 A 
ATOM     68  C   UNL A   1      38.537  31.312  36.426  1.00  0.00     0.173 A 
ATOM     69  F   UNL A   1      40.946  33.583  34.930  1.00  0.00    -0.203 F 
ATOM     70  C   UNL A   1      39.559  33.862  36.813  1.00  0.00     0.198 A 
ATOM     71  C   UNL A   1      38.072  32.100  37.477  1.00  0.00     0.198 A 
ATOM     72  F   UNL A   1      38.031  30.080  36.271  1.00  0.00    -0.203 F 
ATOM     73  F   UNL A   1      40.082  35.077  37.020  1.00  0.00    -0.200 F 
ATOM     74  C   UNL A   1      38.587  33.371  37.673  1.00  0.00     0.200 A 
ATOM     75  F   UNL A   1      37.123  31.626  38.297  1.00  0.00    -0.200 F 
ATOM     76  F   UNL A   1      38.154  34.121  38.696  1.00  0.00    -0.200 F 
ENDBRANCH  42  66
BRANCH  54  77
ATOM     77  C   UNL A   1      44.607  27.135  34.716  1.00  0.00     0.064 A 
ATOM     78  C   UNL A   1      44.377  25.978  35.473  1.00  0.00     0.173 A 
ATOM     79  C   UNL A   1      45.851  27.771  34.842  1.00  0.00     0.173 A 
ATOM     80  F   UNL A   1      43.195  25.347  35.399  1.00  0.00    -0.203 F 
ATOM     81  C   UNL A   1      45.348  25.490  36.342  1.00  0.00     0.198 A 
ATOM     82  C   UNL A   1      46.829  27.265  35.691  1.00  0.00     0.198 A 
ATOM     83  F   UNL A   1      46.119  28.879  34.133  1.00  0.00    -0.203 F 
ATOM     84  F   UNL A   1      45.092  24.408  37.090  1.00  0.00    -0.200 F 
ATOM     85  C   UNL A   1      46.575  26.129  36.445  1.00  0.00     0.200 A 
ATOM     86  F   UNL A   1      48.017  27.878  35.784  1.00  0.00    -0.200 F 
ATOM     87  F   UNL A   1      47.510  25.655  37.279  1.00  0.00    -0.200 F 
ENDBRANCH  54  77
ENDBRANCH  28  29
ENDBRANCH  21  23
ENDBRANCH  20  21
ENDBRANCH   1  20
TORSDOF 13
ENDMDL
