MODEL 1
REMARK VINA RESULT:     -11.7      0.000      0.000
REMARK SMILES O=C(OCCOC(=O)c1cc(Br)cc2c1OCC2)c1ccc(-c2c3nc(c(-c4c(F)c(F)c(F)c(F)c4F)c4ccc([nH]4)c(-c4c(F)c(F)c(F)c(F)c4F)c4nc(c(-c5c(F)c(F)c(F)c(F)c5F)c5ccc2[nH]5)C=C4)C=C3)cc1
REMARK SMILES IDX 4 1 3 2 2 3 1 4 19 5 20 6 81 7 21 8 80 9 22 10 23 11 24 12
REMARK SMILES IDX 74 13 25 14 79 15 73 16 75 17 26 18 78 19 72 20 71 21 27 23
REMARK SMILES IDX 59 24 39 25 58 26 40 27 43 28 57 29 76 30 41 31 42 32 56 34
REMARK SMILES IDX 77 35 44 36 28 37 29 38 37 39 30 40 31 41 35 42 38 43 32 44
REMARK SMILES IDX 33 45 36 46 34 47 60 48 61 49 69 50 62 51 63 52 67 53 70 54
REMARK SMILES IDX 64 55 65 56 68 57 66 58 45 59 46 60 54 61 47 62 48 63 52 64
REMARK SMILES IDX 55 65 49 66 50 67 53 68 51 69 5 70 6 71 7 72 8 73 9 74 10 75
REMARK SMILES IDX 15 76 11 77 14 78 16 79 12 80 13 81 18 82 17 83
REMARK H PARENT 75 22 43 33
REMARK Flexibility Score: inf
ROOT
ATOM      1  C   UNL A   1      32.017  32.912  27.013  1.00  0.00     0.275 C 
ENDROOT
BRANCH   1   2
ATOM      2  O   UNL A   1      32.706  33.708  27.990  1.00  0.00    -0.458 OA
BRANCH   2   3
ATOM      3  C   UNL A   1      34.011  34.068  28.006  1.00  0.00     0.338 C 
ATOM      4  O   UNL A   1      34.375  35.064  27.384  1.00  0.00    -0.246 OA
BRANCH   3   5
ATOM      5  C   UNL A   1      35.072  33.207  28.616  1.00  0.00     0.060 A 
ATOM      6  C   UNL A   1      34.862  32.067  29.390  1.00  0.00     0.016 A 
ATOM      7  C   UNL A   1      36.398  33.611  28.388  1.00  0.00     0.016 A 
ATOM      8  C   UNL A   1      35.935  31.302  29.850  1.00  0.00     0.010 A 
ATOM      9  C   UNL A   1      37.479  32.836  28.814  1.00  0.00     0.010 A 
ATOM     10  C   UNL A   1      37.247  31.681  29.565  1.00  0.00    -0.014 A 
BRANCH  10  11
ATOM     11  C   UNL A   1      38.358  30.986  30.247  1.00  0.00     0.031 A 
ATOM     12  C   UNL A   1      38.636  31.346  31.675  1.00  0.00     0.074 A 
ATOM     13  C   UNL A   1      39.035  29.993  29.643  1.00  0.00     0.049 A 
ATOM     14  N   UNL A   1      39.522  30.852  32.498  1.00  0.00    -0.248 NA
ATOM     15  C   UNL A   1      37.780  32.389  32.265  1.00  0.00     0.031 C 
ATOM     16  C   UNL A   1      38.765  29.483  28.301  1.00  0.00     0.029 A 
ATOM     17  N   UNL A   1      40.087  29.232  30.083  1.00  0.00    -0.354 N 
ATOM     18  C   UNL A   1      39.302  31.497  33.705  1.00  0.00     0.074 A 
ATOM     19  C   UNL A   1      38.268  32.481  33.488  1.00  0.00     0.031 C 
ATOM     20  C   UNL A   1      39.657  28.521  28.009  1.00  0.00     0.029 A 
ATOM     21  C   UNL A   1      40.571  28.368  29.133  1.00  0.00     0.049 A 
ATOM     22  H   UNL A   1      40.459  29.299  30.992  1.00  0.00     0.167 HD
ATOM     23  C   UNL A   1      39.878  31.250  34.904  1.00  0.00     0.037 A 
ATOM     24  C   UNL A   1      41.644  27.556  29.166  1.00  0.00     0.037 A 
ATOM     25  C   UNL A   1      40.916  30.278  35.097  1.00  0.00     0.049 A 
ATOM     26  C   UNL A   1      42.402  27.434  30.457  1.00  0.00     0.074 A 
ATOM     27  C   UNL A   1      41.585  29.945  36.260  1.00  0.00     0.029 A 
ATOM     28  N   UNL A   1      41.450  29.490  34.085  1.00  0.00    -0.354 N 
ATOM     29  N   UNL A   1      42.174  28.025  31.604  1.00  0.00    -0.248 NA
ATOM     30  C   UNL A   1      43.535  26.500  30.473  1.00  0.00     0.031 C 
ATOM     31  C   UNL A   1      42.569  29.004  35.937  1.00  0.00     0.029 A 
ATOM     32  C   UNL A   1      42.468  28.698  34.587  1.00  0.00     0.049 A 
ATOM     33  H   UNL A   1      41.148  29.494  33.148  1.00  0.00     0.167 HD
ATOM     34  C   UNL A   1      43.095  27.496  32.497  1.00  0.00     0.074 A 
ATOM     35  C   UNL A   1      43.894  26.545  31.749  1.00  0.00     0.031 C 
ATOM     36  C   UNL A   1      43.246  27.756  33.819  1.00  0.00     0.037 A 
BRANCH  23  37
ATOM     37  C   UNL A   1      39.403  32.081  36.060  1.00  0.00     0.064 A 
ATOM     38  C   UNL A   1      40.005  33.309  36.384  1.00  0.00     0.173 A 
ATOM     39  C   UNL A   1      38.381  31.612  36.896  1.00  0.00     0.173 A 
ATOM     40  F   UNL A   1      41.008  33.789  35.632  1.00  0.00    -0.203 F 
ATOM     41  C   UNL A   1      39.637  34.007  37.530  1.00  0.00     0.198 A 
ATOM     42  C   UNL A   1      37.992  32.331  38.022  1.00  0.00     0.198 A 
ATOM     43  F   UNL A   1      37.777  30.443  36.636  1.00  0.00    -0.203 F 
ATOM     44  F   UNL A   1      40.285  35.132  37.866  1.00  0.00    -0.200 F 
ATOM     45  C   UNL A   1      38.629  33.519  38.348  1.00  0.00     0.200 A 
ATOM     46  F   UNL A   1      37.014  31.860  38.809  1.00  0.00    -0.200 F 
ATOM     47  F   UNL A   1      38.287  34.182  39.460  1.00  0.00    -0.200 F 
ENDBRANCH  23  37
BRANCH  24  48
ATOM     48  C   UNL A   1      42.048  26.803  27.951  1.00  0.00     0.064 A 
ATOM     49  C   UNL A   1      41.564  25.515  27.693  1.00  0.00     0.173 A 
ATOM     50  C   UNL A   1      42.939  27.364  27.022  1.00  0.00     0.173 A 
ATOM     51  F   UNL A   1      40.729  24.927  28.562  1.00  0.00    -0.203 F 
ATOM     52  C   UNL A   1      41.962  24.810  26.558  1.00  0.00     0.198 A 
ATOM     53  C   UNL A   1      43.320  26.668  25.876  1.00  0.00     0.198 A 
ATOM     54  F   UNL A   1      43.443  28.588  27.231  1.00  0.00    -0.203 F 
ATOM     55  F   UNL A   1      41.512  23.565  26.352  1.00  0.00    -0.200 F 
ATOM     56  C   UNL A   1      42.835  25.389  25.648  1.00  0.00     0.200 A 
ATOM     57  F   UNL A   1      44.162  27.230  24.999  1.00  0.00    -0.200 F 
ATOM     58  F   UNL A   1      43.217  24.710  24.557  1.00  0.00    -0.200 F 
ENDBRANCH  24  48
BRANCH  36  59
ATOM     59  C   UNL A   1      44.283  26.960  34.554  1.00  0.00     0.064 A 
ATOM     60  C   UNL A   1      45.591  27.430  34.731  1.00  0.00     0.173 A 
ATOM     61  C   UNL A   1      43.940  25.727  35.131  1.00  0.00     0.173 A 
ATOM     62  F   UNL A   1      45.970  28.595  34.185  1.00  0.00    -0.203 F 
ATOM     63  C   UNL A   1      46.528  26.682  35.437  1.00  0.00     0.198 A 
ATOM     64  C   UNL A   1      44.869  25.000  35.868  1.00  0.00     0.198 A 
ATOM     65  F   UNL A   1      42.699  25.236  34.994  1.00  0.00    -0.203 F 
ATOM     66  F   UNL A   1      47.788  27.125  35.550  1.00  0.00    -0.200 F 
ATOM     67  C   UNL A   1      46.163  25.474  36.013  1.00  0.00     0.200 A 
ATOM     68  F   UNL A   1      44.509  23.841  36.438  1.00  0.00    -0.200 F 
ATOM     69  F   UNL A   1      47.063  24.762  36.705  1.00  0.00    -0.200 F 
ENDBRANCH  36  59
ENDBRANCH  10  11
ENDBRANCH   3   5
ENDBRANCH   2   3
ENDBRANCH   1   2
BRANCH   1  70
ATOM     70  C   UNL A   1      32.506  31.464  26.900  1.00  0.00     0.275 C 
BRANCH  70  71
ATOM     71  O   UNL A   1      31.569  30.578  26.264  1.00  0.00    -0.458 OA
BRANCH  71  72
ATOM     72  C   UNL A   1      32.107  29.728  25.351  1.00  0.00     0.342 C 
ATOM     73  O   UNL A   1      33.296  29.514  25.165  1.00  0.00    -0.246 OA
BRANCH  72  74
ATOM     74  C   UNL A   1      31.026  29.077  24.595  1.00  0.00     0.103 A 
ATOM     75  C   UNL A   1      30.133  29.835  23.827  1.00  0.00     0.035 A 
ATOM     76  C   UNL A   1      30.905  27.695  24.582  1.00  0.00     0.137 A 
ATOM     77  C   UNL A   1      29.145  29.184  23.072  1.00  0.00     0.019 A 
ATOM     78  C   UNL A   1      29.887  27.068  23.880  1.00  0.00    -0.000 A 
ATOM     79  O   UNL A   1      31.719  26.820  25.248  1.00  0.00    -0.492 OA
ATOM     80  Br  UNL A   1      28.066  30.184  21.880  1.00  0.00    -0.051 Br
ATOM     81  C   UNL A   1      28.986  27.798  23.123  1.00  0.00     0.023 A 
ATOM     82  C   UNL A   1      29.981  25.602  24.043  1.00  0.00     0.081 C 
ATOM     83  C   UNL A   1      31.157  25.508  25.016  1.00  0.00     0.234 C 
ENDBRANCH  72  74
ENDBRANCH  71  72
ENDBRANCH  70  71
ENDBRANCH   1  70
TORSDOF 11
ENDMDL
MODEL 2
REMARK VINA RESULT:     -11.6      3.689      6.310
REMARK SMILES O=C(OCCOC(=O)c1cc(Br)cc2c1OCC2)c1ccc(-c2c3nc(c(-c4c(F)c(F)c(F)c(F)c4F)c4ccc([nH]4)c(-c4c(F)c(F)c(F)c(F)c4F)c4nc(c(-c5c(F)c(F)c(F)c(F)c5F)c5ccc2[nH]5)C=C4)C=C3)cc1
REMARK SMILES IDX 4 1 3 2 2 3 1 4 19 5 20 6 81 7 21 8 80 9 22 10 23 11 24 12
REMARK SMILES IDX 74 13 25 14 79 15 73 16 75 17 26 18 78 19 72 20 71 21 27 23
REMARK SMILES IDX 59 24 39 25 58 26 40 27 43 28 57 29 76 30 41 31 42 32 56 34
REMARK SMILES IDX 77 35 44 36 28 37 29 38 37 39 30 40 31 41 35 42 38 43 32 44
REMARK SMILES IDX 33 45 36 46 34 47 60 48 61 49 69 50 62 51 63 52 67 53 70 54
REMARK SMILES IDX 64 55 65 56 68 57 66 58 45 59 46 60 54 61 47 62 48 63 52 64
REMARK SMILES IDX 55 65 49 66 50 67 53 68 51 69 5 70 6 71 7 72 8 73 9 74 10 75
REMARK SMILES IDX 15 76 11 77 14 78 16 79 12 80 13 81 18 82 17 83
REMARK H PARENT 75 22 43 33
REMARK Flexibility Score: inf
ROOT
ATOM      1  C   UNL A   1      34.572  33.126  28.442  1.00  0.00     0.275 C 
ENDROOT
BRANCH   1   2
ATOM      2  O   UNL A   1      33.837  31.938  28.105  1.00  0.00    -0.458 OA
BRANCH   2   3
ATOM      3  C   UNL A   1      34.319  30.757  27.651  1.00  0.00     0.338 C 
ATOM      4  O   UNL A   1      33.597  30.024  26.978  1.00  0.00    -0.246 OA
BRANCH   3   5
ATOM      5  C   UNL A   1      35.650  30.220  28.072  1.00  0.00     0.060 A 
ATOM      6  C   UNL A   1      35.929  29.557  29.267  1.00  0.00     0.016 A 
ATOM      7  C   UNL A   1      36.709  30.424  27.173  1.00  0.00     0.016 A 
ATOM      8  C   UNL A   1      37.199  29.038  29.522  1.00  0.00     0.010 A 
ATOM      9  C   UNL A   1      37.974  29.880  27.401  1.00  0.00     0.010 A 
ATOM     10  C   UNL A   1      38.227  29.195  28.592  1.00  0.00    -0.014 A 
BRANCH  10  11
ATOM     11  C   UNL A   1      39.606  28.836  28.981  1.00  0.00     0.031 A 
ATOM     12  C   UNL A   1      40.373  29.814  29.818  1.00  0.00     0.074 A 
ATOM     13  C   UNL A   1      40.124  27.631  28.680  1.00  0.00     0.049 A 
ATOM     14  N   UNL A   1      41.576  29.713  30.319  1.00  0.00    -0.248 NA
ATOM     15  C   UNL A   1      39.680  31.067  30.160  1.00  0.00     0.031 C 
ATOM     16  C   UNL A   1      39.420  26.563  27.976  1.00  0.00     0.029 A 
ATOM     17  N   UNL A   1      41.363  27.103  28.935  1.00  0.00    -0.354 N 
ATOM     18  C   UNL A   1      41.763  30.869  31.061  1.00  0.00     0.074 A 
ATOM     19  C   UNL A   1      40.596  31.699  30.872  1.00  0.00     0.031 C 
ATOM     20  C   UNL A   1      40.253  25.520  27.817  1.00  0.00     0.029 A 
ATOM     21  C   UNL A   1      41.549  25.859  28.385  1.00  0.00     0.049 A 
ATOM     22  H   UNL A   1      42.052  27.570  29.460  1.00  0.00     0.167 HD
ATOM     23  C   UNL A   1      42.797  31.186  31.873  1.00  0.00     0.037 A 
ATOM     24  C   UNL A   1      42.653  25.091  28.335  1.00  0.00     0.037 A 
ATOM     25  C   UNL A   1      43.957  30.356  32.036  1.00  0.00     0.049 A 
ATOM     26  C   UNL A   1      43.871  25.547  29.085  1.00  0.00     0.074 A 
ATOM     27  C   UNL A   1      45.074  30.573  32.820  1.00  0.00     0.029 A 
ATOM     28  N   UNL A   1      44.152  29.145  31.382  1.00  0.00    -0.354 N 
ATOM     29  N   UNL A   1      44.035  26.629  29.808  1.00  0.00    -0.248 NA
ATOM     30  C   UNL A   1      45.040  24.660  29.053  1.00  0.00     0.031 C 
ATOM     31  C   UNL A   1      45.974  29.527  32.588  1.00  0.00     0.029 A 
ATOM     32  C   UNL A   1      45.390  28.622  31.713  1.00  0.00     0.049 A 
ATOM     33  H   UNL A   1      43.505  28.722  30.772  1.00  0.00     0.167 HD
ATOM     34  C   UNL A   1      45.301  26.529  30.365  1.00  0.00     0.074 A 
ATOM     35  C   UNL A   1      45.867  25.284  29.882  1.00  0.00     0.031 C 
ATOM     36  C   UNL A   1      45.926  27.377  31.218  1.00  0.00     0.037 A 
BRANCH  23  37
ATOM     37  C   UNL A   1      42.706  32.498  32.596  1.00  0.00     0.064 A 
ATOM     38  C   UNL A   1      42.214  32.585  33.909  1.00  0.00     0.173 A 
ATOM     39  C   UNL A   1      43.050  33.691  31.945  1.00  0.00     0.173 A 
ATOM     40  F   UNL A   1      41.844  31.474  34.567  1.00  0.00    -0.203 F 
ATOM     41  C   UNL A   1      42.020  33.819  34.522  1.00  0.00     0.198 A 
ATOM     42  C   UNL A   1      42.887  34.921  32.575  1.00  0.00     0.198 A 
ATOM     43  F   UNL A   1      43.518  33.665  30.689  1.00  0.00    -0.203 F 
ATOM     44  F   UNL A   1      41.468  33.881  35.742  1.00  0.00    -0.200 F 
ATOM     45  C   UNL A   1      42.358  34.987  33.855  1.00  0.00     0.200 A 
ATOM     46  F   UNL A   1      43.218  36.049  31.930  1.00  0.00    -0.200 F 
ATOM     47  F   UNL A   1      42.155  36.176  34.438  1.00  0.00    -0.200 F 
ENDBRANCH  23  37
BRANCH  24  48
ATOM     48  C   UNL A   1      42.646  23.823  27.560  1.00  0.00     0.064 A 
ATOM     49  C   UNL A   1      42.254  22.611  28.141  1.00  0.00     0.173 A 
ATOM     50  C   UNL A   1      43.039  23.804  26.212  1.00  0.00     0.173 A 
ATOM     51  F   UNL A   1      41.893  22.574  29.432  1.00  0.00    -0.203 F 
ATOM     52  C   UNL A   1      42.267  21.425  27.410  1.00  0.00     0.198 A 
ATOM     53  C   UNL A   1      43.030  22.621  25.475  1.00  0.00     0.198 A 
ATOM     54  F   UNL A   1      43.437  24.935  25.614  1.00  0.00    -0.203 F 
ATOM     55  F   UNL A   1      41.922  20.272  28.000  1.00  0.00    -0.200 F 
ATOM     56  C   UNL A   1      42.649  21.431  26.076  1.00  0.00     0.200 A 
ATOM     57  F   UNL A   1      43.399  22.632  24.187  1.00  0.00    -0.200 F 
ATOM     58  F   UNL A   1      42.660  20.289  25.374  1.00  0.00    -0.200 F 
ENDBRANCH  24  48
BRANCH  36  59
ATOM     59  C   UNL A   1      47.275  26.960  31.726  1.00  0.00     0.064 A 
ATOM     60  C   UNL A   1      48.462  27.393  31.121  1.00  0.00     0.173 A 
ATOM     61  C   UNL A   1      47.373  26.150  32.869  1.00  0.00     0.173 A 
ATOM     62  F   UNL A   1      48.419  28.154  30.018  1.00  0.00    -0.203 F 
ATOM     63  C   UNL A   1      49.700  27.009  31.627  1.00  0.00     0.198 A 
ATOM     64  C   UNL A   1      48.612  25.799  33.393  1.00  0.00     0.198 A 
ATOM     65  F   UNL A   1      46.265  25.713  33.488  1.00  0.00    -0.203 F 
ATOM     66  F   UNL A   1      50.823  27.392  31.002  1.00  0.00    -0.200 F 
ATOM     67  C   UNL A   1      49.774  26.222  32.767  1.00  0.00     0.200 A 
ATOM     68  F   UNL A   1      48.681  25.054  34.504  1.00  0.00    -0.200 F 
ATOM     69  F   UNL A   1      50.969  25.867  33.260  1.00  0.00    -0.200 F 
ENDBRANCH  36  59
ENDBRANCH  10  11
ENDBRANCH   3   5
ENDBRANCH   2   3
ENDBRANCH   1   2
BRANCH   1  70
ATOM     70  C   UNL A   1      34.613  33.456  29.938  1.00  0.00     0.275 C 
BRANCH  70  71
ATOM     71  O   UNL A   1      35.467  32.590  30.705  1.00  0.00    -0.458 OA
BRANCH  71  72
ATOM     72  C   UNL A   1      35.104  32.424  32.003  1.00  0.00     0.342 C 
ATOM     73  O   UNL A   1      34.022  32.703  32.499  1.00  0.00    -0.246 OA
BRANCH  72  74
ATOM     74  C   UNL A   1      36.226  31.838  32.752  1.00  0.00     0.103 A 
ATOM     75  C   UNL A   1      36.662  30.534  32.482  1.00  0.00     0.035 A 
ATOM     76  C   UNL A   1      36.911  32.584  33.700  1.00  0.00     0.137 A 
ATOM     77  C   UNL A   1      37.770  30.018  33.174  1.00  0.00     0.019 A 
ATOM     78  C   UNL A   1      37.966  32.041  34.418  1.00  0.00    -0.000 A 
ATOM     79  O   UNL A   1      36.630  33.877  34.047  1.00  0.00    -0.492 OA
ATOM     80  Br  UNL A   1      38.486  28.338  32.675  1.00  0.00    -0.051 Br
ATOM     81  C   UNL A   1      38.407  30.752  34.177  1.00  0.00     0.023 A 
ATOM     82  C   UNL A   1      38.506  33.040  35.365  1.00  0.00     0.081 C 
ATOM     83  C   UNL A   1      37.536  34.198  35.127  1.00  0.00     0.234 C 
ENDBRANCH  72  74
ENDBRANCH  71  72
ENDBRANCH  70  71
ENDBRANCH   1  70
TORSDOF 11
ENDMDL
MODEL 3
REMARK VINA RESULT:     -11.6      1.137      2.179
REMARK SMILES O=C(OCCOC(=O)c1cc(Br)cc2c1OCC2)c1ccc(-c2c3nc(c(-c4c(F)c(F)c(F)c(F)c4F)c4ccc([nH]4)c(-c4c(F)c(F)c(F)c(F)c4F)c4nc(c(-c5c(F)c(F)c(F)c(F)c5F)c5ccc2[nH]5)C=C4)C=C3)cc1
REMARK SMILES IDX 4 1 3 2 2 3 1 4 19 5 20 6 81 7 21 8 80 9 22 10 23 11 24 12
REMARK SMILES IDX 74 13 25 14 79 15 73 16 75 17 26 18 78 19 72 20 71 21 27 23
REMARK SMILES IDX 59 24 39 25 58 26 40 27 43 28 57 29 76 30 41 31 42 32 56 34
REMARK SMILES IDX 77 35 44 36 28 37 29 38 37 39 30 40 31 41 35 42 38 43 32 44
REMARK SMILES IDX 33 45 36 46 34 47 60 48 61 49 69 50 62 51 63 52 67 53 70 54
REMARK SMILES IDX 64 55 65 56 68 57 66 58 45 59 46 60 54 61 47 62 48 63 52 64
REMARK SMILES IDX 55 65 49 66 50 67 53 68 51 69 5 70 6 71 7 72 8 73 9 74 10 75
REMARK SMILES IDX 15 76 11 77 14 78 16 79 12 80 13 81 18 82 17 83
REMARK H PARENT 75 22 43 33
REMARK Flexibility Score: inf
ROOT
ATOM      1  C   UNL A   1      31.683  32.560  27.152  1.00  0.00     0.275 C 
ENDROOT
BRANCH   1   2
ATOM      2  O   UNL A   1      32.397  33.804  27.235  1.00  0.00    -0.458 OA
BRANCH   2   3
ATOM      3  C   UNL A   1      32.963  34.373  28.326  1.00  0.00     0.338 C 
ATOM      4  O   UNL A   1      32.529  35.443  28.749  1.00  0.00    -0.246 OA
BRANCH   3   5
ATOM      5  C   UNL A   1      34.212  33.838  28.952  1.00  0.00     0.060 A 
ATOM      6  C   UNL A   1      35.517  34.203  28.624  1.00  0.00     0.016 A 
ATOM      7  C   UNL A   1      34.033  32.867  29.951  1.00  0.00     0.016 A 
ATOM      8  C   UNL A   1      36.606  33.686  29.327  1.00  0.00     0.010 A 
ATOM      9  C   UNL A   1      35.112  32.367  30.682  1.00  0.00     0.010 A 
ATOM     10  C   UNL A   1      36.411  32.767  30.358  1.00  0.00    -0.014 A 
BRANCH  10  11
ATOM     11  C   UNL A   1      37.582  32.070  30.929  1.00  0.00     0.031 A 
ATOM     12  C   UNL A   1      38.049  32.489  32.290  1.00  0.00     0.074 A 
ATOM     13  C   UNL A   1      38.151  31.029  30.296  1.00  0.00     0.049 A 
ATOM     14  N   UNL A   1      39.020  32.007  33.019  1.00  0.00    -0.248 NA
ATOM     15  C   UNL A   1      37.301  33.585  32.930  1.00  0.00     0.031 C 
ATOM     16  C   UNL A   1      37.700  30.465  29.026  1.00  0.00     0.029 A 
ATOM     17  N   UNL A   1      39.232  30.257  30.638  1.00  0.00    -0.354 N 
ATOM     18  C   UNL A   1      38.972  32.715  34.210  1.00  0.00     0.074 A 
ATOM     19  C   UNL A   1      37.944  33.720  34.075  1.00  0.00     0.031 C 
ATOM     20  C   UNL A   1      38.523  29.462  28.674  1.00  0.00     0.029 A 
ATOM     21  C   UNL A   1      39.568  29.334  29.680  1.00  0.00     0.049 A 
ATOM     22  H   UNL A   1      39.718  30.356  31.488  1.00  0.00     0.167 HD
ATOM     23  C   UNL A   1      39.690  32.508  35.337  1.00  0.00     0.037 A 
ATOM     24  C   UNL A   1      40.616  28.492  29.619  1.00  0.00     0.037 A 
ATOM     25  C   UNL A   1      40.720  31.514  35.447  1.00  0.00     0.049 A 
ATOM     26  C   UNL A   1      41.529  28.407  30.808  1.00  0.00     0.074 A 
ATOM     27  C   UNL A   1      41.523  31.216  36.532  1.00  0.00     0.029 A 
ATOM     28  N   UNL A   1      41.100  30.662  34.417  1.00  0.00    -0.354 N 
ATOM     29  N   UNL A   1      41.465  29.059  31.943  1.00  0.00    -0.248 NA
ATOM     30  C   UNL A   1      42.631  27.440  30.729  1.00  0.00     0.031 C 
ATOM     31  C   UNL A   1      42.434  30.230  36.135  1.00  0.00     0.029 A 
ATOM     32  C   UNL A   1      42.154  29.864  34.827  1.00  0.00     0.049 A 
ATOM     33  H   UNL A   1      40.681  30.631  33.527  1.00  0.00     0.167 HD
ATOM     34  C   UNL A   1      42.478  28.545  32.739  1.00  0.00     0.074 A 
ATOM     35  C   UNL A   1      43.151  27.534  31.946  1.00  0.00     0.031 C 
ATOM     36  C   UNL A   1      42.803  28.863  34.016  1.00  0.00     0.037 A 
BRANCH  23  37
ATOM     37  C   UNL A   1      39.388  33.407  36.500  1.00  0.00     0.064 A 
ATOM     38  C   UNL A   1      40.038  34.642  36.668  1.00  0.00     0.173 A 
ATOM     39  C   UNL A   1      38.489  33.000  37.496  1.00  0.00     0.173 A 
ATOM     40  F   UNL A   1      40.929  35.066  35.757  1.00  0.00    -0.203 F 
ATOM     41  C   UNL A   1      39.839  35.407  37.813  1.00  0.00     0.198 A 
ATOM     42  C   UNL A   1      38.267  33.785  38.623  1.00  0.00     0.198 A 
ATOM     43  F   UNL A   1      37.847  31.827  37.388  1.00  0.00    -0.203 F 
ATOM     44  F   UNL A   1      40.535  36.539  37.992  1.00  0.00    -0.200 F 
ATOM     45  C   UNL A   1      38.952  34.979  38.789  1.00  0.00     0.200 A 
ATOM     46  F   UNL A   1      37.406  33.372  39.564  1.00  0.00    -0.200 F 
ATOM     47  F   UNL A   1      38.773  35.707  39.900  1.00  0.00    -0.200 F 
ENDBRANCH  23  37
BRANCH  24  48
ATOM     48  C   UNL A   1      40.843  27.669  28.403  1.00  0.00     0.064 A 
ATOM     49  C   UNL A   1      41.648  28.122  27.351  1.00  0.00     0.173 A 
ATOM     50  C   UNL A   1      40.247  26.404  28.271  1.00  0.00     0.173 A 
ATOM     51  F   UNL A   1      42.219  29.333  27.420  1.00  0.00    -0.203 F 
ATOM     52  C   UNL A   1      41.841  27.348  26.207  1.00  0.00     0.198 A 
ATOM     53  C   UNL A   1      40.458  25.622  27.137  1.00  0.00     0.198 A 
ATOM     54  F   UNL A   1      39.455  25.931  29.243  1.00  0.00    -0.203 F 
ATOM     55  F   UNL A   1      42.587  27.821  25.200  1.00  0.00    -0.200 F 
ATOM     56  C   UNL A   1      41.250  26.097  26.103  1.00  0.00     0.200 A 
ATOM     57  F   UNL A   1      39.887  24.413  27.041  1.00  0.00    -0.200 F 
ATOM     58  F   UNL A   1      41.437  25.355  25.003  1.00  0.00    -0.200 F 
ENDBRANCH  24  48
BRANCH  36  59
ATOM     59  C   UNL A   1      43.906  28.071  34.654  1.00  0.00     0.064 A 
ATOM     60  C   UNL A   1      43.665  26.849  35.297  1.00  0.00     0.173 A 
ATOM     61  C   UNL A   1      45.231  28.526  34.576  1.00  0.00     0.173 A 
ATOM     62  F   UNL A   1      42.413  26.381  35.411  1.00  0.00    -0.203 F 
ATOM     63  C   UNL A   1      44.709  26.123  35.861  1.00  0.00     0.198 A 
ATOM     64  C   UNL A   1      46.276  27.779  35.108  1.00  0.00     0.198 A 
ATOM     65  F   UNL A   1      45.514  29.687  33.966  1.00  0.00    -0.203 F 
ATOM     66  F   UNL A   1      44.451  24.983  36.517  1.00  0.00    -0.200 F 
ATOM     67  C   UNL A   1      46.014  26.583  35.757  1.00  0.00     0.200 A 
ATOM     68  F   UNL A   1      47.538  28.217  34.991  1.00  0.00    -0.200 F 
ATOM     69  F   UNL A   1      47.019  25.874  36.289  1.00  0.00    -0.200 F 
ENDBRANCH  36  59
ENDBRANCH  10  11
ENDBRANCH   3   5
ENDBRANCH   2   3
ENDBRANCH   1   2
BRANCH   1  70
ATOM     70  C   UNL A   1      32.556  31.333  26.873  1.00  0.00     0.275 C 
BRANCH  70  71
ATOM     71  O   UNL A   1      31.817  30.169  26.468  1.00  0.00    -0.458 OA
BRANCH  71  72
ATOM     72  C   UNL A   1      32.289  29.543  25.358  1.00  0.00     0.342 C 
ATOM     73  O   UNL A   1      33.459  29.442  25.019  1.00  0.00    -0.246 OA
BRANCH  72  74
ATOM     74  C   UNL A   1      31.161  28.983  24.598  1.00  0.00     0.103 A 
ATOM     75  C   UNL A   1      30.302  29.818  23.872  1.00  0.00     0.035 A 
ATOM     76  C   UNL A   1      30.960  27.611  24.538  1.00  0.00     0.137 A 
ATOM     77  C   UNL A   1      29.267  29.253  23.111  1.00  0.00     0.019 A 
ATOM     78  C   UNL A   1      29.897  27.070  23.831  1.00  0.00    -0.000 A 
ATOM     79  O   UNL A   1      31.731  26.667  25.158  1.00  0.00    -0.492 OA
ATOM     80  Br  UNL A   1      28.230  30.355  21.974  1.00  0.00    -0.051 Br
ATOM     81  C   UNL A   1      29.029  27.876  23.116  1.00  0.00     0.023 A 
ATOM     82  C   UNL A   1      29.909  25.595  23.941  1.00  0.00     0.081 C 
ATOM     83  C   UNL A   1      31.092  25.399  24.890  1.00  0.00     0.234 C 
ENDBRANCH  72  74
ENDBRANCH  71  72
ENDBRANCH  70  71
ENDBRANCH   1  70
TORSDOF 11
ENDMDL
