MODEL 1
REMARK VINA RESULT:     -13.1      0.000      0.000
REMARK SMILES Cc1ccc(-c2ccc(/C=C(\C#N)C3N=c4ccccc4=N3)o2)cc1C(=O)OCCOC(=O)c1ccc(-c2c3nc(c(-c4c(F)c(F)c(F)c(F)c4F)c4ccc([nH]4)c(-c4c(F)c(F)c(F)c(F)c4F)c4nc(c(-c5c(F)c(F)c(F)c(F)c5F)c5ccc2[nH]5)C=C4)C=C3)cc1
REMARK SMILES IDX 29 1 28 2 26 3 27 4 25 5 1 6 2 7 3 8 4 9 24 10 5 11 6 12
REMARK SMILES IDX 7 13 23 14 8 15 9 16 10 17 11 18 12 19 13 20 14 21 15 22
REMARK SMILES IDX 22 23 16 24 21 25 17 26 20 27 18 28 19 29 30 30 31 31 32 32
REMARK SMILES IDX 33 33 34 34 35 35 96 36 36 37 95 38 37 39 38 40 39 41 89 42
REMARK SMILES IDX 40 43 94 44 88 45 90 46 41 47 93 48 87 49 86 50 42 52 74 53
REMARK SMILES IDX 54 54 73 55 55 56 58 57 72 58 91 59 56 60 57 61 71 63 92 64
REMARK SMILES IDX 59 65 43 66 44 67 52 68 45 69 46 70 50 71 53 72 47 73 48 74
REMARK SMILES IDX 51 75 49 76 75 77 76 78 84 79 77 80 78 81 82 82 85 83 79 84
REMARK SMILES IDX 80 85 83 86 81 87 60 88 61 89 69 90 62 91 63 92 67 93 70 94
REMARK SMILES IDX 64 95 65 96 68 97 66 98
REMARK H PARENT 90 51 58 62
REMARK Flexibility Score: inf
ROOT
ATOM      1  C   UNL A   1      43.432  19.703  25.471  1.00  0.00     0.275 C 
ENDROOT
BRANCH   1   2
ATOM      2  O   UNL A   1      42.407  20.724  25.521  1.00  0.00    -0.458 OA
BRANCH   2   3
ATOM      3  C   UNL A   1      41.514  20.491  26.522  1.00  0.00     0.338 C 
ATOM      4  O   UNL A   1      41.446  19.433  27.133  1.00  0.00    -0.246 OA
BRANCH   3   5
ATOM      5  C   UNL A   1      40.513  21.543  26.833  1.00  0.00     0.063 A 
ATOM      6  C   UNL A   1      42.233  22.593  28.425  1.00  0.00     0.045 C 
ATOM      7  C   UNL A   1      40.956  22.623  27.622  1.00  0.00    -0.037 A 
ATOM      8  C   UNL A   1      40.168  23.779  27.684  1.00  0.00     0.005 A 
ATOM      9  C   UNL A   1      39.005  23.903  26.918  1.00  0.00     0.012 A 
ATOM     10  C   UNL A   1      39.292  21.644  26.126  1.00  0.00     0.028 A 
ATOM     11  C   UNL A   1      38.554  22.851  26.114  1.00  0.00     0.018 A 
BRANCH  11  12
ATOM     12  C   UNL A   1      37.355  23.033  25.281  1.00  0.00     0.134 A 
ATOM     13  C   UNL A   1      36.931  22.483  24.093  1.00  0.00     0.051 A 
ATOM     14  O   UNL A   1      36.406  23.932  25.718  1.00  0.00    -0.457 OA
ATOM     15  C   UNL A   1      35.668  23.056  23.811  1.00  0.00     0.051 A 
ATOM     16  C   UNL A   1      35.357  23.970  24.814  1.00  0.00     0.128 A 
BRANCH  16  17
ATOM     17  C   UNL A   1      34.161  24.758  24.892  1.00  0.00     0.066 C 
ATOM     18  C   UNL A   1      33.065  24.531  25.648  1.00  0.00     0.080 C 
BRANCH  18  19
ATOM     19  C   UNL A   1      32.948  23.424  26.531  1.00  0.00     0.099 C 
ATOM     20  N   UNL A   1      32.826  22.557  27.307  1.00  0.00    -0.193 NA
ENDBRANCH  18  19
BRANCH  18  21
ATOM     21  C   UNL A   1      31.874  25.481  25.570  1.00  0.00     0.263 C 
ATOM     22  N   UNL A   1      31.681  26.167  26.878  1.00  0.00    -0.251 NA
ATOM     23  N   UNL A   1      32.029  26.485  24.479  1.00  0.00    -0.251 NA
ATOM     24  C   UNL A   1      31.745  27.414  26.559  1.00  0.00     0.086 A 
ATOM     25  C   UNL A   1      31.946  27.608  25.107  1.00  0.00     0.086 A 
ATOM     26  C   UNL A   1      31.657  28.585  27.439  1.00  0.00     0.030 A 
ATOM     27  C   UNL A   1      32.032  28.974  24.572  1.00  0.00     0.030 A 
ATOM     28  C   UNL A   1      31.774  29.795  26.873  1.00  0.00     0.002 A 
ATOM     29  C   UNL A   1      31.953  29.988  25.448  1.00  0.00     0.002 A 
ENDBRANCH  18  21
ENDBRANCH  16  17
ENDBRANCH  11  12
ENDBRANCH   3   5
ENDBRANCH   2   3
ENDBRANCH   1   2
BRANCH   1  30
ATOM     30  C   UNL A   1      44.510  19.892  24.390  1.00  0.00     0.275 C 
BRANCH  30  31
ATOM     31  O   UNL A   1      44.906  21.217  23.941  1.00  0.00    -0.458 OA
BRANCH  31  32
ATOM     32  C   UNL A   1      45.952  21.907  24.450  1.00  0.00     0.338 C 
ATOM     33  O   UNL A   1      47.116  21.581  24.282  1.00  0.00    -0.246 OA
BRANCH  32  34
ATOM     34  C   UNL A   1      45.577  23.076  25.263  1.00  0.00     0.060 A 
ATOM     35  C   UNL A   1      45.622  22.970  26.665  1.00  0.00     0.016 A 
ATOM     36  C   UNL A   1      45.365  24.295  24.629  1.00  0.00     0.016 A 
ATOM     37  C   UNL A   1      45.555  24.110  27.447  1.00  0.00     0.010 A 
ATOM     38  C   UNL A   1      45.494  25.430  25.372  1.00  0.00     0.010 A 
ATOM     39  C   UNL A   1      45.501  25.323  26.773  1.00  0.00    -0.014 A 
BRANCH  39  40
ATOM     40  C   UNL A   1      45.048  26.547  27.393  1.00  0.00     0.031 A 
ATOM     41  C   UNL A   1      43.653  26.970  27.194  1.00  0.00     0.074 A 
ATOM     42  C   UNL A   1      46.011  26.952  28.261  1.00  0.00     0.049 A 
ATOM     43  N   UNL A   1      43.230  28.160  27.404  1.00  0.00    -0.248 NA
ATOM     44  C   UNL A   1      42.585  26.115  26.671  1.00  0.00     0.031 C 
ATOM     45  C   UNL A   1      46.043  27.836  29.408  1.00  0.00     0.029 A 
ATOM     46  N   UNL A   1      47.373  26.568  28.137  1.00  0.00    -0.354 N 
ATOM     47  C   UNL A   1      41.849  28.090  27.500  1.00  0.00     0.074 A 
ATOM     48  C   UNL A   1      41.495  26.877  26.825  1.00  0.00     0.031 C 
ATOM     49  C   UNL A   1      47.324  28.222  29.611  1.00  0.00     0.029 A 
ATOM     50  C   UNL A   1      48.137  27.659  28.534  1.00  0.00     0.049 A 
ATOM     51  H   UNL A   1      47.710  25.696  27.828  1.00  0.00     0.167 HD
ATOM     52  C   UNL A   1      41.241  28.969  28.347  1.00  0.00     0.037 A 
ATOM     53  C   UNL A   1      48.754  28.345  27.526  1.00  0.00     0.037 A 
ATOM     54  C   UNL A   1      42.283  29.826  28.915  1.00  0.00     0.049 A 
ATOM     55  C   UNL A   1      48.025  29.655  27.348  1.00  0.00     0.074 A 
ATOM     56  C   UNL A   1      43.005  29.736  30.093  1.00  0.00     0.029 A 
ATOM     57  N   UNL A   1      43.021  30.627  28.053  1.00  0.00    -0.354 N 
ATOM     58  N   UNL A   1      46.726  29.806  27.449  1.00  0.00    -0.248 NA
ATOM     59  C   UNL A   1      48.750  30.911  27.256  1.00  0.00     0.031 C 
ATOM     60  C   UNL A   1      44.235  30.427  29.889  1.00  0.00     0.029 A 
ATOM     61  C   UNL A   1      44.270  30.893  28.582  1.00  0.00     0.049 A 
ATOM     62  H   UNL A   1      42.699  30.959  27.184  1.00  0.00     0.167 HD
ATOM     63  C   UNL A   1      46.453  31.144  27.555  1.00  0.00     0.074 A 
ATOM     64  C   UNL A   1      47.749  31.790  27.407  1.00  0.00     0.031 C 
ATOM     65  C   UNL A   1      45.223  31.683  27.821  1.00  0.00     0.037 A 
BRANCH  52  66
ATOM     66  C   UNL A   1      39.835  28.938  28.914  1.00  0.00     0.064 A 
ATOM     67  C   UNL A   1      38.754  29.355  28.097  1.00  0.00     0.173 A 
ATOM     68  C   UNL A   1      39.462  28.559  30.219  1.00  0.00     0.173 A 
ATOM     69  F   UNL A   1      38.939  29.703  26.816  1.00  0.00    -0.203 F 
ATOM     70  C   UNL A   1      37.435  29.432  28.555  1.00  0.00     0.198 A 
ATOM     71  C   UNL A   1      38.136  28.630  30.675  1.00  0.00     0.198 A 
ATOM     72  F   UNL A   1      40.346  28.091  31.101  1.00  0.00    -0.203 F 
ATOM     73  F   UNL A   1      36.469  29.860  27.730  1.00  0.00    -0.200 F 
ATOM     74  C   UNL A   1      37.126  29.073  29.848  1.00  0.00     0.200 A 
ATOM     75  F   UNL A   1      37.845  28.262  31.933  1.00  0.00    -0.200 F 
ATOM     76  F   UNL A   1      35.862  29.143  30.288  1.00  0.00    -0.200 F 
ENDBRANCH  52  66
BRANCH  53  77
ATOM     77  C   UNL A   1      49.313  27.451  26.445  1.00  0.00     0.064 A 
ATOM     78  C   UNL A   1      48.665  27.453  25.183  1.00  0.00     0.173 A 
ATOM     79  C   UNL A   1      50.568  26.830  26.493  1.00  0.00     0.173 A 
ATOM     80  F   UNL A   1      47.446  28.003  25.056  1.00  0.00    -0.203 F 
ATOM     81  C   UNL A   1      49.288  26.995  24.020  1.00  0.00     0.198 A 
ATOM     82  C   UNL A   1      51.175  26.330  25.327  1.00  0.00     0.198 A 
ATOM     83  F   UNL A   1      51.255  26.772  27.641  1.00  0.00    -0.203 F 
ATOM     84  F   UNL A   1      48.692  27.159  22.830  1.00  0.00    -0.200 F 
ATOM     85  C   UNL A   1      50.550  26.442  24.092  1.00  0.00     0.200 A 
ATOM     86  F   UNL A   1      52.419  25.829  25.381  1.00  0.00    -0.200 F 
ATOM     87  F   UNL A   1      51.192  26.078  22.971  1.00  0.00    -0.200 F 
ENDBRANCH  53  77
BRANCH  65  88
ATOM     88  C   UNL A   1      44.840  33.091  27.437  1.00  0.00     0.064 A 
ATOM     89  C   UNL A   1      44.159  33.399  26.249  1.00  0.00     0.173 A 
ATOM     90  C   UNL A   1      44.994  34.166  28.346  1.00  0.00     0.173 A 
ATOM     91  F   UNL A   1      43.781  32.449  25.384  1.00  0.00    -0.203 F 
ATOM     92  C   UNL A   1      43.790  34.702  25.930  1.00  0.00     0.198 A 
ATOM     93  C   UNL A   1      44.521  35.444  28.070  1.00  0.00     0.198 A 
ATOM     94  F   UNL A   1      45.572  34.014  29.545  1.00  0.00    -0.203 F 
ATOM     95  F   UNL A   1      43.243  34.955  24.734  1.00  0.00    -0.200 F 
ATOM     96  C   UNL A   1      43.958  35.721  26.844  1.00  0.00     0.200 A 
ATOM     97  F   UNL A   1      44.603  36.398  29.007  1.00  0.00    -0.200 F 
ATOM     98  F   UNL A   1      43.558  36.965  26.552  1.00  0.00    -0.200 F 
ENDBRANCH  65  88
ENDBRANCH  39  40
ENDBRANCH  32  34
ENDBRANCH  31  32
ENDBRANCH  30  31
ENDBRANCH   1  30
TORSDOF 15
ENDMDL
MODEL 2
REMARK VINA RESULT:     -12.6      3.115      5.484
REMARK SMILES Cc1ccc(-c2ccc(/C=C(\C#N)C3N=c4ccccc4=N3)o2)cc1C(=O)OCCOC(=O)c1ccc(-c2c3nc(c(-c4c(F)c(F)c(F)c(F)c4F)c4ccc([nH]4)c(-c4c(F)c(F)c(F)c(F)c4F)c4nc(c(-c5c(F)c(F)c(F)c(F)c5F)c5ccc2[nH]5)C=C4)C=C3)cc1
REMARK SMILES IDX 29 1 28 2 26 3 27 4 25 5 1 6 2 7 3 8 4 9 24 10 5 11 6 12
REMARK SMILES IDX 7 13 23 14 8 15 9 16 10 17 11 18 12 19 13 20 14 21 15 22
REMARK SMILES IDX 22 23 16 24 21 25 17 26 20 27 18 28 19 29 30 30 31 31 32 32
REMARK SMILES IDX 33 33 34 34 35 35 96 36 36 37 95 38 37 39 38 40 39 41 89 42
REMARK SMILES IDX 40 43 94 44 88 45 90 46 41 47 93 48 87 49 86 50 42 52 74 53
REMARK SMILES IDX 54 54 73 55 55 56 58 57 72 58 91 59 56 60 57 61 71 63 92 64
REMARK SMILES IDX 59 65 43 66 44 67 52 68 45 69 46 70 50 71 53 72 47 73 48 74
REMARK SMILES IDX 51 75 49 76 75 77 76 78 84 79 77 80 78 81 82 82 85 83 79 84
REMARK SMILES IDX 80 85 83 86 81 87 60 88 61 89 69 90 62 91 63 92 67 93 70 94
REMARK SMILES IDX 64 95 65 96 68 97 66 98
REMARK H PARENT 90 51 58 62
REMARK Flexibility Score: inf
ROOT
ATOM      1  C   UNL A   1      36.784  22.632  25.712  1.00  0.00     0.275 C 
ENDROOT
BRANCH   1   2
ATOM      2  O   UNL A   1      35.509  22.283  25.122  1.00  0.00    -0.458 OA
BRANCH   2   3
ATOM      3  C   UNL A   1      34.506  23.077  25.585  1.00  0.00     0.338 C 
ATOM      4  O   UNL A   1      33.698  22.719  26.433  1.00  0.00    -0.246 OA
BRANCH   3   5
ATOM      5  C   UNL A   1      34.327  24.418  24.972  1.00  0.00     0.063 A 
ATOM      6  C   UNL A   1      34.435  23.286  22.668  1.00  0.00     0.045 C 
ATOM      7  C   UNL A   1      34.132  24.452  23.577  1.00  0.00    -0.037 A 
ATOM      8  C   UNL A   1      33.650  25.632  22.994  1.00  0.00     0.005 A 
ATOM      9  C   UNL A   1      33.287  26.730  23.778  1.00  0.00     0.012 A 
ATOM     10  C   UNL A   1      34.037  25.562  25.751  1.00  0.00     0.028 A 
ATOM     11  C   UNL A   1      33.456  26.714  25.167  1.00  0.00     0.018 A 
BRANCH  11  12
ATOM     12  C   UNL A   1      33.017  27.866  25.969  1.00  0.00     0.134 A 
ATOM     13  C   UNL A   1      31.863  28.160  26.658  1.00  0.00     0.051 A 
ATOM     14  O   UNL A   1      33.896  28.919  26.104  1.00  0.00    -0.457 OA
ATOM     15  C   UNL A   1      32.059  29.430  27.251  1.00  0.00     0.051 A 
ATOM     16  C   UNL A   1      33.316  29.905  26.886  1.00  0.00     0.128 A 
BRANCH  16  17
ATOM     17  C   UNL A   1      33.890  31.157  27.286  1.00  0.00     0.066 C 
ATOM     18  C   UNL A   1      35.120  31.383  27.797  1.00  0.00     0.080 C 
BRANCH  18  19
ATOM     19  C   UNL A   1      36.073  30.350  28.006  1.00  0.00     0.099 C 
ATOM     20  N   UNL A   1      36.908  29.544  28.159  1.00  0.00    -0.193 NA
ENDBRANCH  18  19
BRANCH  18  21
ATOM     21  C   UNL A   1      35.537  32.796  28.189  1.00  0.00     0.263 C 
ATOM     22  N   UNL A   1      34.576  33.786  27.627  1.00  0.00    -0.251 NA
ATOM     23  N   UNL A   1      35.641  32.961  29.667  1.00  0.00    -0.251 NA
ATOM     24  C   UNL A   1      34.170  34.417  28.673  1.00  0.00     0.086 A 
ATOM     25  C   UNL A   1      34.820  33.926  29.908  1.00  0.00     0.086 A 
ATOM     26  C   UNL A   1      33.180  35.497  28.760  1.00  0.00     0.030 A 
ATOM     27  C   UNL A   1      34.475  34.546  31.194  1.00  0.00     0.030 A 
ATOM     28  C   UNL A   1      32.902  35.987  29.977  1.00  0.00     0.002 A 
ATOM     29  C   UNL A   1      33.552  35.519  31.185  1.00  0.00     0.002 A 
ENDBRANCH  18  21
ENDBRANCH  16  17
ENDBRANCH  11  12
ENDBRANCH   3   5
ENDBRANCH   2   3
ENDBRANCH   1   2
BRANCH   1  30
ATOM     30  C   UNL A   1      37.830  21.504  25.757  1.00  0.00     0.275 C 
BRANCH  30  31
ATOM     31  O   UNL A   1      39.255  21.795  25.751  1.00  0.00    -0.458 OA
BRANCH  31  32
ATOM     32  C   UNL A   1      40.075  21.578  26.805  1.00  0.00     0.338 C 
ATOM     33  O   UNL A   1      40.343  20.466  27.229  1.00  0.00    -0.246 OA
BRANCH  32  34
ATOM     34  C   UNL A   1      40.599  22.802  27.434  1.00  0.00     0.060 A 
ATOM     35  C   UNL A   1      41.575  22.684  28.440  1.00  0.00     0.016 A 
ATOM     36  C   UNL A   1      40.250  24.036  26.896  1.00  0.00     0.016 A 
ATOM     37  C   UNL A   1      42.287  23.799  28.847  1.00  0.00     0.010 A 
ATOM     38  C   UNL A   1      41.071  25.094  27.146  1.00  0.00     0.010 A 
ATOM     39  C   UNL A   1      42.020  24.986  28.177  1.00  0.00    -0.014 A 
BRANCH  39  40
ATOM     40  C   UNL A   1      42.367  26.283  28.708  1.00  0.00     0.031 A 
ATOM     41  C   UNL A   1      41.289  27.191  29.126  1.00  0.00     0.074 A 
ATOM     42  C   UNL A   1      43.709  26.297  28.922  1.00  0.00     0.049 A 
ATOM     43  N   UNL A   1      41.440  28.451  29.296  1.00  0.00    -0.248 NA
ATOM     44  C   UNL A   1      39.895  26.794  29.339  1.00  0.00     0.031 C 
ATOM     45  C   UNL A   1      44.603  27.095  29.735  1.00  0.00     0.029 A 
ATOM     46  N   UNL A   1      44.609  25.441  28.234  1.00  0.00    -0.354 N 
ATOM     47  C   UNL A   1      40.364  28.892  30.050  1.00  0.00     0.074 A 
ATOM     48  C   UNL A   1      39.348  27.902  29.855  1.00  0.00     0.031 C 
ATOM     49  C   UNL A   1      45.853  26.981  29.229  1.00  0.00     0.029 A 
ATOM     50  C   UNL A   1      45.772  26.171  28.015  1.00  0.00     0.049 A 
ATOM     51  H   UNL A   1      44.441  24.509  27.963  1.00  0.00     0.167 HD
ATOM     52  C   UNL A   1      40.593  29.924  30.912  1.00  0.00     0.037 A 
ATOM     53  C   UNL A   1      45.971  26.592  26.731  1.00  0.00     0.037 A 
ATOM     54  C   UNL A   1      41.989  30.333  30.750  1.00  0.00     0.049 A 
ATOM     55  C   UNL A   1      45.719  28.080  26.692  1.00  0.00     0.074 A 
ATOM     56  C   UNL A   1      43.137  29.970  31.435  1.00  0.00     0.029 A 
ATOM     57  N   UNL A   1      42.396  30.816  29.513  1.00  0.00    -0.354 N 
ATOM     58  N   UNL A   1      44.783  28.697  27.372  1.00  0.00    -0.248 NA
ATOM     59  C   UNL A   1      46.655  28.983  26.042  1.00  0.00     0.031 C 
ATOM     60  C   UNL A   1      44.237  30.164  30.549  1.00  0.00     0.029 A 
ATOM     61  C   UNL A   1      43.748  30.598  29.324  1.00  0.00     0.049 A 
ATOM     62  H   UNL A   1      41.803  31.251  28.859  1.00  0.00     0.167 HD
ATOM     63  C   UNL A   1      45.048  30.041  27.354  1.00  0.00     0.074 A 
ATOM     64  C   UNL A   1      46.215  30.167  26.493  1.00  0.00     0.031 C 
ATOM     65  C   UNL A   1      44.375  30.990  28.073  1.00  0.00     0.037 A 
BRANCH  52  66
ATOM     66  C   UNL A   1      39.749  30.406  32.076  1.00  0.00     0.064 A 
ATOM     67  C   UNL A   1      38.698  31.324  31.831  1.00  0.00     0.173 A 
ATOM     68  C   UNL A   1      39.912  30.061  33.433  1.00  0.00     0.173 A 
ATOM     69  F   UNL A   1      38.386  31.715  30.587  1.00  0.00    -0.203 F 
ATOM     70  C   UNL A   1      37.916  31.880  32.848  1.00  0.00     0.198 A 
ATOM     71  C   UNL A   1      39.122  30.615  34.452  1.00  0.00     0.198 A 
ATOM     72  F   UNL A   1      40.820  29.170  33.834  1.00  0.00    -0.203 F 
ATOM     73  F   UNL A   1      36.954  32.762  32.540  1.00  0.00    -0.200 F 
ATOM     74  C   UNL A   1      38.131  31.529  34.162  1.00  0.00     0.200 A 
ATOM     75  F   UNL A   1      39.331  30.252  35.728  1.00  0.00    -0.200 F 
ATOM     76  F   UNL A   1      37.380  32.058  35.138  1.00  0.00    -0.200 F 
ENDBRANCH  52  66
BRANCH  53  77
ATOM     77  C   UNL A   1      45.580  25.567  25.694  1.00  0.00     0.064 A 
ATOM     78  C   UNL A   1      46.551  24.605  25.314  1.00  0.00     0.173 A 
ATOM     79  C   UNL A   1      44.267  25.315  25.278  1.00  0.00     0.173 A 
ATOM     80  F   UNL A   1      47.840  24.785  25.648  1.00  0.00    -0.203 F 
ATOM     81  C   UNL A   1      46.211  23.405  24.685  1.00  0.00     0.198 A 
ATOM     82  C   UNL A   1      43.934  24.125  24.606  1.00  0.00     0.198 A 
ATOM     83  F   UNL A   1      43.280  26.168  25.582  1.00  0.00    -0.203 F 
ATOM     84  F   UNL A   1      47.146  22.464  24.485  1.00  0.00    -0.200 F 
ATOM     85  C   UNL A   1      44.897  23.161  24.341  1.00  0.00     0.200 A 
ATOM     86  F   UNL A   1      42.653  23.860  24.304  1.00  0.00    -0.200 F 
ATOM     87  F   UNL A   1      44.547  21.977  23.816  1.00  0.00    -0.200 F 
ENDBRANCH  53  77
BRANCH  65  88
ATOM     88  C   UNL A   1      44.325  32.445  27.674  1.00  0.00     0.064 A 
ATOM     89  C   UNL A   1      43.867  32.877  26.420  1.00  0.00     0.173 A 
ATOM     90  C   UNL A   1      44.577  33.473  28.616  1.00  0.00     0.173 A 
ATOM     91  F   UNL A   1      43.415  32.017  25.498  1.00  0.00    -0.203 F 
ATOM     92  C   UNL A   1      43.802  34.226  26.085  1.00  0.00     0.198 A 
ATOM     93  C   UNL A   1      44.402  34.817  28.312  1.00  0.00     0.198 A 
ATOM     94  F   UNL A   1      44.965  33.214  29.873  1.00  0.00    -0.203 F 
ATOM     95  F   UNL A   1      43.463  34.577  24.838  1.00  0.00    -0.200 F 
ATOM     96  C   UNL A   1      44.057  35.195  27.033  1.00  0.00     0.200 A 
ATOM     97  F   UNL A   1      44.557  35.740  29.270  1.00  0.00    -0.200 F 
ATOM     98  F   UNL A   1      43.948  36.492  26.720  1.00  0.00    -0.200 F 
ENDBRANCH  65  88
ENDBRANCH  39  40
ENDBRANCH  32  34
ENDBRANCH  31  32
ENDBRANCH  30  31
ENDBRANCH   1  30
TORSDOF 15
ENDMDL
MODEL 3
REMARK VINA RESULT:     -12.5      5.719     11.575
REMARK SMILES Cc1ccc(-c2ccc(/C=C(\C#N)C3N=c4ccccc4=N3)o2)cc1C(=O)OCCOC(=O)c1ccc(-c2c3nc(c(-c4c(F)c(F)c(F)c(F)c4F)c4ccc([nH]4)c(-c4c(F)c(F)c(F)c(F)c4F)c4nc(c(-c5c(F)c(F)c(F)c(F)c5F)c5ccc2[nH]5)C=C4)C=C3)cc1
REMARK SMILES IDX 29 1 28 2 26 3 27 4 25 5 1 6 2 7 3 8 4 9 24 10 5 11 6 12
REMARK SMILES IDX 7 13 23 14 8 15 9 16 10 17 11 18 12 19 13 20 14 21 15 22
REMARK SMILES IDX 22 23 16 24 21 25 17 26 20 27 18 28 19 29 30 30 31 31 32 32
REMARK SMILES IDX 33 33 34 34 35 35 96 36 36 37 95 38 37 39 38 40 39 41 89 42
REMARK SMILES IDX 40 43 94 44 88 45 90 46 41 47 93 48 87 49 86 50 42 52 74 53
REMARK SMILES IDX 54 54 73 55 55 56 58 57 72 58 91 59 56 60 57 61 71 63 92 64
REMARK SMILES IDX 59 65 43 66 44 67 52 68 45 69 46 70 50 71 53 72 47 73 48 74
REMARK SMILES IDX 51 75 49 76 75 77 76 78 84 79 77 80 78 81 82 82 85 83 79 84
REMARK SMILES IDX 80 85 83 86 81 87 60 88 61 89 69 90 62 91 63 92 67 93 70 94
REMARK SMILES IDX 64 95 65 96 68 97 66 98
REMARK H PARENT 90 51 58 62
REMARK Flexibility Score: inf
ROOT
ATOM      1  C   UNL A   1      33.935  33.832  30.405  1.00  0.00     0.275 C 
ENDROOT
BRANCH   1   2
ATOM      2  O   UNL A   1      33.389  34.168  29.108  1.00  0.00    -0.458 OA
BRANCH   2   3
ATOM      3  C   UNL A   1      34.328  34.073  28.127  1.00  0.00     0.338 C 
ATOM      4  O   UNL A   1      34.700  35.027  27.455  1.00  0.00    -0.246 OA
BRANCH   3   5
ATOM      5  C   UNL A   1      34.869  32.731  27.794  1.00  0.00     0.063 A 
ATOM      6  C   UNL A   1      37.127  33.496  28.751  1.00  0.00     0.045 C 
ATOM      7  C   UNL A   1      36.166  32.440  28.261  1.00  0.00    -0.037 A 
ATOM      8  C   UNL A   1      36.601  31.108  28.254  1.00  0.00     0.005 A 
ATOM      9  C   UNL A   1      35.745  30.070  27.874  1.00  0.00     0.012 A 
ATOM     10  C   UNL A   1      34.037  31.685  27.332  1.00  0.00     0.028 A 
ATOM     11  C   UNL A   1      34.447  30.333  27.423  1.00  0.00     0.018 A 
BRANCH  11  12
ATOM     12  C   UNL A   1      33.554  29.215  27.080  1.00  0.00     0.134 A 
ATOM     13  C   UNL A   1      32.209  28.985  27.253  1.00  0.00     0.051 A 
ATOM     14  O   UNL A   1      34.114  28.126  26.447  1.00  0.00    -0.457 OA
ATOM     15  C   UNL A   1      31.939  27.718  26.685  1.00  0.00     0.051 A 
ATOM     16  C   UNL A   1      33.130  27.180  26.204  1.00  0.00     0.128 A 
BRANCH  16  17
ATOM     17  C   UNL A   1      33.278  25.910  25.554  1.00  0.00     0.066 C 
ATOM     18  C   UNL A   1      33.354  25.658  24.229  1.00  0.00     0.080 C 
BRANCH  18  19
ATOM     19  C   UNL A   1      33.310  26.679  23.243  1.00  0.00     0.099 C 
ATOM     20  N   UNL A   1      33.302  27.565  22.477  1.00  0.00    -0.193 NA
ENDBRANCH  18  19
BRANCH  18  21
ATOM     21  C   UNL A   1      33.483  24.222  23.731  1.00  0.00     0.263 C 
ATOM     22  N   UNL A   1      34.777  24.046  23.013  1.00  0.00    -0.251 NA
ATOM     23  N   UNL A   1      33.371  23.232  24.841  1.00  0.00    -0.251 NA
ATOM     24  C   UNL A   1      35.335  23.082  23.661  1.00  0.00     0.086 A 
ATOM     25  C   UNL A   1      34.481  22.583  24.761  1.00  0.00     0.086 A 
ATOM     26  C   UNL A   1      36.654  22.479  23.440  1.00  0.00     0.030 A 
ATOM     27  C   UNL A   1      34.966  21.476  25.597  1.00  0.00     0.030 A 
ATOM     28  C   UNL A   1      37.031  21.493  24.266  1.00  0.00     0.002 A 
ATOM     29  C   UNL A   1      36.189  20.990  25.334  1.00  0.00     0.002 A 
ENDBRANCH  18  21
ENDBRANCH  16  17
ENDBRANCH  11  12
ENDBRANCH   3   5
ENDBRANCH   2   3
ENDBRANCH   1   2
BRANCH   1  30
ATOM     30  C   UNL A   1      33.595  34.807  31.546  1.00  0.00     0.275 C 
BRANCH  30  31
ATOM     31  O   UNL A   1      33.841  34.458  32.936  1.00  0.00    -0.458 OA
BRANCH  31  32
ATOM     32  C   UNL A   1      34.965  34.791  33.612  1.00  0.00     0.338 C 
ATOM     33  O   UNL A   1      35.015  35.703  34.422  1.00  0.00    -0.246 OA
BRANCH  32  34
ATOM     34  C   UNL A   1      36.147  33.985  33.268  1.00  0.00     0.060 A 
ATOM     35  C   UNL A   1      37.151  34.559  32.467  1.00  0.00     0.016 A 
ATOM     36  C   UNL A   1      36.323  32.752  33.887  1.00  0.00     0.016 A 
ATOM     37  C   UNL A   1      38.386  33.945  32.361  1.00  0.00     0.010 A 
ATOM     38  C   UNL A   1      37.586  32.244  33.947  1.00  0.00     0.010 A 
ATOM     39  C   UNL A   1      38.577  32.796  33.118  1.00  0.00    -0.014 A 
BRANCH  39  40
ATOM     40  C   UNL A   1      39.623  31.839  32.844  1.00  0.00     0.031 A 
ATOM     41  C   UNL A   1      39.305  30.650  32.039  1.00  0.00     0.074 A 
ATOM     42  C   UNL A   1      40.802  32.393  33.231  1.00  0.00     0.049 A 
ATOM     43  N   UNL A   1      40.029  29.595  32.004  1.00  0.00    -0.248 NA
ATOM     44  C   UNL A   1      38.096  30.486  31.229  1.00  0.00     0.031 C 
ATOM     45  C   UNL A   1      42.195  32.147  32.918  1.00  0.00     0.029 A 
ATOM     46  N   UNL A   1      40.888  33.424  34.204  1.00  0.00    -0.354 N 
ATOM     47  C   UNL A   1      39.653  28.880  30.879  1.00  0.00     0.074 A 
ATOM     48  C   UNL A   1      38.332  29.343  30.574  1.00  0.00     0.031 C 
ATOM     49  C   UNL A   1      42.952  32.673  33.909  1.00  0.00     0.029 A 
ATOM     50  C   UNL A   1      42.049  33.194  34.933  1.00  0.00     0.049 A 
ATOM     51  H   UNL A   1      40.248  34.160  34.336  1.00  0.00     0.167 HD
ATOM     52  C   UNL A   1      40.626  28.165  30.244  1.00  0.00     0.037 A 
ATOM     53  C   UNL A   1      41.865  32.700  36.194  1.00  0.00     0.037 A 
ATOM     54  C   UNL A   1      41.863  28.327  31.010  1.00  0.00     0.049 A 
ATOM     55  C   UNL A   1      42.274  31.247  36.183  1.00  0.00     0.074 A 
ATOM     56  C   UNL A   1      42.917  29.213  30.874  1.00  0.00     0.029 A 
ATOM     57  N   UNL A   1      41.892  27.867  32.321  1.00  0.00    -0.354 N 
ATOM     58  N   UNL A   1      42.054  30.417  35.192  1.00  0.00    -0.248 NA
ATOM     59  C   UNL A   1      43.148  30.705  37.211  1.00  0.00     0.031 C 
ATOM     60  C   UNL A   1      43.528  29.344  32.155  1.00  0.00     0.029 A 
ATOM     61  C   UNL A   1      42.817  28.575  33.066  1.00  0.00     0.049 A 
ATOM     62  H   UNL A   1      41.330  27.140  32.672  1.00  0.00     0.167 HD
ATOM     63  C   UNL A   1      42.830  29.303  35.379  1.00  0.00     0.074 A 
ATOM     64  C   UNL A   1      43.477  29.526  36.664  1.00  0.00     0.031 C 
ATOM     65  C   UNL A   1      42.980  28.283  34.480  1.00  0.00     0.037 A 
BRANCH  52  66
ATOM     66  C   UNL A   1      40.622  27.566  28.851  1.00  0.00     0.064 A 
ATOM     67  C   UNL A   1      39.877  26.384  28.612  1.00  0.00     0.173 A 
ATOM     68  C   UNL A   1      41.323  28.045  27.727  1.00  0.00     0.173 A 
ATOM     69  F   UNL A   1      39.118  25.829  29.568  1.00  0.00    -0.203 F 
ATOM     70  C   UNL A   1      39.873  25.719  27.382  1.00  0.00     0.198 A 
ATOM     71  C   UNL A   1      41.313  27.380  26.491  1.00  0.00     0.198 A 
ATOM     72  F   UNL A   1      42.032  29.175  27.762  1.00  0.00    -0.203 F 
ATOM     73  F   UNL A   1      39.162  24.591  27.239  1.00  0.00    -0.200 F 
ATOM     74  C   UNL A   1      40.595  26.215  26.320  1.00  0.00     0.200 A 
ATOM     75  F   UNL A   1      42.009  27.883  25.459  1.00  0.00    -0.200 F 
ATOM     76  F   UNL A   1      40.590  25.581  25.140  1.00  0.00    -0.200 F 
ENDBRANCH  52  66
BRANCH  53  77
ATOM     77  C   UNL A   1      40.692  33.318  36.916  1.00  0.00     0.064 A 
ATOM     78  C   UNL A   1      39.525  32.528  37.083  1.00  0.00     0.173 A 
ATOM     79  C   UNL A   1      40.750  34.497  37.669  1.00  0.00     0.173 A 
ATOM     80  F   UNL A   1      39.377  31.395  36.376  1.00  0.00    -0.203 F 
ATOM     81  C   UNL A   1      38.552  32.821  38.040  1.00  0.00     0.198 A 
ATOM     82  C   UNL A   1      39.746  34.813  38.603  1.00  0.00     0.198 A 
ATOM     83  F   UNL A   1      41.808  35.313  37.577  1.00  0.00    -0.203 F 
ATOM     84  F   UNL A   1      37.547  31.960  38.262  1.00  0.00    -0.200 F 
ATOM     85  C   UNL A   1      38.669  33.961  38.809  1.00  0.00     0.200 A 
ATOM     86  F   UNL A   1      39.872  35.898  39.384  1.00  0.00    -0.200 F 
ATOM     87  F   UNL A   1      37.786  34.207  39.789  1.00  0.00    -0.200 F 
ENDBRANCH  53  77
BRANCH  65  88
ATOM     88  C   UNL A   1      43.393  26.887  34.879  1.00  0.00     0.064 A 
ATOM     89  C   UNL A   1      44.715  26.545  35.201  1.00  0.00     0.173 A 
ATOM     90  C   UNL A   1      42.428  25.878  35.120  1.00  0.00     0.173 A 
ATOM     91  F   UNL A   1      45.701  27.452  35.200  1.00  0.00    -0.203 F 
ATOM     92  C   UNL A   1      45.067  25.258  35.595  1.00  0.00     0.198 A 
ATOM     93  C   UNL A   1      42.771  24.629  35.622  1.00  0.00     0.198 A 
ATOM     94  F   UNL A   1      41.118  26.076  34.915  1.00  0.00    -0.203 F 
ATOM     95  F   UNL A   1      46.359  24.958  35.783  1.00  0.00    -0.200 F 
ATOM     96  C   UNL A   1      44.095  24.304  35.818  1.00  0.00     0.200 A 
ATOM     97  F   UNL A   1      41.807  23.749  35.927  1.00  0.00    -0.200 F 
ATOM     98  F   UNL A   1      44.433  23.081  36.243  1.00  0.00    -0.200 F 
ENDBRANCH  65  88
ENDBRANCH  39  40
ENDBRANCH  32  34
ENDBRANCH  31  32
ENDBRANCH  30  31
ENDBRANCH   1  30
TORSDOF 15
ENDMDL
