MODEL 1
REMARK VINA RESULT:     -14.0      0.000      0.000
REMARK SMILES O=C(OCCOC(=O)[C@H]1Cc2c([nH]c3ccccc23)[C@@H](c2ccc(OC(F)(F)F)cc2)[NH2+]1)c1ccc(-c2c3nc(c(-c4c(F)c(F)c(F)c(F)c4F)c4ccc([nH]4)c(-c4c(F)c(F)c(F)c(F)c4F)c4nc(c(-c5c(F)c(F)c(F)c(F)c5F)c5ccc2[nH]5)C=C4)C=C3)cc1
REMARK SMILES IDX 5 1 4 2 3 3 2 4 1 5 33 6 34 7 95 8 35 9 94 10 36 11 37 12
REMARK SMILES IDX 38 13 88 14 39 15 93 16 87 17 89 18 40 19 92 20 86 21 85 22
REMARK SMILES IDX 41 24 73 25 53 26 72 27 54 28 57 29 71 30 90 31 55 32 56 33
REMARK SMILES IDX 70 35 91 36 58 37 42 38 43 39 51 40 44 41 45 42 49 43 52 44
REMARK SMILES IDX 46 45 47 46 50 47 48 48 74 49 75 50 83 51 76 52 77 53 81 54
REMARK SMILES IDX 84 55 78 56 79 57 82 58 80 59 59 60 60 61 68 62 61 63 62 64
REMARK SMILES IDX 66 65 69 66 63 67 64 68 67 69 65 70 6 71 7 72 8 73 9 74
REMARK SMILES IDX 10 75 32 76 11 77 20 78 12 81 19 82 13 83 14 84 18 85 15 87
REMARK SMILES IDX 17 88 16 89 21 90 22 91 31 92 23 93 30 94 24 95 25 96 26 97
REMARK SMILES IDX 27 98 28 99 29 100
REMARK H PARENT 89 23 57 34 32 79 32 80 13 86
REMARK Flexibility Score: inf
ROOT
ATOM      1  C   UNL A   1      39.179  21.107  25.935  1.00  0.00     0.274 C 
ENDROOT
BRANCH   1   2
ATOM      2  C   UNL A   1      39.392  19.702  25.367  1.00  0.00     0.275 C 
BRANCH   2   3
ATOM      3  O   UNL A   1      40.397  18.969  26.073  1.00  0.00    -0.458 OA
BRANCH   3   4
ATOM      4  C   UNL A   1      41.741  19.069  26.000  1.00  0.00     0.338 C 
ATOM      5  O   UNL A   1      42.365  18.044  25.719  1.00  0.00    -0.246 OA
BRANCH   4   6
ATOM      6  C   UNL A   1      42.559  20.314  26.258  1.00  0.00     0.060 A 
ATOM      7  C   UNL A   1      43.328  21.052  25.349  1.00  0.00     0.016 A 
ATOM      8  C   UNL A   1      42.368  20.888  27.528  1.00  0.00     0.016 A 
ATOM      9  C   UNL A   1      43.813  22.341  25.665  1.00  0.00     0.010 A 
ATOM     10  C   UNL A   1      42.812  22.183  27.823  1.00  0.00     0.010 A 
ATOM     11  C   UNL A   1      43.519  22.949  26.890  1.00  0.00    -0.014 A 
BRANCH  11  12
ATOM     12  C   UNL A   1      43.922  24.361  27.206  1.00  0.00     0.031 A 
ATOM     13  C   UNL A   1      42.913  25.336  27.675  1.00  0.00     0.074 A 
ATOM     14  C   UNL A   1      45.149  24.855  26.938  1.00  0.00     0.049 A 
ATOM     15  N   UNL A   1      43.072  26.614  27.878  1.00  0.00    -0.248 NA
ATOM     16  C   UNL A   1      41.545  24.843  27.864  1.00  0.00     0.031 C 
ATOM     17  C   UNL A   1      46.136  24.064  26.269  1.00  0.00     0.029 A 
ATOM     18  N   UNL A   1      45.787  26.074  27.094  1.00  0.00    -0.354 N 
ATOM     19  C   UNL A   1      41.817  27.088  28.172  1.00  0.00     0.074 A 
ATOM     20  C   UNL A   1      40.895  25.979  28.048  1.00  0.00     0.031 C 
ATOM     21  C   UNL A   1      47.248  24.781  26.078  1.00  0.00     0.029 A 
ATOM     22  C   UNL A   1      47.083  26.095  26.607  1.00  0.00     0.049 A 
ATOM     23  H   UNL A   1      45.358  26.854  27.512  1.00  0.00     0.167 HD
ATOM     24  C   UNL A   1      41.485  28.339  28.549  1.00  0.00     0.037 A 
ATOM     25  C   UNL A   1      48.068  27.013  26.548  1.00  0.00     0.037 A 
ATOM     26  C   UNL A   1      42.425  29.416  28.696  1.00  0.00     0.049 A 
ATOM     27  C   UNL A   1      47.714  28.350  27.090  1.00  0.00     0.074 A 
ATOM     28  C   UNL A   1      42.198  30.682  29.199  1.00  0.00     0.029 A 
ATOM     29  N   UNL A   1      43.767  29.362  28.334  1.00  0.00    -0.354 N 
ATOM     30  N   UNL A   1      46.549  28.733  27.543  1.00  0.00    -0.248 NA
ATOM     31  C   UNL A   1      48.759  29.376  27.123  1.00  0.00     0.031 C 
ATOM     32  C   UNL A   1      43.394  31.403  29.117  1.00  0.00     0.029 A 
ATOM     33  C   UNL A   1      44.378  30.581  28.596  1.00  0.00     0.049 A 
ATOM     34  H   UNL A   1      44.218  28.576  27.950  1.00  0.00     0.167 HD
ATOM     35  C   UNL A   1      46.710  30.045  27.912  1.00  0.00     0.074 A 
ATOM     36  C   UNL A   1      48.105  30.379  27.691  1.00  0.00     0.031 C 
ATOM     37  C   UNL A   1      45.764  30.899  28.358  1.00  0.00     0.037 A 
BRANCH  24  38
ATOM     38  C   UNL A   1      40.039  28.556  28.838  1.00  0.00     0.064 A 
ATOM     39  C   UNL A   1      39.173  29.083  27.866  1.00  0.00     0.173 A 
ATOM     40  C   UNL A   1      39.535  28.325  30.123  1.00  0.00     0.173 A 
ATOM     41  F   UNL A   1      39.630  29.362  26.634  1.00  0.00    -0.203 F 
ATOM     42  C   UNL A   1      37.864  29.416  28.186  1.00  0.00     0.198 A 
ATOM     43  C   UNL A   1      38.213  28.626  30.428  1.00  0.00     0.198 A 
ATOM     44  F   UNL A   1      40.334  27.845  31.089  1.00  0.00    -0.203 F 
ATOM     45  F   UNL A   1      37.083  30.007  27.270  1.00  0.00    -0.200 F 
ATOM     46  C   UNL A   1      37.384  29.183  29.465  1.00  0.00     0.200 A 
ATOM     47  F   UNL A   1      37.748  28.406  31.666  1.00  0.00    -0.200 F 
ATOM     48  F   UNL A   1      36.125  29.519  29.778  1.00  0.00    -0.200 F 
ENDBRANCH  24  38
BRANCH  25  49
ATOM     49  C   UNL A   1      49.451  26.720  26.033  1.00  0.00     0.064 A 
ATOM     50  C   UNL A   1      49.807  27.062  24.717  1.00  0.00     0.173 A 
ATOM     51  C   UNL A   1      50.445  26.095  26.807  1.00  0.00     0.173 A 
ATOM     52  F   UNL A   1      48.913  27.663  23.918  1.00  0.00    -0.203 F 
ATOM     53  C   UNL A   1      51.065  26.761  24.189  1.00  0.00     0.198 A 
ATOM     54  C   UNL A   1      51.719  25.830  26.290  1.00  0.00     0.198 A 
ATOM     55  F   UNL A   1      50.200  25.760  28.082  1.00  0.00    -0.203 F 
ATOM     56  F   UNL A   1      51.343  27.061  22.913  1.00  0.00    -0.200 F 
ATOM     57  C   UNL A   1      52.024  26.149  24.978  1.00  0.00     0.200 A 
ATOM     58  F   UNL A   1      52.656  25.278  27.075  1.00  0.00    -0.200 F 
ATOM     59  F   UNL A   1      53.238  25.877  24.480  1.00  0.00    -0.200 F 
ENDBRANCH  25  49
BRANCH  37  60
ATOM     60  C   UNL A   1      46.231  32.289  28.619  1.00  0.00     0.064 A 
ATOM     61  C   UNL A   1      46.713  32.661  29.883  1.00  0.00     0.173 A 
ATOM     62  C   UNL A   1      46.193  33.251  27.605  1.00  0.00     0.173 A 
ATOM     63  F   UNL A   1      46.720  31.777  30.892  1.00  0.00    -0.203 F 
ATOM     64  C   UNL A   1      47.131  33.963  30.123  1.00  0.00     0.198 A 
ATOM     65  C   UNL A   1      46.645  34.542  27.840  1.00  0.00     0.198 A 
ATOM     66  F   UNL A   1      45.718  32.936  26.391  1.00  0.00    -0.203 F 
ATOM     67  F   UNL A   1      47.537  34.316  31.350  1.00  0.00    -0.200 F 
ATOM     68  C   UNL A   1      47.108  34.898  29.099  1.00  0.00     0.200 A 
ATOM     69  F   UNL A   1      46.625  35.445  26.851  1.00  0.00    -0.200 F 
ATOM     70  F   UNL A   1      47.524  36.150  29.329  1.00  0.00    -0.200 F 
ENDBRANCH  37  60
ENDBRANCH  11  12
ENDBRANCH   4   6
ENDBRANCH   3   4
ENDBRANCH   2   3
ENDBRANCH   1   2
BRANCH   1  71
ATOM     71  O   UNL A   1      38.071  21.796  25.333  1.00  0.00    -0.458 OA
BRANCH  71  72
ATOM     72  C   UNL A   1      37.725  23.008  25.867  1.00  0.00     0.365 C 
ATOM     73  O   UNL A   1      38.528  23.844  26.288  1.00  0.00    -0.245 OA
BRANCH  72  74
ATOM     74  C   UNL A   1      36.203  23.171  25.971  1.00  0.00     0.298 C 
ATOM     75  C   UNL A   1      35.749  24.197  24.923  1.00  0.00     0.115 C 
ATOM     76  N   UNL A   1      35.615  21.825  25.824  1.00  0.00    -0.323 N 
ATOM     77  C   UNL A   1      34.290  24.114  24.689  1.00  0.00    -0.006 A 
ATOM     78  C   UNL A   1      34.158  21.714  25.721  1.00  0.00     0.262 C 
ATOM     79  H   UNL A   1      35.902  21.279  26.637  1.00  0.00     0.347 HD
ATOM     80  H   UNL A   1      35.957  21.496  24.922  1.00  0.00     0.347 HD
ATOM     81  C   UNL A   1      33.575  22.975  25.050  1.00  0.00     0.083 A 
ATOM     82  C   UNL A   1      33.462  24.965  23.895  1.00  0.00     0.003 A 
ATOM     83  N   UNL A   1      32.261  23.268  24.722  1.00  0.00    -0.353 N 
ATOM     84  C   UNL A   1      32.213  24.354  23.847  1.00  0.00     0.046 A 
ATOM     85  C   UNL A   1      33.679  26.127  23.117  1.00  0.00     0.010 A 
ATOM     86  H   UNL A   1      31.474  22.780  25.058  1.00  0.00     0.166 HD
ATOM     87  C   UNL A   1      31.203  24.797  22.970  1.00  0.00     0.026 A 
ATOM     88  C   UNL A   1      32.701  26.549  22.204  1.00  0.00     0.001 A 
ATOM     89  C   UNL A   1      31.488  25.874  22.117  1.00  0.00     0.002 A 
BRANCH  78  90
ATOM     90  C   UNL A   1      33.935  20.322  25.063  1.00  0.00     0.016 A 
ATOM     91  C   UNL A   1      32.662  19.883  24.631  1.00  0.00     0.014 A 
ATOM     92  C   UNL A   1      34.997  19.442  24.807  1.00  0.00     0.014 A 
ATOM     93  C   UNL A   1      32.420  18.546  24.268  1.00  0.00     0.047 A 
ATOM     94  C   UNL A   1      34.773  18.128  24.330  1.00  0.00     0.047 A 
ATOM     95  C   UNL A   1      33.476  17.651  24.147  1.00  0.00     0.129 A 
BRANCH  95  96
ATOM     96  O   UNL A   1      33.127  16.337  24.028  1.00  0.00    -0.406 OA
BRANCH  96  97
ATOM     97  C   UNL A   1      33.171  15.538  25.198  1.00  0.00     0.573 C 
ATOM     98  F   UNL A   1      32.354  14.473  25.076  1.00  0.00    -0.132 F 
ATOM     99  F   UNL A   1      34.424  15.122  25.472  1.00  0.00    -0.132 F 
ATOM    100  F   UNL A   1      32.743  16.283  26.243  1.00  0.00    -0.132 F 
ENDBRANCH  96  97
ENDBRANCH  95  96
ENDBRANCH  78  90
ENDBRANCH  72  74
ENDBRANCH  71  72
ENDBRANCH   1  71
TORSDOF 14
ENDMDL
MODEL 2
REMARK VINA RESULT:     -13.9      4.012      9.347
REMARK SMILES O=C(OCCOC(=O)[C@H]1Cc2c([nH]c3ccccc23)[C@@H](c2ccc(OC(F)(F)F)cc2)[NH2+]1)c1ccc(-c2c3nc(c(-c4c(F)c(F)c(F)c(F)c4F)c4ccc([nH]4)c(-c4c(F)c(F)c(F)c(F)c4F)c4nc(c(-c5c(F)c(F)c(F)c(F)c5F)c5ccc2[nH]5)C=C4)C=C3)cc1
REMARK SMILES IDX 5 1 4 2 3 3 2 4 1 5 33 6 34 7 95 8 35 9 94 10 36 11 37 12
REMARK SMILES IDX 38 13 88 14 39 15 93 16 87 17 89 18 40 19 92 20 86 21 85 22
REMARK SMILES IDX 41 24 73 25 53 26 72 27 54 28 57 29 71 30 90 31 55 32 56 33
REMARK SMILES IDX 70 35 91 36 58 37 42 38 43 39 51 40 44 41 45 42 49 43 52 44
REMARK SMILES IDX 46 45 47 46 50 47 48 48 74 49 75 50 83 51 76 52 77 53 81 54
REMARK SMILES IDX 84 55 78 56 79 57 82 58 80 59 59 60 60 61 68 62 61 63 62 64
REMARK SMILES IDX 66 65 69 66 63 67 64 68 67 69 65 70 6 71 7 72 8 73 9 74
REMARK SMILES IDX 10 75 32 76 11 77 20 78 12 81 19 82 13 83 14 84 18 85 15 87
REMARK SMILES IDX 17 88 16 89 21 90 22 91 31 92 23 93 30 94 24 95 25 96 26 97
REMARK SMILES IDX 27 98 28 99 29 100
REMARK H PARENT 89 23 57 34 32 79 32 80 13 86
REMARK Flexibility Score: inf
ROOT
ATOM      1  C   UNL A   1      34.889  22.838  24.900  1.00  0.00     0.274 C 
ENDROOT
BRANCH   1   2
ATOM      2  C   UNL A   1      36.144  22.120  24.400  1.00  0.00     0.275 C 
BRANCH   2   3
ATOM      3  O   UNL A   1      36.892  21.517  25.460  1.00  0.00    -0.458 OA
BRANCH   3   4
ATOM      4  C   UNL A   1      38.206  21.626  25.752  1.00  0.00     0.338 C 
ATOM      5  O   UNL A   1      38.932  20.683  25.429  1.00  0.00    -0.246 OA
BRANCH   4   6
ATOM      6  C   UNL A   1      38.869  22.783  26.463  1.00  0.00     0.060 A 
ATOM      7  C   UNL A   1      40.028  22.769  27.249  1.00  0.00     0.016 A 
ATOM      8  C   UNL A   1      38.347  24.048  26.137  1.00  0.00     0.016 A 
ATOM      9  C   UNL A   1      40.685  23.965  27.622  1.00  0.00     0.010 A 
ATOM     10  C   UNL A   1      39.022  25.229  26.470  1.00  0.00     0.010 A 
ATOM     11  C   UNL A   1      40.220  25.213  27.195  1.00  0.00    -0.014 A 
BRANCH  11  12
ATOM     12  C   UNL A   1      40.961  26.489  27.477  1.00  0.00     0.031 A 
ATOM     13  C   UNL A   1      42.369  26.641  27.054  1.00  0.00     0.074 A 
ATOM     14  C   UNL A   1      40.459  27.477  28.249  1.00  0.00     0.049 A 
ATOM     15  N   UNL A   1      43.181  27.626  27.322  1.00  0.00    -0.248 NA
ATOM     16  C   UNL A   1      42.968  25.528  26.311  1.00  0.00     0.031 C 
ATOM     17  C   UNL A   1      39.195  27.336  28.903  1.00  0.00     0.029 A 
ATOM     18  N   UNL A   1      40.895  28.715  28.687  1.00  0.00    -0.354 N 
ATOM     19  C   UNL A   1      44.398  27.231  26.823  1.00  0.00     0.074 A 
ATOM     20  C   UNL A   1      44.239  25.889  26.303  1.00  0.00     0.031 C 
ATOM     21  C   UNL A   1      38.935  28.421  29.640  1.00  0.00     0.029 A 
ATOM     22  C   UNL A   1      40.003  29.359  29.527  1.00  0.00     0.049 A 
ATOM     23  H   UNL A   1      41.760  29.103  28.425  1.00  0.00     0.167 HD
ATOM     24  C   UNL A   1      45.534  27.956  26.775  1.00  0.00     0.037 A 
ATOM     25  C   UNL A   1      39.978  30.543  30.170  1.00  0.00     0.037 A 
ATOM     26  C   UNL A   1      45.658  29.299  27.269  1.00  0.00     0.049 A 
ATOM     27  C   UNL A   1      41.193  31.379  29.994  1.00  0.00     0.074 A 
ATOM     28  C   UNL A   1      46.734  30.157  27.146  1.00  0.00     0.029 A 
ATOM     29  N   UNL A   1      44.682  29.982  27.988  1.00  0.00    -0.354 N 
ATOM     30  N   UNL A   1      42.285  31.056  29.351  1.00  0.00    -0.248 NA
ATOM     31  C   UNL A   1      41.206  32.709  30.608  1.00  0.00     0.031 C 
ATOM     32  C   UNL A   1      46.421  31.346  27.812  1.00  0.00     0.029 A 
ATOM     33  C   UNL A   1      45.137  31.249  28.323  1.00  0.00     0.049 A 
ATOM     34  H   UNL A   1      43.797  29.619  28.224  1.00  0.00     0.167 HD
ATOM     35  C   UNL A   1      43.123  32.135  29.482  1.00  0.00     0.074 A 
ATOM     36  C   UNL A   1      42.390  33.154  30.212  1.00  0.00     0.031 C 
ATOM     37  C   UNL A   1      44.400  32.244  29.060  1.00  0.00     0.037 A 
BRANCH  24  38
ATOM     38  C   UNL A   1      46.699  27.274  26.142  1.00  0.00     0.064 A 
ATOM     39  C   UNL A   1      47.601  26.515  26.903  1.00  0.00     0.173 A 
ATOM     40  C   UNL A   1      46.969  27.461  24.781  1.00  0.00     0.173 A 
ATOM     41  F   UNL A   1      47.402  26.351  28.222  1.00  0.00    -0.203 F 
ATOM     42  C   UNL A   1      48.760  26.005  26.333  1.00  0.00     0.198 A 
ATOM     43  C   UNL A   1      48.112  26.918  24.207  1.00  0.00     0.198 A 
ATOM     44  F   UNL A   1      46.147  28.201  24.022  1.00  0.00    -0.203 F 
ATOM     45  F   UNL A   1      49.654  25.365  27.099  1.00  0.00    -0.200 F 
ATOM     46  C   UNL A   1      49.012  26.203  24.985  1.00  0.00     0.200 A 
ATOM     47  F   UNL A   1      48.360  27.113  22.904  1.00  0.00    -0.200 F 
ATOM     48  F   UNL A   1      50.137  25.724  24.438  1.00  0.00    -0.200 F 
ENDBRANCH  24  38
BRANCH  25  49
ATOM     49  C   UNL A   1      38.798  31.036  30.963  1.00  0.00     0.064 A 
ATOM     50  C   UNL A   1      38.691  30.744  32.335  1.00  0.00     0.173 A 
ATOM     51  C   UNL A   1      37.753  31.791  30.403  1.00  0.00     0.173 A 
ATOM     52  F   UNL A   1      39.651  30.030  32.941  1.00  0.00    -0.203 F 
ATOM     53  C   UNL A   1      37.587  31.142  33.092  1.00  0.00     0.198 A 
ATOM     54  C   UNL A   1      36.666  32.225  31.171  1.00  0.00     0.198 A 
ATOM     55  F   UNL A   1      37.788  32.140  29.108  1.00  0.00    -0.203 F 
ATOM     56  F   UNL A   1      37.503  30.798  34.384  1.00  0.00    -0.200 F 
ATOM     57  C   UNL A   1      36.575  31.888  32.511  1.00  0.00     0.200 A 
ATOM     58  F   UNL A   1      35.714  32.985  30.611  1.00  0.00    -0.200 F 
ATOM     59  F   UNL A   1      35.525  32.289  33.240  1.00  0.00    -0.200 F 
ENDBRANCH  25  49
BRANCH  37  60
ATOM     60  C   UNL A   1      45.079  33.524  29.405  1.00  0.00     0.064 A 
ATOM     61  C   UNL A   1      45.013  34.629  28.544  1.00  0.00     0.173 A 
ATOM     62  C   UNL A   1      45.801  33.644  30.597  1.00  0.00     0.173 A 
ATOM     63  F   UNL A   1      44.369  34.536  27.371  1.00  0.00    -0.203 F 
ATOM     64  C   UNL A   1      45.663  35.814  28.865  1.00  0.00     0.198 A 
ATOM     65  C   UNL A   1      46.420  34.841  30.930  1.00  0.00     0.198 A 
ATOM     66  F   UNL A   1      45.904  32.601  31.434  1.00  0.00    -0.203 F 
ATOM     67  F   UNL A   1      45.635  36.842  28.006  1.00  0.00    -0.200 F 
ATOM     68  C   UNL A   1      46.354  35.922  30.062  1.00  0.00     0.200 A 
ATOM     69  F   UNL A   1      47.086  34.947  32.087  1.00  0.00    -0.200 F 
ATOM     70  F   UNL A   1      46.969  37.070  30.376  1.00  0.00    -0.200 F 
ENDBRANCH  37  60
ENDBRANCH  11  12
ENDBRANCH   4   6
ENDBRANCH   3   4
ENDBRANCH   2   3
ENDBRANCH   1   2
BRANCH   1  71
ATOM     71  O   UNL A   1      34.784  24.189  24.421  1.00  0.00    -0.458 OA
BRANCH  71  72
ATOM     72  C   UNL A   1      33.550  24.608  23.999  1.00  0.00     0.365 C 
ATOM     73  O   UNL A   1      33.046  24.318  22.912  1.00  0.00    -0.245 OA
BRANCH  72  74
ATOM     74  C   UNL A   1      32.901  25.568  25.004  1.00  0.00     0.298 C 
ATOM     75  C   UNL A   1      33.977  26.531  25.523  1.00  0.00     0.115 C 
ATOM     76  N   UNL A   1      31.766  26.212  24.313  1.00  0.00    -0.323 N 
ATOM     77  C   UNL A   1      33.368  27.715  26.171  1.00  0.00    -0.006 A 
ATOM     78  C   UNL A   1      31.068  27.303  24.997  1.00  0.00     0.262 C 
ATOM     79  H   UNL A   1      31.077  25.485  24.122  1.00  0.00     0.347 HD
ATOM     80  H   UNL A   1      32.185  26.654  23.495  1.00  0.00     0.347 HD
ATOM     81  C   UNL A   1      32.044  28.062  25.920  1.00  0.00     0.083 A 
ATOM     82  C   UNL A   1      34.011  28.772  26.886  1.00  0.00     0.003 A 
ATOM     83  N   UNL A   1      31.817  29.176  26.713  1.00  0.00    -0.353 N 
ATOM     84  C   UNL A   1      33.030  29.729  27.125  1.00  0.00     0.046 A 
ATOM     85  C   UNL A   1      35.347  29.066  27.248  1.00  0.00     0.010 A 
ATOM     86  H   UNL A   1      30.927  29.525  26.951  1.00  0.00     0.166 HD
ATOM     87  C   UNL A   1      33.346  31.011  27.616  1.00  0.00     0.026 A 
ATOM     88  C   UNL A   1      35.684  30.353  27.691  1.00  0.00     0.001 A 
ATOM     89  C   UNL A   1      34.696  31.320  27.848  1.00  0.00     0.002 A 
BRANCH  78  90
ATOM     90  C   UNL A   1      30.349  28.065  23.848  1.00  0.00     0.016 A 
ATOM     91  C   UNL A   1      31.053  28.823  22.883  1.00  0.00     0.014 A 
ATOM     92  C   UNL A   1      28.959  27.998  23.667  1.00  0.00     0.014 A 
ATOM     93  C   UNL A   1      30.396  29.702  22.003  1.00  0.00     0.047 A 
ATOM     94  C   UNL A   1      28.297  28.796  22.703  1.00  0.00     0.047 A 
ATOM     95  C   UNL A   1      29.008  29.714  21.933  1.00  0.00     0.129 A 
BRANCH  95  96
ATOM     96  O   UNL A   1      28.461  30.754  21.237  1.00  0.00    -0.406 OA
BRANCH  96  97
ATOM     97  C   UNL A   1      28.163  31.939  21.955  1.00  0.00     0.573 C 
ATOM     98  F   UNL A   1      27.627  32.867  21.137  1.00  0.00    -0.132 F 
ATOM     99  F   UNL A   1      27.328  31.703  22.987  1.00  0.00    -0.132 F 
ATOM    100  F   UNL A   1      29.316  32.435  22.461  1.00  0.00    -0.132 F 
ENDBRANCH  96  97
ENDBRANCH  95  96
ENDBRANCH  78  90
ENDBRANCH  72  74
ENDBRANCH  71  72
ENDBRANCH   1  71
TORSDOF 14
ENDMDL
MODEL 3
REMARK VINA RESULT:     -13.9      4.651      7.890
REMARK SMILES O=C(OCCOC(=O)[C@H]1Cc2c([nH]c3ccccc23)[C@@H](c2ccc(OC(F)(F)F)cc2)[NH2+]1)c1ccc(-c2c3nc(c(-c4c(F)c(F)c(F)c(F)c4F)c4ccc([nH]4)c(-c4c(F)c(F)c(F)c(F)c4F)c4nc(c(-c5c(F)c(F)c(F)c(F)c5F)c5ccc2[nH]5)C=C4)C=C3)cc1
REMARK SMILES IDX 5 1 4 2 3 3 2 4 1 5 33 6 34 7 95 8 35 9 94 10 36 11 37 12
REMARK SMILES IDX 38 13 88 14 39 15 93 16 87 17 89 18 40 19 92 20 86 21 85 22
REMARK SMILES IDX 41 24 73 25 53 26 72 27 54 28 57 29 71 30 90 31 55 32 56 33
REMARK SMILES IDX 70 35 91 36 58 37 42 38 43 39 51 40 44 41 45 42 49 43 52 44
REMARK SMILES IDX 46 45 47 46 50 47 48 48 74 49 75 50 83 51 76 52 77 53 81 54
REMARK SMILES IDX 84 55 78 56 79 57 82 58 80 59 59 60 60 61 68 62 61 63 62 64
REMARK SMILES IDX 66 65 69 66 63 67 64 68 67 69 65 70 6 71 7 72 8 73 9 74
REMARK SMILES IDX 10 75 32 76 11 77 20 78 12 81 19 82 13 83 14 84 18 85 15 87
REMARK SMILES IDX 17 88 16 89 21 90 22 91 31 92 23 93 30 94 24 95 25 96 26 97
REMARK SMILES IDX 27 98 28 99 29 100
REMARK H PARENT 89 23 57 34 32 79 32 80 13 86
REMARK Flexibility Score: inf
ROOT
ATOM      1  C   UNL A   1      31.788  27.812  25.403  1.00  0.00     0.274 C 
ENDROOT
BRANCH   1   2
ATOM      2  C   UNL A   1      31.778  28.906  26.472  1.00  0.00     0.275 C 
BRANCH   2   3
ATOM      3  O   UNL A   1      32.597  30.025  26.123  1.00  0.00    -0.458 OA
BRANCH   3   4
ATOM      4  C   UNL A   1      33.259  30.887  26.925  1.00  0.00     0.338 C 
ATOM      5  O   UNL A   1      32.669  31.922  27.244  1.00  0.00    -0.246 OA
BRANCH   4   6
ATOM      6  C   UNL A   1      34.666  30.717  27.449  1.00  0.00     0.060 A 
ATOM      7  C   UNL A   1      35.526  31.697  27.962  1.00  0.00     0.016 A 
ATOM      8  C   UNL A   1      35.079  29.381  27.599  1.00  0.00     0.016 A 
ATOM      9  C   UNL A   1      36.702  31.356  28.667  1.00  0.00     0.010 A 
ATOM     10  C   UNL A   1      36.221  29.043  28.336  1.00  0.00     0.010 A 
ATOM     11  C   UNL A   1      37.042  30.021  28.910  1.00  0.00    -0.014 A 
BRANCH  11  12
ATOM     12  C   UNL A   1      38.222  29.630  29.755  1.00  0.00     0.031 A 
ATOM     13  C   UNL A   1      38.388  30.199  31.110  1.00  0.00     0.074 A 
ATOM     14  C   UNL A   1      39.250  28.891  29.288  1.00  0.00     0.049 A 
ATOM     15  N   UNL A   1      39.402  30.056  31.916  1.00  0.00    -0.248 NA
ATOM     16  C   UNL A   1      37.333  31.096  31.591  1.00  0.00     0.031 C 
ATOM     17  C   UNL A   1      39.305  28.480  27.918  1.00  0.00     0.029 A 
ATOM     18  N   UNL A   1      40.438  28.402  29.802  1.00  0.00    -0.354 N 
ATOM     19  C   UNL A   1      39.133  30.882  32.979  1.00  0.00     0.074 A 
ATOM     20  C   UNL A   1      37.898  31.580  32.684  1.00  0.00     0.031 C 
ATOM     21  C   UNL A   1      40.433  27.801  27.687  1.00  0.00     0.029 A 
ATOM     22  C   UNL A   1      41.204  27.707  28.882  1.00  0.00     0.049 A 
ATOM     23  H   UNL A   1      40.714  28.537  30.737  1.00  0.00     0.167 HD
ATOM     24  C   UNL A   1      39.846  31.008  34.116  1.00  0.00     0.037 A 
ATOM     25  C   UNL A   1      42.387  27.061  28.915  1.00  0.00     0.037 A 
ATOM     26  C   UNL A   1      41.052  30.280  34.400  1.00  0.00     0.049 A 
ATOM     27  C   UNL A   1      43.091  27.107  30.222  1.00  0.00     0.074 A 
ATOM     28  C   UNL A   1      41.770  30.247  35.579  1.00  0.00     0.029 A 
ATOM     29  N   UNL A   1      41.726  29.464  33.496  1.00  0.00    -0.354 N 
ATOM     30  N   UNL A   1      42.721  27.756  31.294  1.00  0.00    -0.248 NA
ATOM     31  C   UNL A   1      44.348  26.365  30.350  1.00  0.00     0.031 C 
ATOM     32  C   UNL A   1      42.891  29.435  35.383  1.00  0.00     0.029 A 
ATOM     33  C   UNL A   1      42.859  28.931  34.093  1.00  0.00     0.049 A 
ATOM     34  H   UNL A   1      41.441  29.290  32.570  1.00  0.00     0.167 HD
ATOM     35  C   UNL A   1      43.696  27.511  32.229  1.00  0.00     0.074 A 
ATOM     36  C   UNL A   1      44.647  26.598  31.620  1.00  0.00     0.031 C 
ATOM     37  C   UNL A   1      43.800  28.035  33.469  1.00  0.00     0.037 A 
BRANCH  24  38
ATOM     38  C   UNL A   1      39.290  31.965  35.116  1.00  0.00     0.064 A 
ATOM     39  C   UNL A   1      39.634  33.326  35.091  1.00  0.00     0.173 A 
ATOM     40  C   UNL A   1      38.484  31.500  36.162  1.00  0.00     0.173 A 
ATOM     41  F   UNL A   1      40.443  33.801  34.131  1.00  0.00    -0.203 F 
ATOM     42  C   UNL A   1      39.228  34.180  36.108  1.00  0.00     0.198 A 
ATOM     43  C   UNL A   1      38.050  32.367  37.158  1.00  0.00     0.198 A 
ATOM     44  F   UNL A   1      38.152  30.202  36.237  1.00  0.00    -0.203 F 
ATOM     45  F   UNL A   1      39.647  35.453  36.117  1.00  0.00    -0.200 F 
ATOM     46  C   UNL A   1      38.433  33.701  37.138  1.00  0.00     0.200 A 
ATOM     47  F   UNL A   1      37.285  31.905  38.156  1.00  0.00    -0.200 F 
ATOM     48  F   UNL A   1      38.054  34.522  38.126  1.00  0.00    -0.200 F 
ENDBRANCH  24  38
BRANCH  25  49
ATOM     49  C   UNL A   1      42.947  26.289  27.752  1.00  0.00     0.064 A 
ATOM     50  C   UNL A   1      42.668  24.918  27.608  1.00  0.00     0.173 A 
ATOM     51  C   UNL A   1      43.768  26.865  26.767  1.00  0.00     0.173 A 
ATOM     52  F   UNL A   1      41.890  24.297  28.507  1.00  0.00    -0.203 F 
ATOM     53  C   UNL A   1      43.211  24.157  26.569  1.00  0.00     0.198 A 
ATOM     54  C   UNL A   1      44.278  26.112  25.703  1.00  0.00     0.198 A 
ATOM     55  F   UNL A   1      44.062  28.173  26.811  1.00  0.00    -0.203 F 
ATOM     56  F   UNL A   1      42.958  22.844  26.500  1.00  0.00    -0.200 F 
ATOM     57  C   UNL A   1      44.013  24.756  25.612  1.00  0.00     0.200 A 
ATOM     58  F   UNL A   1      45.018  26.709  24.757  1.00  0.00    -0.200 F 
ATOM     59  F   UNL A   1      44.517  24.033  24.603  1.00  0.00    -0.200 F 
ENDBRANCH  25  49
BRANCH  37  60
ATOM     60  C   UNL A   1      45.012  27.627  34.233  1.00  0.00     0.064 A 
ATOM     61  C   UNL A   1      46.191  28.383  34.172  1.00  0.00     0.173 A 
ATOM     62  C   UNL A   1      44.994  26.474  35.026  1.00  0.00     0.173 A 
ATOM     63  F   UNL A   1      46.260  29.469  33.386  1.00  0.00    -0.203 F 
ATOM     64  C   UNL A   1      47.322  27.987  34.875  1.00  0.00     0.198 A 
ATOM     65  C   UNL A   1      46.115  26.102  35.754  1.00  0.00     0.198 A 
ATOM     66  F   UNL A   1      43.890  25.716  35.091  1.00  0.00    -0.203 F 
ATOM     67  F   UNL A   1      48.456  28.690  34.761  1.00  0.00    -0.200 F 
ATOM     68  C   UNL A   1      47.278  26.855  35.674  1.00  0.00     0.200 A 
ATOM     69  F   UNL A   1      46.073  25.009  36.528  1.00  0.00    -0.200 F 
ATOM     70  F   UNL A   1      48.365  26.481  36.361  1.00  0.00    -0.200 F 
ENDBRANCH  37  60
ENDBRANCH  11  12
ENDBRANCH   4   6
ENDBRANCH   3   4
ENDBRANCH   2   3
ENDBRANCH   1   2
BRANCH   1  71
ATOM     71  O   UNL A   1      32.725  26.759  25.683  1.00  0.00    -0.458 OA
BRANCH  71  72
ATOM     72  C   UNL A   1      32.363  25.488  25.326  1.00  0.00     0.365 C 
ATOM     73  O   UNL A   1      31.273  24.972  25.583  1.00  0.00    -0.245 OA
BRANCH  72  74
ATOM     74  C   UNL A   1      33.515  24.738  24.645  1.00  0.00     0.298 C 
ATOM     75  C   UNL A   1      34.758  24.838  25.540  1.00  0.00     0.115 C 
ATOM     76  N   UNL A   1      33.040  23.364  24.385  1.00  0.00    -0.323 N 
ATOM     77  C   UNL A   1      35.772  23.827  25.162  1.00  0.00    -0.006 A 
ATOM     78  C   UNL A   1      34.005  22.381  23.887  1.00  0.00     0.262 C 
ATOM     79  H   UNL A   1      32.291  23.428  23.696  1.00  0.00     0.347 HD
ATOM     80  H   UNL A   1      32.772  23.011  25.303  1.00  0.00     0.347 HD
ATOM     81  C   UNL A   1      35.417  22.708  24.415  1.00  0.00     0.083 A 
ATOM     82  C   UNL A   1      37.103  23.668  25.656  1.00  0.00     0.003 A 
ATOM     83  N   UNL A   1      36.606  22.022  24.225  1.00  0.00    -0.353 N 
ATOM     84  C   UNL A   1      37.569  22.467  25.131  1.00  0.00     0.046 A 
ATOM     85  C   UNL A   1      37.912  24.361  26.588  1.00  0.00     0.010 A 
ATOM     86  H   UNL A   1      36.750  21.321  23.548  1.00  0.00     0.166 HD
ATOM     87  C   UNL A   1      38.767  21.876  25.579  1.00  0.00     0.026 A 
ATOM     88  C   UNL A   1      39.081  23.761  27.079  1.00  0.00     0.001 A 
ATOM     89  C   UNL A   1      39.487  22.522  26.596  1.00  0.00     0.002 A 
BRANCH  78  90
ATOM     90  C   UNL A   1      33.354  21.011  24.232  1.00  0.00     0.016 A 
ATOM     91  C   UNL A   1      33.320  20.498  25.549  1.00  0.00     0.014 A 
ATOM     92  C   UNL A   1      32.711  20.228  23.261  1.00  0.00     0.014 A 
ATOM     93  C   UNL A   1      32.958  19.166  25.820  1.00  0.00     0.047 A 
ATOM     94  C   UNL A   1      32.238  18.926  23.553  1.00  0.00     0.047 A 
ATOM     95  C   UNL A   1      32.443  18.362  24.811  1.00  0.00     0.129 A 
BRANCH  95  96
ATOM     96  O   UNL A   1      32.348  17.032  25.105  1.00  0.00    -0.406 OA
BRANCH  96  97
ATOM     97  C   UNL A   1      33.434  16.199  24.738  1.00  0.00     0.573 C 
ATOM     98  F   UNL A   1      33.451  16.001  23.404  1.00  0.00    -0.132 F 
ATOM     99  F   UNL A   1      34.615  16.712  25.137  1.00  0.00    -0.132 F 
ATOM    100  F   UNL A   1      33.278  14.999  25.343  1.00  0.00    -0.132 F 
ENDBRANCH  96  97
ENDBRANCH  95  96
ENDBRANCH  78  90
ENDBRANCH  72  74
ENDBRANCH  71  72
ENDBRANCH   1  71
TORSDOF 14
ENDMDL
