MODEL 1
REMARK VINA RESULT:     -10.0      0.000      0.000
REMARK SMILES CCCc1ccc(C(=O)C[C@H](C)CC(=O)OCCOC(=O)c2ccc(-c3c4nc(c(-c5c(F)c(F)c(F)c(F)c5F)c5ccc([nH]5)c(-c5c(F)c(F)c(F)c(F)c5F)c5nc(c(-c6c(F)c(F)c(F)c(F)c6F)c6ccc3[nH]6)C=C5)C=C4)cc2)cc1
REMARK SMILES IDX 14 1 15 2 13 3 11 4 12 5 10 6 8 7 9 8 7 9 4 10 5 11 86 12
REMARK SMILES IDX 6 13 85 14 3 15 2 16 1 17 16 18 17 19 18 20 19 21 20 22
REMARK SMILES IDX 21 23 22 24 23 25 84 26 24 27 83 28 25 29 26 30 27 31 77 32
REMARK SMILES IDX 28 33 82 34 76 35 78 36 29 37 81 38 75 39 74 40 30 42 62 43
REMARK SMILES IDX 42 44 61 45 43 46 46 47 60 48 79 49 44 50 45 51 59 53 80 54
REMARK SMILES IDX 47 55 31 56 32 57 40 58 33 59 34 60 38 61 41 62 35 63 36 64
REMARK SMILES IDX 39 65 37 66 63 67 64 68 72 69 65 70 66 71 70 72 73 73 67 74
REMARK SMILES IDX 68 75 71 76 69 77 48 78 49 79 57 80 50 81 51 82 55 83 58 84
REMARK SMILES IDX 52 85 53 86 56 87 54 88
REMARK H PARENT 78 41 46 52
REMARK Flexibility Score: inf
ROOT
ATOM      1  C   UNL A   1      32.903  35.793  29.994  1.00  0.00     0.306 C 
ATOM      2  O   UNL A   1      33.072  36.831  29.368  1.00  0.00    -0.252 OA
ENDROOT
BRANCH   1   3
ATOM      3  C   UNL A   1      32.855  35.726  31.509  1.00  0.00     0.126 C 
BRANCH   3   4
ATOM      4  C   UNL A   1      34.148  36.218  32.191  1.00  0.00     0.005 C 
ATOM      5  C   UNL A   1      34.045  37.674  32.655  1.00  0.00     0.009 C 
BRANCH   4   6
ATOM      6  C   UNL A   1      34.623  35.269  33.314  1.00  0.00     0.085 C 
BRANCH   6   7
ATOM      7  C   UNL A   1      35.146  33.912  32.867  1.00  0.00     0.163 C 
ATOM      8  O   UNL A   1      34.656  32.871  33.301  1.00  0.00    -0.294 OA
BRANCH   7   9
ATOM      9  C   UNL A   1      36.326  33.842  31.963  1.00  0.00     0.018 A 
ATOM     10  C   UNL A   1      38.451  34.265  30.185  1.00  0.00    -0.048 A 
ATOM     11  C   UNL A   1      38.597  34.557  31.547  1.00  0.00     0.004 A 
ATOM     12  C   UNL A   1      37.281  33.627  29.753  1.00  0.00     0.004 A 
ATOM     13  C   UNL A   1      37.539  34.350  32.433  1.00  0.00     0.012 A 
ATOM     14  C   UNL A   1      36.226  33.403  30.641  1.00  0.00     0.012 A 
BRANCH  10  15
ATOM     15  C   UNL A   1      39.539  34.650  29.210  1.00  0.00     0.035 C 
BRANCH  15  16
ATOM     16  C   UNL A   1      40.970  34.532  29.762  1.00  0.00     0.001 C 
ATOM     17  C   UNL A   1      41.955  35.504  29.125  1.00  0.00     0.004 C 
ENDBRANCH  15  16
ENDBRANCH  10  15
ENDBRANCH   7   9
ENDBRANCH   6   7
ENDBRANCH   4   6
ENDBRANCH   3   4
ENDBRANCH   1   3
BRANCH   1  18
ATOM     18  O   UNL A   1      32.722  34.568  29.440  1.00  0.00    -0.462 OA
BRANCH  18  19
ATOM     19  C   UNL A   1      33.607  34.189  28.369  1.00  0.00     0.274 C 
BRANCH  19  20
ATOM     20  C   UNL A   1      33.283  32.777  27.873  1.00  0.00     0.275 C 
BRANCH  20  21
ATOM     21  O   UNL A   1      34.169  31.825  28.490  1.00  0.00    -0.458 OA
BRANCH  21  22
ATOM     22  C   UNL A   1      34.497  30.736  27.759  1.00  0.00     0.338 C 
ATOM     23  O   UNL A   1      33.884  30.234  26.835  1.00  0.00    -0.246 OA
BRANCH  22  24
ATOM     24  C   UNL A   1      35.805  30.257  28.224  1.00  0.00     0.060 A 
ATOM     25  C   UNL A   1      36.902  30.314  27.361  1.00  0.00     0.016 A 
ATOM     26  C   UNL A   1      35.936  29.736  29.512  1.00  0.00     0.016 A 
ATOM     27  C   UNL A   1      38.148  29.863  27.789  1.00  0.00     0.010 A 
ATOM     28  C   UNL A   1      37.190  29.300  29.945  1.00  0.00     0.010 A 
ATOM     29  C   UNL A   1      38.303  29.364  29.088  1.00  0.00    -0.014 A 
BRANCH  29  30
ATOM     30  C   UNL A   1      39.629  28.907  29.561  1.00  0.00     0.031 A 
ATOM     31  C   UNL A   1      40.430  29.768  30.491  1.00  0.00     0.074 A 
ATOM     32  C   UNL A   1      40.120  27.730  29.130  1.00  0.00     0.049 A 
ATOM     33  N   UNL A   1      41.657  29.613  30.915  1.00  0.00    -0.248 NA
ATOM     34  C   UNL A   1      39.758  30.969  31.010  1.00  0.00     0.031 C 
ATOM     35  C   UNL A   1      39.417  26.793  28.254  1.00  0.00     0.029 A 
ATOM     36  N   UNL A   1      41.333  27.131  29.358  1.00  0.00    -0.354 N 
ATOM     37  C   UNL A   1      41.914  30.701  31.736  1.00  0.00     0.074 A 
ATOM     38  C   UNL A   1      40.721  31.522  31.736  1.00  0.00     0.031 C 
ATOM     39  C   UNL A   1      40.214  25.740  28.012  1.00  0.00     0.029 A 
ATOM     40  C   UNL A   1      41.499  25.953  28.672  1.00  0.00     0.049 A 
ATOM     41  H   UNL A   1      42.019  27.508  29.957  1.00  0.00     0.167 HD
ATOM     42  C   UNL A   1      43.043  30.984  32.428  1.00  0.00     0.037 A 
ATOM     43  C   UNL A   1      42.579  25.157  28.558  1.00  0.00     0.037 A 
ATOM     44  C   UNL A   1      44.221  30.156  32.427  1.00  0.00     0.049 A 
ATOM     45  C   UNL A   1      43.846  25.535  29.276  1.00  0.00     0.074 A 
ATOM     46  C   UNL A   1      45.407  30.342  33.117  1.00  0.00     0.029 A 
ATOM     47  N   UNL A   1      44.364  28.987  31.694  1.00  0.00    -0.354 N 
ATOM     48  N   UNL A   1      44.080  26.560  30.059  1.00  0.00    -0.248 NA
ATOM     49  C   UNL A   1      45.005  24.652  29.083  1.00  0.00     0.031 C 
ATOM     50  C   UNL A   1      46.284  29.311  32.763  1.00  0.00     0.029 A 
ATOM     51  C   UNL A   1      45.630  28.458  31.889  1.00  0.00     0.049 A 
ATOM     52  H   UNL A   1      43.670  28.592  31.119  1.00  0.00     0.167 HD
ATOM     53  C   UNL A   1      45.401  26.437  30.467  1.00  0.00     0.074 A 
ATOM     54  C   UNL A   1      45.914  25.227  29.858  1.00  0.00     0.031 C 
ATOM     55  C   UNL A   1      46.125  27.254  31.271  1.00  0.00     0.037 A 
BRANCH  42  56
ATOM     56  C   UNL A   1      43.069  32.257  33.221  1.00  0.00     0.064 A 
ATOM     57  C   UNL A   1      43.457  33.476  32.649  1.00  0.00     0.173 A 
ATOM     58  C   UNL A   1      42.667  32.260  34.566  1.00  0.00     0.173 A 
ATOM     59  F   UNL A   1      43.862  33.524  31.371  1.00  0.00    -0.203 F 
ATOM     60  C   UNL A   1      43.463  34.649  33.400  1.00  0.00     0.198 A 
ATOM     61  C   UNL A   1      42.650  33.438  35.306  1.00  0.00     0.198 A 
ATOM     62  F   UNL A   1      42.284  31.120  35.161  1.00  0.00    -0.203 F 
ATOM     63  F   UNL A   1      43.878  35.797  32.845  1.00  0.00    -0.200 F 
ATOM     64  C   UNL A   1      43.054  34.631  34.725  1.00  0.00     0.200 A 
ATOM     65  F   UNL A   1      42.243  33.420  36.583  1.00  0.00    -0.200 F 
ATOM     66  F   UNL A   1      43.055  35.762  35.445  1.00  0.00    -0.200 F 
ENDBRANCH  42  56
BRANCH  43  67
ATOM     67  C   UNL A   1      42.516  23.941  27.708  1.00  0.00     0.064 A 
ATOM     68  C   UNL A   1      42.134  22.704  28.244  1.00  0.00     0.173 A 
ATOM     69  C   UNL A   1      42.844  23.987  26.345  1.00  0.00     0.173 A 
ATOM     70  F   UNL A   1      41.839  22.603  29.549  1.00  0.00    -0.203 F 
ATOM     71  C   UNL A   1      42.094  21.558  27.453  1.00  0.00     0.198 A 
ATOM     72  C   UNL A   1      42.777  22.847  25.548  1.00  0.00     0.198 A 
ATOM     73  F   UNL A   1      43.222  25.145  25.784  1.00  0.00    -0.203 F 
ATOM     74  F   UNL A   1      41.769  20.379  28.002  1.00  0.00    -0.200 F 
ATOM     75  C   UNL A   1      42.409  21.632  26.105  1.00  0.00     0.200 A 
ATOM     76  F   UNL A   1      43.072  22.925  24.243  1.00  0.00    -0.200 F 
ATOM     77  F   UNL A   1      42.367  20.530  25.343  1.00  0.00    -0.200 F 
ENDBRANCH  43  67
BRANCH  55  78
ATOM     78  C   UNL A   1      47.544  26.856  31.553  1.00  0.00     0.064 A 
ATOM     79  C   UNL A   1      47.860  25.945  32.572  1.00  0.00     0.173 A 
ATOM     80  C   UNL A   1      48.594  27.358  30.770  1.00  0.00     0.173 A 
ATOM     81  F   UNL A   1      46.893  25.450  33.360  1.00  0.00    -0.203 F 
ATOM     82  C   UNL A   1      49.179  25.565  32.807  1.00  0.00     0.198 A 
ATOM     83  C   UNL A   1      49.908  26.954  30.990  1.00  0.00     0.198 A 
ATOM     84  F   UNL A   1      48.343  28.228  29.781  1.00  0.00    -0.203 F 
ATOM     85  F   UNL A   1      49.463  24.725  33.811  1.00  0.00    -0.200 F 
ATOM     86  C   UNL A   1      50.200  26.062  32.011  1.00  0.00     0.200 A 
ATOM     87  F   UNL A   1      50.891  27.427  30.212  1.00  0.00    -0.200 F 
ATOM     88  F   UNL A   1      51.468  25.688  32.233  1.00  0.00    -0.200 F 
ENDBRANCH  55  78
ENDBRANCH  29  30
ENDBRANCH  22  24
ENDBRANCH  21  22
ENDBRANCH  20  21
ENDBRANCH  19  20
ENDBRANCH  18  19
ENDBRANCH   1  18
TORSDOF 17
ENDMDL
MODEL 2
REMARK VINA RESULT:      -9.5      4.371     10.274
REMARK SMILES CCCc1ccc(C(=O)C[C@H](C)CC(=O)OCCOC(=O)c2ccc(-c3c4nc(c(-c5c(F)c(F)c(F)c(F)c5F)c5ccc([nH]5)c(-c5c(F)c(F)c(F)c(F)c5F)c5nc(c(-c6c(F)c(F)c(F)c(F)c6F)c6ccc3[nH]6)C=C5)C=C4)cc2)cc1
REMARK SMILES IDX 14 1 15 2 13 3 11 4 12 5 10 6 8 7 9 8 7 9 4 10 5 11 86 12
REMARK SMILES IDX 6 13 85 14 3 15 2 16 1 17 16 18 17 19 18 20 19 21 20 22
REMARK SMILES IDX 21 23 22 24 23 25 84 26 24 27 83 28 25 29 26 30 27 31 77 32
REMARK SMILES IDX 28 33 82 34 76 35 78 36 29 37 81 38 75 39 74 40 30 42 62 43
REMARK SMILES IDX 42 44 61 45 43 46 46 47 60 48 79 49 44 50 45 51 59 53 80 54
REMARK SMILES IDX 47 55 31 56 32 57 40 58 33 59 34 60 38 61 41 62 35 63 36 64
REMARK SMILES IDX 39 65 37 66 63 67 64 68 72 69 65 70 66 71 70 72 73 73 67 74
REMARK SMILES IDX 68 75 71 76 69 77 48 78 49 79 57 80 50 81 51 82 55 83 58 84
REMARK SMILES IDX 52 85 53 86 56 87 54 88
REMARK H PARENT 78 41 46 52
REMARK Flexibility Score: inf
ROOT
ATOM      1  C   UNL A   1      33.239  27.692  24.606  1.00  0.00     0.306 C 
ATOM      2  O   UNL A   1      33.866  28.030  23.612  1.00  0.00    -0.252 OA
ENDROOT
BRANCH   1   3
ATOM      3  C   UNL A   1      33.852  26.927  25.764  1.00  0.00     0.126 C 
BRANCH   3   4
ATOM      4  C   UNL A   1      33.745  25.396  25.621  1.00  0.00     0.005 C 
ATOM      5  C   UNL A   1      32.401  24.856  26.120  1.00  0.00     0.009 C 
BRANCH   4   6
ATOM      6  C   UNL A   1      34.086  24.909  24.194  1.00  0.00     0.085 C 
BRANCH   6   7
ATOM      7  C   UNL A   1      34.799  23.567  24.099  1.00  0.00     0.163 C 
ATOM      8  O   UNL A   1      36.000  23.507  23.846  1.00  0.00    -0.294 OA
BRANCH   7   9
ATOM      9  C   UNL A   1      34.013  22.309  24.220  1.00  0.00     0.018 A 
ATOM     10  C   UNL A   1      32.907  19.738  24.071  1.00  0.00    -0.048 A 
ATOM     11  C   UNL A   1      34.005  19.991  24.904  1.00  0.00     0.004 A 
ATOM     12  C   UNL A   1      32.285  20.817  23.429  1.00  0.00     0.004 A 
ATOM     13  C   UNL A   1      34.559  21.270  24.977  1.00  0.00     0.012 A 
ATOM     14  C   UNL A   1      32.827  22.101  23.513  1.00  0.00     0.012 A 
BRANCH  10  15
ATOM     15  C   UNL A   1      32.423  18.321  23.871  1.00  0.00     0.035 C 
BRANCH  15  16
ATOM     16  C   UNL A   1      33.390  17.233  24.367  1.00  0.00     0.001 C 
ATOM     17  C   UNL A   1      34.213  16.590  23.258  1.00  0.00     0.004 C 
ENDBRANCH  15  16
ENDBRANCH  10  15
ENDBRANCH   7   9
ENDBRANCH   6   7
ENDBRANCH   4   6
ENDBRANCH   3   4
ENDBRANCH   1   3
BRANCH   1  18
ATOM     18  O   UNL A   1      31.927  27.955  24.829  1.00  0.00    -0.462 OA
BRANCH  18  19
ATOM     19  C   UNL A   1      31.509  29.332  24.763  1.00  0.00     0.274 C 
BRANCH  19  20
ATOM     20  C   UNL A   1      31.755  30.036  26.100  1.00  0.00     0.275 C 
BRANCH  20  21
ATOM     21  O   UNL A   1      33.116  30.501  26.166  1.00  0.00    -0.458 OA
BRANCH  21  22
ATOM     22  C   UNL A   1      33.375  31.507  27.033  1.00  0.00     0.338 C 
ATOM     23  O   UNL A   1      32.711  32.503  27.252  1.00  0.00    -0.246 OA
BRANCH  22  24
ATOM     24  C   UNL A   1      34.608  31.172  27.757  1.00  0.00     0.060 A 
ATOM     25  C   UNL A   1      35.583  32.155  27.939  1.00  0.00     0.016 A 
ATOM     26  C   UNL A   1      34.800  29.877  28.239  1.00  0.00     0.016 A 
ATOM     27  C   UNL A   1      36.757  31.852  28.624  1.00  0.00     0.010 A 
ATOM     28  C   UNL A   1      35.971  29.579  28.940  1.00  0.00     0.010 A 
ATOM     29  C   UNL A   1      36.954  30.565  29.138  1.00  0.00    -0.014 A 
BRANCH  29  30
ATOM     30  C   UNL A   1      38.187  30.240  29.891  1.00  0.00     0.031 A 
ATOM     31  C   UNL A   1      39.189  29.288  29.311  1.00  0.00     0.074 A 
ATOM     32  C   UNL A   1      38.386  30.782  31.107  1.00  0.00     0.049 A 
ATOM     33  N   UNL A   1      40.261  28.776  29.861  1.00  0.00    -0.248 NA
ATOM     34  C   UNL A   1      38.952  28.851  27.928  1.00  0.00     0.031 C 
ATOM     35  C   UNL A   1      37.498  31.747  31.755  1.00  0.00     0.029 A 
ATOM     36  N   UNL A   1      39.392  30.585  32.020  1.00  0.00    -0.354 N 
ATOM     37  C   UNL A   1      40.816  27.944  28.899  1.00  0.00     0.074 A 
ATOM     38  C   UNL A   1      39.953  28.003  27.738  1.00  0.00     0.031 C 
ATOM     39  C   UNL A   1      37.994  32.052  32.965  1.00  0.00     0.029 A 
ATOM     40  C   UNL A   1      39.203  31.267  33.197  1.00  0.00     0.049 A 
ATOM     41  H   UNL A   1      40.173  30.011  31.847  1.00  0.00     0.167 HD
ATOM     42  C   UNL A   1      41.946  27.202  28.983  1.00  0.00     0.037 A 
ATOM     43  C   UNL A   1      39.906  31.231  34.345  1.00  0.00     0.037 A 
ATOM     44  C   UNL A   1      42.801  27.157  30.140  1.00  0.00     0.049 A 
ATOM     45  C   UNL A   1      41.113  30.338  34.436  1.00  0.00     0.074 A 
ATOM     46  C   UNL A   1      43.983  26.458  30.313  1.00  0.00     0.029 A 
ATOM     47  N   UNL A   1      42.561  27.835  31.327  1.00  0.00    -0.354 N 
ATOM     48  N   UNL A   1      41.641  29.561  33.521  1.00  0.00    -0.248 NA
ATOM     49  C   UNL A   1      41.818  30.308  35.725  1.00  0.00     0.031 C 
ATOM     50  C   UNL A   1      44.431  26.674  31.621  1.00  0.00     0.029 A 
ATOM     51  C   UNL A   1      43.555  27.545  32.248  1.00  0.00     0.049 A 
ATOM     52  H   UNL A   1      41.797  28.433  31.491  1.00  0.00     0.167 HD
ATOM     53  C   UNL A   1      42.745  28.966  34.114  1.00  0.00     0.074 A 
ATOM     54  C   UNL A   1      42.823  29.484  35.465  1.00  0.00     0.031 C 
ATOM     55  C   UNL A   1      43.614  28.068  33.589  1.00  0.00     0.037 A 
BRANCH  42  56
ATOM     56  C   UNL A   1      42.308  26.356  27.798  1.00  0.00     0.064 A 
ATOM     57  C   UNL A   1      43.231  26.788  26.836  1.00  0.00     0.173 A 
ATOM     58  C   UNL A   1      41.747  25.079  27.644  1.00  0.00     0.173 A 
ATOM     59  F   UNL A   1      43.786  28.005  26.931  1.00  0.00    -0.203 F 
ATOM     60  C   UNL A   1      43.562  25.982  25.749  1.00  0.00     0.198 A 
ATOM     61  C   UNL A   1      42.100  24.265  26.572  1.00  0.00     0.198 A 
ATOM     62  F   UNL A   1      40.861  24.616  28.539  1.00  0.00    -0.203 F 
ATOM     63  F   UNL A   1      44.415  26.432  24.818  1.00  0.00    -0.200 F 
ATOM     64  C   UNL A   1      43.003  24.720  25.621  1.00  0.00     0.200 A 
ATOM     65  F   UNL A   1      41.566  23.042  26.456  1.00  0.00    -0.200 F 
ATOM     66  F   UNL A   1      43.327  23.943  24.578  1.00  0.00    -0.200 F 
ENDBRANCH  42  56
BRANCH  43  67
ATOM     67  C   UNL A   1      39.466  32.043  35.508  1.00  0.00     0.064 A 
ATOM     68  C   UNL A   1      38.534  31.543  36.427  1.00  0.00     0.173 A 
ATOM     69  C   UNL A   1      39.962  33.339  35.721  1.00  0.00     0.173 A 
ATOM     70  F   UNL A   1      38.010  30.320  36.250  1.00  0.00    -0.203 F 
ATOM     71  C   UNL A   1      38.105  32.311  37.507  1.00  0.00     0.198 A 
ATOM     72  C   UNL A   1      39.554  34.094  36.817  1.00  0.00     0.198 A 
ATOM     73  F   UNL A   1      40.851  33.866  34.867  1.00  0.00    -0.203 F 
ATOM     74  F   UNL A   1      37.179  31.825  38.345  1.00  0.00    -0.200 F 
ATOM     75  C   UNL A   1      38.620  33.583  37.704  1.00  0.00     0.200 A 
ATOM     76  F   UNL A   1      40.062  35.320  37.009  1.00  0.00    -0.200 F 
ATOM     77  F   UNL A   1      38.210  34.320  38.746  1.00  0.00    -0.200 F 
ENDBRANCH  43  67
BRANCH  55  78
ATOM     78  C   UNL A   1      44.736  27.603  34.471  1.00  0.00     0.064 A 
ATOM     79  C   UNL A   1      45.959  28.287  34.521  1.00  0.00     0.173 A 
ATOM     80  C   UNL A   1      44.570  26.488  35.306  1.00  0.00     0.173 A 
ATOM     81  F   UNL A   1      46.173  29.349  33.728  1.00  0.00    -0.203 F 
ATOM     82  C   UNL A   1      46.983  27.859  35.362  1.00  0.00     0.198 A 
ATOM     83  C   UNL A   1      45.586  26.081  36.166  1.00  0.00     0.198 A 
ATOM     84  F   UNL A   1      43.418  25.803  35.299  1.00  0.00    -0.203 F 
ATOM     85  F   UNL A   1      48.159  28.503  35.364  1.00  0.00    -0.200 F 
ATOM     86  C   UNL A   1      46.793  26.763  36.190  1.00  0.00     0.200 A 
ATOM     87  F   UNL A   1      45.396  25.028  36.974  1.00  0.00    -0.200 F 
ATOM     88  F   UNL A   1      47.776  26.359  37.006  1.00  0.00    -0.200 F 
ENDBRANCH  55  78
ENDBRANCH  29  30
ENDBRANCH  22  24
ENDBRANCH  21  22
ENDBRANCH  20  21
ENDBRANCH  19  20
ENDBRANCH  18  19
ENDBRANCH   1  18
TORSDOF 17
ENDMDL
MODEL 3
REMARK VINA RESULT:      -9.4      3.728     10.081
REMARK SMILES CCCc1ccc(C(=O)C[C@H](C)CC(=O)OCCOC(=O)c2ccc(-c3c4nc(c(-c5c(F)c(F)c(F)c(F)c5F)c5ccc([nH]5)c(-c5c(F)c(F)c(F)c(F)c5F)c5nc(c(-c6c(F)c(F)c(F)c(F)c6F)c6ccc3[nH]6)C=C5)C=C4)cc2)cc1
REMARK SMILES IDX 14 1 15 2 13 3 11 4 12 5 10 6 8 7 9 8 7 9 4 10 5 11 86 12
REMARK SMILES IDX 6 13 85 14 3 15 2 16 1 17 16 18 17 19 18 20 19 21 20 22
REMARK SMILES IDX 21 23 22 24 23 25 84 26 24 27 83 28 25 29 26 30 27 31 77 32
REMARK SMILES IDX 28 33 82 34 76 35 78 36 29 37 81 38 75 39 74 40 30 42 62 43
REMARK SMILES IDX 42 44 61 45 43 46 46 47 60 48 79 49 44 50 45 51 59 53 80 54
REMARK SMILES IDX 47 55 31 56 32 57 40 58 33 59 34 60 38 61 41 62 35 63 36 64
REMARK SMILES IDX 39 65 37 66 63 67 64 68 72 69 65 70 66 71 70 72 73 73 67 74
REMARK SMILES IDX 68 75 71 76 69 77 48 78 49 79 57 80 50 81 51 82 55 83 58 84
REMARK SMILES IDX 52 85 53 86 56 87 54 88
REMARK H PARENT 78 41 46 52
REMARK Flexibility Score: inf
ROOT
ATOM      1  C   UNL A   1      33.904  30.034  26.943  1.00  0.00     0.306 C 
ATOM      2  O   UNL A   1      34.529  30.290  27.962  1.00  0.00    -0.252 OA
ENDROOT
BRANCH   1   3
ATOM      3  C   UNL A   1      34.003  28.710  26.208  1.00  0.00     0.126 C 
BRANCH   3   4
ATOM      4  C   UNL A   1      33.173  27.581  26.851  1.00  0.00     0.005 C 
ATOM      5  C   UNL A   1      31.875  28.098  27.481  1.00  0.00     0.009 C 
BRANCH   4   6
ATOM      6  C   UNL A   1      32.934  26.397  25.888  1.00  0.00     0.085 C 
BRANCH   6   7
ATOM      7  C   UNL A   1      32.619  26.763  24.445  1.00  0.00     0.163 C 
ATOM      8  O   UNL A   1      33.408  26.499  23.539  1.00  0.00    -0.294 OA
BRANCH   7   9
ATOM      9  C   UNL A   1      31.383  27.532  24.136  1.00  0.00     0.018 A 
ATOM     10  C   UNL A   1      29.115  28.756  23.036  1.00  0.00    -0.048 A 
ATOM     11  C   UNL A   1      29.050  27.440  23.514  1.00  0.00     0.004 A 
ATOM     12  C   UNL A   1      30.287  29.494  23.248  1.00  0.00     0.004 A 
ATOM     13  C   UNL A   1      30.179  26.828  24.059  1.00  0.00     0.012 A 
ATOM     14  C   UNL A   1      31.413  28.889  23.808  1.00  0.00     0.012 A 
BRANCH  10  15
ATOM     15  C   UNL A   1      27.937  29.349  22.298  1.00  0.00     0.035 C 
BRANCH  15  16
ATOM     16  C   UNL A   1      27.858  30.884  22.337  1.00  0.00     0.001 C 
ATOM     17  C   UNL A   1      27.440  31.442  23.692  1.00  0.00     0.004 C 
ENDBRANCH  15  16
ENDBRANCH  10  15
ENDBRANCH   7   9
ENDBRANCH   6   7
ENDBRANCH   4   6
ENDBRANCH   3   4
ENDBRANCH   1   3
BRANCH   1  18
ATOM     18  O   UNL A   1      33.030  30.872  26.331  1.00  0.00    -0.462 OA
BRANCH  18  19
ATOM     19  C   UNL A   1      32.229  31.722  27.175  1.00  0.00     0.274 C 
BRANCH  19  20
ATOM     20  C   UNL A   1      32.716  33.172  27.101  1.00  0.00     0.275 C 
BRANCH  20  21
ATOM     21  O   UNL A   1      32.194  33.922  28.213  1.00  0.00    -0.458 OA
BRANCH  21  22
ATOM     22  C   UNL A   1      32.970  34.919  28.694  1.00  0.00     0.338 C 
ATOM     23  O   UNL A   1      32.750  36.116  28.690  1.00  0.00    -0.246 OA
BRANCH  22  24
ATOM     24  C   UNL A   1      34.155  34.310  29.313  1.00  0.00     0.060 A 
ATOM     25  C   UNL A   1      35.426  34.678  28.869  1.00  0.00     0.016 A 
ATOM     26  C   UNL A   1      33.998  33.360  30.323  1.00  0.00     0.016 A 
ATOM     27  C   UNL A   1      36.557  34.108  29.446  1.00  0.00     0.010 A 
ATOM     28  C   UNL A   1      35.135  32.802  30.914  1.00  0.00     0.010 A 
ATOM     29  C   UNL A   1      36.420  33.175  30.480  1.00  0.00    -0.014 A 
BRANCH  29  30
ATOM     30  C   UNL A   1      37.617  32.583  31.120  1.00  0.00     0.031 A 
ATOM     31  C   UNL A   1      38.349  31.462  30.447  1.00  0.00     0.074 A 
ATOM     32  C   UNL A   1      38.024  33.041  32.319  1.00  0.00     0.049 A 
ATOM     33  N   UNL A   1      39.333  30.726  30.896  1.00  0.00    -0.248 NA
ATOM     34  C   UNL A   1      37.911  31.120  29.085  1.00  0.00     0.031 C 
ATOM     35  C   UNL A   1      37.413  34.149  33.050  1.00  0.00     0.029 A 
ATOM     36  N   UNL A   1      39.041  32.617  33.138  1.00  0.00    -0.354 N 
ATOM     37  C   UNL A   1      39.623  29.824  29.882  1.00  0.00     0.074 A 
ATOM     38  C   UNL A   1      38.696  30.090  28.801  1.00  0.00     0.031 C 
ATOM     39  C   UNL A   1      38.061  34.313  34.215  1.00  0.00     0.029 A 
ATOM     40  C   UNL A   1      39.096  33.291  34.333  1.00  0.00     0.049 A 
ATOM     41  H   UNL A   1      39.669  31.899  32.893  1.00  0.00     0.167 HD
ATOM     42  C   UNL A   1      40.577  28.864  29.860  1.00  0.00     0.037 A 
ATOM     43  C   UNL A   1      39.869  33.080  35.415  1.00  0.00     0.037 A 
ATOM     44  C   UNL A   1      41.498  28.613  30.938  1.00  0.00     0.049 A 
ATOM     45  C   UNL A   1      40.870  31.957  35.393  1.00  0.00     0.074 A 
ATOM     46  C   UNL A   1      42.520  27.681  31.001  1.00  0.00     0.029 A 
ATOM     47  N   UNL A   1      41.503  29.294  32.147  1.00  0.00    -0.354 N 
ATOM     48  N   UNL A   1      41.147  31.113  34.429  1.00  0.00    -0.248 NA
ATOM     49  C   UNL A   1      41.658  31.748  36.616  1.00  0.00     0.031 C 
ATOM     50  C   UNL A   1      43.111  27.766  32.267  1.00  0.00     0.029 A 
ATOM     51  C   UNL A   1      42.489  28.781  32.975  1.00  0.00     0.049 A 
ATOM     52  H   UNL A   1      40.895  30.031  32.382  1.00  0.00     0.167 HD
ATOM     53  C   UNL A   1      42.149  30.287  34.918  1.00  0.00     0.074 A 
ATOM     54  C   UNL A   1      42.445  30.742  36.261  1.00  0.00     0.031 C 
ATOM     55  C   UNL A   1      42.767  29.244  34.311  1.00  0.00     0.037 A 
BRANCH  42  56
ATOM     56  C   UNL A   1      40.656  27.993  28.641  1.00  0.00     0.064 A 
ATOM     57  C   UNL A   1      39.947  26.787  28.548  1.00  0.00     0.173 A 
ATOM     58  C   UNL A   1      41.426  28.390  27.537  1.00  0.00     0.173 A 
ATOM     59  F   UNL A   1      39.207  26.357  29.580  1.00  0.00    -0.203 F 
ATOM     60  C   UNL A   1      40.025  25.999  27.402  1.00  0.00     0.198 A 
ATOM     61  C   UNL A   1      41.481  27.613  26.384  1.00  0.00     0.198 A 
ATOM     62  F   UNL A   1      42.122  29.537  27.574  1.00  0.00    -0.203 F 
ATOM     63  F   UNL A   1      39.372  24.828  27.350  1.00  0.00    -0.200 F 
ATOM     64  C   UNL A   1      40.785  26.414  26.319  1.00  0.00     0.200 A 
ATOM     65  F   UNL A   1      42.208  28.022  25.335  1.00  0.00    -0.200 F 
ATOM     66  F   UNL A   1      40.854  25.657  25.216  1.00  0.00    -0.200 F 
ENDBRANCH  42  56
BRANCH  43  67
ATOM     67  C   UNL A   1      39.706  33.934  36.620  1.00  0.00     0.064 A 
ATOM     68  C   UNL A   1      40.385  35.153  36.738  1.00  0.00     0.173 A 
ATOM     69  C   UNL A   1      38.873  33.546  37.680  1.00  0.00     0.173 A 
ATOM     70  F   UNL A   1      41.216  35.554  35.763  1.00  0.00    -0.203 F 
ATOM     71  C   UNL A   1      40.249  35.946  37.876  1.00  0.00     0.198 A 
ATOM     72  C   UNL A   1      38.715  34.352  38.804  1.00  0.00     0.198 A 
ATOM     73  F   UNL A   1      38.204  32.385  37.619  1.00  0.00    -0.203 F 
ATOM     74  F   UNL A   1      40.946  37.085  37.983  1.00  0.00    -0.200 F 
ATOM     75  C   UNL A   1      39.409  35.548  38.905  1.00  0.00     0.200 A 
ATOM     76  F   UNL A   1      37.894  33.968  39.792  1.00  0.00    -0.200 F 
ATOM     77  F   UNL A   1      39.275  36.312  39.997  1.00  0.00    -0.200 F 
ENDBRANCH  43  67
BRANCH  55  78
ATOM     78  C   UNL A   1      43.837  28.536  35.087  1.00  0.00     0.064 A 
ATOM     79  C   UNL A   1      45.166  28.986  35.080  1.00  0.00     0.173 A 
ATOM     80  C   UNL A   1      43.523  27.422  35.881  1.00  0.00     0.173 A 
ATOM     81  F   UNL A   1      45.520  30.036  34.323  1.00  0.00    -0.203 F 
ATOM     82  C   UNL A   1      46.146  28.333  35.825  1.00  0.00     0.198 A 
ATOM     83  C   UNL A   1      44.500  26.790  36.646  1.00  0.00     0.198 A 
ATOM     84  F   UNL A   1      42.267  26.957  35.926  1.00  0.00    -0.203 F 
ATOM     85  F   UNL A   1      47.416  28.755  35.772  1.00  0.00    -0.200 F 
ATOM     86  C   UNL A   1      45.810  27.243  36.613  1.00  0.00     0.200 A 
ATOM     87  F   UNL A   1      44.171  25.744  37.417  1.00  0.00    -0.200 F 
ATOM     88  F   UNL A   1      46.752  26.622  37.337  1.00  0.00    -0.200 F 
ENDBRANCH  55  78
ENDBRANCH  29  30
ENDBRANCH  22  24
ENDBRANCH  21  22
ENDBRANCH  20  21
ENDBRANCH  19  20
ENDBRANCH  18  19
ENDBRANCH   1  18
TORSDOF 17
ENDMDL
