MODEL 1
REMARK VINA RESULT:     -12.4      0.000      0.000
REMARK SMILES O=C(OCCOC(=O)[C@H]1CC[C@H]2CCCC[C@@H]2N1C(=O)c1ccn[nH]1)c1ccc(-c2c3nc(c(-c4c(F)c(F)c(F)c(F)c4F)c4ccc([nH]4)c(-c4c(F)c(F)c(F)c(F)c4F)c4nc(c(-c5c(F)c(F)c(F)c(F)c5F)c5ccc2[nH]5)C=C4)C=C3)cc1
REMARK SMILES IDX 4 1 3 2 2 3 1 4 26 5 27 6 88 7 28 8 87 9 29 10 30 11 31 12
REMARK SMILES IDX 81 13 32 14 86 15 80 16 82 17 33 18 85 19 79 20 78 21 34 23
REMARK SMILES IDX 66 24 46 25 65 26 47 27 50 28 64 29 83 30 48 31 49 32 63 34
REMARK SMILES IDX 84 35 51 36 35 37 36 38 44 39 37 40 38 41 42 42 45 43 39 44
REMARK SMILES IDX 40 45 43 46 41 47 67 48 68 49 76 50 69 51 70 52 74 53 77 54
REMARK SMILES IDX 71 55 72 56 75 57 73 58 52 59 53 60 61 61 54 62 55 63 59 64
REMARK SMILES IDX 62 65 56 66 57 67 60 68 58 69 5 70 6 71 7 72 8 73 9 74 10 75
REMARK SMILES IDX 18 76 11 77 17 78 12 79 16 80 13 81 15 82 14 83 19 84 20 85
REMARK SMILES IDX 21 86 22 87 25 88 23 89 24 90
REMARK H PARENT 82 22 50 33 25 91
REMARK Flexibility Score: inf
ROOT
ATOM      1  C   UNL A   1      31.996  32.766  26.737  1.00  0.00     0.275 C 
ENDROOT
BRANCH   1   2
ATOM      2  O   UNL A   1      32.748  33.459  27.760  1.00  0.00    -0.458 OA
BRANCH   2   3
ATOM      3  C   UNL A   1      34.057  33.793  27.736  1.00  0.00     0.338 C 
ATOM      4  O   UNL A   1      34.415  34.873  27.275  1.00  0.00    -0.246 OA
BRANCH   3   5
ATOM      5  C   UNL A   1      35.090  32.897  28.321  1.00  0.00     0.060 A 
ATOM      6  C   UNL A   1      34.827  31.664  28.925  1.00  0.00     0.016 A 
ATOM      7  C   UNL A   1      36.393  33.396  28.367  1.00  0.00     0.016 A 
ATOM      8  C   UNL A   1      35.869  30.902  29.484  1.00  0.00     0.010 A 
ATOM      9  C   UNL A   1      37.424  32.646  28.924  1.00  0.00     0.010 A 
ATOM     10  C   UNL A   1      37.182  31.385  29.485  1.00  0.00    -0.014 A 
BRANCH  10  11
ATOM     11  C   UNL A   1      38.290  30.675  30.187  1.00  0.00     0.031 A 
ATOM     12  C   UNL A   1      38.578  31.024  31.624  1.00  0.00     0.074 A 
ATOM     13  C   UNL A   1      39.103  29.817  29.540  1.00  0.00     0.049 A 
ATOM     14  N   UNL A   1      39.570  30.650  32.392  1.00  0.00    -0.248 NA
ATOM     15  C   UNL A   1      37.652  31.973  32.260  1.00  0.00     0.031 C 
ATOM     16  C   UNL A   1      39.004  29.447  28.130  1.00  0.00     0.029 A 
ATOM     17  N   UNL A   1      40.204  29.124  29.988  1.00  0.00    -0.354 N 
ATOM     18  C   UNL A   1      39.412  31.361  33.575  1.00  0.00     0.074 A 
ATOM     19  C   UNL A   1      38.277  32.238  33.395  1.00  0.00     0.031 C 
ATOM     20  C   UNL A   1      40.013  28.612  27.823  1.00  0.00     0.029 A 
ATOM     21  C   UNL A   1      40.827  28.381  29.015  1.00  0.00     0.049 A 
ATOM     22  H   UNL A   1      40.516  29.159  30.921  1.00  0.00     0.167 HD
ATOM     23  C   UNL A   1      40.115  31.265  34.729  1.00  0.00     0.037 A 
ATOM     24  C   UNL A   1      41.923  27.600  29.082  1.00  0.00     0.037 A 
ATOM     25  C   UNL A   1      41.178  30.326  34.948  1.00  0.00     0.049 A 
ATOM     26  C   UNL A   1      42.622  27.407  30.404  1.00  0.00     0.074 A 
ATOM     27  C   UNL A   1      41.868  30.054  36.116  1.00  0.00     0.029 A 
ATOM     28  N   UNL A   1      41.691  29.487  33.972  1.00  0.00    -0.354 N 
ATOM     29  N   UNL A   1      42.393  27.999  31.551  1.00  0.00    -0.248 NA
ATOM     30  C   UNL A   1      43.707  26.414  30.451  1.00  0.00     0.031 C 
ATOM     31  C   UNL A   1      42.804  29.050  35.843  1.00  0.00     0.029 A 
ATOM     32  C   UNL A   1      42.682  28.686  34.512  1.00  0.00     0.049 A 
ATOM     33  H   UNL A   1      41.395  29.464  33.033  1.00  0.00     0.167 HD
ATOM     34  C   UNL A   1      43.270  27.423  32.461  1.00  0.00     0.074 A 
ATOM     35  C   UNL A   1      44.045  26.441  31.734  1.00  0.00     0.031 C 
ATOM     36  C   UNL A   1      43.412  27.682  33.784  1.00  0.00     0.037 A 
BRANCH  23  37
ATOM     37  C   UNL A   1      39.717  32.186  35.844  1.00  0.00     0.064 A 
ATOM     38  C   UNL A   1      38.655  31.874  36.709  1.00  0.00     0.173 A 
ATOM     39  C   UNL A   1      40.371  33.414  36.025  1.00  0.00     0.173 A 
ATOM     40  F   UNL A   1      37.992  30.716  36.571  1.00  0.00    -0.203 F 
ATOM     41  C   UNL A   1      38.218  32.786  37.665  1.00  0.00     0.198 A 
ATOM     42  C   UNL A   1      39.954  34.308  37.008  1.00  0.00     0.198 A 
ATOM     43  F   UNL A   1      41.402  33.754  35.237  1.00  0.00    -0.203 F 
ATOM     44  F   UNL A   1      37.146  32.501  38.416  1.00  0.00    -0.200 F 
ATOM     45  C   UNL A   1      38.867  34.002  37.813  1.00  0.00     0.200 A 
ATOM     46  F   UNL A   1      40.591  35.477  37.161  1.00  0.00    -0.200 F 
ATOM     47  F   UNL A   1      38.435  34.885  38.723  1.00  0.00    -0.200 F 
ENDBRANCH  23  37
BRANCH  24  48
ATOM     48  C   UNL A   1      42.399  26.886  27.870  1.00  0.00     0.064 A 
ATOM     49  C   UNL A   1      43.328  27.479  27.004  1.00  0.00     0.173 A 
ATOM     50  C   UNL A   1      41.935  25.603  27.552  1.00  0.00     0.173 A 
ATOM     51  F   UNL A   1      43.786  28.714  27.258  1.00  0.00    -0.203 F 
ATOM     52  C   UNL A   1      43.764  26.822  25.855  1.00  0.00     0.198 A 
ATOM     53  C   UNL A   1      42.384  24.939  26.411  1.00  0.00     0.198 A 
ATOM     54  F   UNL A   1      41.051  24.991  28.354  1.00  0.00    -0.203 F 
ATOM     55  F   UNL A   1      44.627  27.426  25.026  1.00  0.00    -0.200 F 
ATOM     56  C   UNL A   1      43.293  25.551  25.560  1.00  0.00     0.200 A 
ATOM     57  F   UNL A   1      41.935  23.707  26.134  1.00  0.00    -0.200 F 
ATOM     58  F   UNL A   1      43.713  24.919  24.456  1.00  0.00    -0.200 F 
ENDBRANCH  24  48
BRANCH  36  59
ATOM     59  C   UNL A   1      44.387  26.853  34.561  1.00  0.00     0.064 A 
ATOM     60  C   UNL A   1      45.690  27.298  34.817  1.00  0.00     0.173 A 
ATOM     61  C   UNL A   1      43.973  25.646  35.146  1.00  0.00     0.173 A 
ATOM     62  F   UNL A   1      46.133  28.439  34.268  1.00  0.00    -0.203 F 
ATOM     63  C   UNL A   1      46.547  26.565  35.635  1.00  0.00     0.198 A 
ATOM     64  C   UNL A   1      44.826  24.925  35.976  1.00  0.00     0.198 A 
ATOM     65  F   UNL A   1      42.733  25.183  34.932  1.00  0.00    -0.203 F 
ATOM     66  F   UNL A   1      47.793  27.002  35.859  1.00  0.00    -0.200 F 
ATOM     67  C   UNL A   1      46.110  25.385  36.222  1.00  0.00     0.200 A 
ATOM     68  F   UNL A   1      44.400  23.791  36.550  1.00  0.00    -0.200 F 
ATOM     69  F   UNL A   1      46.929  24.693  37.026  1.00  0.00    -0.200 F 
ENDBRANCH  36  59
ENDBRANCH  10  11
ENDBRANCH   3   5
ENDBRANCH   2   3
ENDBRANCH   1   2
BRANCH   1  70
ATOM     70  C   UNL A   1      31.714  31.301  27.058  1.00  0.00     0.274 C 
BRANCH  70  71
ATOM     71  O   UNL A   1      31.863  30.489  25.883  1.00  0.00    -0.461 OA
BRANCH  71  72
ATOM     72  C   UNL A   1      32.962  29.671  25.890  1.00  0.00     0.329 C 
ATOM     73  O   UNL A   1      34.116  30.055  26.026  1.00  0.00    -0.250 OA
BRANCH  72  74
ATOM     74  C   UNL A   1      32.532  28.202  25.621  1.00  0.00     0.195 C 
ATOM     75  C   UNL A   1      31.747  27.813  26.903  1.00  0.00     0.037 C 
ATOM     76  N   UNL A   1      31.759  27.859  24.397  1.00  0.00    -0.320 N 
ATOM     77  C   UNL A   1      30.856  26.581  26.779  1.00  0.00     0.008 C 
ATOM     78  C   UNL A   1      31.235  26.470  24.309  1.00  0.00     0.089 C 
ATOM     79  C   UNL A   1      31.344  25.701  25.646  1.00  0.00     0.012 C 
ATOM     80  C   UNL A   1      31.926  25.580  23.256  1.00  0.00     0.025 C 
ATOM     81  C   UNL A   1      30.586  24.371  25.560  1.00  0.00     0.006 C 
ATOM     82  C   UNL A   1      31.211  24.237  23.109  1.00  0.00     0.002 C 
ATOM     83  C   UNL A   1      31.143  23.493  24.439  1.00  0.00     0.000 C 
BRANCH  76  84
ATOM     84  C   UNL A   1      31.802  28.755  23.312  1.00  0.00     0.272 C 
ATOM     85  O   UNL A   1      32.852  28.960  22.710  1.00  0.00    -0.267 OA
BRANCH  84  86
ATOM     86  C   UNL A   1      30.596  29.370  22.811  1.00  0.00     0.123 A 
ATOM     87  C   UNL A   1      29.327  29.603  23.306  1.00  0.00     0.055 A 
ATOM     88  N   UNL A   1      30.583  29.947  21.561  1.00  0.00    -0.273 N 
ATOM     89  C   UNL A   1      28.604  30.158  22.232  1.00  0.00     0.135 A 
ATOM     90  N   UNL A   1      29.364  30.336  21.152  1.00  0.00    -0.183 NA
ATOM     91  H   UNL A   1      31.395  30.064  21.018  1.00  0.00     0.190 HD
ENDBRANCH  84  86
ENDBRANCH  76  84
ENDBRANCH  72  74
ENDBRANCH  71  72
ENDBRANCH  70  71
ENDBRANCH   1  70
TORSDOF 13
ENDMDL
MODEL 2
REMARK VINA RESULT:     -12.4      0.241      1.158
REMARK SMILES O=C(OCCOC(=O)[C@H]1CC[C@H]2CCCC[C@@H]2N1C(=O)c1ccn[nH]1)c1ccc(-c2c3nc(c(-c4c(F)c(F)c(F)c(F)c4F)c4ccc([nH]4)c(-c4c(F)c(F)c(F)c(F)c4F)c4nc(c(-c5c(F)c(F)c(F)c(F)c5F)c5ccc2[nH]5)C=C4)C=C3)cc1
REMARK SMILES IDX 4 1 3 2 2 3 1 4 26 5 27 6 88 7 28 8 87 9 29 10 30 11 31 12
REMARK SMILES IDX 81 13 32 14 86 15 80 16 82 17 33 18 85 19 79 20 78 21 34 23
REMARK SMILES IDX 66 24 46 25 65 26 47 27 50 28 64 29 83 30 48 31 49 32 63 34
REMARK SMILES IDX 84 35 51 36 35 37 36 38 44 39 37 40 38 41 42 42 45 43 39 44
REMARK SMILES IDX 40 45 43 46 41 47 67 48 68 49 76 50 69 51 70 52 74 53 77 54
REMARK SMILES IDX 71 55 72 56 75 57 73 58 52 59 53 60 61 61 54 62 55 63 59 64
REMARK SMILES IDX 62 65 56 66 57 67 60 68 58 69 5 70 6 71 7 72 8 73 9 74 10 75
REMARK SMILES IDX 18 76 11 77 17 78 12 79 16 80 13 81 15 82 14 83 19 84 20 85
REMARK SMILES IDX 21 86 22 87 25 88 23 89 24 90
REMARK H PARENT 82 22 50 33 25 91
REMARK Flexibility Score: inf
ROOT
ATOM      1  C   UNL A   1      32.023  32.689  26.628  1.00  0.00     0.275 C 
ENDROOT
BRANCH   1   2
ATOM      2  O   UNL A   1      32.761  33.326  27.697  1.00  0.00    -0.458 OA
BRANCH   2   3
ATOM      3  C   UNL A   1      34.066  33.678  27.702  1.00  0.00     0.338 C 
ATOM      4  O   UNL A   1      34.416  34.773  27.271  1.00  0.00    -0.246 OA
BRANCH   3   5
ATOM      5  C   UNL A   1      35.101  32.782  28.282  1.00  0.00     0.060 A 
ATOM      6  C   UNL A   1      34.867  31.481  28.738  1.00  0.00     0.016 A 
ATOM      7  C   UNL A   1      36.364  33.341  28.486  1.00  0.00     0.016 A 
ATOM      8  C   UNL A   1      35.905  30.723  29.306  1.00  0.00     0.010 A 
ATOM      9  C   UNL A   1      37.392  32.594  29.053  1.00  0.00     0.010 A 
ATOM     10  C   UNL A   1      37.183  31.271  29.466  1.00  0.00    -0.014 A 
BRANCH  10  11
ATOM     11  C   UNL A   1      38.273  30.553  30.186  1.00  0.00     0.031 A 
ATOM     12  C   UNL A   1      38.519  30.876  31.637  1.00  0.00     0.074 A 
ATOM     13  C   UNL A   1      39.107  29.708  29.547  1.00  0.00     0.049 A 
ATOM     14  N   UNL A   1      39.489  30.492  32.427  1.00  0.00    -0.248 NA
ATOM     15  C   UNL A   1      37.571  31.810  32.263  1.00  0.00     0.031 C 
ATOM     16  C   UNL A   1      39.051  29.364  28.129  1.00  0.00     0.029 A 
ATOM     17  N   UNL A   1      40.198  29.012  30.015  1.00  0.00    -0.354 N 
ATOM     18  C   UNL A   1      39.295  31.181  33.617  1.00  0.00     0.074 A 
ATOM     19  C   UNL A   1      38.162  32.057  33.420  1.00  0.00     0.031 C 
ATOM     20  C   UNL A   1      40.071  28.538  27.836  1.00  0.00     0.029 A 
ATOM     21  C   UNL A   1      40.851  28.289  29.047  1.00  0.00     0.049 A 
ATOM     22  H   UNL A   1      40.483  29.031  30.957  1.00  0.00     0.167 HD
ATOM     23  C   UNL A   1      39.965  31.066  34.789  1.00  0.00     0.037 A 
ATOM     24  C   UNL A   1      41.949  27.510  29.131  1.00  0.00     0.037 A 
ATOM     25  C   UNL A   1      41.025  30.127  35.021  1.00  0.00     0.049 A 
ATOM     26  C   UNL A   1      42.610  27.295  30.469  1.00  0.00     0.074 A 
ATOM     27  C   UNL A   1      41.681  29.836  36.203  1.00  0.00     0.029 A 
ATOM     28  N   UNL A   1      41.569  29.307  34.046  1.00  0.00    -0.354 N 
ATOM     29  N   UNL A   1      42.346  27.866  31.619  1.00  0.00    -0.248 NA
ATOM     30  C   UNL A   1      43.697  26.305  30.530  1.00  0.00     0.031 C 
ATOM     31  C   UNL A   1      42.629  28.840  35.940  1.00  0.00     0.029 A 
ATOM     32  C   UNL A   1      42.547  28.500  34.600  1.00  0.00     0.049 A 
ATOM     33  H   UNL A   1      41.300  29.301  33.099  1.00  0.00     0.167 HD
ATOM     34  C   UNL A   1      43.199  27.277  32.544  1.00  0.00     0.074 A 
ATOM     35  C   UNL A   1      43.998  26.310  31.822  1.00  0.00     0.031 C 
ATOM     36  C   UNL A   1      43.301  27.512  33.875  1.00  0.00     0.037 A 
BRANCH  23  37
ATOM     37  C   UNL A   1      39.531  31.966  35.909  1.00  0.00     0.064 A 
ATOM     38  C   UNL A   1      38.480  31.610  36.769  1.00  0.00     0.173 A 
ATOM     39  C   UNL A   1      40.139  33.216  36.097  1.00  0.00     0.173 A 
ATOM     40  F   UNL A   1      37.860  30.429  36.624  1.00  0.00    -0.203 F 
ATOM     41  C   UNL A   1      38.008  32.500  37.730  1.00  0.00     0.198 A 
ATOM     42  C   UNL A   1      39.688  34.089  37.084  1.00  0.00     0.198 A 
ATOM     43  F   UNL A   1      41.158  33.598  35.313  1.00  0.00    -0.203 F 
ATOM     44  F   UNL A   1      36.946  32.170  38.478  1.00  0.00    -0.200 F 
ATOM     45  C   UNL A   1      38.611  33.738  37.886  1.00  0.00     0.200 A 
ATOM     46  F   UNL A   1      40.280  35.279  37.245  1.00  0.00    -0.200 F 
ATOM     47  F   UNL A   1      38.146  34.599  38.800  1.00  0.00    -0.200 F 
ENDBRANCH  23  37
BRANCH  24  48
ATOM     48  C   UNL A   1      42.461  26.820  27.920  1.00  0.00     0.064 A 
ATOM     49  C   UNL A   1      43.386  27.446  27.073  1.00  0.00     0.173 A 
ATOM     50  C   UNL A   1      42.040  25.526  27.586  1.00  0.00     0.173 A 
ATOM     51  F   UNL A   1      43.804  28.692  27.343  1.00  0.00    -0.203 F 
ATOM     52  C   UNL A   1      43.857  26.811  25.925  1.00  0.00     0.198 A 
ATOM     53  C   UNL A   1      42.524  24.885  26.447  1.00  0.00     0.198 A 
ATOM     54  F   UNL A   1      41.162  24.883  28.371  1.00  0.00    -0.203 F 
ATOM     55  F   UNL A   1      44.714  27.446  25.114  1.00  0.00    -0.200 F 
ATOM     56  C   UNL A   1      43.427  25.530  25.614  1.00  0.00     0.200 A 
ATOM     57  F   UNL A   1      42.114  23.642  26.154  1.00  0.00    -0.200 F 
ATOM     58  F   UNL A   1      43.880  24.919  24.511  1.00  0.00    -0.200 F 
ENDBRANCH  24  48
BRANCH  36  59
ATOM     59  C   UNL A   1      44.257  26.672  34.665  1.00  0.00     0.064 A 
ATOM     60  C   UNL A   1      43.894  25.413  35.158  1.00  0.00     0.173 A 
ATOM     61  C   UNL A   1      45.585  27.093  34.836  1.00  0.00     0.173 A 
ATOM     62  F   UNL A   1      42.633  24.976  35.029  1.00  0.00    -0.203 F 
ATOM     63  C   UNL A   1      44.829  24.599  35.794  1.00  0.00     0.198 A 
ATOM     64  C   UNL A   1      46.521  26.270  35.456  1.00  0.00     0.198 A 
ATOM     65  F   UNL A   1      45.978  28.290  34.376  1.00  0.00    -0.203 F 
ATOM     66  F   UNL A   1      44.460  23.402  36.269  1.00  0.00    -0.200 F 
ATOM     67  C   UNL A   1      46.144  25.024  35.932  1.00  0.00     0.200 A 
ATOM     68  F   UNL A   1      47.792  26.678  35.580  1.00  0.00    -0.200 F 
ATOM     69  F   UNL A   1      47.046  24.231  36.525  1.00  0.00    -0.200 F 
ENDBRANCH  36  59
ENDBRANCH  10  11
ENDBRANCH   3   5
ENDBRANCH   2   3
ENDBRANCH   1   2
BRANCH   1  70
ATOM     70  C   UNL A   1      31.621  31.247  26.925  1.00  0.00     0.274 C 
BRANCH  70  71
ATOM     71  O   UNL A   1      31.778  30.429  25.755  1.00  0.00    -0.461 OA
BRANCH  71  72
ATOM     72  C   UNL A   1      32.897  29.639  25.755  1.00  0.00     0.329 C 
ATOM     73  O   UNL A   1      34.044  30.055  25.860  1.00  0.00    -0.250 OA
BRANCH  72  74
ATOM     74  C   UNL A   1      32.499  28.155  25.525  1.00  0.00     0.195 C 
ATOM     75  C   UNL A   1      31.755  27.771  26.832  1.00  0.00     0.037 C 
ATOM     76  N   UNL A   1      31.708  27.768  24.325  1.00  0.00    -0.320 N 
ATOM     77  C   UNL A   1      30.894  26.515  26.752  1.00  0.00     0.008 C 
ATOM     78  C   UNL A   1      31.219  26.364  24.277  1.00  0.00     0.089 C 
ATOM     79  C   UNL A   1      31.378  25.625  25.626  1.00  0.00     0.012 C 
ATOM     80  C   UNL A   1      31.908  25.471  23.225  1.00  0.00     0.025 C 
ATOM     81  C   UNL A   1      30.653  24.274  25.583  1.00  0.00     0.006 C 
ATOM     82  C   UNL A   1      31.225  24.108  23.121  1.00  0.00     0.002 C 
ATOM     83  C   UNL A   1      31.207  23.389  24.466  1.00  0.00     0.000 C 
BRANCH  76  84
ATOM     84  C   UNL A   1      31.703  28.643  23.223  1.00  0.00     0.272 C 
ATOM     85  O   UNL A   1      32.734  28.864  22.594  1.00  0.00    -0.267 OA
BRANCH  84  86
ATOM     86  C   UNL A   1      30.470  29.216  22.737  1.00  0.00     0.123 A 
ATOM     87  C   UNL A   1      29.142  29.168  23.117  1.00  0.00     0.055 A 
ATOM     88  N   UNL A   1      30.485  30.076  21.664  1.00  0.00    -0.273 N 
ATOM     89  C   UNL A   1      28.445  29.881  22.123  1.00  0.00     0.135 A 
ATOM     90  N   UNL A   1      29.263  30.408  21.213  1.00  0.00    -0.183 NA
ATOM     91  H   UNL A   1      31.316  30.419  21.264  1.00  0.00     0.190 HD
ENDBRANCH  84  86
ENDBRANCH  76  84
ENDBRANCH  72  74
ENDBRANCH  71  72
ENDBRANCH  70  71
ENDBRANCH   1  70
TORSDOF 13
ENDMDL
MODEL 3
REMARK VINA RESULT:     -12.1      0.881      1.900
REMARK SMILES O=C(OCCOC(=O)[C@H]1CC[C@H]2CCCC[C@@H]2N1C(=O)c1ccn[nH]1)c1ccc(-c2c3nc(c(-c4c(F)c(F)c(F)c(F)c4F)c4ccc([nH]4)c(-c4c(F)c(F)c(F)c(F)c4F)c4nc(c(-c5c(F)c(F)c(F)c(F)c5F)c5ccc2[nH]5)C=C4)C=C3)cc1
REMARK SMILES IDX 4 1 3 2 2 3 1 4 26 5 27 6 88 7 28 8 87 9 29 10 30 11 31 12
REMARK SMILES IDX 81 13 32 14 86 15 80 16 82 17 33 18 85 19 79 20 78 21 34 23
REMARK SMILES IDX 66 24 46 25 65 26 47 27 50 28 64 29 83 30 48 31 49 32 63 34
REMARK SMILES IDX 84 35 51 36 35 37 36 38 44 39 37 40 38 41 42 42 45 43 39 44
REMARK SMILES IDX 40 45 43 46 41 47 67 48 68 49 76 50 69 51 70 52 74 53 77 54
REMARK SMILES IDX 71 55 72 56 75 57 73 58 52 59 53 60 61 61 54 62 55 63 59 64
REMARK SMILES IDX 62 65 56 66 57 67 60 68 58 69 5 70 6 71 7 72 8 73 9 74 10 75
REMARK SMILES IDX 18 76 11 77 17 78 12 79 16 80 13 81 15 82 14 83 19 84 20 85
REMARK SMILES IDX 21 86 22 87 25 88 23 89 24 90
REMARK H PARENT 82 22 50 33 25 91
REMARK Flexibility Score: inf
ROOT
ATOM      1  C   UNL A   1      31.713  31.024  26.803  1.00  0.00     0.275 C 
ENDROOT
BRANCH   1   2
ATOM      2  O   UNL A   1      32.735  32.029  26.609  1.00  0.00    -0.458 OA
BRANCH   2   3
ATOM      3  C   UNL A   1      33.528  32.590  27.548  1.00  0.00     0.338 C 
ATOM      4  O   UNL A   1      33.261  33.697  28.007  1.00  0.00    -0.246 OA
BRANCH   3   5
ATOM      5  C   UNL A   1      34.702  31.862  28.097  1.00  0.00     0.060 A 
ATOM      6  C   UNL A   1      34.770  30.477  28.278  1.00  0.00     0.016 A 
ATOM      7  C   UNL A   1      35.756  32.646  28.570  1.00  0.00     0.016 A 
ATOM      8  C   UNL A   1      35.913  29.882  28.840  1.00  0.00     0.010 A 
ATOM      9  C   UNL A   1      36.886  32.060  29.131  1.00  0.00     0.010 A 
ATOM     10  C   UNL A   1      36.988  30.669  29.270  1.00  0.00    -0.014 A 
BRANCH  10  11
ATOM     11  C   UNL A   1      38.157  30.093  29.994  1.00  0.00     0.031 A 
ATOM     12  C   UNL A   1      38.408  30.517  31.417  1.00  0.00     0.074 A 
ATOM     13  C   UNL A   1      39.049  29.294  29.376  1.00  0.00     0.049 A 
ATOM     14  N   UNL A   1      39.429  30.267  32.197  1.00  0.00    -0.248 NA
ATOM     15  C   UNL A   1      37.394  31.395  32.021  1.00  0.00     0.031 C 
ATOM     16  C   UNL A   1      38.990  28.867  27.980  1.00  0.00     0.029 A 
ATOM     17  N   UNL A   1      40.210  28.726  29.847  1.00  0.00    -0.354 N 
ATOM     18  C   UNL A   1      39.201  31.001  33.355  1.00  0.00     0.074 A 
ATOM     19  C   UNL A   1      37.988  31.758  33.146  1.00  0.00     0.031 C 
ATOM     20  C   UNL A   1      40.074  28.122  27.701  1.00  0.00     0.029 A 
ATOM     21  C   UNL A   1      40.903  28.012  28.900  1.00  0.00     0.049 A 
ATOM     22  H   UNL A   1      40.516  28.822  30.778  1.00  0.00     0.167 HD
ATOM     23  C   UNL A   1      39.908  31.012  34.511  1.00  0.00     0.037 A 
ATOM     24  C   UNL A   1      42.069  27.342  28.993  1.00  0.00     0.037 A 
ATOM     25  C   UNL A   1      41.055  30.187  34.761  1.00  0.00     0.049 A 
ATOM     26  C   UNL A   1      42.780  27.262  30.320  1.00  0.00     0.074 A 
ATOM     27  C   UNL A   1      41.765  30.023  35.937  1.00  0.00     0.029 A 
ATOM     28  N   UNL A   1      41.648  29.367  33.814  1.00  0.00    -0.354 N 
ATOM     29  N   UNL A   1      42.494  27.870  31.446  1.00  0.00    -0.248 NA
ATOM     30  C   UNL A   1      43.955  26.379  30.401  1.00  0.00     0.031 C 
ATOM     31  C   UNL A   1      42.794  29.104  35.699  1.00  0.00     0.029 A 
ATOM     32  C   UNL A   1      42.709  28.683  34.381  1.00  0.00     0.049 A 
ATOM     33  H   UNL A   1      41.358  29.284  32.877  1.00  0.00     0.167 HD
ATOM     34  C   UNL A   1      43.420  27.412  32.375  1.00  0.00     0.074 A 
ATOM     35  C   UNL A   1      44.287  26.483  31.681  1.00  0.00     0.031 C 
ATOM     36  C   UNL A   1      43.533  27.729  33.687  1.00  0.00     0.037 A 
BRANCH  23  37
ATOM     37  C   UNL A   1      39.421  31.930  35.594  1.00  0.00     0.064 A 
ATOM     38  C   UNL A   1      39.921  33.235  35.726  1.00  0.00     0.173 A 
ATOM     39  C   UNL A   1      38.482  31.488  36.536  1.00  0.00     0.173 A 
ATOM     40  F   UNL A   1      40.829  33.701  34.854  1.00  0.00    -0.203 F 
ATOM     41  C   UNL A   1      39.552  34.038  36.801  1.00  0.00     0.198 A 
ATOM     42  C   UNL A   1      38.086  32.309  37.590  1.00  0.00     0.198 A 
ATOM     43  F   UNL A   1      37.961  30.255  36.447  1.00  0.00    -0.203 F 
ATOM     44  F   UNL A   1      40.112  35.247  36.953  1.00  0.00    -0.200 F 
ATOM     45  C   UNL A   1      38.636  33.575  37.732  1.00  0.00     0.200 A 
ATOM     46  F   UNL A   1      37.190  31.866  38.481  1.00  0.00    -0.200 F 
ATOM     47  F   UNL A   1      38.293  34.343  38.774  1.00  0.00    -0.200 F 
ENDBRANCH  23  37
BRANCH  24  48
ATOM     48  C   UNL A   1      42.613  26.635  27.805  1.00  0.00     0.064 A 
ATOM     49  C   UNL A   1      42.260  25.305  27.535  1.00  0.00     0.173 A 
ATOM     50  C   UNL A   1      43.494  27.270  26.920  1.00  0.00     0.173 A 
ATOM     51  F   UNL A   1      41.433  24.652  28.365  1.00  0.00    -0.203 F 
ATOM     52  C   UNL A   1      42.781  24.631  26.433  1.00  0.00     0.198 A 
ATOM     53  C   UNL A   1      44.002  26.600  25.809  1.00  0.00     0.198 A 
ATOM     54  F   UNL A   1      43.856  28.544  27.133  1.00  0.00    -0.203 F 
ATOM     55  F   UNL A   1      42.453  23.350  26.217  1.00  0.00    -0.200 F 
ATOM     56  C   UNL A   1      43.651  25.279  25.569  1.00  0.00     0.200 A 
ATOM     57  F   UNL A   1      44.835  27.232  24.969  1.00  0.00    -0.200 F 
ATOM     58  F   UNL A   1      44.151  24.631  24.509  1.00  0.00    -0.200 F 
ENDBRANCH  24  48
BRANCH  36  59
ATOM     59  C   UNL A   1      44.581  27.024  34.492  1.00  0.00     0.064 A 
ATOM     60  C   UNL A   1      45.836  27.600  34.729  1.00  0.00     0.173 A 
ATOM     61  C   UNL A   1      44.283  25.805  35.120  1.00  0.00     0.173 A 
ATOM     62  F   UNL A   1      46.169  28.757  34.139  1.00  0.00    -0.203 F 
ATOM     63  C   UNL A   1      46.757  26.981  35.571  1.00  0.00     0.198 A 
ATOM     64  C   UNL A   1      45.199  25.198  35.974  1.00  0.00     0.198 A 
ATOM     65  F   UNL A   1      43.092  25.219  34.924  1.00  0.00    -0.203 F 
ATOM     66  F   UNL A   1      47.956  27.542  35.778  1.00  0.00    -0.200 F 
ATOM     67  C   UNL A   1      46.433  25.786  36.201  1.00  0.00     0.200 A 
ATOM     68  F   UNL A   1      44.881  24.050  36.589  1.00  0.00    -0.200 F 
ATOM     69  F   UNL A   1      47.313  25.204  37.028  1.00  0.00    -0.200 F 
ENDBRANCH  36  59
ENDBRANCH  10  11
ENDBRANCH   3   5
ENDBRANCH   2   3
ENDBRANCH   1   2
BRANCH   1  70
ATOM     70  C   UNL A   1      31.574  30.047  25.638  1.00  0.00     0.274 C 
BRANCH  70  71
ATOM     71  O   UNL A   1      31.914  28.715  26.053  1.00  0.00    -0.461 OA
BRANCH  71  72
ATOM     72  C   UNL A   1      33.106  28.251  25.563  1.00  0.00     0.329 C 
ATOM     73  O   UNL A   1      34.100  28.942  25.378  1.00  0.00    -0.250 OA
BRANCH  72  74
ATOM     74  C   UNL A   1      32.983  26.744  25.207  1.00  0.00     0.195 C 
ATOM     75  C   UNL A   1      32.202  26.148  26.410  1.00  0.00     0.037 C 
ATOM     76  N   UNL A   1      32.374  26.325  23.915  1.00  0.00    -0.320 N 
ATOM     77  C   UNL A   1      31.573  24.780  26.172  1.00  0.00     0.008 C 
ATOM     78  C   UNL A   1      32.133  24.869  23.735  1.00  0.00     0.089 C 
ATOM     79  C   UNL A   1      32.295  24.066  25.047  1.00  0.00     0.012 C 
ATOM     80  C   UNL A   1      33.050  24.180  22.705  1.00  0.00     0.025 C 
ATOM     81  C   UNL A   1      31.812  22.623  24.853  1.00  0.00     0.006 C 
ATOM     82  C   UNL A   1      32.616  22.736  22.453  1.00  0.00     0.002 C 
ATOM     83  C   UNL A   1      32.601  21.925  23.745  1.00  0.00     0.000 C 
BRANCH  76  84
ATOM     84  C   UNL A   1      32.319  27.268  22.872  1.00  0.00     0.272 C 
ATOM     85  O   UNL A   1      33.241  27.366  22.066  1.00  0.00    -0.267 OA
BRANCH  84  86
ATOM     86  C   UNL A   1      31.136  28.066  22.656  1.00  0.00     0.123 A 
ATOM     87  C   UNL A   1      29.807  27.982  23.027  1.00  0.00     0.055 A 
ATOM     88  N   UNL A   1      31.221  29.253  21.964  1.00  0.00    -0.273 N 
ATOM     89  C   UNL A   1      29.170  29.055  22.374  1.00  0.00     0.135 A 
ATOM     90  N   UNL A   1      30.030  29.813  21.694  1.00  0.00    -0.183 NA
ATOM     91  H   UNL A   1      32.077  29.655  21.694  1.00  0.00     0.190 HD
ENDBRANCH  84  86
ENDBRANCH  76  84
ENDBRANCH  72  74
ENDBRANCH  71  72
ENDBRANCH  70  71
ENDBRANCH   1  70
TORSDOF 13
ENDMDL
