MODEL 1
REMARK VINA RESULT:     -13.7      0.000      0.000
REMARK SMILES C[C@@H](C(=O)OCCOC(=O)c1ccc(-c2c3nc(c(-c4c(F)c(F)c(F)c(F)c4F)c4ccc([nH]4)c(-c4c(F)c(F)c(F)c(F)c4F)c4nc(c(-c5c(F)c(F)c(F)c(F)c5F)c5ccc2[nH]5)C=C4)C=C3)cc1)[N@@H+]1CCc2n[nH]c(C(c3ccccc3)c3ccccc3)c2C1
REMARK SMILES IDX 6 1 5 2 3 3 4 4 2 5 1 6 74 7 75 8 95 9 76 11 94 12 77 13
REMARK SMILES IDX 80 14 78 15 79 16 81 18 82 19 83 20 87 21 84 22 86 23 85 24
REMARK SMILES IDX 88 25 89 26 93 27 90 28 92 29 91 30 7 31 8 32 9 33 10 34
REMARK SMILES IDX 11 35 12 36 73 37 13 38 72 39 14 40 15 41 16 42 66 43 17 44
REMARK SMILES IDX 71 45 65 46 67 47 18 48 70 49 64 50 63 51 19 53 51 54 31 55
REMARK SMILES IDX 50 56 32 57 35 58 49 59 68 60 33 61 34 62 48 64 69 65 36 66
REMARK SMILES IDX 20 67 21 68 29 69 22 70 23 71 27 72 30 73 24 74 25 75 28 76
REMARK SMILES IDX 26 77 52 78 53 79 61 80 54 81 55 82 59 83 62 84 56 85 57 86
REMARK SMILES IDX 60 87 58 88 37 89 38 90 46 91 39 92 40 93 44 94 47 95 41 96
REMARK SMILES IDX 42 97 45 98 43 99
REMARK H PARENT 74 10 79 17 67 52 35 63
REMARK Flexibility Score: inf
ROOT
ATOM      1  C   UNL A   1      34.032  28.244  23.529  1.00  0.00     0.274 C 
ENDROOT
BRANCH   1   2
ATOM      2  O   UNL A   1      33.904  26.797  23.686  1.00  0.00    -0.458 OA
BRANCH   2   3
ATOM      3  C   UNL A   1      33.482  26.063  22.622  1.00  0.00     0.364 C 
ATOM      4  O   UNL A   1      33.651  26.448  21.468  1.00  0.00    -0.245 OA
BRANCH   3   5
ATOM      5  C   UNL A   1      32.800  24.689  22.981  1.00  0.00     0.292 C 
ATOM      6  C   UNL A   1      33.280  23.520  22.119  1.00  0.00     0.088 C 
BRANCH   5   7
ATOM      7  N   UNL A   1      31.328  24.745  23.267  1.00  0.00    -0.319 N 
ATOM      8  C   UNL A   1      30.855  25.853  24.152  1.00  0.00     0.269 C 
ATOM      9  C   UNL A   1      30.724  23.490  23.705  1.00  0.00     0.303 C 
ATOM     10  H   UNL A   1      30.990  24.954  22.327  1.00  0.00     0.349 HD
ATOM     11  C   UNL A   1      30.163  25.433  25.511  1.00  0.00     0.120 C 
ATOM     12  C   UNL A   1      31.137  23.144  25.071  1.00  0.00     0.052 A 
ATOM     13  C   UNL A   1      30.727  24.131  25.999  1.00  0.00     0.077 A 
ATOM     14  C   UNL A   1      31.929  22.250  25.796  1.00  0.00     0.056 A 
ATOM     15  N   UNL A   1      30.967  23.771  27.251  1.00  0.00    -0.180 NA
ATOM     16  N   UNL A   1      31.562  22.569  27.101  1.00  0.00    -0.281 N 
ATOM     17  H   UNL A   1      31.726  21.963  27.859  1.00  0.00     0.190 HD
BRANCH  14  18
ATOM     18  C   UNL A   1      33.068  21.190  25.623  1.00  0.00     0.098 C 
BRANCH  18  19
ATOM     19  C   UNL A   1      32.769  19.854  24.901  1.00  0.00    -0.035 A 
ATOM     20  C   UNL A   1      32.904  18.641  25.605  1.00  0.00     0.005 A 
ATOM     21  C   UNL A   1      32.533  19.734  23.520  1.00  0.00     0.005 A 
ATOM     22  C   UNL A   1      32.850  17.399  24.950  1.00  0.00     0.000 A 
ATOM     23  C   UNL A   1      32.471  18.500  22.859  1.00  0.00     0.000 A 
ATOM     24  C   UNL A   1      32.640  17.328  23.577  1.00  0.00     0.000 A 
ENDBRANCH  18  19
BRANCH  18  25
ATOM     25  C   UNL A   1      34.508  21.797  25.526  1.00  0.00    -0.035 A 
ATOM     26  C   UNL A   1      34.824  23.159  25.706  1.00  0.00     0.005 A 
ATOM     27  C   UNL A   1      35.566  20.990  25.064  1.00  0.00     0.005 A 
ATOM     28  C   UNL A   1      36.126  23.657  25.562  1.00  0.00     0.000 A 
ATOM     29  C   UNL A   1      36.864  21.487  24.883  1.00  0.00     0.000 A 
ATOM     30  C   UNL A   1      37.150  22.818  25.154  1.00  0.00     0.000 A 
ENDBRANCH  18  25
ENDBRANCH  14  18
ENDBRANCH   5   7
ENDBRANCH   3   5
ENDBRANCH   2   3
ENDBRANCH   1   2
BRANCH   1  31
ATOM     31  C   UNL A   1      33.077  29.000  24.522  1.00  0.00     0.275 C 
BRANCH  31  32
ATOM     32  O   UNL A   1      33.820  29.232  25.746  1.00  0.00    -0.458 OA
BRANCH  32  33
ATOM     33  C   UNL A   1      33.556  30.337  26.492  1.00  0.00     0.338 C 
ATOM     34  O   UNL A   1      32.553  31.020  26.500  1.00  0.00    -0.246 OA
BRANCH  33  35
ATOM     35  C   UNL A   1      34.667  30.443  27.475  1.00  0.00     0.060 A 
ATOM     36  C   UNL A   1      34.890  29.342  28.311  1.00  0.00     0.016 A 
ATOM     37  C   UNL A   1      35.434  31.595  27.637  1.00  0.00     0.016 A 
ATOM     38  C   UNL A   1      35.888  29.356  29.261  1.00  0.00     0.010 A 
ATOM     39  C   UNL A   1      36.537  31.556  28.505  1.00  0.00     0.010 A 
ATOM     40  C   UNL A   1      36.806  30.403  29.267  1.00  0.00    -0.014 A 
BRANCH  40  41
ATOM     41  C   UNL A   1      38.098  30.185  29.960  1.00  0.00     0.031 A 
ATOM     42  C   UNL A   1      39.166  29.352  29.337  1.00  0.00     0.074 A 
ATOM     43  C   UNL A   1      38.295  30.760  31.166  1.00  0.00     0.049 A 
ATOM     44  N   UNL A   1      40.214  28.810  29.896  1.00  0.00    -0.248 NA
ATOM     45  C   UNL A   1      39.033  29.082  27.899  1.00  0.00     0.031 C 
ATOM     46  C   UNL A   1      37.353  31.662  31.842  1.00  0.00     0.029 A 
ATOM     47  N   UNL A   1      39.350  30.689  32.040  1.00  0.00    -0.354 N 
ATOM     48  C   UNL A   1      40.825  28.064  28.899  1.00  0.00     0.074 A 
ATOM     49  C   UNL A   1      40.054  28.260  27.689  1.00  0.00     0.031 C 
ATOM     50  C   UNL A   1      37.891  32.100  32.986  1.00  0.00     0.029 A 
ATOM     51  C   UNL A   1      39.143  31.393  33.203  1.00  0.00     0.049 A 
ATOM     52  H   UNL A   1      40.174  30.184  31.853  1.00  0.00     0.167 HD
ATOM     53  C   UNL A   1      41.914  27.268  29.018  1.00  0.00     0.037 A 
ATOM     54  C   UNL A   1      39.831  31.401  34.358  1.00  0.00     0.037 A 
ATOM     55  C   UNL A   1      42.678  27.140  30.234  1.00  0.00     0.049 A 
ATOM     56  C   UNL A   1      41.019  30.496  34.472  1.00  0.00     0.074 A 
ATOM     57  C   UNL A   1      43.777  26.341  30.491  1.00  0.00     0.029 A 
ATOM     58  N   UNL A   1      42.425  27.856  31.399  1.00  0.00    -0.354 N 
ATOM     59  N   UNL A   1      41.517  29.681  33.575  1.00  0.00    -0.248 NA
ATOM     60  C   UNL A   1      41.715  30.480  35.762  1.00  0.00     0.031 C 
ATOM     61  C   UNL A   1      44.174  26.556  31.817  1.00  0.00     0.029 A 
ATOM     62  C   UNL A   1      43.349  27.520  32.374  1.00  0.00     0.049 A 
ATOM     63  H   UNL A   1      41.695  28.507  31.513  1.00  0.00     0.167 HD
ATOM     64  C   UNL A   1      42.585  29.048  34.189  1.00  0.00     0.074 A 
ATOM     65  C   UNL A   1      42.676  29.597  35.529  1.00  0.00     0.031 C 
ATOM     66  C   UNL A   1      43.407  28.091  33.696  1.00  0.00     0.037 A 
BRANCH  53  67
ATOM     67  C   UNL A   1      42.284  26.422  27.835  1.00  0.00     0.064 A 
ATOM     68  C   UNL A   1      41.669  25.191  27.568  1.00  0.00     0.173 A 
ATOM     69  C   UNL A   1      43.280  26.861  26.947  1.00  0.00     0.173 A 
ATOM     70  F   UNL A   1      40.726  24.715  28.396  1.00  0.00    -0.203 F 
ATOM     71  C   UNL A   1      42.055  24.419  26.474  1.00  0.00     0.198 A 
ATOM     72  C   UNL A   1      43.644  26.101  25.840  1.00  0.00     0.198 A 
ATOM     73  F   UNL A   1      43.903  28.031  27.155  1.00  0.00    -0.203 F 
ATOM     74  F   UNL A   1      41.490  23.221  26.269  1.00  0.00    -0.200 F 
ATOM     75  C   UNL A   1      43.038  24.876  25.608  1.00  0.00     0.200 A 
ATOM     76  F   UNL A   1      44.589  26.549  25.001  1.00  0.00    -0.200 F 
ATOM     77  F   UNL A   1      43.409  24.132  24.558  1.00  0.00    -0.200 F 
ENDBRANCH  53  67
BRANCH  54  78
ATOM     78  C   UNL A   1      39.345  32.214  35.505  1.00  0.00     0.064 A 
ATOM     79  C   UNL A   1      38.490  31.667  36.470  1.00  0.00     0.173 A 
ATOM     80  C   UNL A   1      39.766  33.542  35.687  1.00  0.00     0.173 A 
ATOM     81  F   UNL A   1      38.040  30.411  36.330  1.00  0.00    -0.203 F 
ATOM     82  C   UNL A   1      38.077  32.414  37.572  1.00  0.00     0.198 A 
ATOM     83  C   UNL A   1      39.382  34.275  36.806  1.00  0.00     0.198 A 
ATOM     84  F   UNL A   1      40.588  34.115  34.794  1.00  0.00    -0.203 F 
ATOM     85  F   UNL A   1      37.236  31.877  38.466  1.00  0.00    -0.200 F 
ATOM     86  C   UNL A   1      38.533  33.712  37.746  1.00  0.00     0.200 A 
ATOM     87  F   UNL A   1      39.844  35.521  36.980  1.00  0.00    -0.200 F 
ATOM     88  F   UNL A   1      38.155  34.422  38.819  1.00  0.00    -0.200 F 
ENDBRANCH  54  78
BRANCH  66  89
ATOM     89  C   UNL A   1      44.494  27.617  34.610  1.00  0.00     0.064 A 
ATOM     90  C   UNL A   1      45.747  28.243  34.644  1.00  0.00     0.173 A 
ATOM     91  C   UNL A   1      44.269  26.529  35.465  1.00  0.00     0.173 A 
ATOM     92  F   UNL A   1      46.011  29.272  33.825  1.00  0.00    -0.203 F 
ATOM     93  C   UNL A   1      46.750  27.779  35.490  1.00  0.00     0.198 A 
ATOM     94  C   UNL A   1      45.267  26.083  36.326  1.00  0.00     0.198 A 
ATOM     95  F   UNL A   1      43.085  25.900  35.462  1.00  0.00    -0.203 F 
ATOM     96  F   UNL A   1      47.958  28.359  35.475  1.00  0.00    -0.200 F 
ATOM     97  C   UNL A   1      46.507  26.704  36.333  1.00  0.00     0.200 A 
ATOM     98  F   UNL A   1      45.029  25.048  37.143  1.00  0.00    -0.200 F 
ATOM     99  F   UNL A   1      47.475  26.258  37.145  1.00  0.00    -0.200 F 
ENDBRANCH  66  89
ENDBRANCH  40  41
ENDBRANCH  33  35
ENDBRANCH  32  33
ENDBRANCH  31  32
ENDBRANCH   1  31
TORSDOF 15
ENDMDL
MODEL 2
REMARK VINA RESULT:     -13.5      4.118      9.636
REMARK SMILES C[C@@H](C(=O)OCCOC(=O)c1ccc(-c2c3nc(c(-c4c(F)c(F)c(F)c(F)c4F)c4ccc([nH]4)c(-c4c(F)c(F)c(F)c(F)c4F)c4nc(c(-c5c(F)c(F)c(F)c(F)c5F)c5ccc2[nH]5)C=C4)C=C3)cc1)[N@@H+]1CCc2n[nH]c(C(c3ccccc3)c3ccccc3)c2C1
REMARK SMILES IDX 6 1 5 2 3 3 4 4 2 5 1 6 74 7 75 8 95 9 76 11 94 12 77 13
REMARK SMILES IDX 80 14 78 15 79 16 81 18 82 19 83 20 87 21 84 22 86 23 85 24
REMARK SMILES IDX 88 25 89 26 93 27 90 28 92 29 91 30 7 31 8 32 9 33 10 34
REMARK SMILES IDX 11 35 12 36 73 37 13 38 72 39 14 40 15 41 16 42 66 43 17 44
REMARK SMILES IDX 71 45 65 46 67 47 18 48 70 49 64 50 63 51 19 53 51 54 31 55
REMARK SMILES IDX 50 56 32 57 35 58 49 59 68 60 33 61 34 62 48 64 69 65 36 66
REMARK SMILES IDX 20 67 21 68 29 69 22 70 23 71 27 72 30 73 24 74 25 75 28 76
REMARK SMILES IDX 26 77 52 78 53 79 61 80 54 81 55 82 59 83 62 84 56 85 57 86
REMARK SMILES IDX 60 87 58 88 37 89 38 90 46 91 39 92 40 93 44 94 47 95 41 96
REMARK SMILES IDX 42 97 45 98 43 99
REMARK H PARENT 74 10 79 17 67 52 35 63
REMARK Flexibility Score: inf
ROOT
ATOM      1  C   UNL A   1      35.525  21.799  26.425  1.00  0.00     0.274 C 
ENDROOT
BRANCH   1   2
ATOM      2  O   UNL A   1      34.693  22.966  26.141  1.00  0.00    -0.458 OA
BRANCH   2   3
ATOM      3  C   UNL A   1      33.375  22.920  26.469  1.00  0.00     0.364 C 
ATOM      4  O   UNL A   1      32.981  22.322  27.467  1.00  0.00    -0.245 OA
BRANCH   3   5
ATOM      5  C   UNL A   1      32.413  23.707  25.500  1.00  0.00     0.292 C 
ATOM      6  C   UNL A   1      31.263  24.415  26.218  1.00  0.00     0.088 C 
BRANCH   5   7
ATOM      7  N   UNL A   1      32.070  23.012  24.214  1.00  0.00    -0.319 N 
ATOM      8  C   UNL A   1      33.214  22.581  23.355  1.00  0.00     0.269 C 
ATOM      9  C   UNL A   1      31.074  23.684  23.385  1.00  0.00     0.303 C 
ATOM     10  H   UNL A   1      31.651  22.165  24.597  1.00  0.00     0.349 HD
ATOM     11  C   UNL A   1      33.301  23.219  21.911  1.00  0.00     0.120 C 
ATOM     12  C   UNL A   1      31.620  24.899  22.767  1.00  0.00     0.052 A 
ATOM     13  C   UNL A   1      32.712  24.599  21.919  1.00  0.00     0.077 A 
ATOM     14  C   UNL A   1      31.553  26.294  22.817  1.00  0.00     0.056 A 
ATOM     15  N   UNL A   1      33.129  25.662  21.246  1.00  0.00    -0.180 NA
ATOM     16  N   UNL A   1      32.316  26.636  21.705  1.00  0.00    -0.281 N 
ATOM     17  H   UNL A   1      32.267  27.525  21.283  1.00  0.00     0.190 HD
BRANCH  14  18
ATOM     18  C   UNL A   1      31.036  27.473  23.708  1.00  0.00     0.098 C 
BRANCH  18  19
ATOM     19  C   UNL A   1      31.948  28.053  24.818  1.00  0.00    -0.035 A 
ATOM     20  C   UNL A   1      33.180  27.432  25.097  1.00  0.00     0.005 A 
ATOM     21  C   UNL A   1      31.562  29.071  25.707  1.00  0.00     0.005 A 
ATOM     22  C   UNL A   1      33.945  27.784  26.222  1.00  0.00     0.000 A 
ATOM     23  C   UNL A   1      32.321  29.434  26.828  1.00  0.00     0.000 A 
ATOM     24  C   UNL A   1      33.513  28.781  27.091  1.00  0.00     0.000 A 
ENDBRANCH  18  19
BRANCH  18  25
ATOM     25  C   UNL A   1      30.012  28.420  22.998  1.00  0.00    -0.035 A 
ATOM     26  C   UNL A   1      30.357  29.541  22.216  1.00  0.00     0.005 A 
ATOM     27  C   UNL A   1      28.637  28.276  23.271  1.00  0.00     0.005 A 
ATOM     28  C   UNL A   1      29.396  30.384  21.640  1.00  0.00     0.000 A 
ATOM     29  C   UNL A   1      27.671  29.135  22.727  1.00  0.00     0.000 A 
ATOM     30  C   UNL A   1      28.050  30.177  21.892  1.00  0.00     0.000 A 
ENDBRANCH  18  25
ENDBRANCH  14  18
ENDBRANCH   5   7
ENDBRANCH   3   5
ENDBRANCH   2   3
ENDBRANCH   1   2
BRANCH   1  31
ATOM     31  C   UNL A   1      36.286  21.328  25.133  1.00  0.00     0.275 C 
BRANCH  31  32
ATOM     32  O   UNL A   1      37.512  22.098  25.047  1.00  0.00    -0.458 OA
BRANCH  32  33
ATOM     33  C   UNL A   1      38.602  21.708  25.761  1.00  0.00     0.338 C 
ATOM     34  O   UNL A   1      39.204  20.657  25.702  1.00  0.00    -0.246 OA
BRANCH  33  35
ATOM     35  C   UNL A   1      39.061  22.914  26.498  1.00  0.00     0.060 A 
ATOM     36  C   UNL A   1      40.190  22.776  27.314  1.00  0.00     0.016 A 
ATOM     37  C   UNL A   1      38.386  24.133  26.462  1.00  0.00     0.016 A 
ATOM     38  C   UNL A   1      40.679  23.836  28.046  1.00  0.00     0.010 A 
ATOM     39  C   UNL A   1      38.965  25.245  27.095  1.00  0.00     0.010 A 
ATOM     40  C   UNL A   1      40.157  25.108  27.831  1.00  0.00    -0.014 A 
BRANCH  40  41
ATOM     41  C   UNL A   1      40.970  26.271  28.262  1.00  0.00     0.031 A 
ATOM     42  C   UNL A   1      40.372  27.349  29.100  1.00  0.00     0.074 A 
ATOM     43  C   UNL A   1      42.265  26.334  27.886  1.00  0.00     0.049 A 
ATOM     44  N   UNL A   1      40.816  28.557  29.321  1.00  0.00    -0.248 NA
ATOM     45  C   UNL A   1      39.104  27.033  29.772  1.00  0.00     0.031 C 
ATOM     46  C   UNL A   1      42.984  25.299  27.130  1.00  0.00     0.029 A 
ATOM     47  N   UNL A   1      43.220  27.298  28.091  1.00  0.00    -0.354 N 
ATOM     48  C   UNL A   1      39.843  29.178  30.089  1.00  0.00     0.074 A 
ATOM     49  C   UNL A   1      38.805  28.197  30.332  1.00  0.00     0.031 C 
ATOM     50  C   UNL A   1      44.265  25.655  26.986  1.00  0.00     0.029 A 
ATOM     51  C   UNL A   1      44.426  27.006  27.498  1.00  0.00     0.049 A 
ATOM     52  H   UNL A   1      43.058  28.118  28.611  1.00  0.00     0.167 HD
ATOM     53  C   UNL A   1      39.824  30.464  30.511  1.00  0.00     0.037 A 
ATOM     54  C   UNL A   1      45.515  27.770  27.301  1.00  0.00     0.037 A 
ATOM     55  C   UNL A   1      40.904  31.393  30.283  1.00  0.00     0.049 A 
ATOM     56  C   UNL A   1      45.462  29.195  27.758  1.00  0.00     0.074 A 
ATOM     57  C   UNL A   1      40.990  32.729  30.629  1.00  0.00     0.029 A 
ATOM     58  N   UNL A   1      42.103  31.064  29.660  1.00  0.00    -0.354 N 
ATOM     59  N   UNL A   1      44.484  29.828  28.359  1.00  0.00    -0.248 NA
ATOM     60  C   UNL A   1      46.639  30.022  27.476  1.00  0.00     0.031 C 
ATOM     61  C   UNL A   1      42.230  33.214  30.194  1.00  0.00     0.029 A 
ATOM     62  C   UNL A   1      42.935  32.170  29.616  1.00  0.00     0.049 A 
ATOM     63  H   UNL A   1      42.327  30.174  29.302  1.00  0.00     0.167 HD
ATOM     64  C   UNL A   1      44.922  31.130  28.528  1.00  0.00     0.074 A 
ATOM     65  C   UNL A   1      46.267  31.188  27.987  1.00  0.00     0.031 C 
ATOM     66  C   UNL A   1      44.268  32.186  29.070  1.00  0.00     0.037 A 
BRANCH  53  67
ATOM     67  C   UNL A   1      38.575  30.954  31.182  1.00  0.00     0.064 A 
ATOM     68  C   UNL A   1      37.463  31.410  30.461  1.00  0.00     0.173 A 
ATOM     69  C   UNL A   1      38.493  30.963  32.584  1.00  0.00     0.173 A 
ATOM     70  F   UNL A   1      37.495  31.442  29.119  1.00  0.00    -0.203 F 
ATOM     71  C   UNL A   1      36.327  31.882  31.116  1.00  0.00     0.198 A 
ATOM     72  C   UNL A   1      37.347  31.410  33.236  1.00  0.00     0.198 A 
ATOM     73  F   UNL A   1      39.528  30.540  33.324  1.00  0.00    -0.203 F 
ATOM     74  F   UNL A   1      35.297  32.362  30.407  1.00  0.00    -0.200 F 
ATOM     75  C   UNL A   1      36.268  31.877  32.502  1.00  0.00     0.200 A 
ATOM     76  F   UNL A   1      37.291  31.396  34.575  1.00  0.00    -0.200 F 
ATOM     77  F   UNL A   1      35.176  32.332  33.131  1.00  0.00    -0.200 F 
ENDBRANCH  53  67
BRANCH  54  78
ATOM     78  C   UNL A   1      46.680  27.222  26.557  1.00  0.00     0.064 A 
ATOM     79  C   UNL A   1      46.822  27.428  25.179  1.00  0.00     0.173 A 
ATOM     80  C   UNL A   1      47.702  26.522  27.218  1.00  0.00     0.173 A 
ATOM     81  F   UNL A   1      45.862  28.069  24.496  1.00  0.00    -0.203 F 
ATOM     82  C   UNL A   1      47.941  26.959  24.492  1.00  0.00     0.198 A 
ATOM     83  C   UNL A   1      48.836  26.085  26.538  1.00  0.00     0.198 A 
ATOM     84  F   UNL A   1      47.619  26.299  28.538  1.00  0.00    -0.203 F 
ATOM     85  F   UNL A   1      48.039  27.144  23.169  1.00  0.00    -0.200 F 
ATOM     86  C   UNL A   1      48.953  26.299  25.174  1.00  0.00     0.200 A 
ATOM     87  F   UNL A   1      49.820  25.468  27.207  1.00  0.00    -0.200 F 
ATOM     88  F   UNL A   1      50.040  25.870  24.517  1.00  0.00    -0.200 F 
ENDBRANCH  54  78
BRANCH  66  89
ATOM     89  C   UNL A   1      45.028  33.475  29.129  1.00  0.00     0.064 A 
ATOM     90  C   UNL A   1      45.858  33.786  30.214  1.00  0.00     0.173 A 
ATOM     91  C   UNL A   1      44.926  34.400  28.081  1.00  0.00     0.173 A 
ATOM     92  F   UNL A   1      45.964  32.939  31.249  1.00  0.00    -0.203 F 
ATOM     93  C   UNL A   1      46.545  34.996  30.258  1.00  0.00     0.198 A 
ATOM     94  C   UNL A   1      45.633  35.598  28.118  1.00  0.00     0.198 A 
ATOM     95  F   UNL A   1      44.141  34.142  27.025  1.00  0.00    -0.203 F 
ATOM     96  F   UNL A   1      47.296  35.299  31.326  1.00  0.00    -0.200 F 
ATOM     97  C   UNL A   1      46.436  35.896  29.209  1.00  0.00     0.200 A 
ATOM     98  F   UNL A   1      45.531  36.465  27.102  1.00  0.00    -0.200 F 
ATOM     99  F   UNL A   1      47.096  37.062  29.255  1.00  0.00    -0.200 F 
ENDBRANCH  66  89
ENDBRANCH  40  41
ENDBRANCH  33  35
ENDBRANCH  32  33
ENDBRANCH  31  32
ENDBRANCH   1  31
TORSDOF 15
ENDMDL
MODEL 3
REMARK VINA RESULT:     -13.5      0.921      2.222
REMARK SMILES C[C@@H](C(=O)OCCOC(=O)c1ccc(-c2c3nc(c(-c4c(F)c(F)c(F)c(F)c4F)c4ccc([nH]4)c(-c4c(F)c(F)c(F)c(F)c4F)c4nc(c(-c5c(F)c(F)c(F)c(F)c5F)c5ccc2[nH]5)C=C4)C=C3)cc1)[N@@H+]1CCc2n[nH]c(C(c3ccccc3)c3ccccc3)c2C1
REMARK SMILES IDX 6 1 5 2 3 3 4 4 2 5 1 6 74 7 75 8 95 9 76 11 94 12 77 13
REMARK SMILES IDX 80 14 78 15 79 16 81 18 82 19 83 20 87 21 84 22 86 23 85 24
REMARK SMILES IDX 88 25 89 26 93 27 90 28 92 29 91 30 7 31 8 32 9 33 10 34
REMARK SMILES IDX 11 35 12 36 73 37 13 38 72 39 14 40 15 41 16 42 66 43 17 44
REMARK SMILES IDX 71 45 65 46 67 47 18 48 70 49 64 50 63 51 19 53 51 54 31 55
REMARK SMILES IDX 50 56 32 57 35 58 49 59 68 60 33 61 34 62 48 64 69 65 36 66
REMARK SMILES IDX 20 67 21 68 29 69 22 70 23 71 27 72 30 73 24 74 25 75 28 76
REMARK SMILES IDX 26 77 52 78 53 79 61 80 54 81 55 82 59 83 62 84 56 85 57 86
REMARK SMILES IDX 60 87 58 88 37 89 38 90 46 91 39 92 40 93 44 94 47 95 41 96
REMARK SMILES IDX 42 97 45 98 43 99
REMARK H PARENT 74 10 79 17 67 52 35 63
REMARK Flexibility Score: inf
ROOT
ATOM      1  C   UNL A   1      32.494  28.479  25.630  1.00  0.00     0.274 C 
ENDROOT
BRANCH   1   2
ATOM      2  O   UNL A   1      33.448  27.715  24.830  1.00  0.00    -0.458 OA
BRANCH   2   3
ATOM      3  C   UNL A   1      33.463  26.361  24.954  1.00  0.00     0.364 C 
ATOM      4  O   UNL A   1      33.929  25.812  25.950  1.00  0.00    -0.245 OA
BRANCH   3   5
ATOM      5  C   UNL A   1      32.819  25.569  23.755  1.00  0.00     0.292 C 
ATOM      6  C   UNL A   1      33.412  25.928  22.392  1.00  0.00     0.088 C 
BRANCH   5   7
ATOM      7  N   UNL A   1      31.328  25.399  23.809  1.00  0.00    -0.319 N 
ATOM      8  C   UNL A   1      30.605  26.134  24.892  1.00  0.00     0.269 C 
ATOM      9  C   UNL A   1      30.851  24.020  23.764  1.00  0.00     0.303 C 
ATOM     10  H   UNL A   1      31.083  25.853  22.929  1.00  0.00     0.349 HD
ATOM     11  C   UNL A   1      29.815  25.257  25.943  1.00  0.00     0.120 C 
ATOM     12  C   UNL A   1      31.136  23.312  25.019  1.00  0.00     0.052 A 
ATOM     13  C   UNL A   1      30.486  23.926  26.116  1.00  0.00     0.077 A 
ATOM     14  C   UNL A   1      31.947  22.316  25.569  1.00  0.00     0.056 A 
ATOM     15  N   UNL A   1      30.617  23.223  27.232  1.00  0.00    -0.180 NA
ATOM     16  N   UNL A   1      31.384  22.185  26.835  1.00  0.00    -0.281 N 
ATOM     17  H   UNL A   1      31.533  21.394  27.401  1.00  0.00     0.190 HD
BRANCH  14  18
ATOM     18  C   UNL A   1      33.231  21.470  25.278  1.00  0.00     0.098 C 
BRANCH  18  19
ATOM     19  C   UNL A   1      33.104  20.102  24.565  1.00  0.00    -0.035 A 
ATOM     20  C   UNL A   1      34.026  19.079  24.857  1.00  0.00     0.005 A 
ATOM     21  C   UNL A   1      32.225  19.843  23.498  1.00  0.00     0.005 A 
ATOM     22  C   UNL A   1      34.086  17.901  24.094  1.00  0.00     0.000 A 
ATOM     23  C   UNL A   1      32.272  18.668  22.736  1.00  0.00     0.000 A 
ATOM     24  C   UNL A   1      33.214  17.697  23.030  1.00  0.00     0.000 A 
ENDBRANCH  18  19
BRANCH  18  25
ATOM     25  C   UNL A   1      34.530  22.317  25.062  1.00  0.00    -0.035 A 
ATOM     26  C   UNL A   1      35.098  22.620  23.809  1.00  0.00     0.005 A 
ATOM     27  C   UNL A   1      35.308  22.681  26.179  1.00  0.00     0.005 A 
ATOM     28  C   UNL A   1      36.290  23.346  23.675  1.00  0.00     0.000 A 
ATOM     29  C   UNL A   1      36.519  23.376  26.054  1.00  0.00     0.000 A 
ATOM     30  C   UNL A   1      37.000  23.729  24.801  1.00  0.00     0.000 A 
ENDBRANCH  18  25
ENDBRANCH  14  18
ENDBRANCH   5   7
ENDBRANCH   3   5
ENDBRANCH   2   3
ENDBRANCH   1   2
BRANCH   1  31
ATOM     31  C   UNL A   1      32.888  30.001  25.667  1.00  0.00     0.275 C 
BRANCH  31  32
ATOM     32  O   UNL A   1      32.832  30.429  27.051  1.00  0.00    -0.458 OA
BRANCH  32  33
ATOM     33  C   UNL A   1      33.526  31.532  27.441  1.00  0.00     0.338 C 
ATOM     34  O   UNL A   1      33.109  32.656  27.629  1.00  0.00    -0.246 OA
BRANCH  33  35
ATOM     35  C   UNL A   1      34.884  31.053  27.807  1.00  0.00     0.060 A 
ATOM     36  C   UNL A   1      35.876  32.023  28.000  1.00  0.00     0.016 A 
ATOM     37  C   UNL A   1      35.218  29.703  27.897  1.00  0.00     0.016 A 
ATOM     38  C   UNL A   1      37.167  31.671  28.327  1.00  0.00     0.010 A 
ATOM     39  C   UNL A   1      36.494  29.352  28.368  1.00  0.00     0.010 A 
ATOM     40  C   UNL A   1      37.449  30.347  28.652  1.00  0.00    -0.014 A 
BRANCH  40  41
ATOM     41  C   UNL A   1      38.686  30.073  29.423  1.00  0.00     0.031 A 
ATOM     42  C   UNL A   1      39.753  29.196  28.863  1.00  0.00     0.074 A 
ATOM     43  C   UNL A   1      38.831  30.637  30.641  1.00  0.00     0.049 A 
ATOM     44  N   UNL A   1      40.741  28.609  29.483  1.00  0.00    -0.248 NA
ATOM     45  C   UNL A   1      39.700  28.935  27.418  1.00  0.00     0.031 C 
ATOM     46  C   UNL A   1      37.888  31.577  31.262  1.00  0.00     0.029 A 
ATOM     47  N   UNL A   1      39.826  30.519  31.579  1.00  0.00    -0.354 N 
ATOM     48  C   UNL A   1      41.381  27.841  28.523  1.00  0.00     0.074 A 
ATOM     49  C   UNL A   1      40.695  28.071  27.269  1.00  0.00     0.031 C 
ATOM     50  C   UNL A   1      38.372  31.988  32.439  1.00  0.00     0.029 A 
ATOM     51  C   UNL A   1      39.576  31.229  32.730  1.00  0.00     0.049 A 
ATOM     52  H   UNL A   1      40.637  29.980  31.441  1.00  0.00     0.167 HD
ATOM     53  C   UNL A   1      42.425  26.998  28.705  1.00  0.00     0.037 A 
ATOM     54  C   UNL A   1      40.191  31.205  33.926  1.00  0.00     0.037 A 
ATOM     55  C   UNL A   1      43.106  26.835  29.966  1.00  0.00     0.049 A 
ATOM     56  C   UNL A   1      41.330  30.250  34.108  1.00  0.00     0.074 A 
ATOM     57  C   UNL A   1      44.153  25.990  30.287  1.00  0.00     0.029 A 
ATOM     58  N   UNL A   1      42.812  27.559  31.116  1.00  0.00    -0.354 N 
ATOM     59  N   UNL A   1      41.849  29.416  33.241  1.00  0.00    -0.248 NA
ATOM     60  C   UNL A   1      41.943  30.202  35.439  1.00  0.00     0.031 C 
ATOM     61  C   UNL A   1      44.474  26.185  31.636  1.00  0.00     0.029 A 
ATOM     62  C   UNL A   1      43.658  27.182  32.145  1.00  0.00     0.049 A 
ATOM     63  H   UNL A   1      42.104  28.240  31.188  1.00  0.00     0.167 HD
ATOM     64  C   UNL A   1      42.848  28.737  33.917  1.00  0.00     0.074 A 
ATOM     65  C   UNL A   1      42.878  29.279  35.262  1.00  0.00     0.031 C 
ATOM     66  C   UNL A   1      43.658  27.747  33.471  1.00  0.00     0.037 A 
BRANCH  53  67
ATOM     67  C   UNL A   1      42.832  26.140  27.543  1.00  0.00     0.064 A 
ATOM     68  C   UNL A   1      43.856  26.508  26.659  1.00  0.00     0.173 A 
ATOM     69  C   UNL A   1      42.179  24.918  27.315  1.00  0.00     0.173 A 
ATOM     70  F   UNL A   1      44.500  27.675  26.820  1.00  0.00    -0.203 F 
ATOM     71  C   UNL A   1      44.192  25.698  25.575  1.00  0.00     0.198 A 
ATOM     72  C   UNL A   1      42.535  24.100  26.247  1.00  0.00     0.198 A 
ATOM     73  F   UNL A   1      41.190  24.518  28.128  1.00  0.00    -0.203 F 
ATOM     74  F   UNL A   1      45.138  26.095  24.713  1.00  0.00    -0.200 F 
ATOM     75  C   UNL A   1      43.535  24.494  25.373  1.00  0.00     0.200 A 
ATOM     76  F   UNL A   1      41.903  22.932  26.059  1.00  0.00    -0.200 F 
ATOM     77  F   UNL A   1      43.859  23.718  24.330  1.00  0.00    -0.200 F 
ENDBRANCH  53  67
BRANCH  54  78
ATOM     78  C   UNL A   1      39.670  32.036  35.044  1.00  0.00     0.064 A 
ATOM     79  C   UNL A   1      40.034  33.381  35.179  1.00  0.00     0.173 A 
ATOM     80  C   UNL A   1      38.756  31.513  35.974  1.00  0.00     0.173 A 
ATOM     81  F   UNL A   1      40.922  33.922  34.331  1.00  0.00    -0.203 F 
ATOM     82  C   UNL A   1      39.504  34.172  36.197  1.00  0.00     0.198 A 
ATOM     83  C   UNL A   1      38.200  32.313  36.969  1.00  0.00     0.198 A 
ATOM     84  F   UNL A   1      38.370  30.231  35.890  1.00  0.00    -0.203 F 
ATOM     85  F   UNL A   1      39.891  35.449  36.321  1.00  0.00    -0.200 F 
ATOM     86  C   UNL A   1      38.578  33.641  37.083  1.00  0.00     0.200 A 
ATOM     87  F   UNL A   1      37.289  31.800  37.808  1.00  0.00    -0.200 F 
ATOM     88  F   UNL A   1      38.050  34.409  38.047  1.00  0.00    -0.200 F 
ENDBRANCH  54  78
BRANCH  66  89
ATOM     89  C   UNL A   1      44.665  27.225  34.448  1.00  0.00     0.064 A 
ATOM     90  C   UNL A   1      44.383  26.130  35.275  1.00  0.00     0.173 A 
ATOM     91  C   UNL A   1      45.927  27.828  34.548  1.00  0.00     0.173 A 
ATOM     92  F   UNL A   1      43.179  25.540  35.229  1.00  0.00    -0.203 F 
ATOM     93  C   UNL A   1      45.326  25.668  36.189  1.00  0.00     0.198 A 
ATOM     94  C   UNL A   1      46.875  27.348  35.445  1.00  0.00     0.198 A 
ATOM     95  F   UNL A   1      46.237  28.880  33.777  1.00  0.00    -0.203 F 
ATOM     96  F   UNL A   1      45.022  24.650  37.006  1.00  0.00    -0.200 F 
ATOM     97  C   UNL A   1      46.571  26.274  36.268  1.00  0.00     0.200 A 
ATOM     98  F   UNL A   1      48.079  27.930  35.518  1.00  0.00    -0.200 F 
ATOM     99  F   UNL A   1      47.477  25.829  37.150  1.00  0.00    -0.200 F 
ENDBRANCH  66  89
ENDBRANCH  40  41
ENDBRANCH  33  35
ENDBRANCH  32  33
ENDBRANCH  31  32
ENDBRANCH   1  31
TORSDOF 15
ENDMDL
