MODEL 1
REMARK VINA RESULT:     -12.5      0.000      0.000
REMARK SMILES NS(=O)(=O)c1ccc(/N=C/c2ccc(O)c(C(=O)OCCOC(=O)c3ccc(-c4c5nc(c(-c6c(F)c(F)c(F)c(F)c6F)c6ccc([nH]6)c(-c6c(F)c(F)c(F)c(F)c6F)c6nc(c(-c7c(F)c(F)c(F)c(F)c7F)c7ccc4[nH]7)C=C6)C=C5)cc3)c2)cc1
REMARK SMILES IDX 20 1 19 2 17 3 18 4 16 5 11 6 12 7 88 8 13 9 14 10 10 11
REMARK SMILES IDX 9 12 8 13 5 14 6 15 90 16 7 17 89 18 2 19 3 20 4 21 1 22
REMARK SMILES IDX 15 25 21 27 22 28 23 29 24 30 25 31 26 32 87 33 27 34 86 35
REMARK SMILES IDX 28 36 29 37 30 38 80 39 31 40 85 41 79 42 81 43 32 44 84 45
REMARK SMILES IDX 78 46 77 47 33 49 65 50 45 51 64 52 46 53 49 54 63 55 82 56
REMARK SMILES IDX 47 57 48 58 62 60 83 61 50 62 34 63 35 64 43 65 36 66 37 67
REMARK SMILES IDX 41 68 44 69 38 70 39 71 42 72 40 73 66 74 67 75 75 76 68 77
REMARK SMILES IDX 69 78 73 79 76 80 70 81 71 82 74 83 72 84 51 85 52 86 60 87
REMARK SMILES IDX 53 88 54 89 58 90 61 91 55 92 56 93 59 94 57 95
REMARK H PARENT 1 23 1 24 15 26 81 48 49 59
REMARK Flexibility Score: inf
ROOT
ATOM      1  C   UNL A   1      31.790  28.231  26.567  1.00  0.00     0.275 C 
ENDROOT
BRANCH   1   2
ATOM      2  O   UNL A   1      30.973  27.237  25.914  1.00  0.00    -0.458 OA
BRANCH   2   3
ATOM      3  C   UNL A   1      31.353  25.947  26.060  1.00  0.00     0.342 C 
ATOM      4  O   UNL A   1      30.973  25.154  26.910  1.00  0.00    -0.246 OA
BRANCH   3   5
ATOM      5  C   UNL A   1      32.234  25.523  24.949  1.00  0.00     0.102 A 
ATOM      6  C   UNL A   1      34.310  24.619  24.116  1.00  0.00    -0.006 A 
ATOM      7  C   UNL A   1      33.885  24.811  22.797  1.00  0.00     0.013 A 
ATOM      8  C   UNL A   1      33.514  25.023  25.194  1.00  0.00     0.029 A 
ATOM      9  C   UNL A   1      32.603  25.294  22.555  1.00  0.00     0.048 A 
ATOM     10  C   UNL A   1      31.763  25.580  23.628  1.00  0.00     0.130 A 
BRANCH   6  11
ATOM     11  C   UNL A   1      35.551  23.855  24.340  1.00  0.00     0.119 C 
ATOM     12  N   UNL A   1      36.302  24.091  25.365  1.00  0.00    -0.256 NA
BRANCH  12  13
ATOM     13  C   UNL A   1      37.410  23.266  25.612  1.00  0.00     0.063 A 
ATOM     14  C   UNL A   1      39.502  21.461  26.086  1.00  0.00     0.082 A 
ATOM     15  C   UNL A   1      38.456  21.095  25.239  1.00  0.00     0.024 A 
ATOM     16  C   UNL A   1      39.516  22.719  26.694  1.00  0.00     0.024 A 
ATOM     17  C   UNL A   1      37.418  22.002  25.008  1.00  0.00     0.030 A 
ATOM     18  C   UNL A   1      38.468  23.613  26.459  1.00  0.00     0.030 A 
BRANCH  14  19
ATOM     19  S   UNL A   1      40.789  20.319  26.488  1.00  0.00     0.238 S 
ATOM     20  O   UNL A   1      40.765  20.085  27.914  1.00  0.00    -0.207 OA
ATOM     21  O   UNL A   1      41.984  20.709  25.779  1.00  0.00    -0.207 OA
BRANCH  19  22
ATOM     22  N   UNL A   1      40.287  18.870  25.800  1.00  0.00    -0.225 NA
ATOM     23  H   UNL A   1      40.478  18.886  24.798  1.00  0.00     0.137 HD
ATOM     24  H   UNL A   1      39.287  18.748  25.954  1.00  0.00     0.137 HD
ENDBRANCH  19  22
ENDBRANCH  14  19
ENDBRANCH  12  13
ENDBRANCH   6  11
BRANCH  10  25
ATOM     25  O   UNL A   1      30.462  25.859  23.305  1.00  0.00    -0.507 OA
ATOM     26  H   UNL A   1      29.988  25.290  22.731  1.00  0.00     0.293 HD
ENDBRANCH  10  25
ENDBRANCH   3   5
ENDBRANCH   2   3
ENDBRANCH   1   2
BRANCH   1  27
ATOM     27  C   UNL A   1      31.938  29.474  25.690  1.00  0.00     0.275 C 
BRANCH  27  28
ATOM     28  O   UNL A   1      33.246  30.047  25.876  1.00  0.00    -0.458 OA
BRANCH  28  29
ATOM     29  C   UNL A   1      33.358  30.953  26.875  1.00  0.00     0.338 C 
ATOM     30  O   UNL A   1      32.531  31.765  27.249  1.00  0.00    -0.246 OA
BRANCH  29  31
ATOM     31  C   UNL A   1      34.673  30.797  27.513  1.00  0.00     0.060 A 
ATOM     32  C   UNL A   1      35.118  29.515  27.820  1.00  0.00     0.016 A 
ATOM     33  C   UNL A   1      35.409  31.906  27.914  1.00  0.00     0.016 A 
ATOM     34  C   UNL A   1      36.258  29.328  28.594  1.00  0.00     0.010 A 
ATOM     35  C   UNL A   1      36.609  31.715  28.608  1.00  0.00     0.010 A 
ATOM     36  C   UNL A   1      37.036  30.425  28.981  1.00  0.00    -0.014 A 
BRANCH  36  37
ATOM     37  C   UNL A   1      38.267  30.249  29.802  1.00  0.00     0.031 A 
ATOM     38  C   UNL A   1      39.431  29.479  29.242  1.00  0.00     0.074 A 
ATOM     39  C   UNL A   1      38.352  30.755  31.049  1.00  0.00     0.049 A 
ATOM     40  N   UNL A   1      40.461  28.956  29.858  1.00  0.00    -0.248 NA
ATOM     41  C   UNL A   1      39.424  29.253  27.789  1.00  0.00     0.031 C 
ATOM     42  C   UNL A   1      37.350  31.601  31.696  1.00  0.00     0.029 A 
ATOM     43  N   UNL A   1      39.336  30.624  32.002  1.00  0.00    -0.354 N 
ATOM     44  C   UNL A   1      41.177  28.272  28.883  1.00  0.00     0.074 A 
ATOM     45  C   UNL A   1      40.472  28.458  27.633  1.00  0.00     0.031 C 
ATOM     46  C   UNL A   1      37.781  31.941  32.919  1.00  0.00     0.029 A 
ATOM     47  C   UNL A   1      39.035  31.247  33.188  1.00  0.00     0.049 A 
ATOM     48  H   UNL A   1      40.173  30.130  31.848  1.00  0.00     0.167 HD
ATOM     49  C   UNL A   1      42.313  27.545  29.029  1.00  0.00     0.037 A 
ATOM     50  C   UNL A   1      39.663  31.216  34.379  1.00  0.00     0.037 A 
ATOM     51  C   UNL A   1      43.037  27.423  30.268  1.00  0.00     0.049 A 
ATOM     52  C   UNL A   1      40.883  30.353  34.539  1.00  0.00     0.074 A 
ATOM     53  C   UNL A   1      44.203  26.722  30.524  1.00  0.00     0.029 A 
ATOM     54  N   UNL A   1      42.669  28.035  31.459  1.00  0.00    -0.354 N 
ATOM     55  N   UNL A   1      41.508  29.630  33.642  1.00  0.00    -0.248 NA
ATOM     56  C   UNL A   1      41.465  30.274  35.886  1.00  0.00     0.031 C 
ATOM     57  C   UNL A   1      44.518  26.877  31.879  1.00  0.00     0.029 A 
ATOM     58  C   UNL A   1      43.577  27.715  32.457  1.00  0.00     0.049 A 
ATOM     59  H   UNL A   1      41.880  28.611  31.577  1.00  0.00     0.167 HD
ATOM     60  C   UNL A   1      42.568  29.029  34.306  1.00  0.00     0.074 A 
ATOM     61  C   UNL A   1      42.505  29.477  35.683  1.00  0.00     0.031 C 
ATOM     62  C   UNL A   1      43.507  28.184  33.817  1.00  0.00     0.037 A 
BRANCH  49  63
ATOM     63  C   UNL A   1      42.803  26.779  27.833  1.00  0.00     0.064 A 
ATOM     64  C   UNL A   1      43.717  27.319  26.917  1.00  0.00     0.173 A 
ATOM     65  C   UNL A   1      42.345  25.471  27.604  1.00  0.00     0.173 A 
ATOM     66  F   UNL A   1      44.179  28.568  27.080  1.00  0.00    -0.203 F 
ATOM     67  C   UNL A   1      44.122  26.596  25.796  1.00  0.00     0.198 A 
ATOM     68  C   UNL A   1      42.776  24.738  26.501  1.00  0.00     0.198 A 
ATOM     69  F   UNL A   1      41.477  24.900  28.453  1.00  0.00    -0.203 F 
ATOM     70  F   UNL A   1      44.947  27.156  24.901  1.00  0.00    -0.200 F 
ATOM     71  C   UNL A   1      43.655  25.305  25.592  1.00  0.00     0.200 A 
ATOM     72  F   UNL A   1      42.334  23.486  26.315  1.00  0.00    -0.200 F 
ATOM     73  F   UNL A   1      44.042  24.613  24.512  1.00  0.00    -0.200 F 
ENDBRANCH  49  63
BRANCH  50  74
ATOM     74  C   UNL A   1      39.119  31.996  35.521  1.00  0.00     0.064 A 
ATOM     75  C   UNL A   1      38.313  31.382  36.488  1.00  0.00     0.173 A 
ATOM     76  C   UNL A   1      39.415  33.358  35.689  1.00  0.00     0.173 A 
ATOM     77  F   UNL A   1      37.976  30.091  36.357  1.00  0.00    -0.203 F 
ATOM     78  C   UNL A   1      37.828  32.097  37.582  1.00  0.00     0.198 A 
ATOM     79  C   UNL A   1      38.956  34.065  36.798  1.00  0.00     0.198 A 
ATOM     80  F   UNL A   1      40.178  33.996  34.789  1.00  0.00    -0.203 F 
ATOM     81  F   UNL A   1      37.036  31.493  38.478  1.00  0.00    -0.200 F 
ATOM     82  C   UNL A   1      38.160  33.435  37.742  1.00  0.00     0.200 A 
ATOM     83  F   UNL A   1      39.293  35.352  36.956  1.00  0.00    -0.200 F 
ATOM     84  F   UNL A   1      37.710  34.117  38.804  1.00  0.00    -0.200 F 
ENDBRANCH  50  74
BRANCH  62  85
ATOM     85  C   UNL A   1      44.580  27.732  34.763  1.00  0.00     0.064 A 
ATOM     86  C   UNL A   1      45.774  28.448  34.922  1.00  0.00     0.173 A 
ATOM     87  C   UNL A   1      44.386  26.589  35.554  1.00  0.00     0.173 A 
ATOM     88  F   UNL A   1      46.013  29.537  34.175  1.00  0.00    -0.203 F 
ATOM     89  C   UNL A   1      46.744  28.027  35.828  1.00  0.00     0.198 A 
ATOM     90  C   UNL A   1      45.345  26.186  36.476  1.00  0.00     0.198 A 
ATOM     91  F   UNL A   1      43.257  25.872  35.440  1.00  0.00    -0.203 F 
ATOM     92  F   UNL A   1      47.895  28.704  35.938  1.00  0.00    -0.200 F 
ATOM     93  C   UNL A   1      46.525  26.902  36.610  1.00  0.00     0.200 A 
ATOM     94  F   UNL A   1      45.128  25.104  37.238  1.00  0.00    -0.200 F 
ATOM     95  F   UNL A   1      47.456  26.503  37.489  1.00  0.00    -0.200 F 
ENDBRANCH  62  85
ENDBRANCH  36  37
ENDBRANCH  29  31
ENDBRANCH  28  29
ENDBRANCH  27  28
ENDBRANCH   1  27
TORSDOF 16
ENDMDL
MODEL 2
REMARK VINA RESULT:     -12.4      0.477      1.656
REMARK SMILES NS(=O)(=O)c1ccc(/N=C/c2ccc(O)c(C(=O)OCCOC(=O)c3ccc(-c4c5nc(c(-c6c(F)c(F)c(F)c(F)c6F)c6ccc([nH]6)c(-c6c(F)c(F)c(F)c(F)c6F)c6nc(c(-c7c(F)c(F)c(F)c(F)c7F)c7ccc4[nH]7)C=C6)C=C5)cc3)c2)cc1
REMARK SMILES IDX 20 1 19 2 17 3 18 4 16 5 11 6 12 7 88 8 13 9 14 10 10 11
REMARK SMILES IDX 9 12 8 13 5 14 6 15 90 16 7 17 89 18 2 19 3 20 4 21 1 22
REMARK SMILES IDX 15 25 21 27 22 28 23 29 24 30 25 31 26 32 87 33 27 34 86 35
REMARK SMILES IDX 28 36 29 37 30 38 80 39 31 40 85 41 79 42 81 43 32 44 84 45
REMARK SMILES IDX 78 46 77 47 33 49 65 50 45 51 64 52 46 53 49 54 63 55 82 56
REMARK SMILES IDX 47 57 48 58 62 60 83 61 50 62 34 63 35 64 43 65 36 66 37 67
REMARK SMILES IDX 41 68 44 69 38 70 39 71 42 72 40 73 66 74 67 75 75 76 68 77
REMARK SMILES IDX 69 78 73 79 76 80 70 81 71 82 74 83 72 84 51 85 52 86 60 87
REMARK SMILES IDX 53 88 54 89 58 90 61 91 55 92 56 93 59 94 57 95
REMARK H PARENT 1 23 1 24 15 26 81 48 49 59
REMARK Flexibility Score: inf
ROOT
ATOM      1  C   UNL A   1      31.397  28.955  25.186  1.00  0.00     0.275 C 
ENDROOT
BRANCH   1   2
ATOM      2  O   UNL A   1      32.264  27.948  25.749  1.00  0.00    -0.458 OA
BRANCH   2   3
ATOM      3  C   UNL A   1      31.696  26.758  26.055  1.00  0.00     0.342 C 
ATOM      4  O   UNL A   1      30.836  26.544  26.897  1.00  0.00    -0.246 OA
BRANCH   3   5
ATOM      5  C   UNL A   1      32.157  25.696  25.134  1.00  0.00     0.102 A 
ATOM      6  C   UNL A   1      33.863  24.208  24.297  1.00  0.00    -0.006 A 
ATOM      7  C   UNL A   1      32.993  23.737  23.309  1.00  0.00     0.013 A 
ATOM      8  C   UNL A   1      33.471  25.224  25.177  1.00  0.00     0.029 A 
ATOM      9  C   UNL A   1      31.679  24.196  23.279  1.00  0.00     0.048 A 
ATOM     10  C   UNL A   1      31.252  25.117  24.232  1.00  0.00     0.130 A 
BRANCH   6  11
ATOM     11  C   UNL A   1      35.149  23.509  24.479  1.00  0.00     0.119 C 
ATOM     12  N   UNL A   1      36.011  23.918  25.351  1.00  0.00    -0.256 NA
BRANCH  12  13
ATOM     13  C   UNL A   1      37.170  23.161  25.581  1.00  0.00     0.063 A 
ATOM     14  C   UNL A   1      39.369  21.486  26.049  1.00  0.00     0.082 A 
ATOM     15  C   UNL A   1      38.272  21.000  25.339  1.00  0.00     0.024 A 
ATOM     16  C   UNL A   1      39.381  22.800  26.523  1.00  0.00     0.024 A 
ATOM     17  C   UNL A   1      37.180  21.842  25.109  1.00  0.00     0.030 A 
ATOM     18  C   UNL A   1      38.280  23.629  26.293  1.00  0.00     0.030 A 
BRANCH  14  19
ATOM     19  S   UNL A   1      40.732  20.436  26.450  1.00  0.00     0.238 S 
ATOM     20  O   UNL A   1      40.775  20.267  27.884  1.00  0.00    -0.207 OA
ATOM     21  O   UNL A   1      41.876  20.858  25.677  1.00  0.00    -0.207 OA
BRANCH  19  22
ATOM     22  N   UNL A   1      40.288  18.932  25.846  1.00  0.00    -0.225 NA
ATOM     23  H   UNL A   1      39.363  18.684  26.198  1.00  0.00     0.137 HD
ATOM     24  H   UNL A   1      40.965  18.231  26.146  1.00  0.00     0.137 HD
ENDBRANCH  19  22
ENDBRANCH  14  19
ENDBRANCH  12  13
ENDBRANCH   6  11
BRANCH  10  25
ATOM     25  O   UNL A   1      29.905  25.366  24.255  1.00  0.00    -0.507 OA
ATOM     26  H   UNL A   1      29.591  26.225  24.458  1.00  0.00     0.293 HD
ENDBRANCH  10  25
ENDBRANCH   3   5
ENDBRANCH   2   3
ENDBRANCH   1   2
BRANCH   1  27
ATOM     27  C   UNL A   1      31.728  30.335  25.752  1.00  0.00     0.275 C 
BRANCH  27  28
ATOM     28  O   UNL A   1      33.044  30.319  26.335  1.00  0.00    -0.458 OA
BRANCH  28  29
ATOM     29  C   UNL A   1      33.378  31.403  27.072  1.00  0.00     0.338 C 
ATOM     30  O   UNL A   1      32.729  32.417  27.254  1.00  0.00    -0.246 OA
BRANCH  29  31
ATOM     31  C   UNL A   1      34.691  31.169  27.693  1.00  0.00     0.060 A 
ATOM     32  C   UNL A   1      35.025  29.876  28.080  1.00  0.00     0.016 A 
ATOM     33  C   UNL A   1      35.535  32.231  28.000  1.00  0.00     0.016 A 
ATOM     34  C   UNL A   1      36.164  29.637  28.842  1.00  0.00     0.010 A 
ATOM     35  C   UNL A   1      36.731  31.977  28.681  1.00  0.00     0.010 A 
ATOM     36  C   UNL A   1      37.048  30.682  29.134  1.00  0.00    -0.014 A 
BRANCH  36  37
ATOM     37  C   UNL A   1      38.280  30.450  29.941  1.00  0.00     0.031 A 
ATOM     38  C   UNL A   1      39.412  29.650  29.356  1.00  0.00     0.074 A 
ATOM     39  C   UNL A   1      38.393  30.929  31.196  1.00  0.00     0.049 A 
ATOM     40  N   UNL A   1      40.429  29.081  29.954  1.00  0.00    -0.248 NA
ATOM     41  C   UNL A   1      39.384  29.451  27.900  1.00  0.00     0.031 C 
ATOM     42  C   UNL A   1      37.426  31.796  31.867  1.00  0.00     0.029 A 
ATOM     43  N   UNL A   1      39.380  30.747  32.137  1.00  0.00    -0.354 N 
ATOM     44  C   UNL A   1      41.113  28.391  28.960  1.00  0.00     0.074 A 
ATOM     45  C   UNL A   1      40.403  28.624  27.719  1.00  0.00     0.031 C 
ATOM     46  C   UNL A   1      37.879  32.099  33.092  1.00  0.00     0.029 A 
ATOM     47  C   UNL A   1      39.111  31.358  33.337  1.00  0.00     0.049 A 
ATOM     48  H   UNL A   1      40.198  30.228  31.966  1.00  0.00     0.167 HD
ATOM     49  C   UNL A   1      42.225  27.624  29.081  1.00  0.00     0.037 A 
ATOM     50  C   UNL A   1      39.748  31.284  34.521  1.00  0.00     0.037 A 
ATOM     51  C   UNL A   1      42.955  27.455  30.312  1.00  0.00     0.049 A 
ATOM     52  C   UNL A   1      40.939  30.377  34.655  1.00  0.00     0.074 A 
ATOM     53  C   UNL A   1      44.098  26.710  30.544  1.00  0.00     0.029 A 
ATOM     54  N   UNL A   1      42.618  28.057  31.516  1.00  0.00    -0.354 N 
ATOM     55  N   UNL A   1      41.531  29.651  33.738  1.00  0.00    -0.248 NA
ATOM     56  C   UNL A   1      41.530  30.254  35.994  1.00  0.00     0.031 C 
ATOM     57  C   UNL A   1      44.431  26.830  31.898  1.00  0.00     0.029 A 
ATOM     58  C   UNL A   1      43.524  27.688  32.499  1.00  0.00     0.049 A 
ATOM     59  H   UNL A   1      41.851  28.657  31.653  1.00  0.00     0.167 HD
ATOM     60  C   UNL A   1      42.576  29.002  34.381  1.00  0.00     0.074 A 
ATOM     61  C   UNL A   1      42.540  29.427  35.767  1.00  0.00     0.031 C 
ATOM     62  C   UNL A   1      43.482  28.134  33.869  1.00  0.00     0.037 A 
BRANCH  49  63
ATOM     63  C   UNL A   1      42.678  26.864  27.867  1.00  0.00     0.064 A 
ATOM     64  C   UNL A   1      42.285  25.542  27.618  1.00  0.00     0.173 A 
ATOM     65  C   UNL A   1      43.524  27.482  26.931  1.00  0.00     0.173 A 
ATOM     66  F   UNL A   1      41.488  24.899  28.484  1.00  0.00    -0.203 F 
ATOM     67  C   UNL A   1      42.756  24.852  26.501  1.00  0.00     0.198 A 
ATOM     68  C   UNL A   1      43.966  26.801  25.799  1.00  0.00     0.198 A 
ATOM     69  F   UNL A   1      43.924  28.750  27.113  1.00  0.00    -0.203 F 
ATOM     70  F   UNL A   1      42.418  23.568  26.317  1.00  0.00    -0.200 F 
ATOM     71  C   UNL A   1      43.591  25.483  25.591  1.00  0.00     0.200 A 
ATOM     72  F   UNL A   1      44.761  27.420  24.914  1.00  0.00    -0.200 F 
ATOM     73  F   UNL A   1      44.045  24.818  24.520  1.00  0.00    -0.200 F 
ENDBRANCH  49  63
BRANCH  50  74
ATOM     74  C   UNL A   1      39.241  32.061  35.683  1.00  0.00     0.064 A 
ATOM     75  C   UNL A   1      38.360  31.479  36.603  1.00  0.00     0.173 A 
ATOM     76  C   UNL A   1      39.646  33.385  35.915  1.00  0.00     0.173 A 
ATOM     77  F   UNL A   1      37.920  30.228  36.409  1.00  0.00    -0.203 F 
ATOM     78  C   UNL A   1      37.908  32.189  37.714  1.00  0.00     0.198 A 
ATOM     79  C   UNL A   1      39.218  34.083  37.042  1.00  0.00     0.198 A 
ATOM     80  F   UNL A   1      40.484  33.991  35.061  1.00  0.00    -0.203 F 
ATOM     81  F   UNL A   1      37.043  31.618  38.565  1.00  0.00    -0.200 F 
ATOM     82  C   UNL A   1      38.347  33.486  37.940  1.00  0.00     0.200 A 
ATOM     83  F   UNL A   1      39.658  35.329  37.263  1.00  0.00    -0.200 F 
ATOM     84  F   UNL A   1      37.927  34.160  39.018  1.00  0.00    -0.200 F 
ENDBRANCH  50  74
BRANCH  62  85
ATOM     85  C   UNL A   1      44.546  27.629  34.796  1.00  0.00     0.064 A 
ATOM     86  C   UNL A   1      44.396  26.432  35.510  1.00  0.00     0.173 A 
ATOM     87  C   UNL A   1      45.752  28.332  34.935  1.00  0.00     0.173 A 
ATOM     88  F   UNL A   1      43.254  25.733  35.424  1.00  0.00    -0.203 F 
ATOM     89  C   UNL A   1      45.410  25.965  36.342  1.00  0.00     0.198 A 
ATOM     90  C   UNL A   1      46.773  27.850  35.748  1.00  0.00     0.198 A 
ATOM     91  F   UNL A   1      45.944  29.482  34.270  1.00  0.00    -0.203 F 
ATOM     92  F   UNL A   1      45.232  24.838  37.045  1.00  0.00    -0.200 F 
ATOM     93  C   UNL A   1      46.600  26.670  36.454  1.00  0.00     0.200 A 
ATOM     94  F   UNL A   1      47.926  28.528  35.847  1.00  0.00    -0.200 F 
ATOM     95  F   UNL A   1      47.578  26.214  37.249  1.00  0.00    -0.200 F 
ENDBRANCH  62  85
ENDBRANCH  36  37
ENDBRANCH  29  31
ENDBRANCH  28  29
ENDBRANCH  27  28
ENDBRANCH   1  27
TORSDOF 16
ENDMDL
MODEL 3
REMARK VINA RESULT:     -12.3      2.399      3.180
REMARK SMILES NS(=O)(=O)c1ccc(/N=C/c2ccc(O)c(C(=O)OCCOC(=O)c3ccc(-c4c5nc(c(-c6c(F)c(F)c(F)c(F)c6F)c6ccc([nH]6)c(-c6c(F)c(F)c(F)c(F)c6F)c6nc(c(-c7c(F)c(F)c(F)c(F)c7F)c7ccc4[nH]7)C=C6)C=C5)cc3)c2)cc1
REMARK SMILES IDX 20 1 19 2 17 3 18 4 16 5 11 6 12 7 88 8 13 9 14 10 10 11
REMARK SMILES IDX 9 12 8 13 5 14 6 15 90 16 7 17 89 18 2 19 3 20 4 21 1 22
REMARK SMILES IDX 15 25 21 27 22 28 23 29 24 30 25 31 26 32 87 33 27 34 86 35
REMARK SMILES IDX 28 36 29 37 30 38 80 39 31 40 85 41 79 42 81 43 32 44 84 45
REMARK SMILES IDX 78 46 77 47 33 49 65 50 45 51 64 52 46 53 49 54 63 55 82 56
REMARK SMILES IDX 47 57 48 58 62 60 83 61 50 62 34 63 35 64 43 65 36 66 37 67
REMARK SMILES IDX 41 68 44 69 38 70 39 71 42 72 40 73 66 74 67 75 75 76 68 77
REMARK SMILES IDX 69 78 73 79 76 80 70 81 71 82 74 83 72 84 51 85 52 86 60 87
REMARK SMILES IDX 53 88 54 89 58 90 61 91 55 92 56 93 59 94 57 95
REMARK H PARENT 1 23 1 24 15 26 81 48 49 59
REMARK Flexibility Score: inf
ROOT
ATOM      1  C   UNL A   1      31.389  28.936  24.994  1.00  0.00     0.275 C 
ENDROOT
BRANCH   1   2
ATOM      2  O   UNL A   1      31.163  27.530  25.229  1.00  0.00    -0.458 OA
BRANCH   2   3
ATOM      3  C   UNL A   1      30.401  26.877  24.321  1.00  0.00     0.342 C 
ATOM      4  O   UNL A   1      29.188  26.945  24.186  1.00  0.00    -0.246 OA
BRANCH   3   5
ATOM      5  C   UNL A   1      31.243  26.118  23.369  1.00  0.00     0.102 A 
ATOM      6  C   UNL A   1      32.508  24.157  22.753  1.00  0.00    -0.006 A 
ATOM      7  C   UNL A   1      32.898  24.764  21.554  1.00  0.00     0.013 A 
ATOM      8  C   UNL A   1      31.727  24.847  23.687  1.00  0.00     0.029 A 
ATOM      9  C   UNL A   1      32.400  26.023  21.231  1.00  0.00     0.048 A 
ATOM     10  C   UNL A   1      31.524  26.660  22.105  1.00  0.00     0.130 A 
BRANCH   6  11
ATOM     11  C   UNL A   1      32.820  22.729  22.940  1.00  0.00     0.119 C 
ATOM     12  N   UNL A   1      32.383  22.082  23.971  1.00  0.00    -0.256 NA
BRANCH  12  13
ATOM     13  C   UNL A   1      32.598  20.698  24.057  1.00  0.00     0.063 A 
ATOM     14  C   UNL A   1      33.189  17.971  24.336  1.00  0.00     0.082 A 
ATOM     15  C   UNL A   1      33.530  18.858  25.357  1.00  0.00     0.024 A 
ATOM     16  C   UNL A   1      32.552  18.432  23.180  1.00  0.00     0.024 A 
ATOM     17  C   UNL A   1      33.231  20.215  25.209  1.00  0.00     0.030 A 
ATOM     18  C   UNL A   1      32.265  19.792  23.043  1.00  0.00     0.030 A 
BRANCH  14  19
ATOM     19  S   UNL A   1      33.631  16.263  24.428  1.00  0.00     0.238 S 
ATOM     20  O   UNL A   1      34.140  15.850  23.141  1.00  0.00    -0.207 OA
ATOM     21  O   UNL A   1      32.577  15.556  25.117  1.00  0.00    -0.207 OA
BRANCH  19  22
ATOM     22  N   UNL A   1      34.962  16.234  25.454  1.00  0.00    -0.225 NA
ATOM     23  H   UNL A   1      35.727  15.733  25.002  1.00  0.00     0.137 HD
ATOM     24  H   UNL A   1      34.712  15.764  26.323  1.00  0.00     0.137 HD
ENDBRANCH  19  22
ENDBRANCH  14  19
ENDBRANCH  12  13
ENDBRANCH   6  11
BRANCH  10  25
ATOM     25  O   UNL A   1      30.931  27.798  21.626  1.00  0.00    -0.507 OA
ATOM     26  H   UNL A   1      30.037  27.985  21.838  1.00  0.00     0.293 HD
ENDBRANCH  10  25
ENDBRANCH   3   5
ENDBRANCH   2   3
ENDBRANCH   1   2
BRANCH   1  27
ATOM     27  C   UNL A   1      31.768  29.649  26.292  1.00  0.00     0.275 C 
BRANCH  27  28
ATOM     28  O   UNL A   1      33.132  30.102  26.216  1.00  0.00    -0.458 OA
BRANCH  28  29
ATOM     29  C   UNL A   1      33.451  31.155  27.003  1.00  0.00     0.338 C 
ATOM     30  O   UNL A   1      32.781  32.143  27.243  1.00  0.00    -0.246 OA
BRANCH  29  31
ATOM     31  C   UNL A   1      34.776  30.922  27.597  1.00  0.00     0.060 A 
ATOM     32  C   UNL A   1      35.134  29.622  27.938  1.00  0.00     0.016 A 
ATOM     33  C   UNL A   1      35.609  31.986  27.924  1.00  0.00     0.016 A 
ATOM     34  C   UNL A   1      36.288  29.377  28.676  1.00  0.00     0.010 A 
ATOM     35  C   UNL A   1      36.819  31.729  28.579  1.00  0.00     0.010 A 
ATOM     36  C   UNL A   1      37.162  30.424  28.988  1.00  0.00    -0.014 A 
BRANCH  36  37
ATOM     37  C   UNL A   1      38.409  30.185  29.768  1.00  0.00     0.031 A 
ATOM     38  C   UNL A   1      39.500  29.331  29.183  1.00  0.00     0.074 A 
ATOM     39  C   UNL A   1      38.571  30.707  31.001  1.00  0.00     0.049 A 
ATOM     40  N   UNL A   1      40.517  28.754  29.773  1.00  0.00    -0.248 NA
ATOM     41  C   UNL A   1      39.424  29.079  27.736  1.00  0.00     0.031 C 
ATOM     42  C   UNL A   1      37.649  31.628  31.665  1.00  0.00     0.029 A 
ATOM     43  N   UNL A   1      39.579  30.530  31.920  1.00  0.00    -0.354 N 
ATOM     44  C   UNL A   1      41.151  28.008  28.788  1.00  0.00     0.074 A 
ATOM     45  C   UNL A   1      40.414  28.216  27.560  1.00  0.00     0.031 C 
ATOM     46  C   UNL A   1      38.146  31.962  32.864  1.00  0.00     0.029 A 
ATOM     47  C   UNL A   1      39.362  31.193  33.103  1.00  0.00     0.049 A 
ATOM     48  H   UNL A   1      40.377  29.981  31.747  1.00  0.00     0.167 HD
ATOM     49  C   UNL A   1      42.243  27.213  28.908  1.00  0.00     0.037 A 
ATOM     50  C   UNL A   1      40.031  31.144  34.271  1.00  0.00     0.037 A 
ATOM     51  C   UNL A   1      43.003  27.067  30.123  1.00  0.00     0.049 A 
ATOM     52  C   UNL A   1      41.198  30.207  34.406  1.00  0.00     0.074 A 
ATOM     53  C   UNL A   1      44.131  26.297  30.352  1.00  0.00     0.029 A 
ATOM     54  N   UNL A   1      42.719  27.723  31.313  1.00  0.00    -0.354 N 
ATOM     55  N   UNL A   1      41.742  29.430  33.502  1.00  0.00    -0.248 NA
ATOM     56  C   UNL A   1      41.824  30.117  35.732  1.00  0.00     0.031 C 
ATOM     57  C   UNL A   1      44.505  26.457  31.691  1.00  0.00     0.029 A 
ATOM     58  C   UNL A   1      43.641  27.364  32.284  1.00  0.00     0.049 A 
ATOM     59  H   UNL A   1      41.973  28.351  31.447  1.00  0.00     0.167 HD
ATOM     60  C   UNL A   1      42.786  28.774  34.140  1.00  0.00     0.074 A 
ATOM     61  C   UNL A   1      42.802  29.251  35.509  1.00  0.00     0.031 C 
ATOM     62  C   UNL A   1      43.651  27.861  33.636  1.00  0.00     0.037 A 
BRANCH  49  63
ATOM     63  C   UNL A   1      42.640  26.395  27.711  1.00  0.00     0.064 A 
ATOM     64  C   UNL A   1      42.096  25.129  27.452  1.00  0.00     0.173 A 
ATOM     65  C   UNL A   1      43.586  26.898  26.803  1.00  0.00     0.173 A 
ATOM     66  F   UNL A   1      41.197  24.594  28.292  1.00  0.00    -0.203 F 
ATOM     67  C   UNL A   1      42.514  24.379  26.353  1.00  0.00     0.198 A 
ATOM     68  C   UNL A   1      43.977  26.161  25.688  1.00  0.00     0.198 A 
ATOM     69  F   UNL A   1      44.132  28.108  26.995  1.00  0.00    -0.203 F 
ATOM     70  F   UNL A   1      42.028  23.146  26.161  1.00  0.00    -0.200 F 
ATOM     71  C   UNL A   1      43.450  24.898  25.470  1.00  0.00     0.200 A 
ATOM     72  F   UNL A   1      44.871  26.671  24.829  1.00  0.00    -0.200 F 
ATOM     73  F   UNL A   1      43.854  24.175  24.417  1.00  0.00    -0.200 F 
ENDBRANCH  49  63
BRANCH  50  74
ATOM     74  C   UNL A   1      39.580  31.979  35.416  1.00  0.00     0.064 A 
ATOM     75  C   UNL A   1      40.079  33.275  35.596  1.00  0.00     0.173 A 
ATOM     76  C   UNL A   1      38.623  31.515  36.333  1.00  0.00     0.173 A 
ATOM     77  F   UNL A   1      41.017  33.753  34.766  1.00  0.00    -0.203 F 
ATOM     78  C   UNL A   1      39.635  34.078  36.646  1.00  0.00     0.198 A 
ATOM     79  C   UNL A   1      38.157  32.329  37.363  1.00  0.00     0.198 A 
ATOM     80  F   UNL A   1      38.117  30.279  36.209  1.00  0.00    -0.203 F 
ATOM     81  F   UNL A   1      40.149  35.304  36.812  1.00  0.00    -0.200 F 
ATOM     82  C   UNL A   1      38.666  33.609  37.521  1.00  0.00     0.200 A 
ATOM     83  F   UNL A   1      37.210  31.877  38.195  1.00  0.00    -0.200 F 
ATOM     84  F   UNL A   1      38.225  34.388  38.517  1.00  0.00    -0.200 F 
ENDBRANCH  50  74
BRANCH  62  85
ATOM     85  C   UNL A   1      44.727  27.359  34.553  1.00  0.00     0.064 A 
ATOM     86  C   UNL A   1      45.946  28.034  34.700  1.00  0.00     0.173 A 
ATOM     87  C   UNL A   1      44.512  26.209  35.327  1.00  0.00     0.173 A 
ATOM     88  F   UNL A   1      46.206  29.128  33.966  1.00  0.00    -0.203 F 
ATOM     89  C   UNL A   1      46.919  27.567  35.579  1.00  0.00     0.198 A 
ATOM     90  C   UNL A   1      45.476  25.759  36.224  1.00  0.00     0.198 A 
ATOM     91  F   UNL A   1      43.359  25.530  35.224  1.00  0.00    -0.203 F 
ATOM     92  F   UNL A   1      48.093  28.204  35.677  1.00  0.00    -0.200 F 
ATOM     93  C   UNL A   1      46.680  26.435  36.346  1.00  0.00     0.200 A 
ATOM     94  F   UNL A   1      45.239  24.671  36.971  1.00  0.00    -0.200 F 
ATOM     95  F   UNL A   1      47.615  25.991  37.198  1.00  0.00    -0.200 F 
ENDBRANCH  62  85
ENDBRANCH  36  37
ENDBRANCH  29  31
ENDBRANCH  28  29
ENDBRANCH  27  28
ENDBRANCH   1  27
TORSDOF 16
ENDMDL
