MODEL 1
REMARK VINA RESULT:     -14.7      0.000      0.000
REMARK SMILES O=C(OCCOC(=O)c1ccc(-c2c3nc(c(-c4c(F)c(F)c(F)c(F)c4F)c4ccc([nH]4)c(-c4c(F)c(F)c(F)c(F)c4F)c4nc(c(-c5c(F)c(F)c(F)c(F)c5F)c5ccc2[nH]5)C=C4)C=C3)cc1)C1=Cc2cc(Cl)ccc2O[C@@H]1C(F)(F)F
REMARK SMILES IDX 5 1 4 2 3 3 2 4 1 5 72 6 73 7 82 8 74 9 81 10 75 11 80 12
REMARK SMILES IDX 76 13 79 14 77 15 78 16 83 17 84 18 85 19 86 20 6 21 7 22
REMARK SMILES IDX 8 23 9 24 10 25 71 26 11 27 70 28 12 29 13 30 14 31 64 32
REMARK SMILES IDX 15 33 69 34 63 35 65 36 16 37 68 38 62 39 61 40 17 42 49 43
REMARK SMILES IDX 29 44 48 45 30 46 33 47 47 48 66 49 31 50 32 51 46 53 67 54
REMARK SMILES IDX 34 55 18 56 19 57 27 58 20 59 21 60 25 61 28 62 22 63 23 64
REMARK SMILES IDX 26 65 24 66 50 67 51 68 59 69 52 70 53 71 57 72 60 73 54 74
REMARK SMILES IDX 55 75 58 76 56 77 35 78 36 79 44 80 37 81 38 82 42 83 45 84
REMARK SMILES IDX 39 85 40 86 43 87 41 88
REMARK H PARENT 65 41 33 52
REMARK Flexibility Score: inf
ROOT
ATOM      1  C   UNL A   1      31.781  32.773  26.855  1.00  0.00     0.275 C 
ENDROOT
BRANCH   1   2
ATOM      2  C   UNL A   1      32.179  30.660  26.679  1.00  0.00     0.275 C 
BRANCH   2   3
ATOM      3  O   UNL A   1      32.137  29.820  25.354  1.00  0.00    -0.459 OA
BRANCH   3   4
ATOM      4  C   UNL A   1      31.693  28.571  25.530  1.00  0.00     0.338 C 
ATOM      5  O   UNL A   1      31.502  27.934  26.534  1.00  0.00    -0.246 OA
BRANCH   4   6
ATOM      6  C   UNL A   1      31.891  28.178  24.160  1.00  0.00     0.087 C 
ATOM      7  C   UNL A   1      33.088  27.310  24.027  1.00  0.00     0.027 C 
ATOM      8  C   UNL A   1      30.070  27.617  23.823  1.00  0.00     0.316 C 
ATOM      9  C   UNL A   1      32.988  25.536  23.665  1.00  0.00     0.019 A 
ATOM     10  O   UNL A   1      29.950  25.734  23.469  1.00  0.00    -0.475 OA
ATOM     11  C   UNL A   1      34.120  24.778  23.779  1.00  0.00     0.032 A 
ATOM     12  C   UNL A   1      31.463  24.724  23.459  1.00  0.00     0.128 A 
ATOM     13  C   UNL A   1      33.904  23.391  23.710  1.00  0.00     0.041 A 
ATOM     14  C   UNL A   1      31.347  23.366  23.382  1.00  0.00     0.048 A 
ATOM     15  Cl  UNL A   1      35.304  22.383  23.921  1.00  0.00    -0.084 Cl
ATOM     16  C   UNL A   1      32.610  22.729  23.520  1.00  0.00     0.024 A 
BRANCH   8  17
ATOM     17  C   UNL A   1      29.529  28.861  23.046  1.00  0.00     0.430 C 
ATOM     18  F   UNL A   1      30.168  29.045  21.882  1.00  0.00    -0.167 F 
ATOM     19  F   UNL A   1      28.234  28.601  22.686  1.00  0.00    -0.167 F 
ATOM     20  F   UNL A   1      29.423  30.012  23.728  1.00  0.00    -0.167 F 
ENDBRANCH   8  17
ENDBRANCH   4   6
ENDBRANCH   3   4
ENDBRANCH   2   3
ENDBRANCH   1   2
BRANCH   1  21
ATOM     21  O   UNL A   1      32.527  33.856  27.937  1.00  0.00    -0.458 OA
BRANCH  21  22
ATOM     22  C   UNL A   1      33.692  34.526  28.194  1.00  0.00     0.338 C 
ATOM     23  O   UNL A   1      33.881  35.673  28.551  1.00  0.00    -0.246 OA
BRANCH  22  24
ATOM     24  C   UNL A   1      34.722  33.447  28.292  1.00  0.00     0.060 A 
ATOM     25  C   UNL A   1      36.064  33.768  28.031  1.00  0.00     0.016 A 
ATOM     26  C   UNL A   1      34.410  32.287  29.002  1.00  0.00     0.016 A 
ATOM     27  C   UNL A   1      37.088  33.060  28.686  1.00  0.00     0.010 A 
ATOM     28  C   UNL A   1      35.431  31.568  29.626  1.00  0.00     0.010 A 
ATOM     29  C   UNL A   1      36.769  31.991  29.536  1.00  0.00    -0.014 A 
BRANCH  29  30
ATOM     30  C   UNL A   1      37.823  31.146  30.157  1.00  0.00     0.031 A 
ATOM     31  C   UNL A   1      38.127  31.435  31.595  1.00  0.00     0.074 A 
ATOM     32  C   UNL A   1      38.558  30.242  29.477  1.00  0.00     0.049 A 
ATOM     33  N   UNL A   1      39.071  30.967  32.365  1.00  0.00    -0.248 NA
ATOM     34  C   UNL A   1      37.251  32.429  32.239  1.00  0.00     0.031 C 
ATOM     35  C   UNL A   1      38.379  29.865  28.076  1.00  0.00     0.029 A 
ATOM     36  N   UNL A   1      39.636  29.484  29.883  1.00  0.00    -0.354 N 
ATOM     37  C   UNL A   1      38.901  31.612  33.580  1.00  0.00     0.074 A 
ATOM     38  C   UNL A   1      37.808  32.545  33.429  1.00  0.00     0.031 C 
ATOM     39  C   UNL A   1      39.322  28.963  27.736  1.00  0.00     0.029 A 
ATOM     40  C   UNL A   1      40.188  28.709  28.888  1.00  0.00     0.049 A 
ATOM     41  H   UNL A   1      39.982  29.498  30.805  1.00  0.00     0.167 HD
ATOM     42  C   UNL A   1      39.581  31.435  34.735  1.00  0.00     0.037 A 
ATOM     43  C   UNL A   1      41.272  27.901  28.913  1.00  0.00     0.037 A 
ATOM     44  C   UNL A   1      40.689  30.540  34.882  1.00  0.00     0.049 A 
ATOM     45  C   UNL A   1      42.060  27.765  30.201  1.00  0.00     0.074 A 
ATOM     46  C   UNL A   1      41.454  30.292  36.004  1.00  0.00     0.029 A 
ATOM     47  N   UNL A   1      41.198  29.753  33.859  1.00  0.00    -0.354 N 
ATOM     48  N   UNL A   1      41.849  28.325  31.370  1.00  0.00    -0.248 NA
ATOM     49  C   UNL A   1      43.237  26.879  30.175  1.00  0.00     0.031 C 
ATOM     50  C   UNL A   1      42.457  29.382  35.650  1.00  0.00     0.029 A 
ATOM     51  C   UNL A   1      42.278  29.025  34.322  1.00  0.00     0.049 A 
ATOM     52  H   UNL A   1      40.843  29.718  32.941  1.00  0.00     0.167 HD
ATOM     53  C   UNL A   1      42.828  27.823  32.222  1.00  0.00     0.074 A 
ATOM     54  C   UNL A   1      43.635  26.913  31.440  1.00  0.00     0.031 C 
ATOM     55  C   UNL A   1      43.040  28.091  33.534  1.00  0.00     0.037 A 
BRANCH  42  56
ATOM     56  C   UNL A   1      39.129  32.260  35.899  1.00  0.00     0.064 A 
ATOM     57  C   UNL A   1      39.635  33.553  36.113  1.00  0.00     0.173 A 
ATOM     58  C   UNL A   1      38.254  31.727  36.854  1.00  0.00     0.173 A 
ATOM     59  F   UNL A   1      40.506  34.089  35.243  1.00  0.00    -0.203 F 
ATOM     60  C   UNL A   1      39.320  34.261  37.267  1.00  0.00     0.198 A 
ATOM     61  C   UNL A   1      37.913  32.453  37.990  1.00  0.00     0.198 A 
ATOM     62  F   UNL A   1      37.754  30.491  36.700  1.00  0.00    -0.203 F 
ATOM     63  F   UNL A   1      39.885  35.455  37.494  1.00  0.00    -0.200 F 
ATOM     64  C   UNL A   1      38.458  33.711  38.204  1.00  0.00     0.200 A 
ATOM     65  F   UNL A   1      37.079  31.922  38.896  1.00  0.00    -0.200 F 
ATOM     66  F   UNL A   1      38.168  34.386  39.324  1.00  0.00    -0.200 F 
ENDBRANCH  42  56
BRANCH  43  67
ATOM     67  C   UNL A   1      41.700  27.131  27.706  1.00  0.00     0.064 A 
ATOM     68  C   UNL A   1      41.251  25.817  27.495  1.00  0.00     0.173 A 
ATOM     69  C   UNL A   1      42.634  27.645  26.795  1.00  0.00     0.173 A 
ATOM     70  F   UNL A   1      40.389  25.259  28.358  1.00  0.00    -0.203 F 
ATOM     71  C   UNL A   1      41.743  25.040  26.446  1.00  0.00     0.198 A 
ATOM     72  C   UNL A   1      43.105  26.876  25.728  1.00  0.00     0.198 A 
ATOM     73  F   UNL A   1      43.113  28.888  26.953  1.00  0.00    -0.203 F 
ATOM     74  F   UNL A   1      41.350  23.765  26.317  1.00  0.00    -0.200 F 
ATOM     75  C   UNL A   1      42.668  25.570  25.562  1.00  0.00     0.200 A 
ATOM     76  F   UNL A   1      44.002  27.392  24.877  1.00  0.00    -0.200 F 
ATOM     77  F   UNL A   1      43.156  24.818  24.565  1.00  0.00    -0.200 F 
ENDBRANCH  43  67
BRANCH  55  78
ATOM     78  C   UNL A   1      44.136  27.345  34.238  1.00  0.00     0.064 A 
ATOM     79  C   UNL A   1      45.426  27.875  34.375  1.00  0.00     0.173 A 
ATOM     80  C   UNL A   1      43.856  26.124  34.875  1.00  0.00     0.173 A 
ATOM     81  F   UNL A   1      45.747  29.033  33.778  1.00  0.00    -0.203 F 
ATOM     82  C   UNL A   1      46.399  27.206  35.113  1.00  0.00     0.198 A 
ATOM     83  C   UNL A   1      44.822  25.475  35.638  1.00  0.00     0.198 A 
ATOM     84  F   UNL A   1      42.633  25.580  34.784  1.00  0.00    -0.203 F 
ATOM     85  F   UNL A   1      47.635  27.716  35.208  1.00  0.00    -0.200 F 
ATOM     86  C   UNL A   1      46.092  26.014  35.754  1.00  0.00     0.200 A 
ATOM     87  F   UNL A   1      44.516  24.335  36.273  1.00  0.00    -0.200 F 
ATOM     88  F   UNL A   1      47.024  25.386  36.486  1.00  0.00    -0.200 F 
ENDBRANCH  55  78
ENDBRANCH  29  30
ENDBRANCH  22  24
ENDBRANCH  21  22
ENDBRANCH   1  21
TORSDOF 12
ENDMDL
MODEL 2
REMARK VINA RESULT:     -14.4      0.761      1.432
REMARK SMILES O=C(OCCOC(=O)c1ccc(-c2c3nc(c(-c4c(F)c(F)c(F)c(F)c4F)c4ccc([nH]4)c(-c4c(F)c(F)c(F)c(F)c4F)c4nc(c(-c5c(F)c(F)c(F)c(F)c5F)c5ccc2[nH]5)C=C4)C=C3)cc1)C1=Cc2cc(Cl)ccc2O[C@@H]1C(F)(F)F
REMARK SMILES IDX 5 1 4 2 3 3 2 4 1 5 72 6 73 7 82 8 74 9 81 10 75 11 80 12
REMARK SMILES IDX 76 13 79 14 77 15 78 16 83 17 84 18 85 19 86 20 6 21 7 22
REMARK SMILES IDX 8 23 9 24 10 25 71 26 11 27 70 28 12 29 13 30 14 31 64 32
REMARK SMILES IDX 15 33 69 34 63 35 65 36 16 37 68 38 62 39 61 40 17 42 49 43
REMARK SMILES IDX 29 44 48 45 30 46 33 47 47 48 66 49 31 50 32 51 46 53 67 54
REMARK SMILES IDX 34 55 18 56 19 57 27 58 20 59 21 60 25 61 28 62 22 63 23 64
REMARK SMILES IDX 26 65 24 66 50 67 51 68 59 69 52 70 53 71 57 72 60 73 54 74
REMARK SMILES IDX 55 75 58 76 56 77 35 78 36 79 44 80 37 81 38 82 42 83 45 84
REMARK SMILES IDX 39 85 40 86 43 87 41 88
REMARK H PARENT 65 41 33 52
REMARK Flexibility Score: inf
ROOT
ATOM      1  C   UNL A   1      31.474  31.884  26.804  1.00  0.00     0.275 C 
ENDROOT
BRANCH   1   2
ATOM      2  C   UNL A   1      31.962  29.904  26.101  1.00  0.00     0.275 C 
BRANCH   2   3
ATOM      3  O   UNL A   1      31.968  28.594  26.965  1.00  0.00    -0.459 OA
BRANCH   3   4
ATOM      4  C   UNL A   1      31.425  27.542  26.342  1.00  0.00     0.338 C 
ATOM      5  O   UNL A   1      30.653  26.705  26.733  1.00  0.00    -0.246 OA
BRANCH   4   6
ATOM      6  C   UNL A   1      32.346  27.567  25.237  1.00  0.00     0.087 C 
ATOM      7  C   UNL A   1      33.595  26.841  25.575  1.00  0.00     0.027 C 
ATOM      8  C   UNL A   1      31.079  27.024  23.879  1.00  0.00     0.316 C 
ATOM      9  C   UNL A   1      34.038  25.240  24.846  1.00  0.00     0.019 A 
ATOM     10  O   UNL A   1      31.522  25.315  23.122  1.00  0.00    -0.475 OA
ATOM     11  C   UNL A   1      35.090  24.546  25.376  1.00  0.00     0.032 A 
ATOM     12  C   UNL A   1      33.007  24.436  23.698  1.00  0.00     0.128 A 
ATOM     13  C   UNL A   1      35.213  23.227  24.909  1.00  0.00     0.041 A 
ATOM     14  C   UNL A   1      33.213  23.152  23.284  1.00  0.00     0.048 A 
ATOM     15  Cl  UNL A   1      36.493  22.280  25.607  1.00  0.00    -0.084 Cl
ATOM     16  C   UNL A   1      34.341  22.574  23.929  1.00  0.00     0.024 A 
BRANCH   8  17
ATOM     17  C   UNL A   1      30.760  28.405  23.219  1.00  0.00     0.430 C 
ATOM     18  F   UNL A   1      31.873  29.063  22.866  1.00  0.00    -0.167 F 
ATOM     19  F   UNL A   1      30.115  28.167  22.036  1.00  0.00    -0.167 F 
ATOM     20  F   UNL A   1      29.905  29.211  23.868  1.00  0.00    -0.167 F 
ENDBRANCH   8  17
ENDBRANCH   4   6
ENDBRANCH   3   4
ENDBRANCH   2   3
ENDBRANCH   1   2
BRANCH   1  21
ATOM     21  O   UNL A   1      32.567  33.165  27.059  1.00  0.00    -0.458 OA
BRANCH  21  22
ATOM     22  C   UNL A   1      33.351  33.771  28.002  1.00  0.00     0.338 C 
ATOM     23  O   UNL A   1      33.083  34.637  28.812  1.00  0.00    -0.246 OA
BRANCH  22  24
ATOM     24  C   UNL A   1      34.561  32.898  28.090  1.00  0.00     0.060 A 
ATOM     25  C   UNL A   1      35.826  33.502  28.175  1.00  0.00     0.016 A 
ATOM     26  C   UNL A   1      34.398  31.567  28.479  1.00  0.00     0.016 A 
ATOM     27  C   UNL A   1      36.861  32.852  28.869  1.00  0.00     0.010 A 
ATOM     28  C   UNL A   1      35.438  30.913  29.141  1.00  0.00     0.010 A 
ATOM     29  C   UNL A   1      36.650  31.574  29.409  1.00  0.00    -0.014 A 
BRANCH  29  30
ATOM     30  C   UNL A   1      37.750  30.806  30.050  1.00  0.00     0.031 A 
ATOM     31  C   UNL A   1      38.037  31.150  31.480  1.00  0.00     0.074 A 
ATOM     32  C   UNL A   1      38.534  29.927  29.393  1.00  0.00     0.049 A 
ATOM     33  N   UNL A   1      39.006  30.756  32.261  1.00  0.00    -0.248 NA
ATOM     34  C   UNL A   1      37.107  32.110  32.098  1.00  0.00     0.031 C 
ATOM     35  C   UNL A   1      38.376  29.503  28.003  1.00  0.00     0.029 A 
ATOM     36  N   UNL A   1      39.653  29.241  29.818  1.00  0.00    -0.354 N 
ATOM     37  C   UNL A   1      38.800  31.423  33.458  1.00  0.00     0.074 A 
ATOM     38  C   UNL A   1      37.657  32.289  33.284  1.00  0.00     0.031 C 
ATOM     39  C   UNL A   1      39.368  28.646  27.686  1.00  0.00     0.029 A 
ATOM     40  C   UNL A   1      40.248  28.472  28.842  1.00  0.00     0.049 A 
ATOM     41  H   UNL A   1      39.998  29.299  30.738  1.00  0.00     0.167 HD
ATOM     42  C   UNL A   1      39.489  31.314  34.616  1.00  0.00     0.037 A 
ATOM     43  C   UNL A   1      41.374  27.727  28.887  1.00  0.00     0.037 A 
ATOM     44  C   UNL A   1      40.646  30.487  34.786  1.00  0.00     0.049 A 
ATOM     45  C   UNL A   1      42.170  27.670  30.177  1.00  0.00     0.074 A 
ATOM     46  C   UNL A   1      41.424  30.312  35.912  1.00  0.00     0.029 A 
ATOM     47  N   UNL A   1      41.197  29.703  33.782  1.00  0.00    -0.354 N 
ATOM     48  N   UNL A   1      41.927  28.248  31.331  1.00  0.00    -0.248 NA
ATOM     49  C   UNL A   1      43.394  26.851  30.173  1.00  0.00     0.031 C 
ATOM     50  C   UNL A   1      42.475  29.451  35.580  1.00  0.00     0.029 A 
ATOM     51  C   UNL A   1      42.317  29.049  34.263  1.00  0.00     0.049 A 
ATOM     52  H   UNL A   1      40.845  29.624  32.866  1.00  0.00     0.167 HD
ATOM     53  C   UNL A   1      42.933  27.825  32.194  1.00  0.00     0.074 A 
ATOM     54  C   UNL A   1      43.790  26.940  31.435  1.00  0.00     0.031 C 
ATOM     55  C   UNL A   1      43.130  28.138  33.498  1.00  0.00     0.037 A 
BRANCH  42  56
ATOM     56  C   UNL A   1      38.992  32.143  35.759  1.00  0.00     0.064 A 
ATOM     57  C   UNL A   1      39.396  33.480  35.916  1.00  0.00     0.173 A 
ATOM     58  C   UNL A   1      38.180  31.578  36.750  1.00  0.00     0.173 A 
ATOM     59  F   UNL A   1      40.205  34.051  35.010  1.00  0.00    -0.203 F 
ATOM     60  C   UNL A   1      39.044  34.203  37.050  1.00  0.00     0.198 A 
ATOM     61  C   UNL A   1      37.800  32.316  37.866  1.00  0.00     0.198 A 
ATOM     62  F   UNL A   1      37.778  30.301  36.650  1.00  0.00    -0.203 F 
ATOM     63  F   UNL A   1      39.514  35.446  37.222  1.00  0.00    -0.200 F 
ATOM     64  C   UNL A   1      38.245  33.621  38.023  1.00  0.00     0.200 A 
ATOM     65  F   UNL A   1      37.027  31.755  38.807  1.00  0.00    -0.200 F 
ATOM     66  F   UNL A   1      37.921  34.312  39.124  1.00  0.00    -0.200 F 
ENDBRANCH  42  56
BRANCH  43  67
ATOM     67  C   UNL A   1      41.845  26.951  27.701  1.00  0.00     0.064 A 
ATOM     68  C   UNL A   1      41.399  25.637  27.478  1.00  0.00     0.173 A 
ATOM     69  C   UNL A   1      42.814  27.457  26.823  1.00  0.00     0.173 A 
ATOM     70  F   UNL A   1      40.503  25.086  28.311  1.00  0.00    -0.203 F 
ATOM     71  C   UNL A   1      41.927  24.854  26.452  1.00  0.00     0.198 A 
ATOM     72  C   UNL A   1      43.322  26.683  25.778  1.00  0.00     0.198 A 
ATOM     73  F   UNL A   1      43.292  28.699  26.993  1.00  0.00    -0.203 F 
ATOM     74  F   UNL A   1      41.535  23.579  26.313  1.00  0.00    -0.200 F 
ATOM     75  C   UNL A   1      42.887  25.377  25.601  1.00  0.00     0.200 A 
ATOM     76  F   UNL A   1      44.253  27.191  24.959  1.00  0.00    -0.200 F 
ATOM     77  F   UNL A   1      43.409  24.619  24.626  1.00  0.00    -0.200 F 
ENDBRANCH  43  67
BRANCH  55  78
ATOM     78  C   UNL A   1      44.266  27.474  34.221  1.00  0.00     0.064 A 
ATOM     79  C   UNL A   1      44.130  26.216  34.822  1.00  0.00     0.173 A 
ATOM     80  C   UNL A   1      45.540  28.067  34.218  1.00  0.00     0.173 A 
ATOM     81  F   UNL A   1      42.933  25.611  34.859  1.00  0.00    -0.203 F 
ATOM     82  C   UNL A   1      45.223  25.579  35.404  1.00  0.00     0.198 A 
ATOM     83  C   UNL A   1      46.636  27.414  34.773  1.00  0.00     0.198 A 
ATOM     84  F   UNL A   1      45.726  29.266  33.646  1.00  0.00    -0.203 F 
ATOM     85  F   UNL A   1      45.065  24.389  36.000  1.00  0.00    -0.200 F 
ATOM     86  C   UNL A   1      46.477  26.173  35.368  1.00  0.00     0.200 A 
ATOM     87  F   UNL A   1      47.850  27.980  34.718  1.00  0.00    -0.200 F 
ATOM     88  F   UNL A   1      47.532  25.546  35.906  1.00  0.00    -0.200 F 
ENDBRANCH  55  78
ENDBRANCH  29  30
ENDBRANCH  22  24
ENDBRANCH  21  22
ENDBRANCH   1  21
TORSDOF 12
ENDMDL
MODEL 3
REMARK VINA RESULT:     -14.4      1.380      7.556
REMARK SMILES O=C(OCCOC(=O)c1ccc(-c2c3nc(c(-c4c(F)c(F)c(F)c(F)c4F)c4ccc([nH]4)c(-c4c(F)c(F)c(F)c(F)c4F)c4nc(c(-c5c(F)c(F)c(F)c(F)c5F)c5ccc2[nH]5)C=C4)C=C3)cc1)C1=Cc2cc(Cl)ccc2O[C@@H]1C(F)(F)F
REMARK SMILES IDX 5 1 4 2 3 3 2 4 1 5 72 6 73 7 82 8 74 9 81 10 75 11 80 12
REMARK SMILES IDX 76 13 79 14 77 15 78 16 83 17 84 18 85 19 86 20 6 21 7 22
REMARK SMILES IDX 8 23 9 24 10 25 71 26 11 27 70 28 12 29 13 30 14 31 64 32
REMARK SMILES IDX 15 33 69 34 63 35 65 36 16 37 68 38 62 39 61 40 17 42 49 43
REMARK SMILES IDX 29 44 48 45 30 46 33 47 47 48 66 49 31 50 32 51 46 53 67 54
REMARK SMILES IDX 34 55 18 56 19 57 27 58 20 59 21 60 25 61 28 62 22 63 23 64
REMARK SMILES IDX 26 65 24 66 50 67 51 68 59 69 52 70 53 71 57 72 60 73 54 74
REMARK SMILES IDX 55 75 58 76 56 77 35 78 36 79 44 80 37 81 38 82 42 83 45 84
REMARK SMILES IDX 39 85 40 86 43 87 41 88
REMARK H PARENT 65 41 33 52
REMARK Flexibility Score: inf
ROOT
ATOM      1  C   UNL A   1      31.715  32.126  26.844  1.00  0.00     0.275 C 
ENDROOT
BRANCH   1   2
ATOM      2  C   UNL A   1      32.869  30.359  26.396  1.00  0.00     0.275 C 
BRANCH   2   3
ATOM      3  O   UNL A   1      32.928  29.052  27.262  1.00  0.00    -0.459 OA
BRANCH   3   4
ATOM      4  C   UNL A   1      31.933  28.196  27.005  1.00  0.00     0.338 C 
ATOM      5  O   UNL A   1      31.058  27.767  27.712  1.00  0.00    -0.246 OA
BRANCH   4   6
ATOM      6  C   UNL A   1      32.498  27.722  25.769  1.00  0.00     0.087 C 
ATOM      7  C   UNL A   1      33.521  26.677  26.024  1.00  0.00     0.027 C 
ATOM      8  C   UNL A   1      30.819  27.431  24.853  1.00  0.00     0.316 C 
ATOM      9  C   UNL A   1      33.266  24.925  25.631  1.00  0.00     0.019 A 
ATOM     10  O   UNL A   1      30.524  25.574  24.460  1.00  0.00    -0.475 OA
ATOM     11  C   UNL A   1      34.167  24.009  26.098  1.00  0.00     0.032 A 
ATOM     12  C   UNL A   1      31.781  24.346  24.931  1.00  0.00     0.128 A 
ATOM     13  C   UNL A   1      33.769  22.670  25.948  1.00  0.00     0.041 A 
ATOM     14  C   UNL A   1      31.485  23.020  24.807  1.00  0.00     0.048 A 
ATOM     15  Cl  UNL A   1      34.849  21.470  26.592  1.00  0.00    -0.084 Cl
ATOM     16  C   UNL A   1      32.519  22.205  25.341  1.00  0.00     0.024 A 
BRANCH   8  17
ATOM     17  C   UNL A   1      30.760  28.709  23.955  1.00  0.00     0.430 C 
ATOM     18  F   UNL A   1      31.890  28.886  23.257  1.00  0.00    -0.167 F 
ATOM     19  F   UNL A   1      29.798  28.510  23.003  1.00  0.00    -0.167 F 
ATOM     20  F   UNL A   1      30.368  29.852  24.541  1.00  0.00    -0.167 F 
ENDBRANCH   8  17
ENDBRANCH   4   6
ENDBRANCH   3   4
ENDBRANCH   2   3
ENDBRANCH   1   2
BRANCH   1  21
ATOM     21  O   UNL A   1      32.331  33.657  27.263  1.00  0.00    -0.458 OA
BRANCH  21  22
ATOM     22  C   UNL A   1      32.942  34.360  28.265  1.00  0.00     0.338 C 
ATOM     23  O   UNL A   1      32.504  35.215  29.009  1.00  0.00    -0.246 OA
BRANCH  22  24
ATOM     24  C   UNL A   1      34.212  33.612  28.517  1.00  0.00     0.060 A 
ATOM     25  C   UNL A   1      35.436  34.265  28.297  1.00  0.00     0.016 A 
ATOM     26  C   UNL A   1      34.166  32.469  29.316  1.00  0.00     0.016 A 
ATOM     27  C   UNL A   1      36.558  33.914  29.067  1.00  0.00     0.010 A 
ATOM     28  C   UNL A   1      35.292  32.105  30.058  1.00  0.00     0.010 A 
ATOM     29  C   UNL A   1      36.472  32.867  29.998  1.00  0.00    -0.014 A 
BRANCH  29  30
ATOM     30  C   UNL A   1      37.663  32.391  30.749  1.00  0.00     0.031 A 
ATOM     31  C   UNL A   1      38.437  31.280  30.107  1.00  0.00     0.074 A 
ATOM     32  C   UNL A   1      37.999  32.828  31.980  1.00  0.00     0.049 A 
ATOM     33  N   UNL A   1      39.431  30.572  30.570  1.00  0.00    -0.248 NA
ATOM     34  C   UNL A   1      37.990  30.897  28.757  1.00  0.00     0.031 C 
ATOM     35  C   UNL A   1      37.333  33.895  32.727  1.00  0.00     0.029 A 
ATOM     36  N   UNL A   1      38.988  32.398  32.839  1.00  0.00    -0.354 N 
ATOM     37  C   UNL A   1      39.723  29.659  29.568  1.00  0.00     0.074 A 
ATOM     38  C   UNL A   1      38.768  29.861  28.503  1.00  0.00     0.031 C 
ATOM     39  C   UNL A   1      37.921  34.024  33.933  1.00  0.00     0.029 A 
ATOM     40  C   UNL A   1      38.994  33.037  34.059  1.00  0.00     0.049 A 
ATOM     41  H   UNL A   1      39.634  31.694  32.601  1.00  0.00     0.167 HD
ATOM     42  C   UNL A   1      40.713  28.741  29.523  1.00  0.00     0.037 A 
ATOM     43  C   UNL A   1      39.772  32.833  35.145  1.00  0.00     0.037 A 
ATOM     44  C   UNL A   1      41.639  28.508  30.590  1.00  0.00     0.049 A 
ATOM     45  C   UNL A   1      40.835  31.752  35.098  1.00  0.00     0.074 A 
ATOM     46  C   UNL A   1      42.673  27.596  30.652  1.00  0.00     0.029 A 
ATOM     47  N   UNL A   1      41.628  29.196  31.796  1.00  0.00    -0.354 N 
ATOM     48  N   UNL A   1      41.154  30.941  34.117  1.00  0.00    -0.248 NA
ATOM     49  C   UNL A   1      41.652  31.564  36.309  1.00  0.00     0.031 C 
ATOM     50  C   UNL A   1      43.266  27.701  31.915  1.00  0.00     0.029 A 
ATOM     51  C   UNL A   1      42.634  28.716  32.615  1.00  0.00     0.049 A 
ATOM     52  H   UNL A   1      41.000  29.915  32.032  1.00  0.00     0.167 HD
ATOM     53  C   UNL A   1      42.231  30.187  34.574  1.00  0.00     0.074 A 
ATOM     54  C   UNL A   1      42.516  30.637  35.919  1.00  0.00     0.031 C 
ATOM     55  C   UNL A   1      42.925  29.211  33.937  1.00  0.00     0.037 A 
BRANCH  42  56
ATOM     56  C   UNL A   1      40.796  27.922  28.273  1.00  0.00     0.064 A 
ATOM     57  C   UNL A   1      40.166  26.669  28.181  1.00  0.00     0.173 A 
ATOM     58  C   UNL A   1      41.579  28.348  27.193  1.00  0.00     0.173 A 
ATOM     59  F   UNL A   1      39.437  26.204  29.208  1.00  0.00    -0.203 F 
ATOM     60  C   UNL A   1      40.360  25.853  27.073  1.00  0.00     0.198 A 
ATOM     61  C   UNL A   1      41.741  27.543  26.070  1.00  0.00     0.198 A 
ATOM     62  F   UNL A   1      42.210  29.532  27.238  1.00  0.00    -0.203 F 
ATOM     63  F   UNL A   1      39.823  24.625  27.046  1.00  0.00    -0.200 F 
ATOM     64  C   UNL A   1      41.146  26.291  26.018  1.00  0.00     0.200 A 
ATOM     65  F   UNL A   1      42.500  27.966  25.049  1.00  0.00    -0.200 F 
ATOM     66  F   UNL A   1      41.346  25.496  24.958  1.00  0.00    -0.200 F 
ENDBRANCH  42  56
BRANCH  43  67
ATOM     67  C   UNL A   1      39.617  33.655  36.383  1.00  0.00     0.064 A 
ATOM     68  C   UNL A   1      38.779  33.230  37.428  1.00  0.00     0.173 A 
ATOM     69  C   UNL A   1      40.215  34.917  36.512  1.00  0.00     0.173 A 
ATOM     70  F   UNL A   1      38.148  32.050  37.340  1.00  0.00    -0.203 F 
ATOM     71  C   UNL A   1      38.521  34.045  38.530  1.00  0.00     0.198 A 
ATOM     72  C   UNL A   1      39.978  35.721  37.629  1.00  0.00     0.198 A 
ATOM     73  F   UNL A   1      41.011  35.386  35.540  1.00  0.00    -0.203 F 
ATOM     74  F   UNL A   1      37.658  33.641  39.473  1.00  0.00    -0.200 F 
ATOM     75  C   UNL A   1      39.121  35.290  38.631  1.00  0.00     0.200 A 
ATOM     76  F   UNL A   1      40.558  36.926  37.722  1.00  0.00    -0.200 F 
ATOM     77  F   UNL A   1      38.858  36.082  39.681  1.00  0.00    -0.200 F 
ENDBRANCH  43  67
BRANCH  55  78
ATOM     78  C   UNL A   1      44.104  28.607  34.643  1.00  0.00     0.064 A 
ATOM     79  C   UNL A   1      45.376  29.193  34.599  1.00  0.00     0.173 A 
ATOM     80  C   UNL A   1      43.927  27.478  35.460  1.00  0.00     0.173 A 
ATOM     81  F   UNL A   1      45.599  30.266  33.826  1.00  0.00    -0.203 F 
ATOM     82  C   UNL A   1      46.431  28.665  35.338  1.00  0.00     0.198 A 
ATOM     83  C   UNL A   1      44.977  26.973  36.222  1.00  0.00     0.198 A 
ATOM     84  F   UNL A   1      42.726  26.887  35.546  1.00  0.00    -0.203 F 
ATOM     85  F   UNL A   1      47.648  29.223  35.259  1.00  0.00    -0.200 F 
ATOM     86  C   UNL A   1      46.227  27.564  36.158  1.00  0.00     0.200 A 
ATOM     87  F   UNL A   1      44.772  25.923  37.029  1.00  0.00    -0.200 F 
ATOM     88  F   UNL A   1      47.240  27.075  36.889  1.00  0.00    -0.200 F 
ENDBRANCH  55  78
ENDBRANCH  29  30
ENDBRANCH  22  24
ENDBRANCH  21  22
ENDBRANCH   1  21
TORSDOF 12
ENDMDL
