MODEL 1
REMARK VINA RESULT:     -11.9      0.000      0.000
REMARK SMILES CC[C@@H](C(=O)OCCOC(=O)c1ccc(-c2c3nc(c(-c4c(F)c(F)c(F)c(F)c4F)c4ccc([nH]4)c(-c4c(F)c(F)c(F)c(F)c4F)c4nc(c(-c5c(F)c(F)c(F)c(F)c5F)c5ccc2[nH]5)C=C4)C=C3)cc1)N1CCN(Cc2cccc(C)c2)C(=O)C1=O
REMARK SMILES IDX 7 1 6 2 4 3 5 4 3 5 2 6 1 7 75 8 76 9 89 10 77 11 87 12
REMARK SMILES IDX 90 13 78 14 88 15 79 16 80 17 81 18 86 19 82 20 84 21 83 22
REMARK SMILES IDX 85 23 8 24 9 25 10 26 11 27 12 28 13 29 74 30 14 31 73 32
REMARK SMILES IDX 15 33 16 34 17 35 67 36 18 37 72 38 66 39 68 40 19 41 71 42
REMARK SMILES IDX 65 43 64 44 20 46 52 47 32 48 51 49 33 50 36 51 50 52 69 53
REMARK SMILES IDX 34 54 35 55 49 57 70 58 37 59 21 60 22 61 30 62 23 63 24 64
REMARK SMILES IDX 28 65 31 66 25 67 26 68 29 69 27 70 53 71 54 72 62 73 55 74
REMARK SMILES IDX 56 75 60 76 63 77 57 78 58 79 61 80 59 81 38 82 39 83 47 84
REMARK SMILES IDX 40 85 41 86 45 87 48 88 42 89 43 90 46 91 44 92
REMARK H PARENT 68 45 36 56
REMARK Flexibility Score: inf
ROOT
ATOM      1  C   UNL A   1      31.444  29.723  25.006  1.00  0.00     0.274 C 
ENDROOT
BRANCH   1   2
ATOM      2  O   UNL A   1      31.764  28.327  25.178  1.00  0.00    -0.461 OA
BRANCH   2   3
ATOM      3  C   UNL A   1      32.285  27.675  24.104  1.00  0.00     0.328 C 
ATOM      4  O   UNL A   1      33.150  28.165  23.388  1.00  0.00    -0.250 OA
BRANCH   3   5
ATOM      5  C   UNL A   1      31.602  26.297  23.842  1.00  0.00     0.195 C 
BRANCH   5   6
ATOM      6  C   UNL A   1      30.249  26.107  24.566  1.00  0.00     0.034 C 
ATOM      7  C   UNL A   1      29.007  26.600  23.838  1.00  0.00     0.007 C 
ENDBRANCH   5   6
BRANCH   5   8
ATOM      8  N   UNL A   1      32.563  25.183  24.159  1.00  0.00    -0.319 N 
ATOM      9  C   UNL A   1      32.869  24.779  25.529  1.00  0.00     0.142 C 
ATOM     10  C   UNL A   1      33.266  24.578  23.102  1.00  0.00     0.312 C 
ATOM     11  C   UNL A   1      33.355  23.334  25.590  1.00  0.00     0.142 C 
ATOM     12  C   UNL A   1      34.521  23.714  23.483  1.00  0.00     0.312 C 
ATOM     13  O   UNL A   1      32.942  24.700  21.927  1.00  0.00    -0.263 OA
ATOM     14  N   UNL A   1      34.527  23.137  24.760  1.00  0.00    -0.328 N 
ATOM     15  O   UNL A   1      35.431  23.572  22.673  1.00  0.00    -0.263 OA
BRANCH  14  16
ATOM     16  C   UNL A   1      35.474  22.048  25.040  1.00  0.00     0.155 C 
BRANCH  16  17
ATOM     17  C   UNL A   1      36.819  22.470  25.593  1.00  0.00    -0.028 A 
ATOM     18  C   UNL A   1      37.017  23.770  26.077  1.00  0.00     0.005 A 
ATOM     19  C   UNL A   1      37.911  21.584  25.601  1.00  0.00     0.009 A 
ATOM     20  C   UNL A   1      38.265  24.160  26.570  1.00  0.00     0.001 A 
ATOM     21  C   UNL A   1      39.138  21.939  26.177  1.00  0.00    -0.051 A 
ATOM     22  C   UNL A   1      39.314  23.245  26.638  1.00  0.00     0.003 A 
ATOM     23  C   UNL A   1      40.253  20.940  26.277  1.00  0.00     0.044 C 
ENDBRANCH  16  17
ENDBRANCH  14  16
ENDBRANCH   5   8
ENDBRANCH   3   5
ENDBRANCH   2   3
ENDBRANCH   1   2
BRANCH   1  24
ATOM     24  C   UNL A   1      31.764  30.539  26.261  1.00  0.00     0.275 C 
BRANCH  24  25
ATOM     25  O   UNL A   1      33.168  30.498  26.582  1.00  0.00    -0.458 OA
BRANCH  25  26
ATOM     26  C   UNL A   1      33.630  31.552  27.284  1.00  0.00     0.338 C 
ATOM     27  O   UNL A   1      33.033  32.582  27.567  1.00  0.00    -0.246 OA
BRANCH  26  28
ATOM     28  C   UNL A   1      34.959  31.246  27.825  1.00  0.00     0.060 A 
ATOM     29  C   UNL A   1      35.175  29.950  28.288  1.00  0.00     0.016 A 
ATOM     30  C   UNL A   1      35.933  32.226  27.998  1.00  0.00     0.016 A 
ATOM     31  C   UNL A   1      36.326  29.627  28.987  1.00  0.00     0.010 A 
ATOM     32  C   UNL A   1      37.120  31.890  28.661  1.00  0.00     0.010 A 
ATOM     33  C   UNL A   1      37.311  30.595  29.181  1.00  0.00    -0.014 A 
BRANCH  33  34
ATOM     34  C   UNL A   1      38.505  30.265  29.991  1.00  0.00     0.031 A 
ATOM     35  C   UNL A   1      39.571  29.389  29.404  1.00  0.00     0.074 A 
ATOM     36  C   UNL A   1      38.670  30.798  31.217  1.00  0.00     0.049 A 
ATOM     37  N   UNL A   1      40.584  28.807  29.991  1.00  0.00    -0.248 NA
ATOM     38  C   UNL A   1      39.490  29.143  27.955  1.00  0.00     0.031 C 
ATOM     39  C   UNL A   1      37.775  31.769  31.847  1.00  0.00     0.029 A 
ATOM     40  N   UNL A   1      39.655  30.597  32.149  1.00  0.00    -0.354 N 
ATOM     41  C   UNL A   1      41.236  28.094  28.994  1.00  0.00     0.074 A 
ATOM     42  C   UNL A   1      40.510  28.319  27.763  1.00  0.00     0.031 C 
ATOM     43  C   UNL A   1      38.252  32.080  33.062  1.00  0.00     0.029 A 
ATOM     44  C   UNL A   1      39.436  31.270  33.326  1.00  0.00     0.049 A 
ATOM     45  H   UNL A   1      40.442  30.027  31.992  1.00  0.00     0.167 HD
ATOM     46  C   UNL A   1      42.343  27.323  29.107  1.00  0.00     0.037 A 
ATOM     47  C   UNL A   1      40.085  31.195  34.503  1.00  0.00     0.037 A 
ATOM     48  C   UNL A   1      43.076  27.143  30.330  1.00  0.00     0.049 A 
ATOM     49  C   UNL A   1      41.247  30.249  34.633  1.00  0.00     0.074 A 
ATOM     50  C   UNL A   1      44.176  26.337  30.571  1.00  0.00     0.029 A 
ATOM     51  N   UNL A   1      42.791  27.798  31.519  1.00  0.00    -0.354 N 
ATOM     52  N   UNL A   1      41.795  29.482  33.721  1.00  0.00    -0.248 NA
ATOM     53  C   UNL A   1      41.866  30.140  35.960  1.00  0.00     0.031 C 
ATOM     54  C   UNL A   1      44.542  26.489  31.912  1.00  0.00     0.029 A 
ATOM     55  C   UNL A   1      43.695  27.417  32.497  1.00  0.00     0.049 A 
ATOM     56  H   UNL A   1      42.055  28.438  31.650  1.00  0.00     0.167 HD
ATOM     57  C   UNL A   1      42.838  28.821  34.356  1.00  0.00     0.074 A 
ATOM     58  C   UNL A   1      42.850  29.282  35.729  1.00  0.00     0.031 C 
ATOM     59  C   UNL A   1      43.704  27.912  33.849  1.00  0.00     0.037 A 
BRANCH  46  60
ATOM     60  C   UNL A   1      42.796  26.583  27.886  1.00  0.00     0.064 A 
ATOM     61  C   UNL A   1      42.406  25.261  27.634  1.00  0.00     0.173 A 
ATOM     62  C   UNL A   1      43.614  27.220  26.941  1.00  0.00     0.173 A 
ATOM     63  F   UNL A   1      41.638  24.604  28.515  1.00  0.00    -0.203 F 
ATOM     64  C   UNL A   1      42.833  24.597  26.487  1.00  0.00     0.198 A 
ATOM     65  C   UNL A   1      44.020  26.562  25.784  1.00  0.00     0.198 A 
ATOM     66  F   UNL A   1      44.014  28.487  27.137  1.00  0.00    -0.203 F 
ATOM     67  F   UNL A   1      42.480  23.321  26.284  1.00  0.00    -0.200 F 
ATOM     68  C   UNL A   1      43.634  25.250  25.560  1.00  0.00     0.200 A 
ATOM     69  F   UNL A   1      44.787  27.197  24.887  1.00  0.00    -0.200 F 
ATOM     70  F   UNL A   1      44.039  24.609  24.455  1.00  0.00    -0.200 F 
ENDBRANCH  46  60
BRANCH  47  71
ATOM     71  C   UNL A   1      39.615  31.992  35.666  1.00  0.00     0.064 A 
ATOM     72  C   UNL A   1      38.610  31.509  36.513  1.00  0.00     0.173 A 
ATOM     73  C   UNL A   1      40.143  33.264  35.938  1.00  0.00     0.173 A 
ATOM     74  F   UNL A   1      38.051  30.314  36.274  1.00  0.00    -0.203 F 
ATOM     75  C   UNL A   1      38.140  32.273  37.580  1.00  0.00     0.198 A 
ATOM     76  C   UNL A   1      39.694  34.014  37.022  1.00  0.00     0.198 A 
ATOM     77  F   UNL A   1      41.100  33.777  35.150  1.00  0.00    -0.203 F 
ATOM     78  F   UNL A   1      37.142  31.809  38.345  1.00  0.00    -0.200 F 
ATOM     79  C   UNL A   1      38.688  33.521  37.838  1.00  0.00     0.200 A 
ATOM     80  F   UNL A   1      40.228  35.218  37.268  1.00  0.00    -0.200 F 
ATOM     81  F   UNL A   1      38.232  34.256  38.861  1.00  0.00    -0.200 F 
ENDBRANCH  47  71
BRANCH  59  82
ATOM     82  C   UNL A   1      44.775  27.403  34.763  1.00  0.00     0.064 A 
ATOM     83  C   UNL A   1      45.994  28.078  34.915  1.00  0.00     0.173 A 
ATOM     84  C   UNL A   1      44.555  26.250  35.533  1.00  0.00     0.173 A 
ATOM     85  F   UNL A   1      46.253  29.174  34.188  1.00  0.00    -0.203 F 
ATOM     86  C   UNL A   1      46.962  27.608  35.798  1.00  0.00     0.198 A 
ATOM     87  C   UNL A   1      45.516  25.797  36.429  1.00  0.00     0.198 A 
ATOM     88  F   UNL A   1      43.401  25.576  35.424  1.00  0.00    -0.203 F 
ATOM     89  F   UNL A   1      48.134  28.249  35.907  1.00  0.00    -0.200 F 
ATOM     90  C   UNL A   1      46.720  26.473  36.559  1.00  0.00     0.200 A 
ATOM     91  F   UNL A   1      45.277  24.707  37.172  1.00  0.00    -0.200 F 
ATOM     92  F   UNL A   1      47.650  26.029  37.415  1.00  0.00    -0.200 F 
ENDBRANCH  59  82
ENDBRANCH  33  34
ENDBRANCH  26  28
ENDBRANCH  25  26
ENDBRANCH  24  25
ENDBRANCH   1  24
TORSDOF 15
ENDMDL
MODEL 2
REMARK VINA RESULT:     -11.7      4.046      9.813
REMARK SMILES CC[C@@H](C(=O)OCCOC(=O)c1ccc(-c2c3nc(c(-c4c(F)c(F)c(F)c(F)c4F)c4ccc([nH]4)c(-c4c(F)c(F)c(F)c(F)c4F)c4nc(c(-c5c(F)c(F)c(F)c(F)c5F)c5ccc2[nH]5)C=C4)C=C3)cc1)N1CCN(Cc2cccc(C)c2)C(=O)C1=O
REMARK SMILES IDX 7 1 6 2 4 3 5 4 3 5 2 6 1 7 75 8 76 9 89 10 77 11 87 12
REMARK SMILES IDX 90 13 78 14 88 15 79 16 80 17 81 18 86 19 82 20 84 21 83 22
REMARK SMILES IDX 85 23 8 24 9 25 10 26 11 27 12 28 13 29 74 30 14 31 73 32
REMARK SMILES IDX 15 33 16 34 17 35 67 36 18 37 72 38 66 39 68 40 19 41 71 42
REMARK SMILES IDX 65 43 64 44 20 46 52 47 32 48 51 49 33 50 36 51 50 52 69 53
REMARK SMILES IDX 34 54 35 55 49 57 70 58 37 59 21 60 22 61 30 62 23 63 24 64
REMARK SMILES IDX 28 65 31 66 25 67 26 68 29 69 27 70 53 71 54 72 62 73 55 74
REMARK SMILES IDX 56 75 60 76 63 77 57 78 58 79 61 80 59 81 38 82 39 83 47 84
REMARK SMILES IDX 40 85 41 86 45 87 48 88 42 89 43 90 46 91 44 92
REMARK H PARENT 68 45 36 56
REMARK Flexibility Score: inf
ROOT
ATOM      1  C   UNL A   1      35.194  20.999  25.760  1.00  0.00     0.274 C 
ENDROOT
BRANCH   1   2
ATOM      2  O   UNL A   1      34.708  22.357  25.808  1.00  0.00    -0.461 OA
BRANCH   2   3
ATOM      3  C   UNL A   1      33.406  22.537  26.156  1.00  0.00     0.328 C 
ATOM      4  O   UNL A   1      32.958  22.195  27.245  1.00  0.00    -0.250 OA
BRANCH   3   5
ATOM      5  C   UNL A   1      32.545  23.130  24.998  1.00  0.00     0.195 C 
BRANCH   5   6
ATOM      6  C   UNL A   1      33.005  22.712  23.583  1.00  0.00     0.034 C 
ATOM      7  C   UNL A   1      32.058  21.823  22.789  1.00  0.00     0.007 C 
ENDBRANCH   5   6
BRANCH   5   8
ATOM      8  N   UNL A   1      32.467  24.627  25.137  1.00  0.00    -0.319 N 
ATOM      9  C   UNL A   1      33.422  25.524  24.495  1.00  0.00     0.142 C 
ATOM     10  C   UNL A   1      31.499  25.173  25.999  1.00  0.00     0.312 C 
ATOM     11  C   UNL A   1      32.828  26.914  24.281  1.00  0.00     0.142 C 
ATOM     12  C   UNL A   1      31.688  26.674  26.424  1.00  0.00     0.312 C 
ATOM     13  O   UNL A   1      30.541  24.536  26.419  1.00  0.00    -0.263 OA
ATOM     14  N   UNL A   1      32.393  27.498  25.535  1.00  0.00    -0.328 N 
ATOM     15  O   UNL A   1      31.224  27.068  27.488  1.00  0.00    -0.263 OA
BRANCH  14  16
ATOM     16  C   UNL A   1      32.294  28.956  25.693  1.00  0.00     0.155 C 
BRANCH  16  17
ATOM     17  C   UNL A   1      33.388  29.605  26.515  1.00  0.00    -0.028 A 
ATOM     18  C   UNL A   1      34.577  28.919  26.792  1.00  0.00     0.005 A 
ATOM     19  C   UNL A   1      33.224  30.895  27.050  1.00  0.00     0.009 A 
ATOM     20  C   UNL A   1      35.576  29.516  27.565  1.00  0.00     0.001 A 
ATOM     21  C   UNL A   1      34.256  31.534  27.749  1.00  0.00    -0.051 A 
ATOM     22  C   UNL A   1      35.425  30.823  28.025  1.00  0.00     0.003 A 
ATOM     23  C   UNL A   1      34.102  32.952  28.214  1.00  0.00     0.044 C 
ENDBRANCH  16  17
ENDBRANCH  14  16
ENDBRANCH   5   8
ENDBRANCH   3   5
ENDBRANCH   2   3
ENDBRANCH   1   2
BRANCH   1  24
ATOM     24  C   UNL A   1      36.622  20.925  25.214  1.00  0.00     0.275 C 
BRANCH  24  25
ATOM     25  O   UNL A   1      37.435  22.013  25.693  1.00  0.00    -0.458 OA
BRANCH  25  26
ATOM     26  C   UNL A   1      38.693  21.680  26.047  1.00  0.00     0.338 C 
ATOM     27  O   UNL A   1      39.284  20.635  25.811  1.00  0.00    -0.246 OA
BRANCH  26  28
ATOM     28  C   UNL A   1      39.362  22.836  26.655  1.00  0.00     0.060 A 
ATOM     29  C   UNL A   1      38.990  24.099  26.200  1.00  0.00     0.016 A 
ATOM     30  C   UNL A   1      40.416  22.695  27.553  1.00  0.00     0.016 A 
ATOM     31  C   UNL A   1      39.700  25.228  26.575  1.00  0.00     0.010 A 
ATOM     32  C   UNL A   1      41.105  23.839  27.973  1.00  0.00     0.010 A 
ATOM     33  C   UNL A   1      40.766  25.109  27.466  1.00  0.00    -0.014 A 
BRANCH  33  34
ATOM     34  C   UNL A   1      41.566  26.307  27.806  1.00  0.00     0.031 A 
ATOM     35  C   UNL A   1      40.966  27.365  28.682  1.00  0.00     0.074 A 
ATOM     36  C   UNL A   1      42.842  26.418  27.392  1.00  0.00     0.049 A 
ATOM     37  N   UNL A   1      41.395  28.574  28.935  1.00  0.00    -0.248 NA
ATOM     38  C   UNL A   1      39.718  27.010  29.377  1.00  0.00     0.031 C 
ATOM     39  C   UNL A   1      43.585  25.399  26.651  1.00  0.00     0.029 A 
ATOM     40  N   UNL A   1      43.741  27.443  27.543  1.00  0.00    -0.354 N 
ATOM     41  C   UNL A   1      40.450  29.138  29.783  1.00  0.00     0.074 A 
ATOM     42  C   UNL A   1      39.427  28.139  30.007  1.00  0.00     0.031 C 
ATOM     43  C   UNL A   1      44.827  25.849  26.411  1.00  0.00     0.029 A 
ATOM     44  C   UNL A   1      44.938  27.215  26.909  1.00  0.00     0.049 A 
ATOM     45  H   UNL A   1      43.548  28.261  28.055  1.00  0.00     0.167 HD
ATOM     46  C   UNL A   1      40.446  30.380  30.320  1.00  0.00     0.037 A 
ATOM     47  C   UNL A   1      45.982  28.040  26.703  1.00  0.00     0.037 A 
ATOM     48  C   UNL A   1      41.491  31.347  30.120  1.00  0.00     0.049 A 
ATOM     49  C   UNL A   1      45.906  29.450  27.219  1.00  0.00     0.074 A 
ATOM     50  C   UNL A   1      41.559  32.654  30.568  1.00  0.00     0.029 A 
ATOM     51  N   UNL A   1      42.665  31.100  29.422  1.00  0.00    -0.354 N 
ATOM     52  N   UNL A   1      44.960  30.024  27.922  1.00  0.00    -0.248 NA
ATOM     53  C   UNL A   1      47.033  30.335  26.894  1.00  0.00     0.031 C 
ATOM     54  C   UNL A   1      42.766  33.205  30.124  1.00  0.00     0.029 A 
ATOM     55  C   UNL A   1      43.465  32.230  29.430  1.00  0.00     0.049 A 
ATOM     56  H   UNL A   1      42.894  30.248  28.986  1.00  0.00     0.167 HD
ATOM     57  C   UNL A   1      45.388  31.326  28.146  1.00  0.00     0.074 A 
ATOM     58  C   UNL A   1      46.682  31.455  27.509  1.00  0.00     0.031 C 
ATOM     59  C   UNL A   1      44.763  32.324  28.815  1.00  0.00     0.037 A 
BRANCH  46  60
ATOM     60  C   UNL A   1      39.254  30.775  31.137  1.00  0.00     0.064 A 
ATOM     61  C   UNL A   1      39.153  30.463  32.499  1.00  0.00     0.173 A 
ATOM     62  C   UNL A   1      38.209  31.502  30.548  1.00  0.00     0.173 A 
ATOM     63  F   UNL A   1      40.119  29.755  33.103  1.00  0.00    -0.203 F 
ATOM     64  C   UNL A   1      38.039  30.849  33.240  1.00  0.00     0.198 A 
ATOM     65  C   UNL A   1      37.107  31.908  31.297  1.00  0.00     0.198 A 
ATOM     66  F   UNL A   1      38.259  31.826  29.247  1.00  0.00    -0.203 F 
ATOM     67  F   UNL A   1      37.945  30.507  34.532  1.00  0.00    -0.200 F 
ATOM     68  C   UNL A   1      37.021  31.577  32.640  1.00  0.00     0.200 A 
ATOM     69  F   UNL A   1      36.129  32.616  30.718  1.00  0.00    -0.200 F 
ATOM     70  F   UNL A   1      35.952  31.951  33.357  1.00  0.00    -0.200 F 
ENDBRANCH  46  60
BRANCH  47  71
ATOM     71  C   UNL A   1      47.159  27.573  25.925  1.00  0.00     0.064 A 
ATOM     72  C   UNL A   1      48.278  27.026  26.566  1.00  0.00     0.173 A 
ATOM     73  C   UNL A   1      47.198  27.688  24.527  1.00  0.00     0.173 A 
ATOM     74  F   UNL A   1      48.301  26.927  27.903  1.00  0.00    -0.203 F 
ATOM     75  C   UNL A   1      49.398  26.625  25.840  1.00  0.00     0.198 A 
ATOM     76  C   UNL A   1      48.306  27.260  23.800  1.00  0.00     0.198 A 
ATOM     77  F   UNL A   1      46.158  28.216  23.866  1.00  0.00    -0.203 F 
ATOM     78  F   UNL A   1      50.475  26.152  26.482  1.00  0.00    -0.200 F 
ATOM     79  C   UNL A   1      49.408  26.735  24.457  1.00  0.00     0.200 A 
ATOM     80  F   UNL A   1      48.310  27.365  22.464  1.00  0.00    -0.200 F 
ATOM     81  F   UNL A   1      50.487  26.354  23.761  1.00  0.00    -0.200 F 
ENDBRANCH  47  71
BRANCH  59  82
ATOM     82  C   UNL A   1      45.496  33.623  28.946  1.00  0.00     0.064 A 
ATOM     83  C   UNL A   1      45.328  34.660  28.017  1.00  0.00     0.173 A 
ATOM     84  C   UNL A   1      46.340  33.848  30.045  1.00  0.00     0.173 A 
ATOM     85  F   UNL A   1      44.544  34.483  26.945  1.00  0.00    -0.203 F 
ATOM     86  C   UNL A   1      45.991  35.873  28.178  1.00  0.00     0.198 A 
ATOM     87  C   UNL A   1      46.982  35.070  30.212  1.00  0.00     0.198 A 
ATOM     88  F   UNL A   1      46.526  32.886  30.961  1.00  0.00    -0.203 F 
ATOM     89  F   UNL A   1      45.842  36.841  27.263  1.00  0.00    -0.200 F 
ATOM     90  C   UNL A   1      46.811  36.080  29.278  1.00  0.00     0.200 A 
ATOM     91  F   UNL A   1      47.766  35.272  31.281  1.00  0.00    -0.200 F 
ATOM     92  F   UNL A   1      47.440  37.253  29.435  1.00  0.00    -0.200 F 
ENDBRANCH  59  82
ENDBRANCH  33  34
ENDBRANCH  26  28
ENDBRANCH  25  26
ENDBRANCH  24  25
ENDBRANCH   1  24
TORSDOF 15
ENDMDL
MODEL 3
REMARK VINA RESULT:     -11.7      0.589      2.149
REMARK SMILES CC[C@@H](C(=O)OCCOC(=O)c1ccc(-c2c3nc(c(-c4c(F)c(F)c(F)c(F)c4F)c4ccc([nH]4)c(-c4c(F)c(F)c(F)c(F)c4F)c4nc(c(-c5c(F)c(F)c(F)c(F)c5F)c5ccc2[nH]5)C=C4)C=C3)cc1)N1CCN(Cc2cccc(C)c2)C(=O)C1=O
REMARK SMILES IDX 7 1 6 2 4 3 5 4 3 5 2 6 1 7 75 8 76 9 89 10 77 11 87 12
REMARK SMILES IDX 90 13 78 14 88 15 79 16 80 17 81 18 86 19 82 20 84 21 83 22
REMARK SMILES IDX 85 23 8 24 9 25 10 26 11 27 12 28 13 29 74 30 14 31 73 32
REMARK SMILES IDX 15 33 16 34 17 35 67 36 18 37 72 38 66 39 68 40 19 41 71 42
REMARK SMILES IDX 65 43 64 44 20 46 52 47 32 48 51 49 33 50 36 51 50 52 69 53
REMARK SMILES IDX 34 54 35 55 49 57 70 58 37 59 21 60 22 61 30 62 23 63 24 64
REMARK SMILES IDX 28 65 31 66 25 67 26 68 29 69 27 70 53 71 54 72 62 73 55 74
REMARK SMILES IDX 56 75 60 76 63 77 57 78 58 79 61 80 59 81 38 82 39 83 47 84
REMARK SMILES IDX 40 85 41 86 45 87 48 88 42 89 43 90 46 91 44 92
REMARK H PARENT 68 45 36 56
REMARK Flexibility Score: inf
ROOT
ATOM      1  C   UNL A   1      31.486  29.329  25.441  1.00  0.00     0.274 C 
ENDROOT
BRANCH   1   2
ATOM      2  O   UNL A   1      31.751  29.367  24.023  1.00  0.00    -0.461 OA
BRANCH   2   3
ATOM      3  C   UNL A   1      32.712  28.529  23.550  1.00  0.00     0.328 C 
ATOM      4  O   UNL A   1      33.909  28.746  23.696  1.00  0.00    -0.250 OA
BRANCH   3   5
ATOM      5  C   UNL A   1      32.127  27.333  22.737  1.00  0.00     0.195 C 
BRANCH   5   6
ATOM      6  C   UNL A   1      30.587  27.349  22.598  1.00  0.00     0.034 C 
ATOM      7  C   UNL A   1      29.813  26.335  23.428  1.00  0.00     0.007 C 
ENDBRANCH   5   6
BRANCH   5   8
ATOM      8  N   UNL A   1      32.619  26.034  23.317  1.00  0.00    -0.319 N 
ATOM      9  C   UNL A   1      32.704  25.801  24.756  1.00  0.00     0.142 C 
ATOM     10  C   UNL A   1      33.109  25.049  22.441  1.00  0.00     0.312 C 
ATOM     11  C   UNL A   1      32.646  24.312  25.084  1.00  0.00     0.142 C 
ATOM     12  C   UNL A   1      33.962  23.892  23.075  1.00  0.00     0.312 C 
ATOM     13  O   UNL A   1      32.901  25.063  21.235  1.00  0.00    -0.263 OA
ATOM     14  N   UNL A   1      33.709  23.584  24.419  1.00  0.00    -0.328 N 
ATOM     15  O   UNL A   1      34.797  23.308  22.394  1.00  0.00    -0.263 OA
BRANCH  14  16
ATOM     16  C   UNL A   1      34.198  22.307  24.956  1.00  0.00     0.155 C 
BRANCH  16  17
ATOM     17  C   UNL A   1      35.686  22.233  25.230  1.00  0.00    -0.028 A 
ATOM     18  C   UNL A   1      36.418  21.087  24.897  1.00  0.00     0.005 A 
ATOM     19  C   UNL A   1      36.361  23.296  25.857  1.00  0.00     0.009 A 
ATOM     20  C   UNL A   1      37.787  21.017  25.168  1.00  0.00     0.001 A 
ATOM     21  C   UNL A   1      37.749  23.269  26.048  1.00  0.00    -0.051 A 
ATOM     22  C   UNL A   1      38.453  22.108  25.722  1.00  0.00     0.003 A 
ATOM     23  C   UNL A   1      38.466  24.459  26.616  1.00  0.00     0.044 C 
ENDBRANCH  16  17
ENDBRANCH  14  16
ENDBRANCH   5   8
ENDBRANCH   3   5
ENDBRANCH   2   3
ENDBRANCH   1   2
BRANCH   1  24
ATOM     24  C   UNL A   1      31.773  30.677  26.110  1.00  0.00     0.275 C 
BRANCH  24  25
ATOM     25  O   UNL A   1      32.801  30.567  27.113  1.00  0.00    -0.458 OA
BRANCH  25  26
ATOM     26  C   UNL A   1      33.502  31.696  27.345  1.00  0.00     0.338 C 
ATOM     27  O   UNL A   1      33.108  32.851  27.263  1.00  0.00    -0.246 OA
BRANCH  26  28
ATOM     28  C   UNL A   1      34.826  31.357  27.879  1.00  0.00     0.060 A 
ATOM     29  C   UNL A   1      35.012  30.057  28.347  1.00  0.00     0.016 A 
ATOM     30  C   UNL A   1      35.826  32.312  28.042  1.00  0.00     0.016 A 
ATOM     31  C   UNL A   1      36.159  29.708  29.039  1.00  0.00     0.010 A 
ATOM     32  C   UNL A   1      37.008  31.949  28.699  1.00  0.00     0.010 A 
ATOM     33  C   UNL A   1      37.170  30.651  29.223  1.00  0.00    -0.014 A 
BRANCH  33  34
ATOM     34  C   UNL A   1      38.360  30.294  30.026  1.00  0.00     0.031 A 
ATOM     35  C   UNL A   1      39.399  29.388  29.435  1.00  0.00     0.074 A 
ATOM     36  C   UNL A   1      38.547  30.827  31.248  1.00  0.00     0.049 A 
ATOM     37  N   UNL A   1      40.401  28.783  30.018  1.00  0.00    -0.248 NA
ATOM     38  C   UNL A   1      39.303  29.139  27.988  1.00  0.00     0.031 C 
ATOM     39  C   UNL A   1      37.682  31.823  31.880  1.00  0.00     0.029 A 
ATOM     40  N   UNL A   1      39.533  30.605  32.175  1.00  0.00    -0.354 N 
ATOM     41  C   UNL A   1      41.028  28.049  29.020  1.00  0.00     0.074 A 
ATOM     42  C   UNL A   1      40.299  28.288  27.793  1.00  0.00     0.031 C 
ATOM     43  C   UNL A   1      38.175  32.127  33.091  1.00  0.00     0.029 A 
ATOM     44  C   UNL A   1      39.339  31.288  33.351  1.00  0.00     0.049 A 
ATOM     45  H   UNL A   1      40.304  30.014  32.015  1.00  0.00     0.167 HD
ATOM     46  C   UNL A   1      42.115  27.251  29.129  1.00  0.00     0.037 A 
ATOM     47  C   UNL A   1      39.995  31.202  34.524  1.00  0.00     0.037 A 
ATOM     48  C   UNL A   1      42.852  27.056  30.348  1.00  0.00     0.049 A 
ATOM     49  C   UNL A   1      41.132  30.226  34.649  1.00  0.00     0.074 A 
ATOM     50  C   UNL A   1      43.932  26.224  30.585  1.00  0.00     0.029 A 
ATOM     51  N   UNL A   1      42.591  27.723  31.536  1.00  0.00    -0.354 N 
ATOM     52  N   UNL A   1      41.654  29.442  33.737  1.00  0.00    -0.248 NA
ATOM     53  C   UNL A   1      41.757  30.107  35.973  1.00  0.00     0.031 C 
ATOM     54  C   UNL A   1      44.311  26.372  31.923  1.00  0.00     0.029 A 
ATOM     55  C   UNL A   1      43.492  27.323  32.510  1.00  0.00     0.049 A 
ATOM     56  H   UNL A   1      41.873  28.382  31.669  1.00  0.00     0.167 HD
ATOM     57  C   UNL A   1      42.684  28.757  34.368  1.00  0.00     0.074 A 
ATOM     58  C   UNL A   1      42.717  29.222  35.739  1.00  0.00     0.031 C 
ATOM     59  C   UNL A   1      43.523  27.824  33.859  1.00  0.00     0.037 A 
BRANCH  46  60
ATOM     60  C   UNL A   1      42.541  26.494  27.908  1.00  0.00     0.064 A 
ATOM     61  C   UNL A   1      43.480  27.011  27.007  1.00  0.00     0.173 A 
ATOM     62  C   UNL A   1      42.018  25.217  27.655  1.00  0.00     0.173 A 
ATOM     63  F   UNL A   1      43.997  28.234  27.198  1.00  0.00    -0.203 F 
ATOM     64  C   UNL A   1      43.868  26.285  25.883  1.00  0.00     0.198 A 
ATOM     65  C   UNL A   1      42.425  24.483  26.544  1.00  0.00     0.198 A 
ATOM     66  F   UNL A   1      41.116  24.678  28.490  1.00  0.00    -0.203 F 
ATOM     67  F   UNL A   1      44.739  26.814  25.014  1.00  0.00    -0.200 F 
ATOM     68  C   UNL A   1      43.345  25.020  25.657  1.00  0.00     0.200 A 
ATOM     69  F   UNL A   1      41.925  23.259  26.331  1.00  0.00    -0.200 F 
ATOM     70  F   UNL A   1      43.724  24.321  24.578  1.00  0.00    -0.200 F 
ENDBRANCH  46  60
BRANCH  47  71
ATOM     71  C   UNL A   1      39.553  32.015  35.686  1.00  0.00     0.064 A 
ATOM     72  C   UNL A   1      40.166  33.238  35.986  1.00  0.00     0.173 A 
ATOM     73  C   UNL A   1      38.527  31.573  36.535  1.00  0.00     0.173 A 
ATOM     74  F   UNL A   1      41.175  33.686  35.223  1.00  0.00    -0.203 F 
ATOM     75  C   UNL A   1      39.780  33.983  37.099  1.00  0.00     0.198 A 
ATOM     76  C   UNL A   1      38.121  32.332  37.630  1.00  0.00     0.198 A 
ATOM     77  F   UNL A   1      37.915  30.404  36.299  1.00  0.00    -0.203 F 
ATOM     78  F   UNL A   1      40.417  35.124  37.393  1.00  0.00    -0.200 F 
ATOM     79  C   UNL A   1      38.753  33.532  37.916  1.00  0.00     0.200 A 
ATOM     80  F   UNL A   1      37.126  31.895  38.415  1.00  0.00    -0.200 F 
ATOM     81  F   UNL A   1      38.386  34.247  38.988  1.00  0.00    -0.200 F 
ENDBRANCH  47  71
BRANCH  59  82
ATOM     82  C   UNL A   1      44.586  27.291  34.768  1.00  0.00     0.064 A 
ATOM     83  C   UNL A   1      44.392  26.125  35.524  1.00  0.00     0.173 A 
ATOM     84  C   UNL A   1      45.833  27.930  34.845  1.00  0.00     0.173 A 
ATOM     85  F   UNL A   1      43.211  25.492  35.493  1.00  0.00    -0.203 F 
ATOM     86  C   UNL A   1      45.407  25.626  36.335  1.00  0.00     0.198 A 
ATOM     87  C   UNL A   1      46.852  27.415  35.640  1.00  0.00     0.198 A 
ATOM     88  F   UNL A   1      46.066  29.044  34.136  1.00  0.00    -0.203 F 
ATOM     89  F   UNL A   1      45.192  24.529  37.073  1.00  0.00    -0.200 F 
ATOM     90  C   UNL A   1      46.637  26.266  36.387  1.00  0.00     0.200 A 
ATOM     91  F   UNL A   1      48.043  28.028  35.681  1.00  0.00    -0.200 F 
ATOM     92  F   UNL A   1      47.615  25.777  37.161  1.00  0.00    -0.200 F 
ENDBRANCH  59  82
ENDBRANCH  33  34
ENDBRANCH  26  28
ENDBRANCH  25  26
ENDBRANCH  24  25
ENDBRANCH   1  24
TORSDOF 15
ENDMDL
