MODEL 1
REMARK VINA RESULT:     -13.4      0.000      0.000
REMARK SMILES O=C(OCCOC(=O)[C@H](Cc1ccc(O)cc1)NC(=O)c1ccc(Cl)s1)c1ccc(-c2c3nc(c(-c4c(F)c(F)c(F)c(F)c4F)c4ccc([nH]4)c(-c4c(F)c(F)c(F)c(F)c4F)c4nc(c(-c5c(F)c(F)c(F)c(F)c5F)c5ccc2[nH]5)C=C4)C=C3)cc1
REMARK SMILES IDX 5 1 4 2 3 3 2 4 1 5 27 6 28 7 89 8 29 9 88 10 30 11 31 12
REMARK SMILES IDX 32 13 82 14 33 15 87 16 81 17 83 18 34 19 86 20 80 21 79 22
REMARK SMILES IDX 35 24 67 25 47 26 66 27 48 28 51 29 65 30 84 31 49 32 50 33
REMARK SMILES IDX 64 35 85 36 52 37 36 38 37 39 45 40 38 41 39 42 43 43 46 44
REMARK SMILES IDX 40 45 41 46 44 47 42 48 68 49 69 50 77 51 70 52 71 53 75 54
REMARK SMILES IDX 78 55 72 56 73 57 76 58 74 59 53 60 54 61 62 62 55 63 56 64
REMARK SMILES IDX 60 65 63 66 57 67 58 68 61 69 59 70 6 71 7 72 8 73 9 74
REMARK SMILES IDX 18 75 19 76 20 78 21 79 22 80 26 81 23 82 24 83 25 84 10 85
REMARK SMILES IDX 11 86 12 87 17 88 13 89 16 90 14 91 15 92
REMARK H PARENT 83 23 51 34 18 77 15 93
REMARK Flexibility Score: inf
ROOT
ATOM      1  C   UNL A   1      31.929  30.211  26.583  1.00  0.00     0.274 C 
ENDROOT
BRANCH   1   2
ATOM      2  C   UNL A   1      33.075  31.135  27.025  1.00  0.00     0.275 C 
BRANCH   2   3
ATOM      3  O   UNL A   1      32.672  32.480  27.334  1.00  0.00    -0.458 OA
BRANCH   3   4
ATOM      4  C   UNL A   1      33.239  33.358  28.191  1.00  0.00     0.338 C 
ATOM      5  O   UNL A   1      32.781  34.502  28.226  1.00  0.00    -0.246 OA
BRANCH   4   6
ATOM      6  C   UNL A   1      34.491  33.099  28.988  1.00  0.00     0.060 A 
ATOM      7  C   UNL A   1      34.638  32.321  30.129  1.00  0.00     0.016 A 
ATOM      8  C   UNL A   1      35.673  33.533  28.380  1.00  0.00     0.016 A 
ATOM      9  C   UNL A   1      35.884  31.759  30.445  1.00  0.00     0.010 A 
ATOM     10  C   UNL A   1      36.878  32.849  28.577  1.00  0.00     0.010 A 
ATOM     11  C   UNL A   1      36.975  31.865  29.562  1.00  0.00    -0.014 A 
BRANCH  11  12
ATOM     12  C   UNL A   1      38.447  30.998  29.752  1.00  0.00     0.031 A 
ATOM     13  C   UNL A   1      38.492  31.453  31.573  1.00  0.00     0.074 A 
ATOM     14  C   UNL A   1      39.524  29.765  28.790  1.00  0.00     0.049 A 
ATOM     15  N   UNL A   1      39.131  30.764  32.510  1.00  0.00    -0.248 NA
ATOM     16  C   UNL A   1      37.815  32.619  32.178  1.00  0.00     0.031 C 
ATOM     17  C   UNL A   1      39.393  28.792  27.420  1.00  0.00     0.029 A 
ATOM     18  N   UNL A   1      40.778  28.917  29.149  1.00  0.00    -0.354 N 
ATOM     19  C   UNL A   1      39.115  31.456  33.673  1.00  0.00     0.074 A 
ATOM     20  C   UNL A   1      38.216  32.562  33.450  1.00  0.00     0.031 C 
ATOM     21  C   UNL A   1      40.422  27.976  27.180  1.00  0.00     0.029 A 
ATOM     22  C   UNL A   1      41.308  28.026  28.289  1.00  0.00     0.049 A 
ATOM     23  H   UNL A   1      41.198  29.036  30.033  1.00  0.00     0.167 HD
ATOM     24  C   UNL A   1      39.855  31.173  34.770  1.00  0.00     0.037 A 
ATOM     25  C   UNL A   1      42.404  27.286  28.505  1.00  0.00     0.037 A 
ATOM     26  C   UNL A   1      40.932  30.185  34.826  1.00  0.00     0.049 A 
ATOM     27  C   UNL A   1      42.966  27.248  29.907  1.00  0.00     0.074 A 
ATOM     28  C   UNL A   1      41.751  29.907  35.905  1.00  0.00     0.029 A 
ATOM     29  N   UNL A   1      41.409  29.375  33.772  1.00  0.00    -0.354 N 
ATOM     30  N   UNL A   1      42.517  27.821  31.009  1.00  0.00    -0.248 NA
ATOM     31  C   UNL A   1      44.137  26.403  30.100  1.00  0.00     0.031 C 
ATOM     32  C   UNL A   1      42.769  29.043  35.481  1.00  0.00     0.029 A 
ATOM     33  C   UNL A   1      42.567  28.684  34.150  1.00  0.00     0.049 A 
ATOM     34  H   UNL A   1      40.983  29.305  32.888  1.00  0.00     0.167 HD
ATOM     35  C   UNL A   1      43.359  27.424  32.042  1.00  0.00     0.074 A 
ATOM     36  C   UNL A   1      44.299  26.491  31.414  1.00  0.00     0.031 C 
ATOM     37  C   UNL A   1      43.408  27.767  33.366  1.00  0.00     0.037 A 
BRANCH  24  38
ATOM     38  C   UNL A   1      39.528  32.018  35.964  1.00  0.00     0.064 A 
ATOM     39  C   UNL A   1      38.482  31.643  36.824  1.00  0.00     0.173 A 
ATOM     40  C   UNL A   1      40.194  33.222  36.229  1.00  0.00     0.173 A 
ATOM     41  F   UNL A   1      37.796  30.512  36.600  1.00  0.00    -0.203 F 
ATOM     42  C   UNL A   1      38.081  32.465  37.871  1.00  0.00     0.198 A 
ATOM     43  C   UNL A   1      39.816  34.024  37.304  1.00  0.00     0.198 A 
ATOM     44  F   UNL A   1      41.195  33.635  35.437  1.00  0.00    -0.203 F 
ATOM     45  F   UNL A   1      37.023  32.125  38.620  1.00  0.00    -0.200 F 
ATOM     46  C   UNL A   1      38.751  33.653  38.113  1.00  0.00     0.200 A 
ATOM     47  F   UNL A   1      40.467  35.172  37.544  1.00  0.00    -0.200 F 
ATOM     48  F   UNL A   1      38.357  34.452  39.114  1.00  0.00    -0.200 F 
ENDBRANCH  24  38
BRANCH  25  49
ATOM     49  C   UNL A   1      42.937  26.568  27.334  1.00  0.00     0.064 A 
ATOM     50  C   UNL A   1      43.898  27.129  26.494  1.00  0.00     0.173 A 
ATOM     51  C   UNL A   1      42.638  25.199  27.184  1.00  0.00     0.173 A 
ATOM     52  F   UNL A   1      44.225  28.423  26.618  1.00  0.00    -0.203 F 
ATOM     53  C   UNL A   1      44.563  26.341  25.557  1.00  0.00     0.198 A 
ATOM     54  C   UNL A   1      43.322  24.410  26.270  1.00  0.00     0.198 A 
ATOM     55  F   UNL A   1      41.736  24.618  27.991  1.00  0.00    -0.203 F 
ATOM     56  F   UNL A   1      45.499  26.891  24.771  1.00  0.00    -0.200 F 
ATOM     57  C   UNL A   1      44.288  24.982  25.458  1.00  0.00     0.200 A 
ATOM     58  F   UNL A   1      43.078  23.094  26.205  1.00  0.00    -0.200 F 
ATOM     59  F   UNL A   1      44.968  24.221  24.591  1.00  0.00    -0.200 F 
ENDBRANCH  25  49
BRANCH  37  60
ATOM     60  C   UNL A   1      44.512  27.070  34.148  1.00  0.00     0.064 A 
ATOM     61  C   UNL A   1      45.802  27.616  34.279  1.00  0.00     0.173 A 
ATOM     62  C   UNL A   1      44.266  25.834  34.768  1.00  0.00     0.173 A 
ATOM     63  F   UNL A   1      46.104  28.787  33.697  1.00  0.00    -0.203 F 
ATOM     64  C   UNL A   1      46.815  26.919  34.937  1.00  0.00     0.198 A 
ATOM     65  C   UNL A   1      45.265  25.168  35.471  1.00  0.00     0.198 A 
ATOM     66  F   UNL A   1      43.049  25.274  34.696  1.00  0.00    -0.203 F 
ATOM     67  F   UNL A   1      48.061  27.412  34.961  1.00  0.00    -0.200 F 
ATOM     68  C   UNL A   1      46.544  25.699  35.538  1.00  0.00     0.200 A 
ATOM     69  F   UNL A   1      44.994  24.001  36.074  1.00  0.00    -0.200 F 
ATOM     70  F   UNL A   1      47.518  25.030  36.169  1.00  0.00    -0.200 F 
ENDBRANCH  37  60
ENDBRANCH  11  12
ENDBRANCH   4   6
ENDBRANCH   3   4
ENDBRANCH   2   3
ENDBRANCH   1   2
BRANCH   1  71
ATOM     71  O   UNL A   1      32.384  28.873  26.293  1.00  0.00    -0.461 OA
BRANCH  71  72
ATOM     72  C   UNL A   1      31.693  27.811  26.823  1.00  0.00     0.329 C 
ATOM     73  O   UNL A   1      31.060  27.852  27.869  1.00  0.00    -0.250 OA
BRANCH  72  74
ATOM     74  C   UNL A   1      31.951  26.534  25.982  1.00  0.00     0.197 C 
BRANCH  74  75
ATOM     75  N   UNL A   1      31.094  25.522  26.535  1.00  0.00    -0.338 N 
ATOM     76  C   UNL A   1      31.062  24.173  26.365  1.00  0.00     0.262 C 
ATOM     77  H   UNL A   1      30.405  25.868  27.147  1.00  0.00     0.164 HD
ATOM     78  O   UNL A   1      30.353  23.659  27.240  1.00  0.00    -0.268 OA
BRANCH  76  79
ATOM     79  C   UNL A   1      31.690  23.422  25.199  1.00  0.00     0.093 A 
ATOM     80  C   UNL A   1      31.394  23.307  23.368  1.00  0.00     0.027 A 
ATOM     81  S   UNL A   1      33.966  23.242  25.692  1.00  0.00    -0.118 S 
ATOM     82  C   UNL A   1      33.088  23.086  22.317  1.00  0.00     0.033 A 
ATOM     83  C   UNL A   1      34.584  23.015  23.453  1.00  0.00     0.094 A 
ATOM     84  Cl  UNL A   1      36.327  23.121  23.335  1.00  0.00    -0.072 Cl
ENDBRANCH  76  79
ENDBRANCH  74  75
BRANCH  74  85
ATOM     85  C   UNL A   1      31.701  26.721  24.464  1.00  0.00     0.072 C 
BRANCH  85  86
ATOM     86  C   UNL A   1      30.311  27.222  24.067  1.00  0.00    -0.045 A 
ATOM     87  C   UNL A   1      30.145  28.533  23.600  1.00  0.00     0.007 A 
ATOM     88  C   UNL A   1      29.154  26.447  24.204  1.00  0.00     0.007 A 
ATOM     89  C   UNL A   1      28.917  29.011  23.124  1.00  0.00     0.046 A 
ATOM     90  C   UNL A   1      27.898  26.952  23.818  1.00  0.00     0.046 A 
ATOM     91  C   UNL A   1      27.795  28.209  23.236  1.00  0.00     0.115 A 
BRANCH  91  92
ATOM     92  O   UNL A   1      26.570  28.631  22.812  1.00  0.00    -0.508 OA
ATOM     93  H   UNL A   1      25.804  28.417  23.308  1.00  0.00     0.293 HD
ENDBRANCH  91  92
ENDBRANCH  85  86
ENDBRANCH  74  85
ENDBRANCH  72  74
ENDBRANCH  71  72
ENDBRANCH   1  71
TORSDOF 16
ENDMDL
MODEL 2
REMARK VINA RESULT:     -13.4      0.200      1.249
REMARK SMILES O=C(OCCOC(=O)[C@H](Cc1ccc(O)cc1)NC(=O)c1ccc(Cl)s1)c1ccc(-c2c3nc(c(-c4c(F)c(F)c(F)c(F)c4F)c4ccc([nH]4)c(-c4c(F)c(F)c(F)c(F)c4F)c4nc(c(-c5c(F)c(F)c(F)c(F)c5F)c5ccc2[nH]5)C=C4)C=C3)cc1
REMARK SMILES IDX 5 1 4 2 3 3 2 4 1 5 27 6 28 7 89 8 29 9 88 10 30 11 31 12
REMARK SMILES IDX 32 13 82 14 33 15 87 16 81 17 83 18 34 19 86 20 80 21 79 22
REMARK SMILES IDX 35 24 67 25 47 26 66 27 48 28 51 29 65 30 84 31 49 32 50 33
REMARK SMILES IDX 64 35 85 36 52 37 36 38 37 39 45 40 38 41 39 42 43 43 46 44
REMARK SMILES IDX 40 45 41 46 44 47 42 48 68 49 69 50 77 51 70 52 71 53 75 54
REMARK SMILES IDX 78 55 72 56 73 57 76 58 74 59 53 60 54 61 62 62 55 63 56 64
REMARK SMILES IDX 60 65 63 66 57 67 58 68 61 69 59 70 6 71 7 72 8 73 9 74
REMARK SMILES IDX 18 75 19 76 20 78 21 79 22 80 26 81 23 82 24 83 25 84 10 85
REMARK SMILES IDX 11 86 12 87 17 88 13 89 16 90 14 91 15 92
REMARK H PARENT 83 23 51 34 18 77 15 93
REMARK Flexibility Score: inf
ROOT
ATOM      1  C   UNL A   1      31.782  30.231  26.535  1.00  0.00     0.274 C 
ENDROOT
BRANCH   1   2
ATOM      2  C   UNL A   1      32.926  31.150  26.993  1.00  0.00     0.275 C 
BRANCH   2   3
ATOM      3  O   UNL A   1      32.538  32.513  27.233  1.00  0.00    -0.458 OA
BRANCH   3   4
ATOM      4  C   UNL A   1      33.094  33.417  28.069  1.00  0.00     0.338 C 
ATOM      5  O   UNL A   1      32.616  34.552  28.087  1.00  0.00    -0.246 OA
BRANCH   4   6
ATOM      6  C   UNL A   1      34.358  33.196  28.861  1.00  0.00     0.060 A 
ATOM      7  C   UNL A   1      34.520  32.477  30.038  1.00  0.00     0.016 A 
ATOM      8  C   UNL A   1      35.531  33.596  28.216  1.00  0.00     0.016 A 
ATOM      9  C   UNL A   1      35.768  31.928  30.365  1.00  0.00     0.010 A 
ATOM     10  C   UNL A   1      36.738  32.920  28.430  1.00  0.00     0.010 A 
ATOM     11  C   UNL A   1      36.848  31.987  29.463  1.00  0.00    -0.014 A 
BRANCH  11  12
ATOM     12  C   UNL A   1      38.320  31.128  29.676  1.00  0.00     0.031 A 
ATOM     13  C   UNL A   1      38.329  31.574  31.499  1.00  0.00     0.074 A 
ATOM     14  C   UNL A   1      39.422  29.904  28.728  1.00  0.00     0.049 A 
ATOM     15  N   UNL A   1      38.954  30.884  32.445  1.00  0.00    -0.248 NA
ATOM     16  C   UNL A   1      37.634  32.733  32.098  1.00  0.00     0.031 C 
ATOM     17  C   UNL A   1      39.322  28.938  27.352  1.00  0.00     0.029 A 
ATOM     18  N   UNL A   1      40.674  29.062  29.107  1.00  0.00    -0.354 N 
ATOM     19  C   UNL A   1      38.912  31.571  33.611  1.00  0.00     0.074 A 
ATOM     20  C   UNL A   1      38.011  32.673  33.376  1.00  0.00     0.031 C 
ATOM     21  C   UNL A   1      40.360  28.128  27.128  1.00  0.00     0.029 A 
ATOM     22  C   UNL A   1      41.225  28.178  28.253  1.00  0.00     0.049 A 
ATOM     23  H   UNL A   1      41.077  29.179  29.999  1.00  0.00     0.167 HD
ATOM     24  C   UNL A   1      39.634  31.287  34.720  1.00  0.00     0.037 A 
ATOM     25  C   UNL A   1      42.321  27.444  28.486  1.00  0.00     0.037 A 
ATOM     26  C   UNL A   1      40.715  30.304  34.792  1.00  0.00     0.049 A 
ATOM     27  C   UNL A   1      42.857  27.402  29.898  1.00  0.00     0.074 A 
ATOM     28  C   UNL A   1      41.516  30.026  35.884  1.00  0.00     0.029 A 
ATOM     29  N   UNL A   1      41.216  29.502  33.743  1.00  0.00    -0.354 N 
ATOM     30  N   UNL A   1      42.384  27.967  30.994  1.00  0.00    -0.248 NA
ATOM     31  C   UNL A   1      44.029  26.563  30.109  1.00  0.00     0.031 C 
ATOM     32  C   UNL A   1      42.546  29.170  35.476  1.00  0.00     0.029 A 
ATOM     33  C   UNL A   1      42.371  28.816  34.140  1.00  0.00     0.049 A 
ATOM     34  H   UNL A   1      40.807  29.433  32.851  1.00  0.00     0.167 HD
ATOM     35  C   UNL A   1      43.210  27.570  32.041  1.00  0.00     0.074 A 
ATOM     36  C   UNL A   1      44.166  26.646  31.426  1.00  0.00     0.031 C 
ATOM     37  C   UNL A   1      43.232  27.908  33.367  1.00  0.00     0.037 A 
BRANCH  24  38
ATOM     38  C   UNL A   1      39.280  32.124  35.911  1.00  0.00     0.064 A 
ATOM     39  C   UNL A   1      39.929  33.353  36.124  1.00  0.00     0.173 A 
ATOM     40  C   UNL A   1      38.357  31.697  36.875  1.00  0.00     0.173 A 
ATOM     41  F   UNL A   1      40.840  33.796  35.244  1.00  0.00    -0.203 F 
ATOM     42  C   UNL A   1      39.706  34.095  37.278  1.00  0.00     0.198 A 
ATOM     43  C   UNL A   1      38.106  32.464  38.011  1.00  0.00     0.198 A 
ATOM     44  F   UNL A   1      37.714  30.528  36.730  1.00  0.00    -0.203 F 
ATOM     45  F   UNL A   1      40.404  35.218  37.494  1.00  0.00    -0.200 F 
ATOM     46  C   UNL A   1      38.792  33.652  38.219  1.00  0.00     0.200 A 
ATOM     47  F   UNL A   1      37.217  32.040  38.921  1.00  0.00    -0.200 F 
ATOM     48  F   UNL A   1      38.586  34.360  39.338  1.00  0.00    -0.200 F 
ENDBRANCH  24  38
BRANCH  25  49
ATOM     49  C   UNL A   1      42.879  26.734  27.322  1.00  0.00     0.064 A 
ATOM     50  C   UNL A   1      43.840  27.310  26.492  1.00  0.00     0.173 A 
ATOM     51  C   UNL A   1      42.607  25.360  27.170  1.00  0.00     0.173 A 
ATOM     52  F   UNL A   1      44.143  28.610  26.619  1.00  0.00    -0.203 F 
ATOM     53  C   UNL A   1      44.530  26.534  25.564  1.00  0.00     0.198 A 
ATOM     54  C   UNL A   1      43.315  24.582  26.265  1.00  0.00     0.198 A 
ATOM     55  F   UNL A   1      41.706  24.763  27.967  1.00  0.00    -0.203 F 
ATOM     56  F   UNL A   1      45.465  27.099  24.788  1.00  0.00    -0.200 F 
ATOM     57  C   UNL A   1      44.280  25.170  25.463  1.00  0.00     0.200 A 
ATOM     58  F   UNL A   1      43.094  23.262  26.199  1.00  0.00    -0.200 F 
ATOM     59  F   UNL A   1      44.983  24.420  24.605  1.00  0.00    -0.200 F 
ENDBRANCH  25  49
BRANCH  37  60
ATOM     60  C   UNL A   1      44.325  27.213  34.166  1.00  0.00     0.064 A 
ATOM     61  C   UNL A   1      45.621  27.746  34.291  1.00  0.00     0.173 A 
ATOM     62  C   UNL A   1      44.062  25.993  34.809  1.00  0.00     0.173 A 
ATOM     63  F   UNL A   1      45.939  28.902  33.687  1.00  0.00    -0.203 F 
ATOM     64  C   UNL A   1      46.623  27.050  34.966  1.00  0.00     0.198 A 
ATOM     65  C   UNL A   1      45.051  25.329  35.529  1.00  0.00     0.198 A 
ATOM     66  F   UNL A   1      42.839  25.446  34.745  1.00  0.00    -0.203 F 
ATOM     67  F   UNL A   1      47.875  27.529  34.984  1.00  0.00    -0.200 F 
ATOM     68  C   UNL A   1      46.336  25.846  35.590  1.00  0.00     0.200 A 
ATOM     69  F   UNL A   1      44.764  24.177  36.154  1.00  0.00    -0.200 F 
ATOM     70  F   UNL A   1      47.300  25.178  36.237  1.00  0.00    -0.200 F 
ENDBRANCH  37  60
ENDBRANCH  11  12
ENDBRANCH   4   6
ENDBRANCH   3   4
ENDBRANCH   2   3
ENDBRANCH   1   2
BRANCH   1  71
ATOM     71  O   UNL A   1      32.244  28.908  26.193  1.00  0.00    -0.461 OA
BRANCH  71  72
ATOM     72  C   UNL A   1      31.655  27.825  26.802  1.00  0.00     0.329 C 
ATOM     73  O   UNL A   1      31.105  27.862  27.893  1.00  0.00    -0.250 OA
BRANCH  72  74
ATOM     74  C   UNL A   1      31.917  26.541  25.972  1.00  0.00     0.197 C 
BRANCH  74  75
ATOM     75  N   UNL A   1      31.032  25.544  26.507  1.00  0.00    -0.338 N 
ATOM     76  C   UNL A   1      30.981  24.196  26.337  1.00  0.00     0.262 C 
ATOM     77  H   UNL A   1      30.336  25.902  27.106  1.00  0.00     0.164 HD
ATOM     78  O   UNL A   1      30.245  23.694  27.197  1.00  0.00    -0.268 OA
BRANCH  76  79
ATOM     79  C   UNL A   1      31.620  23.434  25.184  1.00  0.00     0.093 A 
ATOM     80  C   UNL A   1      31.341  23.302  23.352  1.00  0.00     0.027 A 
ATOM     81  S   UNL A   1      33.891  23.260  25.699  1.00  0.00    -0.118 S 
ATOM     82  C   UNL A   1      33.045  23.071  22.318  1.00  0.00     0.033 A 
ATOM     83  C   UNL A   1      34.530  23.012  23.469  1.00  0.00     0.094 A 
ATOM     84  Cl  UNL A   1      36.273  23.118  23.366  1.00  0.00    -0.072 Cl
ENDBRANCH  76  79
ENDBRANCH  74  75
BRANCH  74  85
ATOM     85  C   UNL A   1      31.707  26.725  24.448  1.00  0.00     0.072 C 
BRANCH  85  86
ATOM     86  C   UNL A   1      30.334  27.241  24.013  1.00  0.00    -0.045 A 
ATOM     87  C   UNL A   1      29.213  26.405  24.095  1.00  0.00     0.007 A 
ATOM     88  C   UNL A   1      30.137  28.515  23.466  1.00  0.00     0.007 A 
ATOM     89  C   UNL A   1      27.917  26.857  23.812  1.00  0.00     0.046 A 
ATOM     90  C   UNL A   1      28.852  28.946  23.088  1.00  0.00     0.046 A 
ATOM     91  C   UNL A   1      27.746  28.135  23.308  1.00  0.00     0.115 A 
BRANCH  91  92
ATOM     92  O   UNL A   1      26.511  28.619  22.991  1.00  0.00    -0.508 OA
ATOM     93  H   UNL A   1      25.947  28.941  23.667  1.00  0.00     0.293 HD
ENDBRANCH  91  92
ENDBRANCH  85  86
ENDBRANCH  74  85
ENDBRANCH  72  74
ENDBRANCH  71  72
ENDBRANCH   1  71
TORSDOF 16
ENDMDL
MODEL 3
REMARK VINA RESULT:     -13.3      4.495     10.464
REMARK SMILES O=C(OCCOC(=O)[C@H](Cc1ccc(O)cc1)NC(=O)c1ccc(Cl)s1)c1ccc(-c2c3nc(c(-c4c(F)c(F)c(F)c(F)c4F)c4ccc([nH]4)c(-c4c(F)c(F)c(F)c(F)c4F)c4nc(c(-c5c(F)c(F)c(F)c(F)c5F)c5ccc2[nH]5)C=C4)C=C3)cc1
REMARK SMILES IDX 5 1 4 2 3 3 2 4 1 5 27 6 28 7 89 8 29 9 88 10 30 11 31 12
REMARK SMILES IDX 32 13 82 14 33 15 87 16 81 17 83 18 34 19 86 20 80 21 79 22
REMARK SMILES IDX 35 24 67 25 47 26 66 27 48 28 51 29 65 30 84 31 49 32 50 33
REMARK SMILES IDX 64 35 85 36 52 37 36 38 37 39 45 40 38 41 39 42 43 43 46 44
REMARK SMILES IDX 40 45 41 46 44 47 42 48 68 49 69 50 77 51 70 52 71 53 75 54
REMARK SMILES IDX 78 55 72 56 73 57 76 58 74 59 53 60 54 61 62 62 55 63 56 64
REMARK SMILES IDX 60 65 63 66 57 67 58 68 61 69 59 70 6 71 7 72 8 73 9 74
REMARK SMILES IDX 18 75 19 76 20 78 21 79 22 80 26 81 23 82 24 83 25 84 10 85
REMARK SMILES IDX 11 86 12 87 17 88 13 89 16 90 14 91 15 92
REMARK H PARENT 83 23 51 34 18 77 15 93
REMARK Flexibility Score: inf
ROOT
ATOM      1  C   UNL A   1      37.491  21.263  24.655  1.00  0.00     0.274 C 
ENDROOT
BRANCH   1   2
ATOM      2  C   UNL A   1      38.548  21.309  25.770  1.00  0.00     0.275 C 
BRANCH   2   3
ATOM      3  O   UNL A   1      39.496  20.228  25.739  1.00  0.00    -0.458 OA
BRANCH   3   4
ATOM      4  C   UNL A   1      40.802  20.237  26.089  1.00  0.00     0.338 C 
ATOM      5  O   UNL A   1      41.362  19.150  26.240  1.00  0.00    -0.246 OA
BRANCH   4   6
ATOM      6  C   UNL A   1      41.584  21.468  26.470  1.00  0.00     0.060 A 
ATOM      7  C   UNL A   1      41.984  22.518  25.654  1.00  0.00     0.016 A 
ATOM      8  C   UNL A   1      41.742  21.659  27.845  1.00  0.00     0.016 A 
ATOM      9  C   UNL A   1      42.225  23.787  26.202  1.00  0.00     0.010 A 
ATOM     10  C   UNL A   1      41.808  22.947  28.391  1.00  0.00     0.010 A 
ATOM     11  C   UNL A   1      41.953  24.057  27.557  1.00  0.00    -0.014 A 
BRANCH  11  12
ATOM     12  C   UNL A   1      41.978  25.633  28.241  1.00  0.00     0.031 A 
ATOM     13  C   UNL A   1      43.601  25.996  27.373  1.00  0.00     0.074 A 
ATOM     14  C   UNL A   1      40.820  26.813  29.178  1.00  0.00     0.049 A 
ATOM     15  N   UNL A   1      44.042  27.210  27.067  1.00  0.00    -0.248 NA
ATOM     16  C   UNL A   1      44.572  24.979  26.917  1.00  0.00     0.031 C 
ATOM     17  C   UNL A   1      39.180  26.926  29.545  1.00  0.00     0.029 A 
ATOM     18  N   UNL A   1      40.918  28.305  29.609  1.00  0.00    -0.354 N 
ATOM     19  C   UNL A   1      45.316  27.131  26.615  1.00  0.00     0.074 A 
ATOM     20  C   UNL A   1      45.580  25.722  26.455  1.00  0.00     0.031 C 
ATOM     21  C   UNL A   1      38.795  28.043  30.169  1.00  0.00     0.029 A 
ATOM     22  C   UNL A   1      39.890  28.946  30.198  1.00  0.00     0.049 A 
ATOM     23  H   UNL A   1      41.757  28.794  29.448  1.00  0.00     0.167 HD
ATOM     24  C   UNL A   1      46.154  28.177  26.431  1.00  0.00     0.037 A 
ATOM     25  C   UNL A   1      39.905  30.213  30.632  1.00  0.00     0.037 A 
ATOM     26  C   UNL A   1      45.892  29.551  26.859  1.00  0.00     0.049 A 
ATOM     27  C   UNL A   1      41.065  31.088  30.221  1.00  0.00     0.074 A 
ATOM     28  C   UNL A   1      46.742  30.635  26.745  1.00  0.00     0.029 A 
ATOM     29  N   UNL A   1      44.758  30.033  27.549  1.00  0.00    -0.354 N 
ATOM     30  N   UNL A   1      42.096  30.808  29.444  1.00  0.00    -0.248 NA
ATOM     31  C   UNL A   1      41.020  32.467  30.689  1.00  0.00     0.031 C 
ATOM     32  C   UNL A   1      46.191  31.712  27.450  1.00  0.00     0.029 A 
ATOM     33  C   UNL A   1      44.939  31.362  27.952  1.00  0.00     0.049 A 
ATOM     34  H   UNL A   1      43.946  29.504  27.723  1.00  0.00     0.167 HD
ATOM     35  C   UNL A   1      42.847  31.974  29.333  1.00  0.00     0.074 A 
ATOM     36  C   UNL A   1      42.080  32.977  30.076  1.00  0.00     0.031 C 
ATOM     37  C   UNL A   1      44.040  32.239  28.718  1.00  0.00     0.037 A 
BRANCH  24  38
ATOM     38  C   UNL A   1      47.455  27.812  25.783  1.00  0.00     0.064 A 
ATOM     39  C   UNL A   1      47.545  27.735  24.382  1.00  0.00     0.173 A 
ATOM     40  C   UNL A   1      48.592  27.478  26.532  1.00  0.00     0.173 A 
ATOM     41  F   UNL A   1      46.478  28.020  23.621  1.00  0.00    -0.203 F 
ATOM     42  C   UNL A   1      48.704  27.287  23.760  1.00  0.00     0.198 A 
ATOM     43  C   UNL A   1      49.765  27.069  25.901  1.00  0.00     0.198 A 
ATOM     44  F   UNL A   1      48.562  27.524  27.872  1.00  0.00    -0.203 F 
ATOM     45  F   UNL A   1      48.732  27.139  22.428  1.00  0.00    -0.200 F 
ATOM     46  C   UNL A   1      49.815  26.958  24.519  1.00  0.00     0.200 A 
ATOM     47  F   UNL A   1      50.844  26.755  26.633  1.00  0.00    -0.200 F 
ATOM     48  F   UNL A   1      50.928  26.514  23.919  1.00  0.00    -0.200 F 
ENDBRANCH  24  38
BRANCH  25  49
ATOM     49  C   UNL A   1      38.758  30.622  31.462  1.00  0.00     0.064 A 
ATOM     50  C   UNL A   1      38.768  30.504  32.852  1.00  0.00     0.173 A 
ATOM     51  C   UNL A   1      37.715  31.357  30.864  1.00  0.00     0.173 A 
ATOM     52  F   UNL A   1      39.754  29.830  33.461  1.00  0.00    -0.203 F 
ATOM     53  C   UNL A   1      37.787  31.127  33.620  1.00  0.00     0.198 A 
ATOM     54  C   UNL A   1      36.756  32.001  31.633  1.00  0.00     0.198 A 
ATOM     55  F   UNL A   1      37.685  31.514  29.531  1.00  0.00    -0.203 F 
ATOM     56  F   UNL A   1      37.823  31.022  34.956  1.00  0.00    -0.200 F 
ATOM     57  C   UNL A   1      36.795  31.888  33.013  1.00  0.00     0.200 A 
ATOM     58  F   UNL A   1      35.824  32.762  31.043  1.00  0.00    -0.200 F 
ATOM     59  F   UNL A   1      35.886  32.527  33.761  1.00  0.00    -0.200 F 
ENDBRANCH  25  49
BRANCH  37  60
ATOM     60  C   UNL A   1      44.496  33.685  28.844  1.00  0.00     0.064 A 
ATOM     61  C   UNL A   1      45.272  34.139  29.927  1.00  0.00     0.173 A 
ATOM     62  C   UNL A   1      44.141  34.625  27.863  1.00  0.00     0.173 A 
ATOM     63  F   UNL A   1      45.630  33.291  30.904  1.00  0.00    -0.203 F 
ATOM     64  C   UNL A   1      45.611  35.485  30.055  1.00  0.00     0.198 A 
ATOM     65  C   UNL A   1      44.530  35.958  27.967  1.00  0.00     0.198 A 
ATOM     66  F   UNL A   1      43.421  34.248  26.796  1.00  0.00    -0.203 F 
ATOM     67  F   UNL A   1      46.263  35.910  31.146  1.00  0.00    -0.200 F 
ATOM     68  C   UNL A   1      45.246  36.391  29.072  1.00  0.00     0.200 A 
ATOM     69  F   UNL A   1      44.198  36.828  27.002  1.00  0.00    -0.200 F 
ATOM     70  F   UNL A   1      45.571  37.685  29.197  1.00  0.00    -0.200 F 
ENDBRANCH  37  60
ENDBRANCH  11  12
ENDBRANCH   4   6
ENDBRANCH   3   4
ENDBRANCH   2   3
ENDBRANCH   1   2
BRANCH   1  71
ATOM     71  O   UNL A   1      36.380  22.145  24.915  1.00  0.00    -0.461 OA
BRANCH  71  72
ATOM     72  C   UNL A   1      35.720  22.708  23.850  1.00  0.00     0.329 C 
ATOM     73  O   UNL A   1      36.220  22.896  22.750  1.00  0.00    -0.250 OA
BRANCH  72  74
ATOM     74  C   UNL A   1      34.315  23.193  24.290  1.00  0.00     0.197 C 
BRANCH  74  75
ATOM     75  N   UNL A   1      33.595  22.009  24.672  1.00  0.00    -0.338 N 
ATOM     76  C   UNL A   1      32.274  21.790  24.904  1.00  0.00     0.262 C 
ATOM     77  H   UNL A   1      34.163  21.212  24.785  1.00  0.00     0.164 HD
ATOM     78  O   UNL A   1      32.050  20.573  24.931  1.00  0.00    -0.268 OA
BRANCH  76  79
ATOM     79  C   UNL A   1      31.250  22.872  25.220  1.00  0.00     0.093 A 
ATOM     80  C   UNL A   1      30.872  23.974  26.668  1.00  0.00     0.027 A 
ATOM     81  S   UNL A   1      30.812  23.963  23.202  1.00  0.00    -0.118 S 
ATOM     82  C   UNL A   1      30.222  25.790  26.117  1.00  0.00     0.033 A 
ATOM     83  C   UNL A   1      30.118  25.931  24.245  1.00  0.00     0.094 A 
ATOM     84  Cl  UNL A   1      29.936  27.179  23.033  1.00  0.00    -0.072 Cl
ENDBRANCH  76  79
ENDBRANCH  74  75
BRANCH  74  85
ATOM     85  C   UNL A   1      34.341  24.235  25.438  1.00  0.00     0.072 C 
BRANCH  85  86
ATOM     86  C   UNL A   1      33.995  25.674  25.050  1.00  0.00    -0.045 A 
ATOM     87  C   UNL A   1      33.719  26.621  26.046  1.00  0.00     0.007 A 
ATOM     88  C   UNL A   1      33.873  26.096  23.721  1.00  0.00     0.007 A 
ATOM     89  C   UNL A   1      33.501  27.974  25.754  1.00  0.00     0.046 A 
ATOM     90  C   UNL A   1      33.559  27.434  23.416  1.00  0.00     0.046 A 
ATOM     91  C   UNL A   1      33.424  28.373  24.432  1.00  0.00     0.115 A 
BRANCH  91  92
ATOM     92  O   UNL A   1      33.189  29.671  24.089  1.00  0.00    -0.508 OA
ATOM     93  H   UNL A   1      32.924  30.288  24.743  1.00  0.00     0.293 HD
ENDBRANCH  91  92
ENDBRANCH  85  86
ENDBRANCH  74  85
ENDBRANCH  72  74
ENDBRANCH  71  72
ENDBRANCH   1  71
TORSDOF 16
ENDMDL
