MODEL 1
REMARK VINA RESULT:     -10.9      0.000      0.000
REMARK SMILES C[C@](NC(=O)NCCC[NH3+])(C(=O)OCCOC(=O)c1ccc(-c2c3nc(c(-c4c(F)c(F)c(F)c(F)c4F)c4ccc([nH]4)c(-c4c(F)c(F)c(F)c(F)c4F)c4nc(c(-c5c(F)c(F)c(F)c(F)c5F)c5ccc2[nH]5)C=C4)C=C3)cc1)C(F)(F)F
REMARK SMILES IDX 13 1 11 2 12 3 2 4 1 5 82 6 83 7 84 8 85 9 3 10 4 11 5 13
REMARK SMILES IDX 6 14 7 16 8 17 9 18 10 19 14 23 15 24 16 25 17 26 18 27
REMARK SMILES IDX 19 28 20 29 81 30 21 31 80 32 22 33 23 34 24 35 74 36 25 37
REMARK SMILES IDX 79 38 73 39 75 40 26 41 78 42 72 43 71 44 27 46 59 47 39 48
REMARK SMILES IDX 58 49 40 50 43 51 57 52 76 53 41 54 42 55 56 57 77 58 44 59
REMARK SMILES IDX 28 60 29 61 37 62 30 63 31 64 35 65 38 66 32 67 33 68 36 69
REMARK SMILES IDX 34 70 60 71 61 72 69 73 62 74 63 75 67 76 70 77 64 78 65 79
REMARK SMILES IDX 68 80 66 81 45 82 46 83 54 84 47 85 48 86 52 87 55 88 49 89
REMARK SMILES IDX 50 90 53 91 51 92
REMARK H PARENT 3 12 6 15 10 20 10 21 10 22 75 45 43 56
REMARK Flexibility Score: inf
ROOT
ATOM      1  O   UNL A   1      31.114  27.840  24.926  1.00  0.00    -0.460 OA
ENDROOT
BRANCH   1   2
ATOM      2  C   UNL A   1      31.524  27.121  23.838  1.00  0.00     0.341 C 
ATOM      3  O   UNL A   1      31.261  27.440  22.683  1.00  0.00    -0.249 OA
BRANCH   2   4
ATOM      4  C   UNL A   1      32.203  25.789  24.212  1.00  0.00     0.232 C 
ATOM      5  C   UNL A   1      32.044  24.942  22.937  1.00  0.00     0.058 C 
BRANCH   4   6
ATOM      6  C   UNL A   1      33.648  26.221  24.542  1.00  0.00     0.422 C 
ATOM      7  F   UNL A   1      33.772  26.505  25.863  1.00  0.00    -0.168 F 
ATOM      8  F   UNL A   1      34.576  25.275  24.283  1.00  0.00    -0.168 F 
ATOM      9  F   UNL A   1      34.042  27.315  23.851  1.00  0.00    -0.168 F 
ENDBRANCH   4   6
BRANCH   4  10
ATOM     10  N   UNL A   1      31.509  25.160  25.374  1.00  0.00    -0.315 N 
ATOM     11  C   UNL A   1      31.812  24.135  26.180  1.00  0.00     0.315 C 
ATOM     12  H   UNL A   1      30.650  25.588  25.594  1.00  0.00     0.166 HD
ATOM     13  O   UNL A   1      31.281  24.108  27.291  1.00  0.00    -0.249 OA
ATOM     14  N   UNL A   1      32.654  23.142  25.864  1.00  0.00    -0.338 N 
ATOM     15  H   UNL A   1      33.034  22.683  26.647  1.00  0.00     0.165 HD
BRANCH  14  16
ATOM     16  C   UNL A   1      33.118  22.610  24.595  1.00  0.00     0.123 C 
BRANCH  16  17
ATOM     17  C   UNL A   1      33.646  21.181  24.677  1.00  0.00     0.082 C 
BRANCH  17  18
ATOM     18  C   UNL A   1      32.585  20.145  25.037  1.00  0.00     0.260 C 
BRANCH  18  19
ATOM     19  N   UNL A   1      32.962  19.363  26.212  1.00  0.00    -0.358 N 
ATOM     20  H   UNL A   1      32.312  19.558  26.974  1.00  0.00     0.344 HD
ATOM     21  H   UNL A   1      33.908  19.615  26.499  1.00  0.00     0.344 HD
ATOM     22  H   UNL A   1      32.931  18.369  25.984  1.00  0.00     0.344 HD
ENDBRANCH  18  19
ENDBRANCH  17  18
ENDBRANCH  16  17
ENDBRANCH  14  16
ENDBRANCH   4  10
ENDBRANCH   2   4
ENDBRANCH   1   2
BRANCH   1  23
ATOM     23  C   UNL A   1      31.169  29.276  24.765  1.00  0.00     0.274 C 
BRANCH  23  24
ATOM     24  C   UNL A   1      32.495  29.871  25.232  1.00  0.00     0.275 C 
BRANCH  24  25
ATOM     25  O   UNL A   1      32.480  30.069  26.656  1.00  0.00    -0.458 OA
BRANCH  25  26
ATOM     26  C   UNL A   1      33.040  31.220  27.089  1.00  0.00     0.338 C 
ATOM     27  O   UNL A   1      32.526  32.323  27.141  1.00  0.00    -0.246 OA
BRANCH  26  28
ATOM     28  C   UNL A   1      34.413  30.966  27.555  1.00  0.00     0.060 A 
ATOM     29  C   UNL A   1      34.800  29.659  27.828  1.00  0.00     0.016 A 
ATOM     30  C   UNL A   1      35.255  32.024  27.883  1.00  0.00     0.016 A 
ATOM     31  C   UNL A   1      35.968  29.401  28.537  1.00  0.00     0.010 A 
ATOM     32  C   UNL A   1      36.484  31.759  28.502  1.00  0.00     0.010 A 
ATOM     33  C   UNL A   1      36.833  30.449  28.877  1.00  0.00    -0.014 A 
BRANCH  33  34
ATOM     34  C   UNL A   1      38.054  30.177  29.685  1.00  0.00     0.031 A 
ATOM     35  C   UNL A   1      39.174  29.358  29.099  1.00  0.00     0.074 A 
ATOM     36  C   UNL A   1      38.195  30.693  30.923  1.00  0.00     0.049 A 
ATOM     37  N   UNL A   1      40.216  28.831  29.691  1.00  0.00    -0.248 NA
ATOM     38  C   UNL A   1      39.106  29.087  27.654  1.00  0.00     0.031 C 
ATOM     39  C   UNL A   1      37.233  31.569  31.592  1.00  0.00     0.029 A 
ATOM     40  N   UNL A   1      39.216  30.568  31.833  1.00  0.00    -0.354 N 
ATOM     41  C   UNL A   1      40.885  28.111  28.711  1.00  0.00     0.074 A 
ATOM     42  C   UNL A   1      40.144  28.279  27.480  1.00  0.00     0.031 C 
ATOM     43  C   UNL A   1      37.729  31.942  32.782  1.00  0.00     0.029 A 
ATOM     44  C   UNL A   1      38.997  31.255  33.002  1.00  0.00     0.049 A 
ATOM     45  H   UNL A   1      40.027  30.037  31.664  1.00  0.00     0.167 HD
ATOM     46  C   UNL A   1      42.010  27.368  28.834  1.00  0.00     0.037 A 
ATOM     47  C   UNL A   1      39.712  31.294  34.142  1.00  0.00     0.037 A 
ATOM     48  C   UNL A   1      42.784  27.260  30.042  1.00  0.00     0.049 A 
ATOM     49  C   UNL A   1      40.954  30.456  34.258  1.00  0.00     0.074 A 
ATOM     50  C   UNL A   1      43.927  26.513  30.277  1.00  0.00     0.029 A 
ATOM     51  N   UNL A   1      42.510  27.948  31.214  1.00  0.00    -0.354 N 
ATOM     52  N   UNL A   1      41.512  29.677  33.363  1.00  0.00    -0.248 NA
ATOM     53  C   UNL A   1      41.646  30.475  35.554  1.00  0.00     0.031 C 
ATOM     54  C   UNL A   1      44.335  26.739  31.597  1.00  0.00     0.029 A 
ATOM     55  C   UNL A   1      43.464  27.648  32.174  1.00  0.00     0.049 A 
ATOM     56  H   UNL A   1      41.751  28.561  31.345  1.00  0.00     0.167 HD
ATOM     57  C   UNL A   1      42.614  29.111  33.987  1.00  0.00     0.074 A 
ATOM     58  C   UNL A   1      42.666  29.660  35.327  1.00  0.00     0.031 C 
ATOM     59  C   UNL A   1      43.495  28.204  33.500  1.00  0.00     0.037 A 
BRANCH  46  60
ATOM     60  C   UNL A   1      42.451  26.575  27.641  1.00  0.00     0.064 A 
ATOM     61  C   UNL A   1      43.424  27.049  26.750  1.00  0.00     0.173 A 
ATOM     62  C   UNL A   1      41.915  25.298  27.412  1.00  0.00     0.173 A 
ATOM     63  F   UNL A   1      43.954  28.270  26.918  1.00  0.00    -0.203 F 
ATOM     64  C   UNL A   1      43.831  26.281  25.662  1.00  0.00     0.198 A 
ATOM     65  C   UNL A   1      42.341  24.523  26.336  1.00  0.00     0.198 A 
ATOM     66  F   UNL A   1      40.985  24.797  28.238  1.00  0.00    -0.203 F 
ATOM     67  F   UNL A   1      44.738  26.766  24.803  1.00  0.00    -0.200 F 
ATOM     68  C   UNL A   1      43.295  25.016  25.460  1.00  0.00     0.200 A 
ATOM     69  F   UNL A   1      41.829  23.299  26.150  1.00  0.00    -0.200 F 
ATOM     70  F   UNL A   1      43.695  24.276  24.417  1.00  0.00    -0.200 F 
ENDBRANCH  46  60
BRANCH  47  71
ATOM     71  C   UNL A   1      39.237  32.113  35.288  1.00  0.00     0.064 A 
ATOM     72  C   UNL A   1      38.460  31.547  36.306  1.00  0.00     0.173 A 
ATOM     73  C   UNL A   1      39.552  33.477  35.386  1.00  0.00     0.173 A 
ATOM     74  F   UNL A   1      38.107  30.255  36.240  1.00  0.00    -0.203 F 
ATOM     75  C   UNL A   1      38.008  32.317  37.377  1.00  0.00     0.198 A 
ATOM     76  C   UNL A   1      39.126  34.237  36.472  1.00  0.00     0.198 A 
ATOM     77  F   UNL A   1      40.289  34.067  34.434  1.00  0.00    -0.203 F 
ATOM     78  F   UNL A   1      37.232  31.762  38.317  1.00  0.00    -0.200 F 
ATOM     79  C   UNL A   1      38.348  33.659  37.464  1.00  0.00     0.200 A 
ATOM     80  F   UNL A   1      39.467  35.530  36.556  1.00  0.00    -0.200 F 
ATOM     81  F   UNL A   1      37.920  34.396  38.497  1.00  0.00    -0.200 F 
ENDBRANCH  47  71
BRANCH  59  82
ATOM     82  C   UNL A   1      44.588  27.760  34.421  1.00  0.00     0.064 A 
ATOM     83  C   UNL A   1      45.798  28.464  34.505  1.00  0.00     0.173 A 
ATOM     84  C   UNL A   1      44.418  26.636  35.241  1.00  0.00     0.173 A 
ATOM     85  F   UNL A   1      46.010  29.535  33.726  1.00  0.00    -0.203 F 
ATOM     86  C   UNL A   1      46.810  28.044  35.363  1.00  0.00     0.198 A 
ATOM     87  C   UNL A   1      45.426  26.230  36.113  1.00  0.00     0.198 A 
ATOM     88  F   UNL A   1      43.278  25.932  35.197  1.00  0.00    -0.203 F 
ATOM     89  F   UNL A   1      47.974  28.707  35.398  1.00  0.00    -0.200 F 
ATOM     90  C   UNL A   1      46.621  26.931  36.169  1.00  0.00     0.200 A 
ATOM     91  F   UNL A   1      45.242  25.157  36.894  1.00  0.00    -0.200 F 
ATOM     92  F   UNL A   1      47.597  26.527  36.993  1.00  0.00    -0.200 F 
ENDBRANCH  59  82
ENDBRANCH  33  34
ENDBRANCH  26  28
ENDBRANCH  25  26
ENDBRANCH  24  25
ENDBRANCH  23  24
ENDBRANCH   1  23
TORSDOF 17
ENDMDL
MODEL 2
REMARK VINA RESULT:     -10.6      1.127      2.121
REMARK SMILES C[C@](NC(=O)NCCC[NH3+])(C(=O)OCCOC(=O)c1ccc(-c2c3nc(c(-c4c(F)c(F)c(F)c(F)c4F)c4ccc([nH]4)c(-c4c(F)c(F)c(F)c(F)c4F)c4nc(c(-c5c(F)c(F)c(F)c(F)c5F)c5ccc2[nH]5)C=C4)C=C3)cc1)C(F)(F)F
REMARK SMILES IDX 13 1 11 2 12 3 2 4 1 5 82 6 83 7 84 8 85 9 3 10 4 11 5 13
REMARK SMILES IDX 6 14 7 16 8 17 9 18 10 19 14 23 15 24 16 25 17 26 18 27
REMARK SMILES IDX 19 28 20 29 81 30 21 31 80 32 22 33 23 34 24 35 74 36 25 37
REMARK SMILES IDX 79 38 73 39 75 40 26 41 78 42 72 43 71 44 27 46 59 47 39 48
REMARK SMILES IDX 58 49 40 50 43 51 57 52 76 53 41 54 42 55 56 57 77 58 44 59
REMARK SMILES IDX 28 60 29 61 37 62 30 63 31 64 35 65 38 66 32 67 33 68 36 69
REMARK SMILES IDX 34 70 60 71 61 72 69 73 62 74 63 75 67 76 70 77 64 78 65 79
REMARK SMILES IDX 68 80 66 81 45 82 46 83 54 84 47 85 48 86 52 87 55 88 49 89
REMARK SMILES IDX 50 90 53 91 51 92
REMARK H PARENT 3 12 6 15 10 20 10 21 10 22 75 45 43 56
REMARK Flexibility Score: inf
ROOT
ATOM      1  O   UNL A   1      32.111  27.418  25.269  1.00  0.00    -0.460 OA
ENDROOT
BRANCH   1   2
ATOM      2  C   UNL A   1      31.381  26.421  25.855  1.00  0.00     0.341 C 
ATOM      3  O   UNL A   1      30.721  26.582  26.876  1.00  0.00    -0.249 OA
BRANCH   2   4
ATOM      4  C   UNL A   1      31.604  25.043  25.203  1.00  0.00     0.232 C 
ATOM      5  C   UNL A   1      31.227  24.056  26.323  1.00  0.00     0.058 C 
BRANCH   4   6
ATOM      6  C   UNL A   1      30.638  25.073  23.998  1.00  0.00     0.422 C 
ATOM      7  F   UNL A   1      31.226  25.666  22.929  1.00  0.00    -0.168 F 
ATOM      8  F   UNL A   1      30.254  23.851  23.572  1.00  0.00    -0.168 F 
ATOM      9  F   UNL A   1      29.493  25.744  24.258  1.00  0.00    -0.168 F 
ENDBRANCH   4   6
BRANCH   4  10
ATOM     10  N   UNL A   1      33.031  24.884  24.794  1.00  0.00    -0.315 N 
ATOM     11  C   UNL A   1      33.693  23.939  24.117  1.00  0.00     0.315 C 
ATOM     12  H   UNL A   1      33.604  25.631  25.083  1.00  0.00     0.166 HD
ATOM     13  O   UNL A   1      34.747  24.264  23.569  1.00  0.00    -0.249 OA
ATOM     14  N   UNL A   1      33.287  22.668  23.991  1.00  0.00    -0.338 N 
ATOM     15  H   UNL A   1      33.667  22.208  23.208  1.00  0.00     0.165 HD
BRANCH  14  16
ATOM     16  C   UNL A   1      32.395  21.836  24.779  1.00  0.00     0.123 C 
BRANCH  16  17
ATOM     17  C   UNL A   1      33.115  20.837  25.680  1.00  0.00     0.082 C 
BRANCH  17  18
ATOM     18  C   UNL A   1      32.856  19.376  25.322  1.00  0.00     0.260 C 
BRANCH  18  19
ATOM     19  N   UNL A   1      32.817  18.523  26.508  1.00  0.00    -0.358 N 
ATOM     20  H   UNL A   1      31.877  18.533  26.904  1.00  0.00     0.344 HD
ATOM     21  H   UNL A   1      33.482  18.870  27.199  1.00  0.00     0.344 HD
ATOM     22  H   UNL A   1      33.065  17.568  26.247  1.00  0.00     0.344 HD
ENDBRANCH  18  19
ENDBRANCH  17  18
ENDBRANCH  16  17
ENDBRANCH  14  16
ENDBRANCH   4  10
ENDBRANCH   2   4
ENDBRANCH   1   2
BRANCH   1  23
ATOM     23  C   UNL A   1      31.441  28.696  25.187  1.00  0.00     0.274 C 
BRANCH  23  24
ATOM     24  C   UNL A   1      32.384  29.872  25.430  1.00  0.00     0.275 C 
BRANCH  24  25
ATOM     25  O   UNL A   1      32.457  30.171  26.835  1.00  0.00    -0.458 OA
BRANCH  25  26
ATOM     26  C   UNL A   1      33.093  31.321  27.152  1.00  0.00     0.338 C 
ATOM     27  O   UNL A   1      32.647  32.453  27.107  1.00  0.00    -0.246 OA
BRANCH  26  28
ATOM     28  C   UNL A   1      34.456  31.027  27.623  1.00  0.00     0.060 A 
ATOM     29  C   UNL A   1      34.786  29.717  27.952  1.00  0.00     0.016 A 
ATOM     30  C   UNL A   1      35.346  32.060  27.901  1.00  0.00     0.016 A 
ATOM     31  C   UNL A   1      35.946  29.439  28.667  1.00  0.00     0.010 A 
ATOM     32  C   UNL A   1      36.565  31.768  28.526  1.00  0.00     0.010 A 
ATOM     33  C   UNL A   1      36.858  30.461  28.958  1.00  0.00    -0.014 A 
BRANCH  33  34
ATOM     34  C   UNL A   1      38.071  30.171  29.772  1.00  0.00     0.031 A 
ATOM     35  C   UNL A   1      39.180  29.332  29.193  1.00  0.00     0.074 A 
ATOM     36  C   UNL A   1      38.214  30.687  31.009  1.00  0.00     0.049 A 
ATOM     37  N   UNL A   1      40.210  28.790  29.792  1.00  0.00    -0.248 NA
ATOM     38  C   UNL A   1      39.115  29.060  27.748  1.00  0.00     0.031 C 
ATOM     39  C   UNL A   1      37.263  31.580  31.673  1.00  0.00     0.029 A 
ATOM     40  N   UNL A   1      39.229  30.548  31.925  1.00  0.00    -0.354 N 
ATOM     41  C   UNL A   1      40.872  28.057  28.816  1.00  0.00     0.074 A 
ATOM     42  C   UNL A   1      40.141  28.235  27.581  1.00  0.00     0.031 C 
ATOM     43  C   UNL A   1      37.760  31.947  32.864  1.00  0.00     0.029 A 
ATOM     44  C   UNL A   1      39.015  31.240  33.092  1.00  0.00     0.049 A 
ATOM     45  H   UNL A   1      40.032  30.003  31.761  1.00  0.00     0.167 HD
ATOM     46  C   UNL A   1      41.985  27.296  28.946  1.00  0.00     0.037 A 
ATOM     47  C   UNL A   1      39.725  31.270  34.235  1.00  0.00     0.037 A 
ATOM     48  C   UNL A   1      42.751  27.178  30.158  1.00  0.00     0.049 A 
ATOM     49  C   UNL A   1      40.953  30.412  34.359  1.00  0.00     0.074 A 
ATOM     50  C   UNL A   1      43.880  26.413  30.400  1.00  0.00     0.029 A 
ATOM     51  N   UNL A   1      42.482  27.873  31.327  1.00  0.00    -0.354 N 
ATOM     52  N   UNL A   1      41.502  29.622  33.468  1.00  0.00    -0.248 NA
ATOM     53  C   UNL A   1      41.639  30.423  35.658  1.00  0.00     0.031 C 
ATOM     54  C   UNL A   1      44.285  26.635  31.722  1.00  0.00     0.029 A 
ATOM     55  C   UNL A   1      43.426  27.559  32.292  1.00  0.00     0.049 A 
ATOM     56  H   UNL A   1      41.732  28.498  31.453  1.00  0.00     0.167 HD
ATOM     57  C   UNL A   1      42.592  29.039  34.098  1.00  0.00     0.074 A 
ATOM     58  C   UNL A   1      42.646  29.590  35.437  1.00  0.00     0.031 C 
ATOM     59  C   UNL A   1      43.460  28.117  33.618  1.00  0.00     0.037 A 
BRANCH  46  60
ATOM     60  C   UNL A   1      42.419  26.493  27.756  1.00  0.00     0.064 A 
ATOM     61  C   UNL A   1      41.876  25.233  27.470  1.00  0.00     0.173 A 
ATOM     62  C   UNL A   1      43.368  27.018  26.867  1.00  0.00     0.173 A 
ATOM     63  F   UNL A   1      40.976  24.682  28.300  1.00  0.00    -0.203 F 
ATOM     64  C   UNL A   1      42.282  24.519  26.345  1.00  0.00     0.198 A 
ATOM     65  C   UNL A   1      43.755  26.312  25.730  1.00  0.00     0.198 A 
ATOM     66  F   UNL A   1      43.915  28.222  27.093  1.00  0.00    -0.203 F 
ATOM     67  F   UNL A   1      41.775  23.302  26.107  1.00  0.00    -0.200 F 
ATOM     68  C   UNL A   1      43.214  25.062  25.473  1.00  0.00     0.200 A 
ATOM     69  F   UNL A   1      44.649  26.843  24.885  1.00  0.00    -0.200 F 
ATOM     70  F   UNL A   1      43.596  24.377  24.386  1.00  0.00    -0.200 F 
ENDBRANCH  46  60
BRANCH  47  71
ATOM     71  C   UNL A   1      39.259  32.099  35.377  1.00  0.00     0.064 A 
ATOM     72  C   UNL A   1      39.615  33.450  35.479  1.00  0.00     0.173 A 
ATOM     73  C   UNL A   1      38.450  31.557  36.387  1.00  0.00     0.173 A 
ATOM     74  F   UNL A   1      40.412  34.005  34.555  1.00  0.00    -0.203 F 
ATOM     75  C   UNL A   1      39.184  34.227  36.554  1.00  0.00     0.198 A 
ATOM     76  C   UNL A   1      37.996  32.342  37.443  1.00  0.00     0.198 A 
ATOM     77  F   UNL A   1      38.086  30.268  36.337  1.00  0.00    -0.203 F 
ATOM     78  F   UNL A   1      39.572  35.506  36.650  1.00  0.00    -0.200 F 
ATOM     79  C   UNL A   1      38.368  33.675  37.530  1.00  0.00     0.200 A 
ATOM     80  F   UNL A   1      37.198  31.807  38.378  1.00  0.00    -0.200 F 
ATOM     81  F   UNL A   1      37.949  34.424  38.558  1.00  0.00    -0.200 F 
ENDBRANCH  47  71
BRANCH  59  82
ATOM     82  C   UNL A   1      44.541  27.657  34.545  1.00  0.00     0.064 A 
ATOM     83  C   UNL A   1      45.751  28.358  34.654  1.00  0.00     0.173 A 
ATOM     84  C   UNL A   1      44.360  26.521  35.345  1.00  0.00     0.173 A 
ATOM     85  F   UNL A   1      45.974  29.441  33.895  1.00  0.00    -0.203 F 
ATOM     86  C   UNL A   1      46.752  27.924  35.518  1.00  0.00     0.198 A 
ATOM     87  C   UNL A   1      45.356  26.100  36.222  1.00  0.00     0.198 A 
ATOM     88  F   UNL A   1      43.219  25.820  35.276  1.00  0.00    -0.203 F 
ATOM     89  F   UNL A   1      47.917  28.584  35.578  1.00  0.00    -0.200 F 
ATOM     90  C   UNL A   1      46.552  26.798  36.304  1.00  0.00     0.200 A 
ATOM     91  F   UNL A   1      45.161  25.015  36.985  1.00  0.00    -0.200 F 
ATOM     92  F   UNL A   1      47.517  26.380  37.133  1.00  0.00    -0.200 F 
ENDBRANCH  59  82
ENDBRANCH  33  34
ENDBRANCH  26  28
ENDBRANCH  25  26
ENDBRANCH  24  25
ENDBRANCH  23  24
ENDBRANCH   1  23
TORSDOF 17
ENDMDL
MODEL 3
REMARK VINA RESULT:     -10.5      1.606      2.408
REMARK SMILES C[C@](NC(=O)NCCC[NH3+])(C(=O)OCCOC(=O)c1ccc(-c2c3nc(c(-c4c(F)c(F)c(F)c(F)c4F)c4ccc([nH]4)c(-c4c(F)c(F)c(F)c(F)c4F)c4nc(c(-c5c(F)c(F)c(F)c(F)c5F)c5ccc2[nH]5)C=C4)C=C3)cc1)C(F)(F)F
REMARK SMILES IDX 13 1 11 2 12 3 2 4 1 5 82 6 83 7 84 8 85 9 3 10 4 11 5 13
REMARK SMILES IDX 6 14 7 16 8 17 9 18 10 19 14 23 15 24 16 25 17 26 18 27
REMARK SMILES IDX 19 28 20 29 81 30 21 31 80 32 22 33 23 34 24 35 74 36 25 37
REMARK SMILES IDX 79 38 73 39 75 40 26 41 78 42 72 43 71 44 27 46 59 47 39 48
REMARK SMILES IDX 58 49 40 50 43 51 57 52 76 53 41 54 42 55 56 57 77 58 44 59
REMARK SMILES IDX 28 60 29 61 37 62 30 63 31 64 35 65 38 66 32 67 33 68 36 69
REMARK SMILES IDX 34 70 60 71 61 72 69 73 62 74 63 75 67 76 70 77 64 78 65 79
REMARK SMILES IDX 68 80 66 81 45 82 46 83 54 84 47 85 48 86 52 87 55 88 49 89
REMARK SMILES IDX 50 90 53 91 51 92
REMARK H PARENT 3 12 6 15 10 20 10 21 10 22 75 45 43 56
REMARK Flexibility Score: inf
ROOT
ATOM      1  O   UNL A   1      32.080  28.306  25.312  1.00  0.00    -0.460 OA
ENDROOT
BRANCH   1   2
ATOM      2  C   UNL A   1      31.049  27.729  24.626  1.00  0.00     0.341 C 
ATOM      3  O   UNL A   1      30.243  26.962  25.143  1.00  0.00    -0.249 OA
BRANCH   2   4
ATOM      4  C   UNL A   1      31.099  28.004  23.110  1.00  0.00     0.232 C 
ATOM      5  C   UNL A   1      30.653  26.666  22.493  1.00  0.00     0.058 C 
BRANCH   4   6
ATOM      6  C   UNL A   1      30.105  29.174  22.940  1.00  0.00     0.422 C 
ATOM      7  F   UNL A   1      30.249  30.074  23.945  1.00  0.00    -0.168 F 
ATOM      8  F   UNL A   1      30.270  29.873  21.797  1.00  0.00    -0.168 F 
ATOM      9  F   UNL A   1      28.814  28.770  22.936  1.00  0.00    -0.168 F 
ENDBRANCH   4   6
BRANCH   4  10
ATOM     10  N   UNL A   1      32.487  28.362  22.691  1.00  0.00    -0.315 N 
ATOM     11  C   UNL A   1      33.546  27.639  22.306  1.00  0.00     0.315 C 
ATOM     12  H   UNL A   1      32.659  29.331  22.701  1.00  0.00     0.166 HD
ATOM     13  O   UNL A   1      34.403  28.203  21.626  1.00  0.00    -0.249 OA
ATOM     14  N   UNL A   1      33.733  26.346  22.605  1.00  0.00    -0.338 N 
ATOM     15  H   UNL A   1      34.340  25.882  21.985  1.00  0.00     0.165 HD
BRANCH  14  16
ATOM     16  C   UNL A   1      33.218  25.495  23.662  1.00  0.00     0.123 C 
BRANCH  16  17
ATOM     17  C   UNL A   1      34.070  25.494  24.928  1.00  0.00     0.082 C 
BRANCH  17  18
ATOM     18  C   UNL A   1      33.494  24.656  26.066  1.00  0.00     0.260 C 
BRANCH  18  19
ATOM     19  N   UNL A   1      32.033  24.655  26.059  1.00  0.00    -0.358 N 
ATOM     20  H   UNL A   1      31.690  25.496  26.524  1.00  0.00     0.344 HD
ATOM     21  H   UNL A   1      31.691  23.830  26.551  1.00  0.00     0.344 HD
ATOM     22  H   UNL A   1      31.698  24.639  25.095  1.00  0.00     0.344 HD
ENDBRANCH  18  19
ENDBRANCH  17  18
ENDBRANCH  16  17
ENDBRANCH  14  16
ENDBRANCH   4  10
ENDBRANCH   2   4
ENDBRANCH   1   2
BRANCH   1  23
ATOM     23  C   UNL A   1      31.775  28.675  26.676  1.00  0.00     0.274 C 
BRANCH  23  24
ATOM     24  C   UNL A   1      31.702  30.187  26.876  1.00  0.00     0.275 C 
BRANCH  24  25
ATOM     25  O   UNL A   1      32.918  30.809  26.429  1.00  0.00    -0.458 OA
BRANCH  25  26
ATOM     26  C   UNL A   1      33.410  31.773  27.239  1.00  0.00     0.338 C 
ATOM     27  O   UNL A   1      32.865  32.807  27.580  1.00  0.00    -0.246 OA
BRANCH  26  28
ATOM     28  C   UNL A   1      34.746  31.388  27.722  1.00  0.00     0.060 A 
ATOM     29  C   UNL A   1      34.987  30.058  28.046  1.00  0.00     0.016 A 
ATOM     30  C   UNL A   1      35.698  32.360  28.018  1.00  0.00     0.016 A 
ATOM     31  C   UNL A   1      36.119  29.701  28.770  1.00  0.00     0.010 A 
ATOM     32  C   UNL A   1      36.889  31.985  28.653  1.00  0.00     0.010 A 
ATOM     33  C   UNL A   1      37.092  30.660  29.078  1.00  0.00    -0.014 A 
BRANCH  33  34
ATOM     34  C   UNL A   1      38.274  30.286  29.904  1.00  0.00     0.031 A 
ATOM     35  C   UNL A   1      39.358  29.423  29.313  1.00  0.00     0.074 A 
ATOM     36  C   UNL A   1      38.414  30.749  31.162  1.00  0.00     0.049 A 
ATOM     37  N   UNL A   1      40.352  28.814  29.909  1.00  0.00    -0.248 NA
ATOM     38  C   UNL A   1      39.311  29.208  27.858  1.00  0.00     0.031 C 
ATOM     39  C   UNL A   1      37.489  31.656  31.842  1.00  0.00     0.029 A 
ATOM     40  N   UNL A   1      39.403  30.530  32.091  1.00  0.00    -0.354 N 
ATOM     41  C   UNL A   1      41.001  28.090  28.919  1.00  0.00     0.074 A 
ATOM     42  C   UNL A   1      40.303  28.346  27.678  1.00  0.00     0.031 C 
ATOM     43  C   UNL A   1      37.976  31.956  33.055  1.00  0.00     0.029 A 
ATOM     44  C   UNL A   1      39.196  31.187  33.279  1.00  0.00     0.049 A 
ATOM     45  H   UNL A   1      40.185  29.958  31.921  1.00  0.00     0.167 HD
ATOM     46  C   UNL A   1      42.077  27.277  29.040  1.00  0.00     0.037 A 
ATOM     47  C   UNL A   1      39.882  31.142  34.436  1.00  0.00     0.037 A 
ATOM     48  C   UNL A   1      42.813  27.080  30.260  1.00  0.00     0.049 A 
ATOM     49  C   UNL A   1      41.070  30.227  34.549  1.00  0.00     0.074 A 
ATOM     50  C   UNL A   1      43.903  26.258  30.493  1.00  0.00     0.029 A 
ATOM     51  N   UNL A   1      42.551  27.742  31.450  1.00  0.00    -0.354 N 
ATOM     52  N   UNL A   1      41.603  29.449  33.639  1.00  0.00    -0.248 NA
ATOM     53  C   UNL A   1      41.729  30.159  35.861  1.00  0.00     0.031 C 
ATOM     54  C   UNL A   1      44.291  26.412  31.830  1.00  0.00     0.029 A 
ATOM     55  C   UNL A   1      43.461  27.350  32.420  1.00  0.00     0.049 A 
ATOM     56  H   UNL A   1      41.826  28.393  31.587  1.00  0.00     0.167 HD
ATOM     57  C   UNL A   1      42.654  28.796  34.266  1.00  0.00     0.074 A 
ATOM     58  C   UNL A   1      42.705  29.293  35.626  1.00  0.00     0.031 C 
ATOM     59  C   UNL A   1      43.491  27.856  33.767  1.00  0.00     0.037 A 
BRANCH  46  60
ATOM     60  C   UNL A   1      42.501  26.502  27.828  1.00  0.00     0.064 A 
ATOM     61  C   UNL A   1      43.488  26.971  26.952  1.00  0.00     0.173 A 
ATOM     62  C   UNL A   1      41.932  25.246  27.567  1.00  0.00     0.173 A 
ATOM     63  F   UNL A   1      44.050  28.174  27.151  1.00  0.00    -0.203 F 
ATOM     64  C   UNL A   1      43.877  26.220  25.846  1.00  0.00     0.198 A 
ATOM     65  C   UNL A   1      42.340  24.486  26.474  1.00  0.00     0.198 A 
ATOM     66  F   UNL A   1      40.986  24.749  28.379  1.00  0.00    -0.203 F 
ATOM     67  F   UNL A   1      44.799  26.702  25.001  1.00  0.00    -0.200 F 
ATOM     68  C   UNL A   1      43.309  24.975  25.612  1.00  0.00     0.200 A 
ATOM     69  F   UNL A   1      41.796  23.281  26.256  1.00  0.00    -0.200 F 
ATOM     70  F   UNL A   1      43.693  24.250  24.552  1.00  0.00    -0.200 F 
ENDBRANCH  46  60
BRANCH  47  71
ATOM     71  C   UNL A   1      39.429  31.947  35.600  1.00  0.00     0.064 A 
ATOM     72  C   UNL A   1      39.905  33.249  35.806  1.00  0.00     0.173 A 
ATOM     73  C   UNL A   1      38.513  31.431  36.529  1.00  0.00     0.173 A 
ATOM     74  F   UNL A   1      40.806  33.774  34.963  1.00  0.00    -0.203 F 
ATOM     75  C   UNL A   1      39.486  34.002  36.901  1.00  0.00     0.198 A 
ATOM     76  C   UNL A   1      38.072  32.196  37.605  1.00  0.00     0.198 A 
ATOM     77  F   UNL A   1      38.032  30.189  36.378  1.00  0.00    -0.203 F 
ATOM     78  F   UNL A   1      39.987  35.228  37.098  1.00  0.00    -0.200 F 
ATOM     79  C   UNL A   1      38.564  33.478  37.795  1.00  0.00     0.200 A 
ATOM     80  F   UNL A   1      37.173  31.689  38.460  1.00  0.00    -0.200 F 
ATOM     81  F   UNL A   1      38.157  34.205  38.844  1.00  0.00    -0.200 F 
ENDBRANCH  47  71
BRANCH  59  82
ATOM     82  C   UNL A   1      44.533  27.314  34.695  1.00  0.00     0.064 A 
ATOM     83  C   UNL A   1      45.777  27.946  34.839  1.00  0.00     0.173 A 
ATOM     84  C   UNL A   1      44.280  26.169  35.463  1.00  0.00     0.173 A 
ATOM     85  F   UNL A   1      46.069  29.034  34.111  1.00  0.00    -0.203 F 
ATOM     86  C   UNL A   1      46.741  27.436  35.703  1.00  0.00     0.198 A 
ATOM     87  C   UNL A   1      45.239  25.673  36.342  1.00  0.00     0.198 A 
ATOM     88  F   UNL A   1      43.104  25.533  35.360  1.00  0.00    -0.203 F 
ATOM     89  F   UNL A   1      47.938  28.031  35.796  1.00  0.00    -0.200 F 
ATOM     90  C   UNL A   1      46.469  26.303  36.457  1.00  0.00     0.200 A 
ATOM     91  F   UNL A   1      44.975  24.581  37.073  1.00  0.00    -0.200 F 
ATOM     92  F   UNL A   1      47.398  25.812  37.287  1.00  0.00    -0.200 F 
ENDBRANCH  59  82
ENDBRANCH  33  34
ENDBRANCH  26  28
ENDBRANCH  25  26
ENDBRANCH  24  25
ENDBRANCH  23  24
ENDBRANCH   1  23
TORSDOF 17
ENDMDL
