MODEL 1
REMARK VINA RESULT:     -12.5      0.000      0.000
REMARK SMILES O=C(OCCOC(=O)[C@H]1CC[C@H]2CCCC[C@@H]2[N@H+]1[C@@H]1CCCSC1)c1ccc(-c2c3nc(c(-c4c(F)c(F)c(F)c(F)c4F)c4ccc([nH]4)c(-c4c(F)c(F)c(F)c(F)c4F)c4nc(c(-c5c(F)c(F)c(F)c(F)c5F)c5ccc2[nH]5)C=C4)C=C3)cc1
REMARK SMILES IDX 4 1 3 2 2 3 1 4 25 5 26 6 87 7 27 8 86 9 28 10 29 11 30 12
REMARK SMILES IDX 80 13 31 14 85 15 79 16 81 17 32 18 84 19 78 20 77 21 33 23
REMARK SMILES IDX 65 24 45 25 64 26 46 27 49 28 63 29 82 30 47 31 48 32 62 34
REMARK SMILES IDX 83 35 50 36 34 37 35 38 43 39 36 40 37 41 41 42 44 43 38 44
REMARK SMILES IDX 39 45 42 46 40 47 66 48 67 49 75 50 68 51 69 52 73 53 76 54
REMARK SMILES IDX 70 55 71 56 74 57 72 58 51 59 52 60 60 61 53 62 54 63 58 64
REMARK SMILES IDX 61 65 55 66 56 67 59 68 57 69 5 70 6 71 7 72 8 73 9 74 10 75
REMARK SMILES IDX 18 76 11 77 17 78 12 80 16 81 13 82 15 83 14 84 19 85 20 86
REMARK SMILES IDX 24 87 21 88 23 89 22 90
REMARK H PARENT 81 22 49 33 18 79
REMARK Flexibility Score: inf
ROOT
ATOM      1  C   UNL A   1      31.652  32.216  26.989  1.00  0.00     0.275 C 
ENDROOT
BRANCH   1   2
ATOM      2  O   UNL A   1      32.315  33.486  27.128  1.00  0.00    -0.458 OA
BRANCH   2   3
ATOM      3  C   UNL A   1      33.098  33.962  28.124  1.00  0.00     0.338 C 
ATOM      4  O   UNL A   1      32.886  35.090  28.566  1.00  0.00    -0.246 OA
BRANCH   3   5
ATOM      5  C   UNL A   1      34.310  33.244  28.627  1.00  0.00     0.060 A 
ATOM      6  C   UNL A   1      35.561  33.210  28.001  1.00  0.00     0.016 A 
ATOM      7  C   UNL A   1      34.162  32.557  29.845  1.00  0.00     0.016 A 
ATOM      8  C   UNL A   1      36.668  32.617  28.620  1.00  0.00     0.010 A 
ATOM      9  C   UNL A   1      35.260  31.953  30.466  1.00  0.00     0.010 A 
ATOM     10  C   UNL A   1      36.531  32.002  29.864  1.00  0.00    -0.014 A 
BRANCH  10  11
ATOM     11  C   UNL A   1      37.658  31.263  30.475  1.00  0.00     0.031 A 
ATOM     12  C   UNL A   1      38.155  31.778  31.786  1.00  0.00     0.074 A 
ATOM     13  C   UNL A   1      38.230  30.184  29.902  1.00  0.00     0.049 A 
ATOM     14  N   UNL A   1      39.122  31.322  32.533  1.00  0.00    -0.248 NA
ATOM     15  C   UNL A   1      37.427  32.924  32.364  1.00  0.00     0.031 C 
ATOM     16  C   UNL A   1      37.755  29.482  28.713  1.00  0.00     0.029 A 
ATOM     17  N   UNL A   1      39.398  29.528  30.209  1.00  0.00    -0.354 N 
ATOM     18  C   UNL A   1      39.047  32.055  33.703  1.00  0.00     0.074 A 
ATOM     19  C   UNL A   1      38.040  33.072  33.525  1.00  0.00     0.031 C 
ATOM     20  C   UNL A   1      38.709  28.637  28.276  1.00  0.00     0.029 A 
ATOM     21  C   UNL A   1      39.820  28.669  29.217  1.00  0.00     0.049 A 
ATOM     22  H   UNL A   1      39.884  29.657  31.055  1.00  0.00     0.167 HD
ATOM     23  C   UNL A   1      39.712  31.834  34.858  1.00  0.00     0.037 A 
ATOM     24  C   UNL A   1      40.976  27.989  29.094  1.00  0.00     0.037 A 
ATOM     25  C   UNL A   1      40.747  30.852  34.994  1.00  0.00     0.049 A 
ATOM     26  C   UNL A   1      41.881  27.946  30.295  1.00  0.00     0.074 A 
ATOM     27  C   UNL A   1      41.503  30.542  36.106  1.00  0.00     0.029 A 
ATOM     28  N   UNL A   1      41.195  30.043  33.958  1.00  0.00    -0.354 N 
ATOM     29  N   UNL A   1      41.745  28.562  31.445  1.00  0.00    -0.248 NA
ATOM     30  C   UNL A   1      43.039  27.046  30.227  1.00  0.00     0.031 C 
ATOM     31  C   UNL A   1      42.458  29.594  35.722  1.00  0.00     0.029 A 
ATOM     32  C   UNL A   1      42.253  29.265  34.391  1.00  0.00     0.049 A 
ATOM     33  H   UNL A   1      40.815  30.026  33.049  1.00  0.00     0.167 HD
ATOM     34  C   UNL A   1      42.736  28.052  32.269  1.00  0.00     0.074 A 
ATOM     35  C   UNL A   1      43.488  27.103  31.473  1.00  0.00     0.031 C 
ATOM     36  C   UNL A   1      42.974  28.317  33.578  1.00  0.00     0.037 A 
BRANCH  23  37
ATOM     37  C   UNL A   1      39.312  32.675  36.028  1.00  0.00     0.064 A 
ATOM     38  C   UNL A   1      39.913  33.923  36.263  1.00  0.00     0.173 A 
ATOM     39  C   UNL A   1      38.364  32.214  36.948  1.00  0.00     0.173 A 
ATOM     40  F   UNL A   1      40.854  34.391  35.428  1.00  0.00    -0.203 F 
ATOM     41  C   UNL A   1      39.596  34.666  37.397  1.00  0.00     0.198 A 
ATOM     42  C   UNL A   1      38.030  32.972  38.065  1.00  0.00     0.198 A 
ATOM     43  F   UNL A   1      37.777  31.020  36.773  1.00  0.00    -0.203 F 
ATOM     44  F   UNL A   1      40.228  35.824  37.635  1.00  0.00    -0.200 F 
ATOM     45  C   UNL A   1      38.652  34.191  38.294  1.00  0.00     0.200 A 
ATOM     46  F   UNL A   1      37.119  32.513  38.935  1.00  0.00    -0.200 F 
ATOM     47  F   UNL A   1      38.353  34.903  39.390  1.00  0.00    -0.200 F 
ENDBRANCH  23  37
BRANCH  24  48
ATOM     48  C   UNL A   1      41.311  27.240  27.851  1.00  0.00     0.064 A 
ATOM     49  C   UNL A   1      41.072  25.864  27.739  1.00  0.00     0.173 A 
ATOM     50  C   UNL A   1      41.942  27.878  26.772  1.00  0.00     0.173 A 
ATOM     51  F   UNL A   1      40.485  25.203  28.747  1.00  0.00    -0.203 F 
ATOM     52  C   UNL A   1      41.486  25.145  26.617  1.00  0.00     0.198 A 
ATOM     53  C   UNL A   1      42.341  27.161  25.642  1.00  0.00     0.198 A 
ATOM     54  F   UNL A   1      42.194  29.194  26.822  1.00  0.00    -0.203 F 
ATOM     55  F   UNL A   1      41.293  23.821  26.564  1.00  0.00    -0.200 F 
ATOM     56  C   UNL A   1      42.123  25.794  25.570  1.00  0.00     0.200 A 
ATOM     57  F   UNL A   1      42.952  27.793  24.629  1.00  0.00    -0.200 F 
ATOM     58  F   UNL A   1      42.537  25.100  24.500  1.00  0.00    -0.200 F 
ENDBRANCH  24  48
BRANCH  36  59
ATOM     59  C   UNL A   1      44.051  27.523  34.251  1.00  0.00     0.064 A 
ATOM     60  C   UNL A   1      45.362  28.002  34.366  1.00  0.00     0.173 A 
ATOM     61  C   UNL A   1      43.745  26.287  34.841  1.00  0.00     0.173 A 
ATOM     62  F   UNL A   1      45.707  29.170  33.801  1.00  0.00    -0.203 F 
ATOM     63  C   UNL A   1      46.335  27.263  35.030  1.00  0.00     0.198 A 
ATOM     64  C   UNL A   1      44.709  25.569  35.539  1.00  0.00     0.198 A 
ATOM     65  F   UNL A   1      42.501  25.788  34.761  1.00  0.00    -0.203 F 
ATOM     66  F   UNL A   1      47.594  27.716  35.087  1.00  0.00    -0.200 F 
ATOM     67  C   UNL A   1      46.005  26.053  35.627  1.00  0.00     0.200 A 
ATOM     68  F   UNL A   1      44.382  24.411  36.130  1.00  0.00    -0.200 F 
ATOM     69  F   UNL A   1      46.939  25.352  36.283  1.00  0.00    -0.200 F 
ENDBRANCH  36  59
ENDBRANCH  10  11
ENDBRANCH   3   5
ENDBRANCH   2   3
ENDBRANCH   1   2
BRANCH   1  70
ATOM     70  C   UNL A   1      32.568  30.992  26.918  1.00  0.00     0.274 C 
BRANCH  70  71
ATOM     71  O   UNL A   1      31.908  29.795  26.479  1.00  0.00    -0.458 OA
BRANCH  71  72
ATOM     72  C   UNL A   1      32.490  29.161  25.415  1.00  0.00     0.365 C 
ATOM     73  O   UNL A   1      33.303  29.704  24.670  1.00  0.00    -0.245 OA
BRANCH  72  74
ATOM     74  C   UNL A   1      32.065  27.674  25.330  1.00  0.00     0.295 C 
ATOM     75  C   UNL A   1      31.197  27.197  26.500  1.00  0.00     0.078 C 
ATOM     76  N   UNL A   1      31.465  27.307  24.024  1.00  0.00    -0.317 N 
ATOM     77  C   UNL A   1      30.586  25.799  26.308  1.00  0.00     0.016 C 
ATOM     78  C   UNL A   1      31.271  25.847  23.887  1.00  0.00     0.188 C 
ATOM     79  H   UNL A   1      32.150  27.528  23.302  1.00  0.00     0.349 HD
ATOM     80  C   UNL A   1      31.322  25.060  25.216  1.00  0.00     0.048 C 
ATOM     81  C   UNL A   1      32.362  25.205  23.003  1.00  0.00     0.065 C 
ATOM     82  C   UNL A   1      30.804  23.640  24.986  1.00  0.00     0.010 C 
ATOM     83  C   UNL A   1      32.047  23.720  22.752  1.00  0.00     0.006 C 
ATOM     84  C   UNL A   1      31.738  22.912  24.020  1.00  0.00     0.001 C 
BRANCH  76  85
ATOM     85  C   UNL A   1      30.316  28.171  23.630  1.00  0.00     0.195 C 
ATOM     86  C   UNL A   1      28.951  27.476  23.449  1.00  0.00     0.067 C 
ATOM     87  C   UNL A   1      30.664  29.001  22.378  1.00  0.00     0.134 C 
ATOM     88  C   UNL A   1      27.806  28.476  23.338  1.00  0.00     0.017 C 
ATOM     89  S   UNL A   1      29.431  30.312  22.041  1.00  0.00    -0.156 SA
ATOM     90  C   UNL A   1      27.906  29.327  22.089  1.00  0.00     0.070 C 
ENDBRANCH  76  85
ENDBRANCH  72  74
ENDBRANCH  71  72
ENDBRANCH  70  71
ENDBRANCH   1  70
TORSDOF 12
ENDMDL
MODEL 2
REMARK VINA RESULT:     -12.3      0.241      1.164
REMARK SMILES O=C(OCCOC(=O)[C@H]1CC[C@H]2CCCC[C@@H]2[N@H+]1[C@@H]1CCCSC1)c1ccc(-c2c3nc(c(-c4c(F)c(F)c(F)c(F)c4F)c4ccc([nH]4)c(-c4c(F)c(F)c(F)c(F)c4F)c4nc(c(-c5c(F)c(F)c(F)c(F)c5F)c5ccc2[nH]5)C=C4)C=C3)cc1
REMARK SMILES IDX 4 1 3 2 2 3 1 4 25 5 26 6 87 7 27 8 86 9 28 10 29 11 30 12
REMARK SMILES IDX 80 13 31 14 85 15 79 16 81 17 32 18 84 19 78 20 77 21 33 23
REMARK SMILES IDX 65 24 45 25 64 26 46 27 49 28 63 29 82 30 47 31 48 32 62 34
REMARK SMILES IDX 83 35 50 36 34 37 35 38 43 39 36 40 37 41 41 42 44 43 38 44
REMARK SMILES IDX 39 45 42 46 40 47 66 48 67 49 75 50 68 51 69 52 73 53 76 54
REMARK SMILES IDX 70 55 71 56 74 57 72 58 51 59 52 60 60 61 53 62 54 63 58 64
REMARK SMILES IDX 61 65 55 66 56 67 59 68 57 69 5 70 6 71 7 72 8 73 9 74 10 75
REMARK SMILES IDX 18 76 11 77 17 78 12 80 16 81 13 82 15 83 14 84 19 85 20 86
REMARK SMILES IDX 24 87 21 88 23 89 22 90
REMARK H PARENT 81 22 49 33 18 79
REMARK Flexibility Score: inf
ROOT
ATOM      1  C   UNL A   1      31.775  32.258  27.055  1.00  0.00     0.275 C 
ENDROOT
BRANCH   1   2
ATOM      2  O   UNL A   1      32.584  33.446  27.120  1.00  0.00    -0.458 OA
BRANCH   2   3
ATOM      3  C   UNL A   1      33.355  33.930  28.122  1.00  0.00     0.338 C 
ATOM      4  O   UNL A   1      33.130  35.057  28.560  1.00  0.00    -0.246 OA
BRANCH   3   5
ATOM      5  C   UNL A   1      34.566  33.221  28.639  1.00  0.00     0.060 A 
ATOM      6  C   UNL A   1      35.856  33.307  28.104  1.00  0.00     0.016 A 
ATOM      7  C   UNL A   1      34.373  32.408  29.771  1.00  0.00     0.016 A 
ATOM      8  C   UNL A   1      36.949  32.706  28.740  1.00  0.00     0.010 A 
ATOM      9  C   UNL A   1      35.457  31.796  30.406  1.00  0.00     0.010 A 
ATOM     10  C   UNL A   1      36.761  31.963  29.905  1.00  0.00    -0.014 A 
BRANCH  10  11
ATOM     11  C   UNL A   1      37.882  31.219  30.520  1.00  0.00     0.031 A 
ATOM     12  C   UNL A   1      38.384  31.739  31.828  1.00  0.00     0.074 A 
ATOM     13  C   UNL A   1      38.445  30.131  29.954  1.00  0.00     0.049 A 
ATOM     14  N   UNL A   1      39.347  31.280  32.578  1.00  0.00    -0.248 NA
ATOM     15  C   UNL A   1      37.666  32.894  32.399  1.00  0.00     0.031 C 
ATOM     16  C   UNL A   1      37.964  29.425  28.770  1.00  0.00     0.029 A 
ATOM     17  N   UNL A   1      39.607  29.467  30.265  1.00  0.00    -0.354 N 
ATOM     18  C   UNL A   1      39.280  32.020  33.743  1.00  0.00     0.074 A 
ATOM     19  C   UNL A   1      38.281  33.045  33.559  1.00  0.00     0.031 C 
ATOM     20  C   UNL A   1      38.911  28.570  28.339  1.00  0.00     0.029 A 
ATOM     21  C   UNL A   1      40.022  28.599  29.279  1.00  0.00     0.049 A 
ATOM     22  H   UNL A   1      40.095  29.598  31.111  1.00  0.00     0.167 HD
ATOM     23  C   UNL A   1      39.942  31.802  34.899  1.00  0.00     0.037 A 
ATOM     24  C   UNL A   1      41.173  27.908  29.160  1.00  0.00     0.037 A 
ATOM     25  C   UNL A   1      40.969  30.812  35.042  1.00  0.00     0.049 A 
ATOM     26  C   UNL A   1      42.077  27.865  30.362  1.00  0.00     0.074 A 
ATOM     27  C   UNL A   1      41.724  30.503  36.155  1.00  0.00     0.029 A 
ATOM     28  N   UNL A   1      41.410  29.992  34.010  1.00  0.00    -0.354 N 
ATOM     29  N   UNL A   1      41.947  28.490  31.507  1.00  0.00    -0.248 NA
ATOM     30  C   UNL A   1      43.228  26.955  30.299  1.00  0.00     0.031 C 
ATOM     31  C   UNL A   1      42.670  29.544  35.778  1.00  0.00     0.029 A 
ATOM     32  C   UNL A   1      42.462  29.208  34.448  1.00  0.00     0.049 A 
ATOM     33  H   UNL A   1      41.030  29.972  33.102  1.00  0.00     0.167 HD
ATOM     34  C   UNL A   1      42.934  27.977  32.335  1.00  0.00     0.074 A 
ATOM     35  C   UNL A   1      43.678  27.017  31.545  1.00  0.00     0.031 C 
ATOM     36  C   UNL A   1      43.174  28.249  33.642  1.00  0.00     0.037 A 
BRANCH  23  37
ATOM     37  C   UNL A   1      39.551  32.654  36.063  1.00  0.00     0.064 A 
ATOM     38  C   UNL A   1      40.231  33.850  36.350  1.00  0.00     0.173 A 
ATOM     39  C   UNL A   1      38.526  32.253  36.929  1.00  0.00     0.173 A 
ATOM     40  F   UNL A   1      41.244  34.256  35.569  1.00  0.00    -0.203 F 
ATOM     41  C   UNL A   1      39.916  34.598  37.480  1.00  0.00     0.198 A 
ATOM     42  C   UNL A   1      38.196  33.018  38.043  1.00  0.00     0.198 A 
ATOM     43  F   UNL A   1      37.861  31.110  36.705  1.00  0.00    -0.203 F 
ATOM     44  F   UNL A   1      40.620  35.701  37.769  1.00  0.00    -0.200 F 
ATOM     45  C   UNL A   1      38.896  34.183  38.323  1.00  0.00     0.200 A 
ATOM     46  F   UNL A   1      37.212  32.617  38.859  1.00  0.00    -0.200 F 
ATOM     47  F   UNL A   1      38.598  34.900  39.415  1.00  0.00    -0.200 F 
ENDBRANCH  23  37
BRANCH  24  48
ATOM     48  C   UNL A   1      41.500  27.148  27.923  1.00  0.00     0.064 A 
ATOM     49  C   UNL A   1      41.145  25.801  27.775  1.00  0.00     0.173 A 
ATOM     50  C   UNL A   1      42.239  27.740  26.886  1.00  0.00     0.173 A 
ATOM     51  F   UNL A   1      40.452  25.182  28.743  1.00  0.00    -0.203 F 
ATOM     52  C   UNL A   1      41.549  25.062  26.662  1.00  0.00     0.198 A 
ATOM     53  C   UNL A   1      42.628  27.005  25.764  1.00  0.00     0.198 A 
ATOM     54  F   UNL A   1      42.604  29.028  26.971  1.00  0.00    -0.203 F 
ATOM     55  F   UNL A   1      41.242  23.761  26.577  1.00  0.00    -0.200 F 
ATOM     56  C   UNL A   1      42.293  25.665  25.659  1.00  0.00     0.200 A 
ATOM     57  F   UNL A   1      43.342  27.593  24.794  1.00  0.00    -0.200 F 
ATOM     58  F   UNL A   1      42.696  24.950  24.599  1.00  0.00    -0.200 F 
ENDBRANCH  24  48
BRANCH  36  59
ATOM     59  C   UNL A   1      44.245  27.450  34.319  1.00  0.00     0.064 A 
ATOM     60  C   UNL A   1      43.986  26.200  34.895  1.00  0.00     0.173 A 
ATOM     61  C   UNL A   1      45.566  27.925  34.336  1.00  0.00     0.173 A 
ATOM     62  F   UNL A   1      42.735  25.714  34.919  1.00  0.00    -0.203 F 
ATOM     63  C   UNL A   1      45.007  25.462  35.483  1.00  0.00     0.198 A 
ATOM     64  C   UNL A   1      46.592  27.166  34.888  1.00  0.00     0.198 A 
ATOM     65  F   UNL A   1      45.865  29.116  33.793  1.00  0.00    -0.203 F 
ATOM     66  F   UNL A   1      44.729  24.291  36.071  1.00  0.00    -0.200 F 
ATOM     67  C   UNL A   1      46.310  25.939  35.468  1.00  0.00     0.200 A 
ATOM     68  F   UNL A   1      47.851  27.622  34.856  1.00  0.00    -0.200 F 
ATOM     69  F   UNL A   1      47.295  25.217  36.018  1.00  0.00    -0.200 F 
ENDBRANCH  36  59
ENDBRANCH  10  11
ENDBRANCH   3   5
ENDBRANCH   2   3
ENDBRANCH   1   2
BRANCH   1  70
ATOM     70  C   UNL A   1      32.538  30.941  26.895  1.00  0.00     0.274 C 
BRANCH  70  71
ATOM     71  O   UNL A   1      31.789  29.908  26.238  1.00  0.00    -0.458 OA
BRANCH  71  72
ATOM     72  C   UNL A   1      32.469  29.212  25.277  1.00  0.00     0.365 C 
ATOM     73  O   UNL A   1      33.357  29.708  24.587  1.00  0.00    -0.245 OA
BRANCH  72  74
ATOM     74  C   UNL A   1      32.042  27.724  25.235  1.00  0.00     0.295 C 
ATOM     75  C   UNL A   1      31.203  27.273  26.437  1.00  0.00     0.078 C 
ATOM     76  N   UNL A   1      31.409  27.328  23.954  1.00  0.00    -0.317 N 
ATOM     77  C   UNL A   1      30.588  25.872  26.293  1.00  0.00     0.016 C 
ATOM     78  C   UNL A   1      31.211  25.865  23.854  1.00  0.00     0.188 C 
ATOM     79  H   UNL A   1      32.075  27.532  23.210  1.00  0.00     0.349 HD
ATOM     80  C   UNL A   1      31.296  25.108  25.199  1.00  0.00     0.048 C 
ATOM     81  C   UNL A   1      32.279  25.203  22.957  1.00  0.00     0.065 C 
ATOM     82  C   UNL A   1      30.772  23.684  25.013  1.00  0.00     0.010 C 
ATOM     83  C   UNL A   1      31.958  23.713  22.747  1.00  0.00     0.006 C 
ATOM     84  C   UNL A   1      31.681  22.934  24.040  1.00  0.00     0.001 C 
BRANCH  76  85
ATOM     85  C   UNL A   1      30.250  28.184  23.570  1.00  0.00     0.195 C 
ATOM     86  C   UNL A   1      28.892  27.476  23.385  1.00  0.00     0.067 C 
ATOM     87  C   UNL A   1      30.588  29.029  22.325  1.00  0.00     0.134 C 
ATOM     88  C   UNL A   1      27.737  28.465  23.285  1.00  0.00     0.017 C 
ATOM     89  S   UNL A   1      29.340  30.330  22.002  1.00  0.00    -0.156 SA
ATOM     90  C   UNL A   1      27.825  29.329  22.044  1.00  0.00     0.070 C 
ENDBRANCH  76  85
ENDBRANCH  72  74
ENDBRANCH  71  72
ENDBRANCH  70  71
ENDBRANCH   1  70
TORSDOF 12
ENDMDL
MODEL 3
REMARK VINA RESULT:     -12.3      0.947      7.460
REMARK SMILES O=C(OCCOC(=O)[C@H]1CC[C@H]2CCCC[C@@H]2[N@H+]1[C@@H]1CCCSC1)c1ccc(-c2c3nc(c(-c4c(F)c(F)c(F)c(F)c4F)c4ccc([nH]4)c(-c4c(F)c(F)c(F)c(F)c4F)c4nc(c(-c5c(F)c(F)c(F)c(F)c5F)c5ccc2[nH]5)C=C4)C=C3)cc1
REMARK SMILES IDX 4 1 3 2 2 3 1 4 25 5 26 6 87 7 27 8 86 9 28 10 29 11 30 12
REMARK SMILES IDX 80 13 31 14 85 15 79 16 81 17 32 18 84 19 78 20 77 21 33 23
REMARK SMILES IDX 65 24 45 25 64 26 46 27 49 28 63 29 82 30 47 31 48 32 62 34
REMARK SMILES IDX 83 35 50 36 34 37 35 38 43 39 36 40 37 41 41 42 44 43 38 44
REMARK SMILES IDX 39 45 42 46 40 47 66 48 67 49 75 50 68 51 69 52 73 53 76 54
REMARK SMILES IDX 70 55 71 56 74 57 72 58 51 59 52 60 60 61 53 62 54 63 58 64
REMARK SMILES IDX 61 65 55 66 56 67 59 68 57 69 5 70 6 71 7 72 8 73 9 74 10 75
REMARK SMILES IDX 18 76 11 77 17 78 12 80 16 81 13 82 15 83 14 84 19 85 20 86
REMARK SMILES IDX 24 87 21 88 23 89 22 90
REMARK H PARENT 81 22 49 33 18 79
REMARK Flexibility Score: inf
ROOT
ATOM      1  C   UNL A   1      31.598  32.183  27.035  1.00  0.00     0.275 C 
ENDROOT
BRANCH   1   2
ATOM      2  O   UNL A   1      32.310  33.433  27.061  1.00  0.00    -0.458 OA
BRANCH   2   3
ATOM      3  C   UNL A   1      32.925  34.072  28.084  1.00  0.00     0.338 C 
ATOM      4  O   UNL A   1      32.489  35.159  28.460  1.00  0.00    -0.246 OA
BRANCH   3   5
ATOM      5  C   UNL A   1      34.203  33.595  28.697  1.00  0.00     0.060 A 
ATOM      6  C   UNL A   1      35.492  33.911  28.255  1.00  0.00     0.016 A 
ATOM      7  C   UNL A   1      34.077  32.763  29.824  1.00  0.00     0.016 A 
ATOM      8  C   UNL A   1      36.625  33.520  28.977  1.00  0.00     0.010 A 
ATOM      9  C   UNL A   1      35.204  32.357  30.545  1.00  0.00     0.010 A 
ATOM     10  C   UNL A   1      36.490  32.757  30.136  1.00  0.00    -0.014 A 
BRANCH  10  11
ATOM     11  C   UNL A   1      37.678  32.229  30.842  1.00  0.00     0.031 A 
ATOM     12  C   UNL A   1      38.290  30.991  30.274  1.00  0.00     0.074 A 
ATOM     13  C   UNL A   1      38.201  32.809  31.943  1.00  0.00     0.049 A 
ATOM     14  N   UNL A   1      39.331  30.324  30.691  1.00  0.00    -0.248 NA
ATOM     15  C   UNL A   1      37.689  30.466  29.034  1.00  0.00     0.031 C 
ATOM     16  C   UNL A   1      37.808  34.094  32.514  1.00  0.00     0.029 A 
ATOM     17  N   UNL A   1      39.139  32.343  32.833  1.00  0.00    -0.354 N 
ATOM     18  C   UNL A   1      39.565  29.374  29.714  1.00  0.00     0.074 A 
ATOM     19  C   UNL A   1      38.490  29.453  28.755  1.00  0.00     0.031 C 
ATOM     20  C   UNL A   1      38.340  34.223  33.744  1.00  0.00     0.029 A 
ATOM     21  C   UNL A   1      39.192  33.070  34.002  1.00  0.00     0.049 A 
ATOM     22  H   UNL A   1      39.717  31.566  32.653  1.00  0.00     0.167 HD
ATOM     23  C   UNL A   1      40.637  28.563  29.592  1.00  0.00     0.037 A 
ATOM     24  C   UNL A   1      39.860  32.825  35.146  1.00  0.00     0.037 A 
ATOM     25  C   UNL A   1      41.665  28.463  30.587  1.00  0.00     0.049 A 
ATOM     26  C   UNL A   1      40.891  31.730  35.119  1.00  0.00     0.074 A 
ATOM     27  C   UNL A   1      42.794  27.670  30.587  1.00  0.00     0.029 A 
ATOM     28  N   UNL A   1      41.659  29.165  31.787  1.00  0.00    -0.354 N 
ATOM     29  N   UNL A   1      41.181  30.901  34.146  1.00  0.00    -0.248 NA
ATOM     30  C   UNL A   1      41.753  31.596  36.301  1.00  0.00     0.031 C 
ATOM     31  C   UNL A   1      43.435  27.839  31.819  1.00  0.00     0.029 A 
ATOM     32  C   UNL A   1      42.742  28.787  32.558  1.00  0.00     0.049 A 
ATOM     33  H   UNL A   1      40.984  29.832  32.048  1.00  0.00     0.167 HD
ATOM     34  C   UNL A   1      42.316  30.217  34.552  1.00  0.00     0.074 A 
ATOM     35  C   UNL A   1      42.639  30.704  35.878  1.00  0.00     0.031 C 
ATOM     36  C   UNL A   1      43.047  29.300  33.871  1.00  0.00     0.037 A 
BRANCH  23  37
ATOM     37  C   UNL A   1      40.719  27.750  28.341  1.00  0.00     0.064 A 
ATOM     38  C   UNL A   1      40.130  26.477  28.262  1.00  0.00     0.173 A 
ATOM     39  C   UNL A   1      41.431  28.218  27.230  1.00  0.00     0.173 A 
ATOM     40  F   UNL A   1      39.468  25.970  29.314  1.00  0.00    -0.203 F 
ATOM     41  C   UNL A   1      40.277  25.690  27.123  1.00  0.00     0.198 A 
ATOM     42  C   UNL A   1      41.553  27.440  26.084  1.00  0.00     0.198 A 
ATOM     43  F   UNL A   1      42.026  29.420  27.266  1.00  0.00    -0.203 F 
ATOM     44  F   UNL A   1      39.762  24.454  27.093  1.00  0.00    -0.200 F 
ATOM     45  C   UNL A   1      40.985  26.175  26.034  1.00  0.00     0.200 A 
ATOM     46  F   UNL A   1      42.239  27.906  25.032  1.00  0.00    -0.200 F 
ATOM     47  F   UNL A   1      41.134  25.414  24.940  1.00  0.00    -0.200 F 
ENDBRANCH  23  37
BRANCH  24  48
ATOM     48  C   UNL A   1      39.650  33.655  36.364  1.00  0.00     0.064 A 
ATOM     49  C   UNL A   1      38.804  33.236  37.399  1.00  0.00     0.173 A 
ATOM     50  C   UNL A   1      40.241  34.923  36.484  1.00  0.00     0.173 A 
ATOM     51  F   UNL A   1      38.201  32.040  37.326  1.00  0.00    -0.203 F 
ATOM     52  C   UNL A   1      38.523  34.064  38.487  1.00  0.00     0.198 A 
ATOM     53  C   UNL A   1      39.974  35.744  37.582  1.00  0.00     0.198 A 
ATOM     54  F   UNL A   1      41.062  35.376  35.526  1.00  0.00    -0.203 F 
ATOM     55  F   UNL A   1      37.666  33.656  39.432  1.00  0.00    -0.200 F 
ATOM     56  C   UNL A   1      39.106  35.318  38.576  1.00  0.00     0.200 A 
ATOM     57  F   UNL A   1      40.544  36.954  37.667  1.00  0.00    -0.200 F 
ATOM     58  F   UNL A   1      38.822  36.120  39.612  1.00  0.00    -0.200 F 
ENDBRANCH  24  48
BRANCH  36  59
ATOM     59  C   UNL A   1      44.304  28.809  34.520  1.00  0.00     0.064 A 
ATOM     60  C   UNL A   1      45.523  29.483  34.377  1.00  0.00     0.173 A 
ATOM     61  C   UNL A   1      44.267  27.676  35.348  1.00  0.00     0.173 A 
ATOM     62  F   UNL A   1      45.612  30.559  33.580  1.00  0.00    -0.203 F 
ATOM     63  C   UNL A   1      46.668  29.028  35.023  1.00  0.00     0.198 A 
ATOM     64  C   UNL A   1      45.403  27.248  36.025  1.00  0.00     0.198 A 
ATOM     65  F   UNL A   1      43.120  27.000  35.520  1.00  0.00    -0.203 F 
ATOM     66  F   UNL A   1      47.835  29.657  34.834  1.00  0.00    -0.200 F 
ATOM     67  C   UNL A   1      46.605  27.919  35.856  1.00  0.00     0.200 A 
ATOM     68  F   UNL A   1      45.334  26.189  36.843  1.00  0.00    -0.200 F 
ATOM     69  F   UNL A   1      47.704  27.495  36.493  1.00  0.00    -0.200 F 
ENDBRANCH  36  59
ENDBRANCH  10  11
ENDBRANCH   3   5
ENDBRANCH   2   3
ENDBRANCH   1   2
BRANCH   1  70
ATOM     70  C   UNL A   1      32.465  30.925  26.943  1.00  0.00     0.274 C 
BRANCH  70  71
ATOM     71  O   UNL A   1      31.797  29.797  26.360  1.00  0.00    -0.458 OA
BRANCH  71  72
ATOM     72  C   UNL A   1      32.490  29.150  25.373  1.00  0.00     0.365 C 
ATOM     73  O   UNL A   1      33.374  29.687  24.709  1.00  0.00    -0.245 OA
BRANCH  72  74
ATOM     74  C   UNL A   1      32.083  27.660  25.266  1.00  0.00     0.295 C 
ATOM     75  C   UNL A   1      31.241  27.149  26.442  1.00  0.00     0.078 C 
ATOM     76  N   UNL A   1      31.465  27.310  23.965  1.00  0.00    -0.317 N 
ATOM     77  C   UNL A   1      30.646  25.747  26.235  1.00  0.00     0.016 C 
ATOM     78  C   UNL A   1      31.287  25.850  23.803  1.00  0.00     0.188 C 
ATOM     79  H   UNL A   1      32.134  27.554  23.235  1.00  0.00     0.349 HD
ATOM     80  C   UNL A   1      31.372  25.039  25.116  1.00  0.00     0.048 C 
ATOM     81  C   UNL A   1      32.370  25.240  22.888  1.00  0.00     0.065 C 
ATOM     82  C   UNL A   1      30.868  23.617  24.867  1.00  0.00     0.010 C 
ATOM     83  C   UNL A   1      32.070  23.756  22.614  1.00  0.00     0.006 C 
ATOM     84  C   UNL A   1      31.793  22.920  23.871  1.00  0.00     0.001 C 
BRANCH  76  85
ATOM     85  C   UNL A   1      30.298  28.166  23.608  1.00  0.00     0.195 C 
ATOM     86  C   UNL A   1      28.958  27.446  23.350  1.00  0.00     0.067 C 
ATOM     87  C   UNL A   1      30.645  29.091  22.424  1.00  0.00     0.134 C 
ATOM     88  C   UNL A   1      27.786  28.418  23.284  1.00  0.00     0.017 C 
ATOM     89  S   UNL A   1      29.379  30.386  22.152  1.00  0.00    -0.156 SA
ATOM     90  C   UNL A   1      27.884  29.357  22.099  1.00  0.00     0.070 C 
ENDBRANCH  76  85
ENDBRANCH  72  74
ENDBRANCH  71  72
ENDBRANCH  70  71
ENDBRANCH   1  70
TORSDOF 12
ENDMDL
