MODEL 1
REMARK VINA RESULT:     -12.2      0.000      0.000
REMARK SMILES C[N@H+]([C@@H]1CCOC2(CCCC2)C1)C(C)(C)C(=O)OCCOC(=O)c1ccc(-c2c3nc(c(-c4c(F)c(F)c(F)c(F)c4F)c4ccc([nH]4)c(-c4c(F)c(F)c(F)c(F)c4F)c4nc(c(-c5c(F)c(F)c(F)c(F)c5F)c5ccc2[nH]5)C=C4)C=C3)cc1
REMARK SMILES IDX 19 1 18 2 16 3 17 4 13 5 14 6 15 7 2 8 1 9 3 11 4 12 12 13
REMARK SMILES IDX 5 14 7 15 6 16 8 17 11 18 9 19 10 20 20 21 21 22 22 23 23 24
REMARK SMILES IDX 24 25 25 26 86 27 26 28 85 29 27 30 28 31 29 32 79 33 30 34
REMARK SMILES IDX 84 35 78 36 80 37 31 38 83 39 77 40 76 41 32 43 64 44 44 45
REMARK SMILES IDX 63 46 45 47 48 48 62 49 81 50 46 51 47 52 61 54 82 55 49 56
REMARK SMILES IDX 33 57 34 58 42 59 35 60 36 61 40 62 43 63 37 64 38 65 41 66
REMARK SMILES IDX 39 67 65 68 66 69 74 70 67 71 68 72 72 73 75 74 69 75 70 76
REMARK SMILES IDX 73 77 71 78 50 79 51 80 59 81 52 82 53 83 57 84 60 85 54 86
REMARK SMILES IDX 55 87 58 88 56 89
REMARK H PARENT 2 10 80 42 48 53
REMARK Flexibility Score: inf
ROOT
ATOM      1  C   UNL A   1      31.930  28.093  27.333  1.00  0.00     0.274 C 
ENDROOT
BRANCH   1   2
ATOM      2  O   UNL A   1      32.071  27.290  26.146  1.00  0.00    -0.457 OA
BRANCH   2   3
ATOM      3  C   UNL A   1      30.950  26.629  25.722  1.00  0.00     0.367 C 
ATOM      4  O   UNL A   1      30.251  25.969  26.478  1.00  0.00    -0.245 OA
BRANCH   3   5
ATOM      5  C   UNL A   1      30.690  26.875  24.204  1.00  0.00     0.190 C 
ATOM      6  C   UNL A   1      30.703  28.386  23.909  1.00  0.00     0.092 C 
ATOM      7  C   UNL A   1      29.222  26.413  23.958  1.00  0.00     0.092 C 
BRANCH   5   8
ATOM      8  N   UNL A   1      31.673  26.206  23.278  1.00  0.00    -0.321 N 
ATOM      9  C   UNL A   1      32.421  27.096  22.385  1.00  0.00     0.333 C 
ATOM     10  H   UNL A   1      32.241  25.924  24.077  1.00  0.00     0.349 HD
BRANCH   8  11
ATOM     11  C   UNL A   1      31.508  24.832  22.744  1.00  0.00     0.189 C 
ATOM     12  C   UNL A   1      30.659  23.751  23.445  1.00  0.00     0.093 C 
ATOM     13  C   UNL A   1      32.874  24.117  22.593  1.00  0.00     0.100 C 
ATOM     14  C   UNL A   1      31.329  23.027  24.606  1.00  0.00     0.167 C 
ATOM     15  C   UNL A   1      33.528  23.853  23.958  1.00  0.00     0.074 C 
ATOM     16  O   UNL A   1      32.586  23.547  24.994  1.00  0.00    -0.375 OA
ATOM     17  C   UNL A   1      34.588  22.732  23.886  1.00  0.00     0.036 C 
ATOM     18  C   UNL A   1      34.311  25.073  24.477  1.00  0.00     0.036 C 
ATOM     19  C   UNL A   1      35.855  23.291  24.541  1.00  0.00     0.003 C 
ATOM     20  C   UNL A   1      35.380  24.467  25.369  1.00  0.00     0.003 C 
ENDBRANCH   8  11
ENDBRANCH   5   8
ENDBRANCH   3   5
ENDBRANCH   2   3
ENDBRANCH   1   2
BRANCH   1  21
ATOM     21  C   UNL A   1      31.788  29.586  27.016  1.00  0.00     0.275 C 
BRANCH  21  22
ATOM     22  O   UNL A   1      33.024  30.145  26.525  1.00  0.00    -0.458 OA
BRANCH  22  23
ATOM     23  C   UNL A   1      33.447  31.272  27.137  1.00  0.00     0.338 C 
ATOM     24  O   UNL A   1      32.814  32.303  27.319  1.00  0.00    -0.246 OA
BRANCH  23  25
ATOM     25  C   UNL A   1      34.784  31.056  27.711  1.00  0.00     0.060 A 
ATOM     26  C   UNL A   1      35.130  29.756  28.076  1.00  0.00     0.016 A 
ATOM     27  C   UNL A   1      35.649  32.109  27.992  1.00  0.00     0.016 A 
ATOM     28  C   UNL A   1      36.330  29.477  28.716  1.00  0.00     0.010 A 
ATOM     29  C   UNL A   1      36.863  31.837  28.639  1.00  0.00     0.010 A 
ATOM     30  C   UNL A   1      37.202  30.521  29.011  1.00  0.00    -0.014 A 
BRANCH  30  31
ATOM     31  C   UNL A   1      38.421  30.248  29.805  1.00  0.00     0.031 A 
ATOM     32  C   UNL A   1      39.478  29.358  29.227  1.00  0.00     0.074 A 
ATOM     33  C   UNL A   1      38.606  30.822  31.006  1.00  0.00     0.049 A 
ATOM     34  N   UNL A   1      40.510  28.807  29.811  1.00  0.00    -0.248 NA
ATOM     35  C   UNL A   1      39.360  29.056  27.791  1.00  0.00     0.031 C 
ATOM     36  C   UNL A   1      37.722  31.813  31.618  1.00  0.00     0.029 A 
ATOM     37  N   UNL A   1      39.601  30.641  31.933  1.00  0.00    -0.354 N 
ATOM     38  C   UNL A   1      41.139  28.058  28.827  1.00  0.00     0.074 A 
ATOM     39  C   UNL A   1      40.386  28.237  27.605  1.00  0.00     0.031 C 
ATOM     40  C   UNL A   1      38.204  32.139  32.829  1.00  0.00     0.029 A 
ATOM     41  C   UNL A   1      39.384  31.323  33.104  1.00  0.00     0.049 A 
ATOM     42  H   UNL A   1      40.392  30.076  31.775  1.00  0.00     0.167 HD
ATOM     43  C   UNL A   1      42.240  27.279  28.947  1.00  0.00     0.037 A 
ATOM     44  C   UNL A   1      40.030  31.248  34.284  1.00  0.00     0.037 A 
ATOM     45  C   UNL A   1      42.989  27.125  30.165  1.00  0.00     0.049 A 
ATOM     46  C   UNL A   1      41.181  30.286  34.429  1.00  0.00     0.074 A 
ATOM     47  C   UNL A   1      44.098  26.333  30.404  1.00  0.00     0.029 A 
ATOM     48  N   UNL A   1      42.705  27.786  31.350  1.00  0.00    -0.354 N 
ATOM     49  N   UNL A   1      41.726  29.506  33.528  1.00  0.00    -0.248 NA
ATOM     50  C   UNL A   1      41.788  30.176  35.763  1.00  0.00     0.031 C 
ATOM     51  C   UNL A   1      44.462  26.488  31.746  1.00  0.00     0.029 A 
ATOM     52  C   UNL A   1      43.606  27.408  32.330  1.00  0.00     0.049 A 
ATOM     53  H   UNL A   1      41.970  28.430  31.476  1.00  0.00     0.167 HD
ATOM     54  C   UNL A   1      42.750  28.829  34.177  1.00  0.00     0.074 A 
ATOM     55  C   UNL A   1      42.758  29.297  35.548  1.00  0.00     0.031 C 
ATOM     56  C   UNL A   1      43.605  27.900  33.684  1.00  0.00     0.037 A 
BRANCH  43  57
ATOM     57  C   UNL A   1      42.654  26.486  27.746  1.00  0.00     0.064 A 
ATOM     58  C   UNL A   1      43.631  26.948  26.852  1.00  0.00     0.173 A 
ATOM     59  C   UNL A   1      42.072  25.235  27.498  1.00  0.00     0.173 A 
ATOM     60  F   UNL A   1      44.201  28.148  27.036  1.00  0.00    -0.203 F 
ATOM     61  C   UNL A   1      43.995  26.191  25.741  1.00  0.00     0.198 A 
ATOM     62  C   UNL A   1      42.455  24.470  26.400  1.00  0.00     0.198 A 
ATOM     63  F   UNL A   1      41.132  24.751  28.324  1.00  0.00    -0.203 F 
ATOM     64  F   UNL A   1      44.899  26.667  24.875  1.00  0.00    -0.200 F 
ATOM     65  C   UNL A   1      43.412  24.951  25.519  1.00  0.00     0.200 A 
ATOM     66  F   UNL A   1      41.895  23.271  26.192  1.00  0.00    -0.200 F 
ATOM     67  F   UNL A   1      43.765  24.224  24.451  1.00  0.00    -0.200 F 
ENDBRANCH  43  57
BRANCH  44  68
ATOM     68  C   UNL A   1      39.558  32.047  35.444  1.00  0.00     0.064 A 
ATOM     69  C   UNL A   1      38.628  31.523  36.352  1.00  0.00     0.173 A 
ATOM     70  C   UNL A   1      40.007  33.360  35.656  1.00  0.00     0.173 A 
ATOM     71  F   UNL A   1      38.144  30.285  36.176  1.00  0.00    -0.203 F 
ATOM     72  C   UNL A   1      38.159  32.285  37.421  1.00  0.00     0.198 A 
ATOM     73  C   UNL A   1      39.559  34.110  36.739  1.00  0.00     0.198 A 
ATOM     74  F   UNL A   1      40.889  33.912  34.809  1.00  0.00    -0.203 F 
ATOM     75  F   UNL A   1      37.236  31.777  38.249  1.00  0.00    -0.200 F 
ATOM     76  C   UNL A   1      38.629  33.575  37.618  1.00  0.00     0.200 A 
ATOM     77  F   UNL A   1      40.024  35.352  36.930  1.00  0.00    -0.200 F 
ATOM     78  F   UNL A   1      38.179  34.306  38.646  1.00  0.00    -0.200 F 
ENDBRANCH  44  68
BRANCH  56  79
ATOM     79  C   UNL A   1      44.646  27.358  34.616  1.00  0.00     0.064 A 
ATOM     80  C   UNL A   1      45.876  28.005  34.801  1.00  0.00     0.173 A 
ATOM     81  C   UNL A   1      44.384  26.210  35.379  1.00  0.00     0.173 A 
ATOM     82  F   UNL A   1      46.177  29.098  34.083  1.00  0.00    -0.203 F 
ATOM     83  C   UNL A   1      46.812  27.515  35.706  1.00  0.00     0.198 A 
ATOM     84  C   UNL A   1      45.312  25.736  36.301  1.00  0.00     0.198 A 
ATOM     85  F   UNL A   1      43.219  25.558  35.241  1.00  0.00    -0.203 F 
ATOM     86  F   UNL A   1      47.995  28.130  35.844  1.00  0.00    -0.200 F 
ATOM     87  C   UNL A   1      46.526  26.386  36.461  1.00  0.00     0.200 A 
ATOM     88  F   UNL A   1      45.030  24.652  37.037  1.00  0.00    -0.200 F 
ATOM     89  F   UNL A   1      47.425  25.922  37.341  1.00  0.00    -0.200 F 
ENDBRANCH  56  79
ENDBRANCH  30  31
ENDBRANCH  23  25
ENDBRANCH  22  23
ENDBRANCH  21  22
ENDBRANCH   1  21
TORSDOF 13
ENDMDL
MODEL 2
REMARK VINA RESULT:     -12.2      0.148      1.626
REMARK SMILES C[N@H+]([C@@H]1CCOC2(CCCC2)C1)C(C)(C)C(=O)OCCOC(=O)c1ccc(-c2c3nc(c(-c4c(F)c(F)c(F)c(F)c4F)c4ccc([nH]4)c(-c4c(F)c(F)c(F)c(F)c4F)c4nc(c(-c5c(F)c(F)c(F)c(F)c5F)c5ccc2[nH]5)C=C4)C=C3)cc1
REMARK SMILES IDX 19 1 18 2 16 3 17 4 13 5 14 6 15 7 2 8 1 9 3 11 4 12 12 13
REMARK SMILES IDX 5 14 7 15 6 16 8 17 11 18 9 19 10 20 20 21 21 22 22 23 23 24
REMARK SMILES IDX 24 25 25 26 86 27 26 28 85 29 27 30 28 31 29 32 79 33 30 34
REMARK SMILES IDX 84 35 78 36 80 37 31 38 83 39 77 40 76 41 32 43 64 44 44 45
REMARK SMILES IDX 63 46 45 47 48 48 62 49 81 50 46 51 47 52 61 54 82 55 49 56
REMARK SMILES IDX 33 57 34 58 42 59 35 60 36 61 40 62 43 63 37 64 38 65 41 66
REMARK SMILES IDX 39 67 65 68 66 69 74 70 67 71 68 72 72 73 75 74 69 75 70 76
REMARK SMILES IDX 73 77 71 78 50 79 51 80 59 81 52 82 53 83 57 84 60 85 54 86
REMARK SMILES IDX 55 87 58 88 56 89
REMARK H PARENT 2 10 80 42 48 53
REMARK Flexibility Score: inf
ROOT
ATOM      1  C   UNL A   1      31.860  28.133  27.331  1.00  0.00     0.274 C 
ENDROOT
BRANCH   1   2
ATOM      2  O   UNL A   1      32.032  27.345  26.138  1.00  0.00    -0.457 OA
BRANCH   2   3
ATOM      3  C   UNL A   1      30.943  26.627  25.720  1.00  0.00     0.367 C 
ATOM      4  O   UNL A   1      30.272  25.947  26.484  1.00  0.00    -0.245 OA
BRANCH   3   5
ATOM      5  C   UNL A   1      30.678  26.839  24.197  1.00  0.00     0.190 C 
ATOM      6  C   UNL A   1      30.684  28.343  23.870  1.00  0.00     0.092 C 
ATOM      7  C   UNL A   1      29.212  26.365  23.966  1.00  0.00     0.092 C 
BRANCH   5   8
ATOM      8  N   UNL A   1      31.661  26.154  23.284  1.00  0.00    -0.321 N 
ATOM      9  C   UNL A   1      32.410  27.028  22.376  1.00  0.00     0.333 C 
ATOM     10  H   UNL A   1      32.228  25.885  24.087  1.00  0.00     0.349 HD
BRANCH   8  11
ATOM     11  C   UNL A   1      31.495  24.771  22.773  1.00  0.00     0.189 C 
ATOM     12  C   UNL A   1      30.654  23.700  23.498  1.00  0.00     0.093 C 
ATOM     13  C   UNL A   1      32.863  24.057  22.624  1.00  0.00     0.100 C 
ATOM     14  C   UNL A   1      31.334  22.995  24.665  1.00  0.00     0.167 C 
ATOM     15  C   UNL A   1      33.527  23.816  23.987  1.00  0.00     0.074 C 
ATOM     16  O   UNL A   1      32.594  23.525  25.035  1.00  0.00    -0.375 OA
ATOM     17  C   UNL A   1      34.589  22.697  23.926  1.00  0.00     0.036 C 
ATOM     18  C   UNL A   1      34.311  25.047  24.482  1.00  0.00     0.036 C 
ATOM     19  C   UNL A   1      35.859  23.270  24.562  1.00  0.00     0.003 C 
ATOM     20  C   UNL A   1      35.387  24.458  25.375  1.00  0.00     0.003 C 
ENDBRANCH   8  11
ENDBRANCH   5   8
ENDBRANCH   3   5
ENDBRANCH   2   3
ENDBRANCH   1   2
BRANCH   1  21
ATOM     21  C   UNL A   1      31.777  29.634  27.034  1.00  0.00     0.275 C 
BRANCH  21  22
ATOM     22  O   UNL A   1      33.030  30.147  26.536  1.00  0.00    -0.458 OA
BRANCH  22  23
ATOM     23  C   UNL A   1      33.476  31.282  27.116  1.00  0.00     0.338 C 
ATOM     24  O   UNL A   1      32.866  32.334  27.258  1.00  0.00    -0.246 OA
BRANCH  23  25
ATOM     25  C   UNL A   1      34.800  31.053  27.712  1.00  0.00     0.060 A 
ATOM     26  C   UNL A   1      35.124  29.749  28.088  1.00  0.00     0.016 A 
ATOM     27  C   UNL A   1      35.675  32.095  28.001  1.00  0.00     0.016 A 
ATOM     28  C   UNL A   1      36.311  29.458  28.747  1.00  0.00     0.010 A 
ATOM     29  C   UNL A   1      36.875  31.811  28.667  1.00  0.00     0.010 A 
ATOM     30  C   UNL A   1      37.192  30.493  29.051  1.00  0.00    -0.014 A 
BRANCH  30  31
ATOM     31  C   UNL A   1      38.395  30.208  29.864  1.00  0.00     0.031 A 
ATOM     32  C   UNL A   1      39.454  29.310  29.303  1.00  0.00     0.074 A 
ATOM     33  C   UNL A   1      38.564  30.778  31.070  1.00  0.00     0.049 A 
ATOM     34  N   UNL A   1      40.471  28.749  29.902  1.00  0.00    -0.248 NA
ATOM     35  C   UNL A   1      39.357  29.011  27.865  1.00  0.00     0.031 C 
ATOM     36  C   UNL A   1      37.679  31.777  31.668  1.00  0.00     0.029 A 
ATOM     37  N   UNL A   1      39.542  30.588  32.013  1.00  0.00    -0.354 N 
ATOM     38  C   UNL A   1      41.110  27.997  28.928  1.00  0.00     0.074 A 
ATOM     39  C   UNL A   1      40.379  28.184  27.695  1.00  0.00     0.031 C 
ATOM     40  C   UNL A   1      38.144  32.097  32.887  1.00  0.00     0.029 A 
ATOM     41  C   UNL A   1      39.312  31.271  33.181  1.00  0.00     0.049 A 
ATOM     42  H   UNL A   1      40.332  30.017  31.866  1.00  0.00     0.167 HD
ATOM     43  C   UNL A   1      42.201  27.208  29.065  1.00  0.00     0.037 A 
ATOM     44  C   UNL A   1      39.938  31.188  34.371  1.00  0.00     0.037 A 
ATOM     45  C   UNL A   1      42.929  27.045  30.295  1.00  0.00     0.049 A 
ATOM     46  C   UNL A   1      41.078  30.216  34.534  1.00  0.00     0.074 A 
ATOM     47  C   UNL A   1      44.028  26.244  30.551  1.00  0.00     0.029 A 
ATOM     48  N   UNL A   1      42.631  27.708  31.476  1.00  0.00    -0.354 N 
ATOM     49  N   UNL A   1      41.631  29.433  33.640  1.00  0.00    -0.248 NA
ATOM     50  C   UNL A   1      41.661  30.098  35.878  1.00  0.00     0.031 C 
ATOM     51  C   UNL A   1      44.370  26.394  31.899  1.00  0.00     0.029 A 
ATOM     52  C   UNL A   1      43.513  27.320  32.471  1.00  0.00     0.049 A 
ATOM     53  H   UNL A   1      41.900  28.358  31.591  1.00  0.00     0.167 HD
ATOM     54  C   UNL A   1      42.638  28.746  34.305  1.00  0.00     0.074 A 
ATOM     55  C   UNL A   1      42.628  29.212  35.677  1.00  0.00     0.031 C 
ATOM     56  C   UNL A   1      43.493  27.810  33.825  1.00  0.00     0.037 A 
BRANCH  43  57
ATOM     57  C   UNL A   1      42.630  26.413  27.870  1.00  0.00     0.064 A 
ATOM     58  C   UNL A   1      42.107  25.142  27.596  1.00  0.00     0.173 A 
ATOM     59  C   UNL A   1      43.570  26.947  26.976  1.00  0.00     0.173 A 
ATOM     60  F   UNL A   1      41.221  24.582  28.433  1.00  0.00    -0.203 F 
ATOM     61  C   UNL A   1      42.525  24.424  26.479  1.00  0.00     0.198 A 
ATOM     62  C   UNL A   1      43.969  26.237  25.848  1.00  0.00     0.198 A 
ATOM     63  F   UNL A   1      44.100  28.159  27.196  1.00  0.00    -0.203 F 
ATOM     64  F   UNL A   1      42.046  23.194  26.256  1.00  0.00    -0.200 F 
ATOM     65  C   UNL A   1      43.451  24.974  25.602  1.00  0.00     0.200 A 
ATOM     66  F   UNL A   1      44.858  26.773  24.999  1.00  0.00    -0.200 F 
ATOM     67  F   UNL A   1      43.851  24.283  24.526  1.00  0.00    -0.200 F 
ENDBRANCH  43  57
BRANCH  44  68
ATOM     68  C   UNL A   1      39.453  31.990  35.525  1.00  0.00     0.064 A 
ATOM     69  C   UNL A   1      39.931  33.286  35.756  1.00  0.00     0.173 A 
ATOM     70  C   UNL A   1      38.520  31.467  36.433  1.00  0.00     0.173 A 
ATOM     71  F   UNL A   1      40.848  33.819  34.934  1.00  0.00    -0.203 F 
ATOM     72  C   UNL A   1      39.502  34.024  36.857  1.00  0.00     0.198 A 
ATOM     73  C   UNL A   1      38.070  32.216  37.517  1.00  0.00     0.198 A 
ATOM     74  F   UNL A   1      38.038  30.227  36.263  1.00  0.00    -0.203 F 
ATOM     75  F   UNL A   1      40.009  35.245  37.082  1.00  0.00    -0.200 F 
ATOM     76  C   UNL A   1      38.567  33.492  37.733  1.00  0.00     0.200 A 
ATOM     77  F   UNL A   1      37.160  31.701  38.354  1.00  0.00    -0.200 F 
ATOM     78  F   UNL A   1      38.154  34.203  38.790  1.00  0.00    -0.200 F 
ENDBRANCH  44  68
BRANCH  56  79
ATOM     79  C   UNL A   1      44.514  27.258  34.774  1.00  0.00     0.064 A 
ATOM     80  C   UNL A   1      45.744  27.897  34.984  1.00  0.00     0.173 A 
ATOM     81  C   UNL A   1      44.231  26.108  35.526  1.00  0.00     0.173 A 
ATOM     82  F   UNL A   1      46.064  28.991  34.276  1.00  0.00    -0.203 F 
ATOM     83  C   UNL A   1      46.660  27.397  35.904  1.00  0.00     0.198 A 
ATOM     84  C   UNL A   1      45.139  25.624  36.463  1.00  0.00     0.198 A 
ATOM     85  F   UNL A   1      43.065  25.464  35.364  1.00  0.00    -0.203 F 
ATOM     86  F   UNL A   1      47.844  28.004  36.066  1.00  0.00    -0.200 F 
ATOM     87  C   UNL A   1      46.355  26.266  36.648  1.00  0.00     0.200 A 
ATOM     88  F   UNL A   1      44.837  24.539  37.189  1.00  0.00    -0.200 F 
ATOM     89  F   UNL A   1      47.234  25.793  37.542  1.00  0.00    -0.200 F 
ENDBRANCH  56  79
ENDBRANCH  30  31
ENDBRANCH  23  25
ENDBRANCH  22  23
ENDBRANCH  21  22
ENDBRANCH   1  21
TORSDOF 13
ENDMDL
MODEL 3
REMARK VINA RESULT:     -12.1      4.260      9.667
REMARK SMILES C[N@H+]([C@@H]1CCOC2(CCCC2)C1)C(C)(C)C(=O)OCCOC(=O)c1ccc(-c2c3nc(c(-c4c(F)c(F)c(F)c(F)c4F)c4ccc([nH]4)c(-c4c(F)c(F)c(F)c(F)c4F)c4nc(c(-c5c(F)c(F)c(F)c(F)c5F)c5ccc2[nH]5)C=C4)C=C3)cc1
REMARK SMILES IDX 19 1 18 2 16 3 17 4 13 5 14 6 15 7 2 8 1 9 3 11 4 12 12 13
REMARK SMILES IDX 5 14 7 15 6 16 8 17 11 18 9 19 10 20 20 21 21 22 22 23 23 24
REMARK SMILES IDX 24 25 25 26 86 27 26 28 85 29 27 30 28 31 29 32 79 33 30 34
REMARK SMILES IDX 84 35 78 36 80 37 31 38 83 39 77 40 76 41 32 43 64 44 44 45
REMARK SMILES IDX 63 46 45 47 48 48 62 49 81 50 46 51 47 52 61 54 82 55 49 56
REMARK SMILES IDX 33 57 34 58 42 59 35 60 36 61 40 62 43 63 37 64 38 65 41 66
REMARK SMILES IDX 39 67 65 68 66 69 74 70 67 71 68 72 72 73 75 74 69 75 70 76
REMARK SMILES IDX 73 77 71 78 50 79 51 80 59 81 52 82 53 83 57 84 60 85 54 86
REMARK SMILES IDX 55 87 58 88 56 89
REMARK H PARENT 2 10 80 42 48 53
REMARK Flexibility Score: inf
ROOT
ATOM      1  C   UNL A   1      36.478  22.906  23.650  1.00  0.00     0.274 C 
ENDROOT
BRANCH   1   2
ATOM      2  O   UNL A   1      35.150  23.216  24.112  1.00  0.00    -0.457 OA
BRANCH   2   3
ATOM      3  C   UNL A   1      34.127  22.964  23.237  1.00  0.00     0.367 C 
ATOM      4  O   UNL A   1      34.156  23.329  22.070  1.00  0.00    -0.245 OA
BRANCH   3   5
ATOM      5  C   UNL A   1      32.992  22.139  23.919  1.00  0.00     0.190 C 
ATOM      6  C   UNL A   1      33.595  20.925  24.650  1.00  0.00     0.092 C 
ATOM      7  C   UNL A   1      32.153  21.548  22.746  1.00  0.00     0.092 C 
BRANCH   5   8
ATOM      8  N   UNL A   1      32.152  22.912  24.902  1.00  0.00    -0.321 N 
ATOM      9  C   UNL A   1      32.148  22.408  26.279  1.00  0.00     0.333 C 
ATOM     10  H   UNL A   1      32.772  23.716  24.806  1.00  0.00     0.349 HD
BRANCH   8  11
ATOM     11  C   UNL A   1      30.919  23.653  24.539  1.00  0.00     0.189 C 
ATOM     12  C   UNL A   1      30.661  24.219  23.127  1.00  0.00     0.093 C 
ATOM     13  C   UNL A   1      30.735  24.911  25.426  1.00  0.00     0.100 C 
ATOM     14  C   UNL A   1      31.338  25.546  22.806  1.00  0.00     0.167 C 
ATOM     15  C   UNL A   1      31.827  25.957  25.158  1.00  0.00     0.074 C 
ATOM     16  O   UNL A   1      32.245  26.011  23.789  1.00  0.00    -0.375 OA
ATOM     17  C   UNL A   1      31.402  27.369  25.617  1.00  0.00     0.036 C 
ATOM     18  C   UNL A   1      33.114  25.677  25.958  1.00  0.00     0.036 C 
ATOM     19  C   UNL A   1      32.544  27.903  26.487  1.00  0.00     0.003 C 
ATOM     20  C   UNL A   1      33.742  27.048  26.128  1.00  0.00     0.003 C 
ENDBRANCH   8  11
ENDBRANCH   5   8
ENDBRANCH   3   5
ENDBRANCH   2   3
ENDBRANCH   1   2
BRANCH   1  21
ATOM     21  C   UNL A   1      37.058  21.661  24.331  1.00  0.00     0.275 C 
BRANCH  21  22
ATOM     22  O   UNL A   1      37.439  21.931  25.696  1.00  0.00    -0.458 OA
BRANCH  22  23
ATOM     23  C   UNL A   1      38.708  21.614  26.030  1.00  0.00     0.338 C 
ATOM     24  O   UNL A   1      39.298  20.566  25.800  1.00  0.00    -0.246 OA
BRANCH  23  25
ATOM     25  C   UNL A   1      39.381  22.785  26.611  1.00  0.00     0.060 A 
ATOM     26  C   UNL A   1      39.038  24.042  26.113  1.00  0.00     0.016 A 
ATOM     27  C   UNL A   1      40.404  22.665  27.547  1.00  0.00     0.016 A 
ATOM     28  C   UNL A   1      39.693  25.192  26.533  1.00  0.00     0.010 A 
ATOM     29  C   UNL A   1      41.072  23.821  27.975  1.00  0.00     0.010 A 
ATOM     30  C   UNL A   1      40.725  25.086  27.463  1.00  0.00    -0.014 A 
BRANCH  30  31
ATOM     31  C   UNL A   1      41.510  26.290  27.817  1.00  0.00     0.031 A 
ATOM     32  C   UNL A   1      40.863  27.361  28.640  1.00  0.00     0.074 A 
ATOM     33  C   UNL A   1      42.797  26.407  27.449  1.00  0.00     0.049 A 
ATOM     34  N   UNL A   1      41.269  28.579  28.884  1.00  0.00    -0.248 NA
ATOM     35  C   UNL A   1      39.588  27.005  29.284  1.00  0.00     0.031 C 
ATOM     36  C   UNL A   1      43.583  25.377  26.769  1.00  0.00     0.029 A 
ATOM     37  N   UNL A   1      43.669  27.457  27.591  1.00  0.00    -0.354 N 
ATOM     38  C   UNL A   1      40.281  29.151  29.672  1.00  0.00     0.074 A 
ATOM     39  C   UNL A   1      39.264  28.144  29.880  1.00  0.00     0.031 C 
ATOM     40  C   UNL A   1      44.817  25.855  26.534  1.00  0.00     0.029 A 
ATOM     41  C   UNL A   1      44.880  27.245  26.979  1.00  0.00     0.049 A 
ATOM     42  H   UNL A   1      43.449  28.281  28.082  1.00  0.00     0.167 HD
ATOM     43  C   UNL A   1      40.228  30.412  30.160  1.00  0.00     0.037 A 
ATOM     44  C   UNL A   1      45.897  28.098  26.750  1.00  0.00     0.037 A 
ATOM     45  C   UNL A   1      41.256  31.398  29.959  1.00  0.00     0.049 A 
ATOM     46  C   UNL A   1      45.766  29.531  27.199  1.00  0.00     0.074 A 
ATOM     47  C   UNL A   1      41.286  32.716  30.380  1.00  0.00     0.029 A 
ATOM     48  N   UNL A   1      42.444  31.166  29.282  1.00  0.00    -0.354 N 
ATOM     49  N   UNL A   1      44.794  30.103  27.866  1.00  0.00    -0.248 NA
ATOM     50  C   UNL A   1      46.864  30.440  26.840  1.00  0.00     0.031 C 
ATOM     51  C   UNL A   1      42.477  33.291  29.924  1.00  0.00     0.029 A 
ATOM     52  C   UNL A   1      43.207  32.321  29.257  1.00  0.00     0.049 A 
ATOM     53  H   UNL A   1      42.706  30.306  28.878  1.00  0.00     0.167 HD
ATOM     54  C   UNL A   1      45.169  31.431  28.024  1.00  0.00     0.074 A 
ATOM     55  C   UNL A   1      46.465  31.578  27.392  1.00  0.00     0.031 C 
ATOM     56  C   UNL A   1      44.501  32.439  28.635  1.00  0.00     0.037 A 
BRANCH  43  57
ATOM     57  C   UNL A   1      38.989  30.811  30.900  1.00  0.00     0.064 A 
ATOM     58  C   UNL A   1      38.886  30.700  32.293  1.00  0.00     0.173 A 
ATOM     59  C   UNL A   1      37.890  31.329  30.197  1.00  0.00     0.173 A 
ATOM     60  F   UNL A   1      39.902  30.191  33.006  1.00  0.00    -0.203 F 
ATOM     61  C   UNL A   1      37.721  31.076  32.955  1.00  0.00     0.198 A 
ATOM     62  C   UNL A   1      36.735  31.726  30.864  1.00  0.00     0.198 A 
ATOM     63  F   UNL A   1      37.939  31.454  28.862  1.00  0.00    -0.203 F 
ATOM     64  F   UNL A   1      37.626  30.923  34.283  1.00  0.00    -0.200 F 
ATOM     65  C   UNL A   1      36.648  31.594  32.241  1.00  0.00     0.200 A 
ATOM     66  F   UNL A   1      35.704  32.231  30.173  1.00  0.00    -0.200 F 
ATOM     67  F   UNL A   1      35.528  31.957  32.881  1.00  0.00    -0.200 F 
ENDBRANCH  43  57
BRANCH  44  68
ATOM     68  C   UNL A   1      47.093  27.645  25.993  1.00  0.00     0.064 A 
ATOM     69  C   UNL A   1      48.223  27.149  26.656  1.00  0.00     0.173 A 
ATOM     70  C   UNL A   1      47.140  27.723  24.593  1.00  0.00     0.173 A 
ATOM     71  F   UNL A   1      48.239  27.085  27.996  1.00  0.00    -0.203 F 
ATOM     72  C   UNL A   1      49.357  26.757  25.948  1.00  0.00     0.198 A 
ATOM     73  C   UNL A   1      48.263  27.305  23.885  1.00  0.00     0.198 A 
ATOM     74  F   UNL A   1      46.089  28.200  23.910  1.00  0.00    -0.203 F 
ATOM     75  F   UNL A   1      50.441  26.328  26.608  1.00  0.00    -0.200 F 
ATOM     76  C   UNL A   1      49.374  26.828  24.563  1.00  0.00     0.200 A 
ATOM     77  F   UNL A   1      48.271  27.367  22.546  1.00  0.00    -0.200 F 
ATOM     78  F   UNL A   1      50.465  26.450  23.883  1.00  0.00    -0.200 F 
ENDBRANCH  44  68
BRANCH  56  79
ATOM     79  C   UNL A   1      45.171  33.779  28.687  1.00  0.00     0.064 A 
ATOM     80  C   UNL A   1      46.048  34.122  29.726  1.00  0.00     0.173 A 
ATOM     81  C   UNL A   1      44.980  34.707  27.652  1.00  0.00     0.173 A 
ATOM     82  F   UNL A   1      46.251  33.272  30.745  1.00  0.00    -0.203 F 
ATOM     83  C   UNL A   1      46.700  35.351  29.734  1.00  0.00     0.198 A 
ATOM     84  C   UNL A   1      45.651  35.925  27.650  1.00  0.00     0.198 A 
ATOM     85  F   UNL A   1      44.154  34.422  26.634  1.00  0.00    -0.203 F 
ATOM     86  F   UNL A   1      47.509  35.673  30.752  1.00  0.00    -0.200 F 
ATOM     87  C   UNL A   1      46.508  36.248  28.692  1.00  0.00     0.200 A 
ATOM     88  F   UNL A   1      45.473  36.785  26.638  1.00  0.00    -0.200 F 
ATOM     89  F   UNL A   1      47.145  37.427  28.696  1.00  0.00    -0.200 F 
ENDBRANCH  56  79
ENDBRANCH  30  31
ENDBRANCH  23  25
ENDBRANCH  22  23
ENDBRANCH  21  22
ENDBRANCH   1  21
TORSDOF 13
ENDMDL
