MODEL 1
REMARK VINA RESULT:     -13.3      0.000      0.000
REMARK SMILES C[C@@H]1CC[C@@H](C(=O)OCCOC(=O)c2ccc(-c3c4nc(c(-c5c(F)c(F)c(F)c(F)c5F)c5ccc([nH]5)c(-c5c(F)c(F)c(F)c(F)c5F)c5nc(c(-c6c(F)c(F)c(F)c(F)c6F)c6ccc3[nH]6)C=C5)C=C4)cc2)[C@H]2C(=O)N(c3ccccc3)C(=O)[C@@H]21
REMARK SMILES IDX 10 1 9 2 8 3 6 4 7 5 5 6 1 7 2 8 3 9 89 10 4 11 77 12 87 13
REMARK SMILES IDX 78 14 80 15 88 16 79 17 81 18 82 19 86 20 83 21 85 22 84 23
REMARK SMILES IDX 11 24 12 25 13 26 14 27 15 28 76 29 16 30 75 31 17 32 18 33
REMARK SMILES IDX 19 34 69 35 20 36 74 37 68 38 70 39 21 40 73 41 67 42 66 43
REMARK SMILES IDX 22 45 54 46 34 47 53 48 35 49 38 50 52 51 71 52 36 53 37 54
REMARK SMILES IDX 51 56 72 57 39 58 23 59 24 60 32 61 25 62 26 63 30 64 33 65
REMARK SMILES IDX 27 66 28 67 31 68 29 69 55 70 56 71 64 72 57 73 58 74 62 75
REMARK SMILES IDX 65 76 59 77 60 78 63 79 61 80 40 81 41 82 49 83 42 84 43 85
REMARK SMILES IDX 47 86 50 87 44 88 45 89 48 90 46 91
REMARK H PARENT 70 44 38 55
REMARK Flexibility Score: inf
ROOT
ATOM      1  C   UNL A   1      33.138  29.320  24.346  1.00  0.00     0.275 C 
ENDROOT
BRANCH   1   2
ATOM      2  C   UNL A   1      33.691  28.486  23.179  1.00  0.00     0.274 C 
BRANCH   2   3
ATOM      3  O   UNL A   1      33.596  27.058  23.406  1.00  0.00    -0.462 OA
BRANCH   3   4
ATOM      4  C   UNL A   1      33.173  26.317  22.349  1.00  0.00     0.309 C 
ATOM      5  O   UNL A   1      33.633  26.445  21.222  1.00  0.00    -0.252 OA
BRANCH   4   6
ATOM      6  C   UNL A   1      32.015  25.360  22.684  1.00  0.00     0.112 C 
ATOM      7  C   UNL A   1      30.250  24.558  26.258  1.00  0.00     0.008 C 
ATOM      8  C   UNL A   1      31.328  25.460  25.691  1.00  0.00    -0.001 C 
ATOM      9  C   UNL A   1      30.801  26.505  24.679  1.00  0.00     0.005 C 
ATOM     10  C   UNL A   1      32.492  24.710  25.077  1.00  0.00     0.095 C 
ATOM     11  C   UNL A   1      30.727  26.027  23.219  1.00  0.00     0.016 C 
ATOM     12  C   UNL A   1      32.382  24.223  23.646  1.00  0.00     0.106 C 
ATOM     13  C   UNL A   1      33.224  23.551  25.727  1.00  0.00     0.237 C 
ATOM     14  C   UNL A   1      33.727  23.516  23.493  1.00  0.00     0.238 C 
ATOM     15  N   UNL A   1      34.142  23.146  24.759  1.00  0.00    -0.250 N 
ATOM     16  O   UNL A   1      33.174  23.258  26.910  1.00  0.00    -0.274 OA
ATOM     17  O   UNL A   1      34.242  23.215  22.428  1.00  0.00    -0.274 OA
BRANCH  15  18
ATOM     18  C   UNL A   1      35.493  22.797  25.091  1.00  0.00     0.052 A 
ATOM     19  C   UNL A   1      36.513  23.990  25.703  1.00  0.00     0.027 A 
ATOM     20  C   UNL A   1      35.989  21.136  24.773  1.00  0.00     0.027 A 
ATOM     21  C   UNL A   1      38.148  23.521  26.124  1.00  0.00     0.002 A 
ATOM     22  C   UNL A   1      37.553  20.491  24.992  1.00  0.00     0.002 A 
ATOM     23  C   UNL A   1      38.742  21.557  25.690  1.00  0.00     0.000 A 
ENDBRANCH  15  18
ENDBRANCH   4   6
ENDBRANCH   3   4
ENDBRANCH   2   3
ENDBRANCH   1   2
BRANCH   1  24
ATOM     24  O   UNL A   1      33.713  28.959  25.627  1.00  0.00    -0.458 OA
BRANCH  24  25
ATOM     25  C   UNL A   1      33.370  29.747  26.682  1.00  0.00     0.338 C 
ATOM     26  O   UNL A   1      32.301  29.730  27.274  1.00  0.00    -0.246 OA
BRANCH  25  27
ATOM     27  C   UNL A   1      34.572  30.357  27.300  1.00  0.00     0.060 A 
ATOM     28  C   UNL A   1      35.268  29.411  27.981  1.00  0.00     0.016 A 
ATOM     29  C   UNL A   1      34.885  31.681  27.605  1.00  0.00     0.016 A 
ATOM     30  C   UNL A   1      36.070  29.783  29.034  1.00  0.00     0.010 A 
ATOM     31  C   UNL A   1      36.050  31.976  28.413  1.00  0.00     0.010 A 
ATOM     32  C   UNL A   1      36.756  30.949  29.058  1.00  0.00    -0.014 A 
BRANCH  32  33
ATOM     33  C   UNL A   1      38.029  30.883  29.903  1.00  0.00     0.031 A 
ATOM     34  C   UNL A   1      39.102  29.864  29.404  1.00  0.00     0.074 A 
ATOM     35  C   UNL A   1      38.563  31.786  30.861  1.00  0.00     0.049 A 
ATOM     36  N   UNL A   1      40.124  29.271  29.994  1.00  0.00    -0.248 NA
ATOM     37  C   UNL A   1      39.027  29.563  27.962  1.00  0.00     0.031 C 
ATOM     38  C   UNL A   1      38.552  33.665  31.894  1.00  0.00     0.029 A 
ATOM     39  N   UNL A   1      39.511  30.741  32.136  1.00  0.00    -0.354 N 
ATOM     40  C   UNL A   1      40.768  28.502  29.019  1.00  0.00     0.074 A 
ATOM     41  C   UNL A   1      40.050  28.739  27.783  1.00  0.00     0.031 C 
ATOM     42  C   UNL A   1      39.332  33.522  33.355  1.00  0.00     0.029 A 
ATOM     43  C   UNL A   1      39.960  31.756  33.590  1.00  0.00     0.049 A 
ATOM     44  H   UNL A   1      39.730  29.787  32.027  1.00  0.00     0.167 HD
ATOM     45  C   UNL A   1      41.842  27.668  29.115  1.00  0.00     0.037 A 
ATOM     46  C   UNL A   1      40.351  31.365  34.813  1.00  0.00     0.037 A 
ATOM     47  C   UNL A   1      42.617  27.396  30.312  1.00  0.00     0.049 A 
ATOM     48  C   UNL A   1      41.242  30.204  34.911  1.00  0.00     0.074 A 
ATOM     49  C   UNL A   1      43.697  26.533  30.439  1.00  0.00     0.029 A 
ATOM     50  N   UNL A   1      42.410  27.942  31.573  1.00  0.00    -0.354 N 
ATOM     51  N   UNL A   1      41.680  29.458  33.937  1.00  0.00    -0.248 NA
ATOM     52  C   UNL A   1      41.841  29.949  36.221  1.00  0.00     0.031 C 
ATOM     53  C   UNL A   1      44.083  26.485  31.781  1.00  0.00     0.029 A 
ATOM     54  C   UNL A   1      43.316  27.394  32.483  1.00  0.00     0.049 A 
ATOM     55  H   UNL A   1      41.726  28.614  31.792  1.00  0.00     0.167 HD
ATOM     56  C   UNL A   1      42.654  28.665  34.498  1.00  0.00     0.074 A 
ATOM     57  C   UNL A   1      42.761  29.052  35.894  1.00  0.00     0.031 C 
ATOM     58  C   UNL A   1      43.408  27.729  33.883  1.00  0.00     0.037 A 
BRANCH  45  59
ATOM     59  C   UNL A   1      42.211  26.864  27.881  1.00  0.00     0.064 A 
ATOM     60  C   UNL A   1      43.161  27.292  26.940  1.00  0.00     0.173 A 
ATOM     61  C   UNL A   1      41.623  25.602  27.673  1.00  0.00     0.173 A 
ATOM     62  F   UNL A   1      43.767  28.480  27.084  1.00  0.00    -0.203 F 
ATOM     63  C   UNL A   1      43.469  26.515  25.820  1.00  0.00     0.198 A 
ATOM     64  C   UNL A   1      41.965  24.810  26.579  1.00  0.00     0.198 A 
ATOM     65  F   UNL A   1      40.731  25.119  28.552  1.00  0.00    -0.203 F 
ATOM     66  F   UNL A   1      44.331  26.973  24.903  1.00  0.00    -0.200 F 
ATOM     67  C   UNL A   1      42.875  25.274  25.644  1.00  0.00     0.200 A 
ATOM     68  F   UNL A   1      41.413  23.598  26.431  1.00  0.00    -0.200 F 
ATOM     69  F   UNL A   1      43.173  24.529  24.570  1.00  0.00    -0.200 F 
ENDBRANCH  45  59
BRANCH  46  70
ATOM     70  C   UNL A   1      39.925  32.200  35.961  1.00  0.00     0.064 A 
ATOM     71  C   UNL A   1      40.681  33.270  36.441  1.00  0.00     0.173 A 
ATOM     72  C   UNL A   1      38.673  31.963  36.565  1.00  0.00     0.173 A 
ATOM     73  F   UNL A   1      41.874  33.543  35.895  1.00  0.00    -0.203 F 
ATOM     74  C   UNL A   1      40.213  34.065  37.488  1.00  0.00     0.198 A 
ATOM     75  C   UNL A   1      38.196  32.771  37.592  1.00  0.00     0.198 A 
ATOM     76  F   UNL A   1      37.905  30.944  36.150  1.00  0.00    -0.203 F 
ATOM     77  F   UNL A   1      40.966  35.074  37.944  1.00  0.00    -0.200 F 
ATOM     78  C   UNL A   1      38.970  33.820  38.059  1.00  0.00     0.200 A 
ATOM     79  F   UNL A   1      36.989  32.537  38.126  1.00  0.00    -0.200 F 
ATOM     80  F   UNL A   1      38.524  34.590  39.060  1.00  0.00    -0.200 F 
ENDBRANCH  46  70
BRANCH  58  81
ATOM     81  C   UNL A   1      44.436  27.054  34.737  1.00  0.00     0.064 A 
ATOM     82  C   UNL A   1      45.726  27.586  34.885  1.00  0.00     0.173 A 
ATOM     83  C   UNL A   1      44.148  25.839  35.376  1.00  0.00     0.173 A 
ATOM     84  F   UNL A   1      46.060  28.728  34.265  1.00  0.00    -0.203 F 
ATOM     85  C   UNL A   1      46.702  26.904  35.601  1.00  0.00     0.198 A 
ATOM     86  C   UNL A   1      45.113  25.185  36.134  1.00  0.00     0.198 A 
ATOM     87  F   UNL A   1      42.934  25.280  35.257  1.00  0.00    -0.203 F 
ATOM     88  F   UNL A   1      47.952  27.386  35.648  1.00  0.00    -0.200 F 
ATOM     89  C   UNL A   1      46.393  25.709  36.233  1.00  0.00     0.200 A 
ATOM     90  F   UNL A   1      44.810  24.036  36.754  1.00  0.00    -0.200 F 
ATOM     91  F   UNL A   1      47.335  25.054  36.924  1.00  0.00    -0.200 F 
ENDBRANCH  58  81
ENDBRANCH  32  33
ENDBRANCH  25  27
ENDBRANCH  24  25
ENDBRANCH   1  24
TORSDOF 12
ENDMDL
MODEL 2
REMARK VINA RESULT:     -13.2      0.161      1.600
REMARK SMILES C[C@@H]1CC[C@@H](C(=O)OCCOC(=O)c2ccc(-c3c4nc(c(-c5c(F)c(F)c(F)c(F)c5F)c5ccc([nH]5)c(-c5c(F)c(F)c(F)c(F)c5F)c5nc(c(-c6c(F)c(F)c(F)c(F)c6F)c6ccc3[nH]6)C=C5)C=C4)cc2)[C@H]2C(=O)N(c3ccccc3)C(=O)[C@@H]21
REMARK SMILES IDX 10 1 9 2 8 3 6 4 7 5 5 6 1 7 2 8 3 9 89 10 4 11 77 12 87 13
REMARK SMILES IDX 78 14 80 15 88 16 79 17 81 18 82 19 86 20 83 21 85 22 84 23
REMARK SMILES IDX 11 24 12 25 13 26 14 27 15 28 76 29 16 30 75 31 17 32 18 33
REMARK SMILES IDX 19 34 69 35 20 36 74 37 68 38 70 39 21 40 73 41 67 42 66 43
REMARK SMILES IDX 22 45 54 46 34 47 53 48 35 49 38 50 52 51 71 52 36 53 37 54
REMARK SMILES IDX 51 56 72 57 39 58 23 59 24 60 32 61 25 62 26 63 30 64 33 65
REMARK SMILES IDX 27 66 28 67 31 68 29 69 55 70 56 71 64 72 57 73 58 74 62 75
REMARK SMILES IDX 65 76 59 77 60 78 63 79 61 80 40 81 41 82 49 83 42 84 43 85
REMARK SMILES IDX 47 86 50 87 44 88 45 89 48 90 46 91
REMARK H PARENT 70 44 38 55
REMARK Flexibility Score: inf
ROOT
ATOM      1  C   UNL A   1      33.021  29.296  24.395  1.00  0.00     0.275 C 
ENDROOT
BRANCH   1   2
ATOM      2  C   UNL A   1      33.580  28.483  23.217  1.00  0.00     0.274 C 
BRANCH   2   3
ATOM      3  O   UNL A   1      33.548  27.052  23.449  1.00  0.00    -0.462 OA
BRANCH   3   4
ATOM      4  C   UNL A   1      33.161  26.290  22.394  1.00  0.00     0.309 C 
ATOM      5  O   UNL A   1      33.642  26.411  21.275  1.00  0.00    -0.252 OA
BRANCH   4   6
ATOM      6  C   UNL A   1      32.012  25.318  22.718  1.00  0.00     0.112 C 
ATOM      7  C   UNL A   1      30.253  24.461  26.282  1.00  0.00     0.008 C 
ATOM      8  C   UNL A   1      31.323  25.379  25.726  1.00  0.00    -0.001 C 
ATOM      9  C   UNL A   1      30.785  26.430  24.724  1.00  0.00     0.005 C 
ATOM     10  C   UNL A   1      32.494  24.648  25.104  1.00  0.00     0.095 C 
ATOM     11  C   UNL A   1      30.717  25.966  23.259  1.00  0.00     0.016 C 
ATOM     12  C   UNL A   1      32.390  24.175  23.669  1.00  0.00     0.106 C 
ATOM     13  C   UNL A   1      33.238  23.490  25.744  1.00  0.00     0.237 C 
ATOM     14  C   UNL A   1      33.743  23.483  23.510  1.00  0.00     0.238 C 
ATOM     15  N   UNL A   1      34.160  23.105  24.772  1.00  0.00    -0.250 N 
ATOM     16  O   UNL A   1      33.190  23.184  26.923  1.00  0.00    -0.274 OA
ATOM     17  O   UNL A   1      34.261  23.198  22.441  1.00  0.00    -0.274 OA
BRANCH  15  18
ATOM     18  C   UNL A   1      35.515  22.766  25.101  1.00  0.00     0.052 A 
ATOM     19  C   UNL A   1      36.524  23.964  25.720  1.00  0.00     0.027 A 
ATOM     20  C   UNL A   1      36.025  21.112  24.774  1.00  0.00     0.027 A 
ATOM     21  C   UNL A   1      38.163  23.508  26.137  1.00  0.00     0.002 A 
ATOM     22  C   UNL A   1      37.596  20.479  24.989  1.00  0.00     0.002 A 
ATOM     23  C   UNL A   1      38.776  21.552  25.692  1.00  0.00     0.000 A 
ENDBRANCH  15  18
ENDBRANCH   4   6
ENDBRANCH   3   4
ENDBRANCH   2   3
ENDBRANCH   1   2
BRANCH   1  24
ATOM     24  O   UNL A   1      33.685  29.011  25.652  1.00  0.00    -0.458 OA
BRANCH  24  25
ATOM     25  C   UNL A   1      33.341  29.801  26.705  1.00  0.00     0.338 C 
ATOM     26  O   UNL A   1      32.274  29.782  27.299  1.00  0.00    -0.246 OA
BRANCH  25  27
ATOM     27  C   UNL A   1      34.543  30.417  27.320  1.00  0.00     0.060 A 
ATOM     28  C   UNL A   1      35.245  29.474  28.000  1.00  0.00     0.016 A 
ATOM     29  C   UNL A   1      34.851  31.742  27.624  1.00  0.00     0.016 A 
ATOM     30  C   UNL A   1      36.048  29.850  29.050  1.00  0.00     0.010 A 
ATOM     31  C   UNL A   1      36.017  32.043  28.427  1.00  0.00     0.010 A 
ATOM     32  C   UNL A   1      36.729  31.019  29.071  1.00  0.00    -0.014 A 
BRANCH  32  33
ATOM     33  C   UNL A   1      38.004  30.959  29.913  1.00  0.00     0.031 A 
ATOM     34  C   UNL A   1      39.073  29.931  29.423  1.00  0.00     0.074 A 
ATOM     35  C   UNL A   1      38.545  31.872  30.858  1.00  0.00     0.049 A 
ATOM     36  N   UNL A   1      40.094  29.341  30.016  1.00  0.00    -0.248 NA
ATOM     37  C   UNL A   1      38.992  29.612  27.984  1.00  0.00     0.031 C 
ATOM     38  C   UNL A   1      38.544  33.762  31.869  1.00  0.00     0.029 A 
ATOM     39  N   UNL A   1      39.494  30.838  32.142  1.00  0.00    -0.354 N 
ATOM     40  C   UNL A   1      40.733  28.558  29.048  1.00  0.00     0.074 A 
ATOM     41  C   UNL A   1      40.011  28.782  27.812  1.00  0.00     0.031 C 
ATOM     42  C   UNL A   1      39.329  33.634  33.328  1.00  0.00     0.029 A 
ATOM     43  C   UNL A   1      39.952  31.870  33.583  1.00  0.00     0.049 A 
ATOM     44  H   UNL A   1      39.709  29.882  32.044  1.00  0.00     0.167 HD
ATOM     45  C   UNL A   1      41.804  27.721  29.151  1.00  0.00     0.037 A 
ATOM     46  C   UNL A   1      40.345  31.492  34.809  1.00  0.00     0.037 A 
ATOM     47  C   UNL A   1      42.582  27.461  30.348  1.00  0.00     0.049 A 
ATOM     48  C   UNL A   1      41.233  30.329  34.918  1.00  0.00     0.074 A 
ATOM     49  C   UNL A   1      43.660  26.596  30.482  1.00  0.00     0.029 A 
ATOM     50  N   UNL A   1      42.381  28.023  31.603  1.00  0.00    -0.354 N 
ATOM     51  N   UNL A   1      41.664  29.570  33.951  1.00  0.00    -0.248 NA
ATOM     52  C   UNL A   1      41.835  30.088  36.229  1.00  0.00     0.031 C 
ATOM     53  C   UNL A   1      44.051  26.563  31.823  1.00  0.00     0.029 A 
ATOM     54  C   UNL A   1      43.289  27.483  32.517  1.00  0.00     0.049 A 
ATOM     55  H   UNL A   1      41.701  28.701  31.817  1.00  0.00     0.167 HD
ATOM     56  C   UNL A   1      42.638  28.781  34.519  1.00  0.00     0.074 A 
ATOM     57  C   UNL A   1      42.751  29.184  35.909  1.00  0.00     0.031 C 
ATOM     58  C   UNL A   1      43.387  27.835  33.912  1.00  0.00     0.037 A 
BRANCH  45  59
ATOM     59  C   UNL A   1      42.167  26.901  27.926  1.00  0.00     0.064 A 
ATOM     60  C   UNL A   1      41.611  25.642  27.651  1.00  0.00     0.173 A 
ATOM     61  C   UNL A   1      43.065  27.428  26.978  1.00  0.00     0.173 A 
ATOM     62  F   UNL A   1      40.740  25.086  28.507  1.00  0.00    -0.203 F 
ATOM     63  C   UNL A   1      41.976  24.925  26.508  1.00  0.00     0.198 A 
ATOM     64  C   UNL A   1      43.393  26.730  25.818  1.00  0.00     0.198 A 
ATOM     65  F   UNL A   1      43.608  28.641  27.164  1.00  0.00    -0.203 F 
ATOM     66  F   UNL A   1      41.480  23.698  26.300  1.00  0.00    -0.200 F 
ATOM     67  C   UNL A   1      42.861  25.472  25.591  1.00  0.00     0.200 A 
ATOM     68  F   UNL A   1      44.222  27.278  24.919  1.00  0.00    -0.200 F 
ATOM     69  F   UNL A   1      43.207  24.784  24.494  1.00  0.00    -0.200 F 
ENDBRANCH  45  59
BRANCH  46  70
ATOM     70  C   UNL A   1      39.926  32.342  35.947  1.00  0.00     0.064 A 
ATOM     71  C   UNL A   1      40.691  33.411  36.417  1.00  0.00     0.173 A 
ATOM     72  C   UNL A   1      38.672  32.122  36.553  1.00  0.00     0.173 A 
ATOM     73  F   UNL A   1      41.887  33.668  35.869  1.00  0.00    -0.203 F 
ATOM     74  C   UNL A   1      40.229  34.220  37.456  1.00  0.00     0.198 A 
ATOM     75  C   UNL A   1      38.202  32.945  37.573  1.00  0.00     0.198 A 
ATOM     76  F   UNL A   1      37.895  31.106  36.148  1.00  0.00    -0.203 F 
ATOM     77  F   UNL A   1      40.992  35.227  37.903  1.00  0.00    -0.200 F 
ATOM     78  C   UNL A   1      38.985  33.991  38.029  1.00  0.00     0.200 A 
ATOM     79  F   UNL A   1      36.992  32.727  38.108  1.00  0.00    -0.200 F 
ATOM     80  F   UNL A   1      38.545  34.776  39.022  1.00  0.00    -0.200 F 
ENDBRANCH  46  70
BRANCH  58  81
ATOM     81  C   UNL A   1      44.415  27.166  34.771  1.00  0.00     0.064 A 
ATOM     82  C   UNL A   1      44.120  25.994  35.484  1.00  0.00     0.173 A 
ATOM     83  C   UNL A   1      45.693  27.726  34.924  1.00  0.00     0.173 A 
ATOM     84  F   UNL A   1      42.901  25.440  35.398  1.00  0.00    -0.203 F 
ATOM     85  C   UNL A   1      45.048  25.434  36.353  1.00  0.00     0.198 A 
ATOM     86  C   UNL A   1      46.636  27.133  35.756  1.00  0.00     0.198 A 
ATOM     87  F   UNL A   1      46.022  28.853  34.275  1.00  0.00    -0.203 F 
ATOM     88  F   UNL A   1      44.709  24.369  37.094  1.00  0.00    -0.200 F 
ATOM     89  C   UNL A   1      46.308  25.998  36.481  1.00  0.00     0.200 A 
ATOM     90  F   UNL A   1      47.857  27.672  35.870  1.00  0.00    -0.200 F 
ATOM     91  F   UNL A   1      47.202  25.456  37.319  1.00  0.00    -0.200 F 
ENDBRANCH  58  81
ENDBRANCH  32  33
ENDBRANCH  25  27
ENDBRANCH  24  25
ENDBRANCH   1  24
TORSDOF 12
ENDMDL
MODEL 3
REMARK VINA RESULT:     -12.9      4.209      9.627
REMARK SMILES C[C@@H]1CC[C@@H](C(=O)OCCOC(=O)c2ccc(-c3c4nc(c(-c5c(F)c(F)c(F)c(F)c5F)c5ccc([nH]5)c(-c5c(F)c(F)c(F)c(F)c5F)c5nc(c(-c6c(F)c(F)c(F)c(F)c6F)c6ccc3[nH]6)C=C5)C=C4)cc2)[C@H]2C(=O)N(c3ccccc3)C(=O)[C@@H]21
REMARK SMILES IDX 10 1 9 2 8 3 6 4 7 5 5 6 1 7 2 8 3 9 89 10 4 11 77 12 87 13
REMARK SMILES IDX 78 14 80 15 88 16 79 17 81 18 82 19 86 20 83 21 85 22 84 23
REMARK SMILES IDX 11 24 12 25 13 26 14 27 15 28 76 29 16 30 75 31 17 32 18 33
REMARK SMILES IDX 19 34 69 35 20 36 74 37 68 38 70 39 21 40 73 41 67 42 66 43
REMARK SMILES IDX 22 45 54 46 34 47 53 48 35 49 38 50 52 51 71 52 36 53 37 54
REMARK SMILES IDX 51 56 72 57 39 58 23 59 24 60 32 61 25 62 26 63 30 64 33 65
REMARK SMILES IDX 27 66 28 67 31 68 29 69 55 70 56 71 64 72 57 73 58 74 62 75
REMARK SMILES IDX 65 76 59 77 60 78 63 79 61 80 40 81 41 82 49 83 42 84 43 85
REMARK SMILES IDX 47 86 50 87 44 88 45 89 48 90 46 91
REMARK H PARENT 70 44 38 55
REMARK Flexibility Score: inf
ROOT
ATOM      1  C   UNL A   1      35.038  21.622  26.522  1.00  0.00     0.275 C 
ENDROOT
BRANCH   1   2
ATOM      2  C   UNL A   1      33.747  22.094  27.209  1.00  0.00     0.274 C 
BRANCH   2   3
ATOM      3  O   UNL A   1      33.176  23.277  26.596  1.00  0.00    -0.462 OA
BRANCH   3   4
ATOM      4  C   UNL A   1      31.820  23.352  26.601  1.00  0.00     0.309 C 
ATOM      5  O   UNL A   1      31.152  23.229  27.618  1.00  0.00    -0.252 OA
BRANCH   4   6
ATOM      6  C   UNL A   1      31.203  23.527  25.202  1.00  0.00     0.112 C 
ATOM      7  C   UNL A   1      33.000  24.315  21.641  1.00  0.00     0.008 C 
ATOM      8  C   UNL A   1      33.384  24.059  23.084  1.00  0.00    -0.001 C 
ATOM      9  C   UNL A   1      33.032  22.636  23.582  1.00  0.00     0.005 C 
ATOM     10  C   UNL A   1      32.829  25.080  24.055  1.00  0.00     0.095 C 
ATOM     11  C   UNL A   1      31.612  22.471  24.150  1.00  0.00     0.016 C 
ATOM     12  C   UNL A   1      31.417  24.912  24.576  1.00  0.00     0.106 C 
ATOM     13  C   UNL A   1      32.899  26.585  23.871  1.00  0.00     0.237 C 
ATOM     14  C   UNL A   1      31.298  26.157  25.452  1.00  0.00     0.238 C 
ATOM     15  N   UNL A   1      32.192  27.090  24.962  1.00  0.00    -0.250 N 
ATOM     16  O   UNL A   1      33.634  27.170  23.094  1.00  0.00    -0.274 OA
ATOM     17  O   UNL A   1      30.456  26.323  26.321  1.00  0.00    -0.274 OA
BRANCH  15  18
ATOM     18  C   UNL A   1      32.650  28.229  25.703  1.00  0.00     0.052 A 
ATOM     19  C   UNL A   1      34.093  28.112  26.564  1.00  0.00     0.027 A 
ATOM     20  C   UNL A   1      31.618  29.658  25.690  1.00  0.00     0.027 A 
ATOM     21  C   UNL A   1      34.636  29.532  27.434  1.00  0.00     0.002 A 
ATOM     22  C   UNL A   1      31.885  31.104  26.555  1.00  0.00     0.002 A 
ATOM     23  C   UNL A   1      33.374  31.206  27.456  1.00  0.00     0.000 A 
ENDBRANCH  15  18
ENDBRANCH   4   6
ENDBRANCH   3   4
ENDBRANCH   2   3
ENDBRANCH   1   2
BRANCH   1  24
ATOM     24  O   UNL A   1      35.876  22.715  26.069  1.00  0.00    -0.458 OA
BRANCH  24  25
ATOM     25  C   UNL A   1      37.000  22.367  25.386  1.00  0.00     0.338 C 
ATOM     26  O   UNL A   1      37.062  22.089  24.198  1.00  0.00    -0.246 OA
BRANCH  25  27
ATOM     27  C   UNL A   1      38.218  22.746  26.142  1.00  0.00     0.060 A 
ATOM     28  C   UNL A   1      38.378  24.094  26.110  1.00  0.00     0.016 A 
ATOM     29  C   UNL A   1      39.339  22.010  26.521  1.00  0.00     0.016 A 
ATOM     30  C   UNL A   1      39.634  24.634  26.251  1.00  0.00     0.010 A 
ATOM     31  C   UNL A   1      40.493  22.688  27.072  1.00  0.00     0.010 A 
ATOM     32  C   UNL A   1      40.582  24.089  27.049  1.00  0.00    -0.014 A 
BRANCH  32  33
ATOM     33  C   UNL A   1      41.582  25.114  27.584  1.00  0.00     0.031 A 
ATOM     34  C   UNL A   1      40.948  26.326  28.337  1.00  0.00     0.074 A 
ATOM     35  C   UNL A   1      42.981  25.024  27.813  1.00  0.00     0.049 A 
ATOM     36  N   UNL A   1      41.388  27.536  28.629  1.00  0.00    -0.248 NA
ATOM     37  C   UNL A   1      39.623  26.049  28.926  1.00  0.00     0.031 C 
ATOM     38  C   UNL A   1      44.809  23.909  27.908  1.00  0.00     0.029 A 
ATOM     39  N   UNL A   1      43.698  26.764  27.537  1.00  0.00    -0.354 N 
ATOM     40  C   UNL A   1      40.389  28.166  29.379  1.00  0.00     0.074 A 
ATOM     41  C   UNL A   1      39.332  27.188  29.539  1.00  0.00     0.031 C 
ATOM     42  C   UNL A   1      46.112  24.922  27.711  1.00  0.00     0.029 A 
ATOM     43  C   UNL A   1      45.526  26.702  27.479  1.00  0.00     0.049 A 
ATOM     44  H   UNL A   1      43.160  27.583  27.440  1.00  0.00     0.167 HD
ATOM     45  C   UNL A   1      40.325  29.430  29.886  1.00  0.00     0.037 A 
ATOM     46  C   UNL A   1      46.394  27.615  27.016  1.00  0.00     0.037 A 
ATOM     47  C   UNL A   1      41.348  30.454  29.778  1.00  0.00     0.049 A 
ATOM     48  C   UNL A   1      46.102  29.030  27.268  1.00  0.00     0.074 A 
ATOM     49  C   UNL A   1      41.295  31.753  30.265  1.00  0.00     0.029 A 
ATOM     50  N   UNL A   1      42.579  30.329  29.147  1.00  0.00    -0.354 N 
ATOM     51  N   UNL A   1      45.055  29.529  27.863  1.00  0.00    -0.248 NA
ATOM     52  C   UNL A   1      47.172  29.981  26.969  1.00  0.00     0.031 C 
ATOM     53  C   UNL A   1      42.441  32.438  29.854  1.00  0.00     0.029 A 
ATOM     54  C   UNL A   1      43.265  31.545  29.197  1.00  0.00     0.049 A 
ATOM     55  H   UNL A   1      42.918  29.507  28.726  1.00  0.00     0.167 HD
ATOM     56  C   UNL A   1      45.353  30.857  28.064  1.00  0.00     0.074 A 
ATOM     57  C   UNL A   1      46.696  31.072  27.555  1.00  0.00     0.031 C 
ATOM     58  C   UNL A   1      44.579  31.793  28.656  1.00  0.00     0.037 A 
BRANCH  45  59
ATOM     59  C   UNL A   1      39.022  29.851  30.542  1.00  0.00     0.064 A 
ATOM     60  C   UNL A   1      38.760  29.680  31.911  1.00  0.00     0.173 A 
ATOM     61  C   UNL A   1      38.032  30.491  29.773  1.00  0.00     0.173 A 
ATOM     62  F   UNL A   1      39.666  29.087  32.703  1.00  0.00    -0.203 F 
ATOM     63  C   UNL A   1      37.545  30.086  32.470  1.00  0.00     0.198 A 
ATOM     64  C   UNL A   1      36.840  30.934  30.343  1.00  0.00     0.198 A 
ATOM     65  F   UNL A   1      38.232  30.714  28.465  1.00  0.00    -0.203 F 
ATOM     66  F   UNL A   1      37.293  29.854  33.765  1.00  0.00    -0.200 F 
ATOM     67  C   UNL A   1      36.590  30.716  31.687  1.00  0.00     0.200 A 
ATOM     68  F   UNL A   1      35.935  31.572  29.588  1.00  0.00    -0.200 F 
ATOM     69  F   UNL A   1      35.426  31.108  32.225  1.00  0.00    -0.200 F 
ENDBRANCH  45  59
BRANCH  46  70
ATOM     70  C   UNL A   1      47.628  27.111  26.371  1.00  0.00     0.064 A 
ATOM     71  C   UNL A   1      47.730  26.897  24.995  1.00  0.00     0.173 A 
ATOM     72  C   UNL A   1      48.782  26.897  27.151  1.00  0.00     0.173 A 
ATOM     73  F   UNL A   1      46.664  27.094  24.207  1.00  0.00    -0.203 F 
ATOM     74  C   UNL A   1      48.932  26.475  24.423  1.00  0.00     0.198 A 
ATOM     75  C   UNL A   1      49.987  26.501  26.576  1.00  0.00     0.198 A 
ATOM     76  F   UNL A   1      48.743  27.080  28.480  1.00  0.00    -0.203 F 
ATOM     77  F   UNL A   1      48.998  26.257  23.103  1.00  0.00    -0.200 F 
ATOM     78  C   UNL A   1      50.059  26.283  25.211  1.00  0.00     0.200 A 
ATOM     79  F   UNL A   1      51.074  26.334  27.343  1.00  0.00    -0.200 F 
ATOM     80  F   UNL A   1      51.211  25.884  24.655  1.00  0.00    -0.200 F 
ENDBRANCH  46  70
BRANCH  58  81
ATOM     81  C   UNL A   1      45.186  33.154  28.787  1.00  0.00     0.064 A 
ATOM     82  C   UNL A   1      45.963  33.503  29.903  1.00  0.00     0.173 A 
ATOM     83  C   UNL A   1      44.953  34.138  27.815  1.00  0.00     0.173 A 
ATOM     84  F   UNL A   1      46.185  32.607  30.877  1.00  0.00    -0.203 F 
ATOM     85  C   UNL A   1      46.442  34.797  30.064  1.00  0.00     0.198 A 
ATOM     86  C   UNL A   1      45.478  35.418  27.954  1.00  0.00     0.198 A 
ATOM     87  F   UNL A   1      44.207  33.861  26.734  1.00  0.00    -0.203 F 
ATOM     88  F   UNL A   1      47.100  35.130  31.184  1.00  0.00    -0.200 F 
ATOM     89  C   UNL A   1      46.208  35.751  29.085  1.00  0.00     0.200 A 
ATOM     90  F   UNL A   1      45.260  36.336  27.003  1.00  0.00    -0.200 F 
ATOM     91  F   UNL A   1      46.672  36.998  29.241  1.00  0.00    -0.200 F 
ENDBRANCH  58  81
ENDBRANCH  32  33
ENDBRANCH  25  27
ENDBRANCH  24  25
ENDBRANCH   1  24
TORSDOF 12
ENDMDL
