MODEL 1
REMARK VINA RESULT:     -14.4      0.000      0.000
REMARK SMILES COc1cc([C@H]2c3c(-c4ccccc4)n[nH]c3C(=O)N2c2ccc(C(=O)OCCOC(=O)c3ccc(-c4c5nc(c(-c6c(F)c(F)c(F)c(F)c6F)c6ccc([nH]6)c(-c6c(F)c(F)c(F)c(F)c6F)c6nc(c(-c7c(F)c(F)c(F)c(F)c7F)c7ccc4[nH]7)C=C6)C=C5)cc3)cc2)ccc1O
REMARK SMILES IDX 28 1 27 2 25 3 26 4 24 5 21 6 22 7 97 8 23 9 96 10 20 11
REMARK SMILES IDX 6 12 7 13 8 14 17 15 18 16 15 17 16 18 19 19 5 21 3 22 4 23
REMARK SMILES IDX 100 24 99 25 98 26 2 27 1 28 101 29 9 31 10 32 14 33 11 34
REMARK SMILES IDX 13 35 12 36 29 37 30 38 31 39 32 40 33 41 34 42 95 43 35 44
REMARK SMILES IDX 94 45 36 46 37 47 38 48 88 49 39 50 93 51 87 52 89 53 40 54
REMARK SMILES IDX 92 55 86 56 85 57 41 59 73 60 53 61 72 62 54 63 57 64 71 65
REMARK SMILES IDX 90 66 55 67 56 68 70 70 91 71 58 72 42 73 43 74 51 75 44 76
REMARK SMILES IDX 45 77 49 78 52 79 46 80 47 81 50 82 48 83 74 84 75 85 83 86
REMARK SMILES IDX 76 87 77 88 81 89 84 90 78 91 79 92 82 93 80 94 59 95 60 96
REMARK SMILES IDX 68 97 61 98 62 99 66 100 69 101 63 102 64 103 67 104 65 105
REMARK H PARENT 16 20 101 30 89 58 57 69
REMARK Flexibility Score: inf
ROOT
ATOM      1  C   UNL A   1      40.419  20.606  26.690  1.00  0.00     0.275 C 
ENDROOT
BRANCH   1   2
ATOM      2  O   UNL A   1      39.441  21.348  25.940  1.00  0.00    -0.458 OA
BRANCH   2   3
ATOM      3  C   UNL A   1      38.456  20.607  25.368  1.00  0.00     0.338 C 
ATOM      4  O   UNL A   1      38.556  19.458  24.966  1.00  0.00    -0.246 OA
BRANCH   3   5
ATOM      5  C   UNL A   1      37.170  21.346  25.377  1.00  0.00     0.060 A 
ATOM      6  C   UNL A   1      34.757  22.764  25.594  1.00  0.00     0.045 A 
ATOM      7  C   UNL A   1      35.970  23.397  25.880  1.00  0.00     0.027 A 
ATOM      8  C   UNL A   1      34.768  21.439  25.137  1.00  0.00     0.027 A 
ATOM      9  C   UNL A   1      37.168  22.681  25.803  1.00  0.00     0.018 A 
ATOM     10  C   UNL A   1      35.971  20.742  24.997  1.00  0.00     0.018 A 
BRANCH   6  11
ATOM     11  N   UNL A   1      33.535  23.434  25.803  1.00  0.00    -0.295 N 
ATOM     12  C   UNL A   1      33.312  24.832  25.332  1.00  0.00     0.156 C 
ATOM     13  C   UNL A   1      31.923  25.046  25.804  1.00  0.00     0.038 A 
ATOM     14  C   UNL A   1      30.850  25.951  25.822  1.00  0.00     0.099 A 
ATOM     15  C   UNL A   1      31.480  23.943  26.471  1.00  0.00     0.129 A 
ATOM     16  C   UNL A   1      32.422  22.880  26.476  1.00  0.00     0.277 C 
ATOM     17  N   UNL A   1      29.841  25.452  26.573  1.00  0.00    -0.174 NA
ATOM     18  N   UNL A   1      30.256  24.215  26.947  1.00  0.00    -0.272 N 
ATOM     19  O   UNL A   1      32.278  21.787  26.976  1.00  0.00    -0.267 OA
ATOM     20  H   UNL A   1      29.725  23.594  27.497  1.00  0.00     0.190 HD
BRANCH  12  21
ATOM     21  C   UNL A   1      33.309  25.010  23.827  1.00  0.00    -0.016 A 
ATOM     22  C   UNL A   1      33.577  26.553  21.924  1.00  0.00     0.160 A 
ATOM     23  C   UNL A   1      33.672  26.262  23.294  1.00  0.00     0.056 A 
ATOM     24  C   UNL A   1      33.111  25.555  21.067  1.00  0.00     0.157 A 
ATOM     25  C   UNL A   1      32.800  24.285  21.563  1.00  0.00     0.050 A 
ATOM     26  C   UNL A   1      32.899  24.011  22.931  1.00  0.00     0.010 A 
BRANCH  22  27
ATOM     27  O   UNL A   1      33.940  27.839  21.640  1.00  0.00    -0.493 OA
ATOM     28  C   UNL A   1      34.069  28.791  22.681  1.00  0.00     0.278 C 
ENDBRANCH  22  27
BRANCH  24  29
ATOM     29  O   UNL A   1      32.871  25.729  19.735  1.00  0.00    -0.504 OA
ATOM     30  H   UNL A   1      33.170  25.091  19.118  1.00  0.00     0.293 HD
ENDBRANCH  24  29
ENDBRANCH  12  21
BRANCH  14  31
ATOM     31  C   UNL A   1      30.730  27.233  25.145  1.00  0.00     0.002 A 
ATOM     32  C   UNL A   1      29.957  27.362  23.988  1.00  0.00     0.010 A 
ATOM     33  C   UNL A   1      31.412  28.351  25.638  1.00  0.00     0.010 A 
ATOM     34  C   UNL A   1      29.840  28.606  23.358  1.00  0.00     0.001 A 
ATOM     35  C   UNL A   1      31.286  29.595  25.019  1.00  0.00     0.001 A 
ATOM     36  C   UNL A   1      30.495  29.722  23.879  1.00  0.00     0.000 A 
ENDBRANCH  14  31
ENDBRANCH   6  11
ENDBRANCH   3   5
ENDBRANCH   2   3
ENDBRANCH   1   2
BRANCH   1  37
ATOM     37  C   UNL A   1      41.752  20.528  25.958  1.00  0.00     0.275 C 
BRANCH  37  38
ATOM     38  O   UNL A   1      42.669  21.511  26.431  1.00  0.00    -0.458 OA
BRANCH  38  39
ATOM     39  C   UNL A   1      42.598  22.703  25.798  1.00  0.00     0.338 C 
ATOM     40  O   UNL A   1      43.080  23.007  24.720  1.00  0.00    -0.246 OA
BRANCH  39  41
ATOM     41  C   UNL A   1      42.069  23.699  26.729  1.00  0.00     0.060 A 
ATOM     42  C   UNL A   1      41.177  24.650  26.225  1.00  0.00     0.016 A 
ATOM     43  C   UNL A   1      42.724  23.865  27.956  1.00  0.00     0.016 A 
ATOM     44  C   UNL A   1      41.084  25.863  26.873  1.00  0.00     0.010 A 
ATOM     45  C   UNL A   1      42.645  25.078  28.589  1.00  0.00     0.010 A 
ATOM     46  C   UNL A   1      41.891  26.087  27.995  1.00  0.00    -0.014 A 
BRANCH  46  47
ATOM     47  C   UNL A   1      41.824  27.366  28.669  1.00  0.00     0.031 A 
ATOM     48  C   UNL A   1      42.971  28.231  28.308  1.00  0.00     0.074 A 
ATOM     49  C   UNL A   1      40.741  27.736  29.383  1.00  0.00     0.049 A 
ATOM     50  N   UNL A   1      43.899  28.673  29.089  1.00  0.00    -0.248 NA
ATOM     51  C   UNL A   1      43.236  28.465  26.875  1.00  0.00     0.031 C 
ATOM     52  C   UNL A   1      39.478  27.012  29.555  1.00  0.00     0.029 A 
ATOM     53  N   UNL A   1      40.505  28.908  30.034  1.00  0.00    -0.354 N 
ATOM     54  C   UNL A   1      44.741  29.424  28.277  1.00  0.00     0.074 A 
ATOM     55  C   UNL A   1      44.417  29.081  26.920  1.00  0.00     0.031 C 
ATOM     56  C   UNL A   1      38.541  27.851  30.056  1.00  0.00     0.029 A 
ATOM     57  C   UNL A   1      39.166  29.123  30.362  1.00  0.00     0.049 A 
ATOM     58  H   UNL A   1      41.219  29.550  30.255  1.00  0.00     0.167 HD
ATOM     59  C   UNL A   1      45.414  30.488  28.790  1.00  0.00     0.037 A 
ATOM     60  C   UNL A   1      38.634  30.304  30.776  1.00  0.00     0.037 A 
ATOM     61  C   UNL A   1      45.509  30.384  30.225  1.00  0.00     0.049 A 
ATOM     62  C   UNL A   1      39.764  31.144  31.256  1.00  0.00     0.074 A 
ATOM     63  C   UNL A   1      46.076  29.471  31.093  1.00  0.00     0.029 A 
ATOM     64  N   UNL A   1      44.611  31.106  30.972  1.00  0.00    -0.354 N 
ATOM     65  N   UNL A   1      40.464  30.863  32.320  1.00  0.00    -0.248 NA
ATOM     66  C   UNL A   1      40.426  31.991  30.273  1.00  0.00     0.031 C 
ATOM     67  C   UNL A   1      45.158  29.375  32.181  1.00  0.00     0.029 A 
ATOM     68  C   UNL A   1      44.129  30.292  31.964  1.00  0.00     0.049 A 
ATOM     69  H   UNL A   1      44.356  32.044  30.820  1.00  0.00     0.167 HD
ATOM     70  C   UNL A   1      41.778  31.111  31.948  1.00  0.00     0.074 A 
ATOM     71  C   UNL A   1      41.687  31.856  30.694  1.00  0.00     0.031 C 
ATOM     72  C   UNL A   1      42.808  30.430  32.529  1.00  0.00     0.037 A 
BRANCH  59  73
ATOM     73  C   UNL A   1      45.570  31.804  28.061  1.00  0.00     0.064 A 
ATOM     74  C   UNL A   1      44.410  32.454  27.597  1.00  0.00     0.173 A 
ATOM     75  C   UNL A   1      46.788  32.284  27.527  1.00  0.00     0.173 A 
ATOM     76  F   UNL A   1      43.197  32.077  28.026  1.00  0.00    -0.203 F 
ATOM     77  C   UNL A   1      44.461  33.433  26.601  1.00  0.00     0.198 A 
ATOM     78  C   UNL A   1      46.838  33.297  26.573  1.00  0.00     0.198 A 
ATOM     79  F   UNL A   1      47.971  31.730  27.808  1.00  0.00    -0.203 F 
ATOM     80  F   UNL A   1      43.323  33.921  26.091  1.00  0.00    -0.200 F 
ATOM     81  C   UNL A   1      45.675  33.847  26.083  1.00  0.00     0.200 A 
ATOM     82  F   UNL A   1      48.024  33.669  26.072  1.00  0.00    -0.200 F 
ATOM     83  F   UNL A   1      45.723  34.733  25.081  1.00  0.00    -0.200 F 
ENDBRANCH  59  73
BRANCH  60  84
ATOM     84  C   UNL A   1      37.311  30.890  30.438  1.00  0.00     0.064 A 
ATOM     85  C   UNL A   1      36.396  31.254  31.443  1.00  0.00     0.173 A 
ATOM     86  C   UNL A   1      37.037  31.374  29.144  1.00  0.00     0.173 A 
ATOM     87  F   UNL A   1      36.608  30.882  32.714  1.00  0.00    -0.203 F 
ATOM     88  C   UNL A   1      35.288  32.067  31.172  1.00  0.00     0.198 A 
ATOM     89  C   UNL A   1      35.930  32.183  28.875  1.00  0.00     0.198 A 
ATOM     90  F   UNL A   1      37.890  31.155  28.134  1.00  0.00    -0.203 F 
ATOM     91  F   UNL A   1      34.472  32.442  32.168  1.00  0.00    -0.200 F 
ATOM     92  C   UNL A   1      35.063  32.539  29.890  1.00  0.00     0.200 A 
ATOM     93  F   UNL A   1      35.748  32.667  27.638  1.00  0.00    -0.200 F 
ATOM     94  F   UNL A   1      34.039  33.369  29.641  1.00  0.00    -0.200 F 
ENDBRANCH  60  84
BRANCH  72  95
ATOM     95  C   UNL A   1      42.502  29.595  33.742  1.00  0.00     0.064 A 
ATOM     96  C   UNL A   1      42.042  28.267  33.697  1.00  0.00     0.173 A 
ATOM     97  C   UNL A   1      42.831  30.120  34.997  1.00  0.00     0.173 A 
ATOM     98  F   UNL A   1      41.797  27.661  32.529  1.00  0.00    -0.203 F 
ATOM     99  C   UNL A   1      41.883  27.517  34.863  1.00  0.00     0.198 A 
ATOM    100  C   UNL A   1      42.707  29.359  36.155  1.00  0.00     0.198 A 
ATOM    101  F   UNL A   1      43.325  31.365  35.095  1.00  0.00    -0.203 F 
ATOM    102  F   UNL A   1      41.432  26.255  34.797  1.00  0.00    -0.200 F 
ATOM    103  C   UNL A   1      42.224  28.063  36.090  1.00  0.00     0.200 A 
ATOM    104  F   UNL A   1      43.087  29.875  37.332  1.00  0.00    -0.200 F 
ATOM    105  F   UNL A   1      42.112  27.332  37.208  1.00  0.00    -0.200 F 
ENDBRANCH  72  95
ENDBRANCH  46  47
ENDBRANCH  39  41
ENDBRANCH  38  39
ENDBRANCH  37  38
ENDBRANCH   1  37
TORSDOF 16
ENDMDL
MODEL 2
REMARK VINA RESULT:     -13.9      3.091      8.867
REMARK SMILES COc1cc([C@H]2c3c(-c4ccccc4)n[nH]c3C(=O)N2c2ccc(C(=O)OCCOC(=O)c3ccc(-c4c5nc(c(-c6c(F)c(F)c(F)c(F)c6F)c6ccc([nH]6)c(-c6c(F)c(F)c(F)c(F)c6F)c6nc(c(-c7c(F)c(F)c(F)c(F)c7F)c7ccc4[nH]7)C=C6)C=C5)cc3)cc2)ccc1O
REMARK SMILES IDX 28 1 27 2 25 3 26 4 24 5 21 6 22 7 97 8 23 9 96 10 20 11
REMARK SMILES IDX 6 12 7 13 8 14 17 15 18 16 15 17 16 18 19 19 5 21 3 22 4 23
REMARK SMILES IDX 100 24 99 25 98 26 2 27 1 28 101 29 9 31 10 32 14 33 11 34
REMARK SMILES IDX 13 35 12 36 29 37 30 38 31 39 32 40 33 41 34 42 95 43 35 44
REMARK SMILES IDX 94 45 36 46 37 47 38 48 88 49 39 50 93 51 87 52 89 53 40 54
REMARK SMILES IDX 92 55 86 56 85 57 41 59 73 60 53 61 72 62 54 63 57 64 71 65
REMARK SMILES IDX 90 66 55 67 56 68 70 70 91 71 58 72 42 73 43 74 51 75 44 76
REMARK SMILES IDX 45 77 49 78 52 79 46 80 47 81 50 82 48 83 74 84 75 85 83 86
REMARK SMILES IDX 76 87 77 88 81 89 84 90 78 91 79 92 82 93 80 94 59 95 60 96
REMARK SMILES IDX 68 97 61 98 62 99 66 100 69 101 63 102 64 103 67 104 65 105
REMARK H PARENT 16 20 101 30 89 58 57 69
REMARK Flexibility Score: inf
ROOT
ATOM      1  C   UNL A   1      34.058  33.269  28.056  1.00  0.00     0.275 C 
ENDROOT
BRANCH   1   2
ATOM      2  O   UNL A   1      33.710  31.899  27.790  1.00  0.00    -0.458 OA
BRANCH   2   3
ATOM      3  C   UNL A   1      32.526  31.708  27.151  1.00  0.00     0.338 C 
ATOM      4  O   UNL A   1      31.593  32.495  27.108  1.00  0.00    -0.246 OA
BRANCH   3   5
ATOM      5  C   UNL A   1      32.534  30.429  26.400  1.00  0.00     0.060 A 
ATOM      6  C   UNL A   1      32.713  28.075  24.881  1.00  0.00     0.045 A 
ATOM      7  C   UNL A   1      33.711  28.389  25.808  1.00  0.00     0.027 A 
ATOM      8  C   UNL A   1      31.595  28.914  24.770  1.00  0.00     0.027 A 
ATOM      9  C   UNL A   1      33.638  29.578  26.540  1.00  0.00     0.018 A 
ATOM     10  C   UNL A   1      31.489  30.069  25.549  1.00  0.00     0.018 A 
BRANCH   6  11
ATOM     11  N   UNL A   1      32.847  26.953  24.040  1.00  0.00    -0.295 N 
ATOM     12  C   UNL A   1      33.254  25.618  24.565  1.00  0.00     0.156 C 
ATOM     13  C   UNL A   1      33.254  24.834  23.308  1.00  0.00     0.038 A 
ATOM     14  C   UNL A   1      33.438  23.554  22.760  1.00  0.00     0.099 A 
ATOM     15  C   UNL A   1      32.938  25.638  22.254  1.00  0.00     0.129 A 
ATOM     16  C   UNL A   1      32.632  26.970  22.642  1.00  0.00     0.277 C 
ATOM     17  N   UNL A   1      33.349  23.615  21.411  1.00  0.00    -0.174 NA
ATOM     18  N   UNL A   1      33.030  24.905  21.135  1.00  0.00    -0.272 N 
ATOM     19  O   UNL A   1      32.300  27.878  21.915  1.00  0.00    -0.267 OA
ATOM     20  H   UNL A   1      32.884  25.258  20.228  1.00  0.00     0.190 HD
BRANCH  12  21
ATOM     21  C   UNL A   1      32.260  24.965  25.504  1.00  0.00    -0.016 A 
ATOM     22  C   UNL A   1      31.874  23.303  27.283  1.00  0.00     0.160 A 
ATOM     23  C   UNL A   1      32.735  24.046  26.459  1.00  0.00     0.056 A 
ATOM     24  C   UNL A   1      30.499  23.497  27.145  1.00  0.00     0.157 A 
ATOM     25  C   UNL A   1      30.004  24.446  26.246  1.00  0.00     0.050 A 
ATOM     26  C   UNL A   1      30.874  25.178  25.432  1.00  0.00     0.010 A 
BRANCH  22  27
ATOM     27  O   UNL A   1      32.551  22.444  28.100  1.00  0.00    -0.493 OA
ATOM     28  C   UNL A   1      33.897  22.101  27.820  1.00  0.00     0.278 C 
ENDBRANCH  22  27
BRANCH  24  29
ATOM     29  O   UNL A   1      29.547  22.773  27.803  1.00  0.00    -0.504 OA
ATOM     30  H   UNL A   1      29.250  21.958  27.449  1.00  0.00     0.293 HD
ENDBRANCH  24  29
ENDBRANCH  12  21
BRANCH  14  31
ATOM     31  C   UNL A   1      33.662  22.293  23.450  1.00  0.00     0.002 A 
ATOM     32  C   UNL A   1      32.668  21.312  23.490  1.00  0.00     0.010 A 
ATOM     33  C   UNL A   1      34.878  22.060  24.104  1.00  0.00     0.010 A 
ATOM     34  C   UNL A   1      32.905  20.099  24.145  1.00  0.00     0.001 A 
ATOM     35  C   UNL A   1      35.121  20.845  24.746  1.00  0.00     0.001 A 
ATOM     36  C   UNL A   1      34.134  19.862  24.762  1.00  0.00     0.000 A 
ENDBRANCH  14  31
ENDBRANCH   6  11
ENDBRANCH   3   5
ENDBRANCH   2   3
ENDBRANCH   1   2
BRANCH   1  37
ATOM     37  C   UNL A   1      34.352  33.501  29.532  1.00  0.00     0.275 C 
BRANCH  37  38
ATOM     38  O   UNL A   1      34.362  32.279  30.265  1.00  0.00    -0.458 OA
BRANCH  38  39
ATOM     39  C   UNL A   1      35.377  32.157  31.149  1.00  0.00     0.338 C 
ATOM     40  O   UNL A   1      35.488  32.693  32.238  1.00  0.00    -0.246 OA
BRANCH  39  41
ATOM     41  C   UNL A   1      36.492  31.475  30.494  1.00  0.00     0.060 A 
ATOM     42  C   UNL A   1      36.492  30.077  30.498  1.00  0.00     0.016 A 
ATOM     43  C   UNL A   1      37.643  32.221  30.210  1.00  0.00     0.016 A 
ATOM     44  C   UNL A   1      37.703  29.426  30.397  1.00  0.00     0.010 A 
ATOM     45  C   UNL A   1      38.848  31.573  30.129  1.00  0.00     0.010 A 
ATOM     46  C   UNL A   1      38.871  30.192  30.305  1.00  0.00    -0.014 A 
BRANCH  46  47
ATOM     47  C   UNL A   1      40.150  29.521  30.226  1.00  0.00     0.031 A 
ATOM     48  C   UNL A   1      40.775  29.384  31.562  1.00  0.00     0.074 A 
ATOM     49  C   UNL A   1      40.587  28.958  29.081  1.00  0.00     0.049 A 
ATOM     50  N   UNL A   1      41.880  29.911  31.972  1.00  0.00    -0.248 NA
ATOM     51  C   UNL A   1      39.979  28.758  32.636  1.00  0.00     0.031 C 
ATOM     52  C   UNL A   1      39.885  28.850  27.799  1.00  0.00     0.029 A 
ATOM     53  N   UNL A   1      41.735  28.261  28.854  1.00  0.00    -0.354 N 
ATOM     54  C   UNL A   1      42.022  29.496  33.292  1.00  0.00     0.074 A 
ATOM     55  C   UNL A   1      40.743  28.990  33.704  1.00  0.00     0.031 C 
ATOM     56  C   UNL A   1      40.511  27.941  27.016  1.00  0.00     0.029 A 
ATOM     57  C   UNL A   1      41.723  27.503  27.683  1.00  0.00     0.049 A 
ATOM     58  H   UNL A   1      42.507  28.289  29.465  1.00  0.00     0.167 HD
ATOM     59  C   UNL A   1      43.262  29.321  33.822  1.00  0.00     0.037 A 
ATOM     60  C   UNL A   1      42.622  26.535  27.359  1.00  0.00     0.037 A 
ATOM     61  C   UNL A   1      44.246  30.054  33.065  1.00  0.00     0.049 A 
ATOM     62  C   UNL A   1      43.825  26.761  28.204  1.00  0.00     0.074 A 
ATOM     63  C   UNL A   1      44.442  31.389  32.771  1.00  0.00     0.029 A 
ATOM     64  N   UNL A   1      44.984  29.354  32.143  1.00  0.00    -0.354 N 
ATOM     65  N   UNL A   1      44.605  27.800  28.079  1.00  0.00    -0.248 NA
ATOM     66  C   UNL A   1      43.856  26.105  29.504  1.00  0.00     0.031 C 
ATOM     67  C   UNL A   1      44.895  31.409  31.419  1.00  0.00     0.029 A 
ATOM     68  C   UNL A   1      45.032  30.090  30.987  1.00  0.00     0.049 A 
ATOM     69  H   UNL A   1      45.403  28.476  32.286  1.00  0.00     0.167 HD
ATOM     70  C   UNL A   1      44.874  28.193  29.382  1.00  0.00     0.074 A 
ATOM     71  C   UNL A   1      44.429  27.079  30.218  1.00  0.00     0.031 C 
ATOM     72  C   UNL A   1      45.146  29.498  29.676  1.00  0.00     0.037 A 
BRANCH  59  73
ATOM     73  C   UNL A   1      43.629  28.156  34.713  1.00  0.00     0.064 A 
ATOM     74  C   UNL A   1      43.342  26.852  34.264  1.00  0.00     0.173 A 
ATOM     75  C   UNL A   1      43.945  28.267  36.087  1.00  0.00     0.173 A 
ATOM     76  F   UNL A   1      43.019  26.627  32.982  1.00  0.00    -0.203 F 
ATOM     77  C   UNL A   1      43.274  25.767  35.141  1.00  0.00     0.198 A 
ATOM     78  C   UNL A   1      43.927  27.172  36.948  1.00  0.00     0.198 A 
ATOM     79  F   UNL A   1      44.170  29.440  36.687  1.00  0.00    -0.203 F 
ATOM     80  F   UNL A   1      42.859  24.576  34.692  1.00  0.00    -0.200 F 
ATOM     81  C   UNL A   1      43.557  25.930  36.485  1.00  0.00     0.200 A 
ATOM     82  F   UNL A   1      44.187  27.358  38.251  1.00  0.00    -0.200 F 
ATOM     83  F   UNL A   1      43.426  24.908  37.339  1.00  0.00    -0.200 F 
ENDBRANCH  59  73
BRANCH  60  84
ATOM     84  C   UNL A   1      42.378  25.239  26.674  1.00  0.00     0.064 A 
ATOM     85  C   UNL A   1      43.146  24.845  25.563  1.00  0.00     0.173 A 
ATOM     86  C   UNL A   1      41.589  24.237  27.271  1.00  0.00     0.173 A 
ATOM     87  F   UNL A   1      43.966  25.722  24.967  1.00  0.00    -0.203 F 
ATOM     88  C   UNL A   1      43.138  23.526  25.093  1.00  0.00     0.198 A 
ATOM     89  C   UNL A   1      41.581  22.922  26.799  1.00  0.00     0.198 A 
ATOM     90  F   UNL A   1      40.887  24.487  28.385  1.00  0.00    -0.203 F 
ATOM     91  F   UNL A   1      43.929  23.175  24.069  1.00  0.00    -0.200 F 
ATOM     92  C   UNL A   1      42.364  22.564  25.718  1.00  0.00     0.200 A 
ATOM     93  F   UNL A   1      40.860  21.992  27.440  1.00  0.00    -0.200 F 
ATOM     94  F   UNL A   1      42.404  21.287  25.310  1.00  0.00    -0.200 F 
ENDBRANCH  60  84
BRANCH  72  95
ATOM     95  C   UNL A   1      45.389  30.439  28.528  1.00  0.00     0.064 A 
ATOM     96  C   UNL A   1      44.380  31.154  27.860  1.00  0.00     0.173 A 
ATOM     97  C   UNL A   1      46.716  30.736  28.196  1.00  0.00     0.173 A 
ATOM     98  F   UNL A   1      43.090  30.997  28.187  1.00  0.00    -0.203 F 
ATOM     99  C   UNL A   1      44.690  32.092  26.875  1.00  0.00     0.198 A 
ATOM    100  C   UNL A   1      47.025  31.699  27.241  1.00  0.00     0.198 A 
ATOM    101  F   UNL A   1      47.722  30.122  28.840  1.00  0.00    -0.203 F 
ATOM    102  F   UNL A   1      43.710  32.755  26.242  1.00  0.00    -0.200 F 
ATOM    103  C   UNL A   1      46.013  32.369  26.573  1.00  0.00     0.200 A 
ATOM    104  F   UNL A   1      48.307  31.998  26.990  1.00  0.00    -0.200 F 
ATOM    105  F   UNL A   1      46.315  33.300  25.658  1.00  0.00    -0.200 F 
ENDBRANCH  72  95
ENDBRANCH  46  47
ENDBRANCH  39  41
ENDBRANCH  38  39
ENDBRANCH  37  38
ENDBRANCH   1  37
TORSDOF 16
ENDMDL
MODEL 3
REMARK VINA RESULT:     -13.8      3.231      8.810
REMARK SMILES COc1cc([C@H]2c3c(-c4ccccc4)n[nH]c3C(=O)N2c2ccc(C(=O)OCCOC(=O)c3ccc(-c4c5nc(c(-c6c(F)c(F)c(F)c(F)c6F)c6ccc([nH]6)c(-c6c(F)c(F)c(F)c(F)c6F)c6nc(c(-c7c(F)c(F)c(F)c(F)c7F)c7ccc4[nH]7)C=C6)C=C5)cc3)cc2)ccc1O
REMARK SMILES IDX 28 1 27 2 25 3 26 4 24 5 21 6 22 7 97 8 23 9 96 10 20 11
REMARK SMILES IDX 6 12 7 13 8 14 17 15 18 16 15 17 16 18 19 19 5 21 3 22 4 23
REMARK SMILES IDX 100 24 99 25 98 26 2 27 1 28 101 29 9 31 10 32 14 33 11 34
REMARK SMILES IDX 13 35 12 36 29 37 30 38 31 39 32 40 33 41 34 42 95 43 35 44
REMARK SMILES IDX 94 45 36 46 37 47 38 48 88 49 39 50 93 51 87 52 89 53 40 54
REMARK SMILES IDX 92 55 86 56 85 57 41 59 73 60 53 61 72 62 54 63 57 64 71 65
REMARK SMILES IDX 90 66 55 67 56 68 70 70 91 71 58 72 42 73 43 74 51 75 44 76
REMARK SMILES IDX 45 77 49 78 52 79 46 80 47 81 50 82 48 83 74 84 75 85 83 86
REMARK SMILES IDX 76 87 77 88 81 89 84 90 78 91 79 92 82 93 80 94 59 95 60 96
REMARK SMILES IDX 68 97 61 98 62 99 66 100 69 101 63 102 64 103 67 104 65 105
REMARK H PARENT 16 20 101 30 89 58 57 69
REMARK Flexibility Score: inf
ROOT
ATOM      1  C   UNL A   1      33.903  34.197  28.449  1.00  0.00     0.275 C 
ENDROOT
BRANCH   1   2
ATOM      2  O   UNL A   1      33.338  32.937  28.045  1.00  0.00    -0.458 OA
BRANCH   2   3
ATOM      3  C   UNL A   1      34.071  31.838  28.361  1.00  0.00     0.338 C 
ATOM      4  O   UNL A   1      34.775  31.698  29.349  1.00  0.00    -0.246 OA
BRANCH   3   5
ATOM      5  C   UNL A   1      33.833  30.748  27.383  1.00  0.00     0.060 A 
ATOM      6  C   UNL A   1      33.547  28.750  25.432  1.00  0.00     0.045 A 
ATOM      7  C   UNL A   1      34.649  28.738  26.291  1.00  0.00     0.027 A 
ATOM      8  C   UNL A   1      32.559  29.731  25.601  1.00  0.00     0.027 A 
ATOM      9  C   UNL A   1      34.808  29.752  27.240  1.00  0.00     0.018 A 
ATOM     10  C   UNL A   1      32.684  30.706  26.593  1.00  0.00     0.018 A 
BRANCH   6  11
ATOM     11  N   UNL A   1      33.449  27.816  24.382  1.00  0.00    -0.295 N 
ATOM     12  C   UNL A   1      33.527  26.346  24.625  1.00  0.00     0.156 C 
ATOM     13  C   UNL A   1      33.388  25.846  23.237  1.00  0.00     0.038 A 
ATOM     14  C   UNL A   1      33.295  24.691  22.443  1.00  0.00     0.099 A 
ATOM     15  C   UNL A   1      33.295  26.892  22.369  1.00  0.00     0.129 A 
ATOM     16  C   UNL A   1      33.287  28.156  23.019  1.00  0.00     0.277 C 
ATOM     17  N   UNL A   1      33.263  25.036  21.134  1.00  0.00    -0.174 NA
ATOM     18  N   UNL A   1      33.254  26.393  21.125  1.00  0.00    -0.272 N 
ATOM     19  O   UNL A   1      33.193  29.241  22.492  1.00  0.00    -0.267 OA
ATOM     20  H   UNL A   1      33.220  26.942  20.309  1.00  0.00     0.190 HD
BRANCH  12  21
ATOM     21  C   UNL A   1      32.382  25.766  25.430  1.00  0.00    -0.016 A 
ATOM     22  C   UNL A   1      31.609  23.978  26.941  1.00  0.00     0.160 A 
ATOM     23  C   UNL A   1      32.632  24.655  26.259  1.00  0.00     0.056 A 
ATOM     24  C   UNL A   1      30.300  24.436  26.790  1.00  0.00     0.157 A 
ATOM     25  C   UNL A   1      30.032  25.572  26.020  1.00  0.00     0.050 A 
ATOM     26  C   UNL A   1      31.062  26.235  25.346  1.00  0.00     0.010 A 
BRANCH  22  27
ATOM     27  O   UNL A   1      32.077  22.908  27.649  1.00  0.00    -0.493 OA
ATOM     28  C   UNL A   1      33.457  22.587  27.631  1.00  0.00     0.278 C 
ENDBRANCH  22  27
BRANCH  24  29
ATOM     29  O   UNL A   1      29.199  23.817  27.308  1.00  0.00    -0.504 OA
ATOM     30  H   UNL A   1      29.197  23.536  28.201  1.00  0.00     0.293 HD
ENDBRANCH  24  29
ENDBRANCH  12  21
BRANCH  14  31
ATOM     31  C   UNL A   1      33.206  23.302  22.865  1.00  0.00     0.002 A 
ATOM     32  C   UNL A   1      32.170  22.481  22.411  1.00  0.00     0.010 A 
ATOM     33  C   UNL A   1      34.152  22.779  23.754  1.00  0.00     0.010 A 
ATOM     34  C   UNL A   1      32.108  21.143  22.815  1.00  0.00     0.001 A 
ATOM     35  C   UNL A   1      34.099  21.441  24.146  1.00  0.00     0.001 A 
ATOM     36  C   UNL A   1      33.078  20.622  23.672  1.00  0.00     0.000 A 
ENDBRANCH  14  31
ENDBRANCH   6  11
ENDBRANCH   3   5
ENDBRANCH   2   3
ENDBRANCH   1   2
BRANCH   1  37
ATOM     37  C   UNL A   1      33.166  34.790  29.642  1.00  0.00     0.275 C 
BRANCH  37  38
ATOM     38  O   UNL A   1      34.066  35.168  30.680  1.00  0.00    -0.458 OA
BRANCH  38  39
ATOM     39  C   UNL A   1      33.889  34.514  31.850  1.00  0.00     0.338 C 
ATOM     40  O   UNL A   1      32.938  34.586  32.610  1.00  0.00    -0.246 OA
BRANCH  39  41
ATOM     41  C   UNL A   1      35.150  33.881  32.231  1.00  0.00     0.060 A 
ATOM     42  C   UNL A   1      36.324  34.623  32.072  1.00  0.00     0.016 A 
ATOM     43  C   UNL A   1      35.162  32.490  32.402  1.00  0.00     0.016 A 
ATOM     44  C   UNL A   1      37.508  33.938  31.898  1.00  0.00     0.010 A 
ATOM     45  C   UNL A   1      36.337  31.811  32.210  1.00  0.00     0.010 A 
ATOM     46  C   UNL A   1      37.477  32.539  31.880  1.00  0.00    -0.014 A 
BRANCH  46  47
ATOM     47  C   UNL A   1      38.709  31.809  31.671  1.00  0.00     0.031 A 
ATOM     48  C   UNL A   1      39.426  31.576  32.946  1.00  0.00     0.074 A 
ATOM     49  C   UNL A   1      39.025  31.279  30.472  1.00  0.00     0.049 A 
ATOM     50  N   UNL A   1      40.586  32.027  33.289  1.00  0.00    -0.248 NA
ATOM     51  C   UNL A   1      38.682  30.941  34.052  1.00  0.00     0.031 C 
ATOM     52  C   UNL A   1      38.222  31.268  29.246  1.00  0.00     0.029 A 
ATOM     53  N   UNL A   1      40.113  30.537  30.124  1.00  0.00    -0.354 N 
ATOM     54  C   UNL A   1      40.807  31.543  34.575  1.00  0.00     0.074 A 
ATOM     55  C   UNL A   1      39.538  31.083  35.064  1.00  0.00     0.031 C 
ATOM     56  C   UNL A   1      38.736  30.366  28.377  1.00  0.00     0.029 A 
ATOM     57  C   UNL A   1      39.970  29.838  28.925  1.00  0.00     0.049 A 
ATOM     58  H   UNL A   1      40.930  30.497  30.673  1.00  0.00     0.167 HD
ATOM     59  C   UNL A   1      42.072  31.281  34.997  1.00  0.00     0.037 A 
ATOM     60  C   UNL A   1      40.788  28.842  28.490  1.00  0.00     0.037 A 
ATOM     61  C   UNL A   1      43.033  31.999  34.196  1.00  0.00     0.049 A 
ATOM     62  C   UNL A   1      42.063  28.967  29.246  1.00  0.00     0.074 A 
ATOM     63  C   UNL A   1      43.278  33.335  33.947  1.00  0.00     0.029 A 
ATOM     64  N   UNL A   1      43.659  31.308  33.189  1.00  0.00    -0.354 N 
ATOM     65  N   UNL A   1      42.886  29.970  29.105  1.00  0.00    -0.248 NA
ATOM     66  C   UNL A   1      42.158  28.249  30.510  1.00  0.00     0.031 C 
ATOM     67  C   UNL A   1      43.625  33.397  32.565  1.00  0.00     0.029 A 
ATOM     68  C   UNL A   1      43.658  32.094  32.067  1.00  0.00     0.049 A 
ATOM     69  H   UNL A   1      44.040  30.404  33.261  1.00  0.00     0.167 HD
ATOM     70  C   UNL A   1      43.275  30.286  30.398  1.00  0.00     0.074 A 
ATOM     71  C   UNL A   1      42.837  29.157  31.217  1.00  0.00     0.031 C 
ATOM     72  C   UNL A   1      43.638  31.560  30.726  1.00  0.00     0.037 A 
BRANCH  59  73
ATOM     73  C   UNL A   1      42.444  30.058  35.805  1.00  0.00     0.064 A 
ATOM     74  C   UNL A   1      43.398  30.197  36.831  1.00  0.00     0.173 A 
ATOM     75  C   UNL A   1      42.158  28.728  35.420  1.00  0.00     0.173 A 
ATOM     76  F   UNL A   1      43.756  31.412  37.271  1.00  0.00    -0.203 F 
ATOM     77  C   UNL A   1      44.085  29.098  37.354  1.00  0.00     0.198 A 
ATOM     78  C   UNL A   1      42.808  27.632  35.981  1.00  0.00     0.198 A 
ATOM     79  F   UNL A   1      41.332  28.425  34.414  1.00  0.00    -0.203 F 
ATOM     80  F   UNL A   1      45.082  29.293  38.226  1.00  0.00    -0.200 F 
ATOM     81  C   UNL A   1      43.796  27.818  36.921  1.00  0.00     0.200 A 
ATOM     82  F   UNL A   1      42.525  26.400  35.533  1.00  0.00    -0.200 F 
ATOM     83  F   UNL A   1      44.500  26.770  37.369  1.00  0.00    -0.200 F 
ENDBRANCH  59  73
BRANCH  60  84
ATOM     84  C   UNL A   1      40.423  27.594  27.771  1.00  0.00     0.064 A 
ATOM     85  C   UNL A   1      41.106  27.196  26.607  1.00  0.00     0.173 A 
ATOM     86  C   UNL A   1      39.599  26.622  28.370  1.00  0.00     0.173 A 
ATOM     87  F   UNL A   1      41.954  28.041  26.001  1.00  0.00    -0.203 F 
ATOM     88  C   UNL A   1      40.985  25.901  26.089  1.00  0.00     0.198 A 
ATOM     89  C   UNL A   1      39.478  25.331  27.850  1.00  0.00     0.198 A 
ATOM     90  F   UNL A   1      38.972  26.873  29.528  1.00  0.00    -0.203 F 
ATOM     91  F   UNL A   1      41.699  25.540  25.012  1.00  0.00    -0.200 F 
ATOM     92  C   UNL A   1      40.180  24.967  26.717  1.00  0.00     0.200 A 
ATOM     93  F   UNL A   1      38.728  24.425  28.493  1.00  0.00    -0.200 F 
ATOM     94  F   UNL A   1      40.112  23.708  26.259  1.00  0.00    -0.200 F 
ENDBRANCH  60  84
BRANCH  72  95
ATOM     95  C   UNL A   1      43.843  32.541  29.605  1.00  0.00     0.064 A 
ATOM     96  C   UNL A   1      42.873  33.461  29.167  1.00  0.00     0.173 A 
ATOM     97  C   UNL A   1      45.126  32.650  29.056  1.00  0.00     0.173 A 
ATOM     98  F   UNL A   1      41.650  33.486  29.712  1.00  0.00    -0.203 F 
ATOM     99  C   UNL A   1      43.170  34.416  28.194  1.00  0.00     0.198 A 
ATOM    100  C   UNL A   1      45.431  33.626  28.113  1.00  0.00     0.198 A 
ATOM    101  F   UNL A   1      46.106  31.832  29.475  1.00  0.00    -0.203 F 
ATOM    102  F   UNL A   1      42.226  35.277  27.784  1.00  0.00    -0.200 F 
ATOM    103  C   UNL A   1      44.451  34.502  27.675  1.00  0.00     0.200 A 
ATOM    104  F   UNL A   1      46.684  33.736  27.652  1.00  0.00    -0.200 F 
ATOM    105  F   UNL A   1      44.750  35.445  26.770  1.00  0.00    -0.200 F 
ENDBRANCH  72  95
ENDBRANCH  46  47
ENDBRANCH  39  41
ENDBRANCH  38  39
ENDBRANCH  37  38
ENDBRANCH   1  37
TORSDOF 16
ENDMDL
