MODEL 1
REMARK VINA RESULT:     -12.9      0.000      0.000
REMARK SMILES O=C(Cc1cc(=O)[nH]c(=O)[nH]1)Nc1cccc(C(=O)OCCOC(=O)c2ccc(-c3c4nc(c(-c5c(F)c(F)c(F)c(F)c5F)c5ccc([nH]5)c(-c5c(F)c(F)c(F)c(F)c5F)c5nc(c(-c6c(F)c(F)c(F)c(F)c6F)c6ccc3[nH]6)C=C5)C=C4)cc2)c1
REMARK SMILES IDX 21 1 20 2 18 3 19 4 17 5 13 6 14 7 89 8 15 9 16 10 12 11
REMARK SMILES IDX 1 12 2 13 3 15 4 16 5 17 11 18 6 19 9 20 7 22 8 23 10 24
REMARK SMILES IDX 22 26 23 27 24 28 25 29 26 30 27 31 88 32 28 33 87 34 29 35
REMARK SMILES IDX 30 36 31 37 81 38 32 39 86 40 80 41 82 42 33 43 85 44 79 45
REMARK SMILES IDX 78 46 34 48 66 49 46 50 65 51 47 52 50 53 64 54 83 55 48 56
REMARK SMILES IDX 49 57 63 59 84 60 51 61 35 62 36 63 44 64 37 65 38 66 42 67
REMARK SMILES IDX 45 68 39 69 40 70 43 71 41 72 67 73 68 74 76 75 69 76 70 77
REMARK SMILES IDX 74 78 77 79 71 80 72 81 75 82 73 83 52 84 53 85 61 86 54 87
REMARK SMILES IDX 55 88 59 89 62 90 56 91 57 92 60 93 58 94
REMARK H PARENT 12 14 11 21 8 25 82 47 50 58
REMARK Flexibility Score: inf
ROOT
ATOM      1  C   UNL A   1      42.382  20.406  26.130  1.00  0.00     0.275 C 
ENDROOT
BRANCH   1   2
ATOM      2  O   UNL A   1      41.123  21.056  26.398  1.00  0.00    -0.458 OA
BRANCH   2   3
ATOM      3  C   UNL A   1      40.010  20.450  25.917  1.00  0.00     0.338 C 
ATOM      4  O   UNL A   1      39.876  19.268  25.650  1.00  0.00    -0.246 OA
BRANCH   3   5
ATOM      5  C   UNL A   1      38.884  21.416  25.907  1.00  0.00     0.062 A 
ATOM      6  C   UNL A   1      36.589  21.996  25.446  1.00  0.00     0.042 A 
ATOM      7  C   UNL A   1      36.881  23.339  25.722  1.00  0.00     0.026 A 
ATOM      8  C   UNL A   1      37.603  21.038  25.497  1.00  0.00     0.041 A 
ATOM      9  C   UNL A   1      38.141  23.706  26.180  1.00  0.00     0.003 A 
ATOM     10  C   UNL A   1      39.126  22.734  26.316  1.00  0.00     0.016 A 
BRANCH   6  11
ATOM     11  N   UNL A   1      35.247  21.693  25.163  1.00  0.00    -0.326 N 
ATOM     12  O   UNL A   1      34.389  21.367  27.304  1.00  0.00    -0.274 OA
ATOM     13  C   UNL A   1      34.251  21.419  26.085  1.00  0.00     0.230 C 
ATOM     14  H   UNL A   1      34.989  21.675  24.214  1.00  0.00     0.169 HD
BRANCH  13  15
ATOM     15  C   UNL A   1      32.884  21.201  25.438  1.00  0.00     0.154 C 
BRANCH  15  16
ATOM     16  C   UNL A   1      32.758  19.811  24.863  1.00  0.00     0.034 A 
ATOM     17  C   UNL A   1      32.560  19.578  23.557  1.00  0.00     0.093 A 
ATOM     18  N   UNL A   1      32.825  18.747  25.734  1.00  0.00    -0.311 N 
ATOM     19  C   UNL A   1      32.433  18.185  23.078  1.00  0.00     0.253 A 
ATOM     20  C   UNL A   1      32.785  17.435  25.349  1.00  0.00     0.325 A 
ATOM     21  H   UNL A   1      32.908  18.944  26.695  1.00  0.00     0.171 HD
ATOM     22  O   UNL A   1      32.182  17.941  21.905  1.00  0.00    -0.269 OA
ATOM     23  N   UNL A   1      32.603  17.211  24.019  1.00  0.00    -0.274 N 
ATOM     24  O   UNL A   1      32.904  16.531  26.168  1.00  0.00    -0.248 OA
ATOM     25  H   UNL A   1      32.595  16.275  23.712  1.00  0.00     0.175 HD
ENDBRANCH  15  16
ENDBRANCH  13  15
ENDBRANCH   6  11
ENDBRANCH   3   5
ENDBRANCH   2   3
ENDBRANCH   1   2
BRANCH   1  26
ATOM     26  C   UNL A   1      43.344  21.360  25.424  1.00  0.00     0.275 C 
BRANCH  26  27
ATOM     27  O   UNL A   1      42.651  22.572  25.072  1.00  0.00    -0.458 OA
BRANCH  27  28
ATOM     28  C   UNL A   1      43.404  23.693  25.006  1.00  0.00     0.338 C 
ATOM     29  O   UNL A   1      44.327  23.939  24.252  1.00  0.00    -0.246 OA
BRANCH  28  30
ATOM     30  C   UNL A   1      42.898  24.657  25.994  1.00  0.00     0.060 A 
ATOM     31  C   UNL A   1      43.275  25.990  25.874  1.00  0.00     0.016 A 
ATOM     32  C   UNL A   1      42.146  24.239  27.087  1.00  0.00     0.016 A 
ATOM     33  C   UNL A   1      42.976  26.905  26.877  1.00  0.00     0.010 A 
ATOM     34  C   UNL A   1      41.761  25.178  28.051  1.00  0.00     0.010 A 
ATOM     35  C   UNL A   1      42.194  26.517  27.971  1.00  0.00    -0.014 A 
BRANCH  35  36
ATOM     36  C   UNL A   1      41.848  27.493  29.041  1.00  0.00     0.031 A 
ATOM     37  C   UNL A   1      42.688  27.568  30.287  1.00  0.00     0.074 A 
ATOM     38  C   UNL A   1      40.785  28.310  28.908  1.00  0.00     0.049 A 
ATOM     39  N   UNL A   1      42.439  28.170  31.423  1.00  0.00    -0.248 NA
ATOM     40  C   UNL A   1      43.975  26.857  30.255  1.00  0.00     0.031 C 
ATOM     41  C   UNL A   1      39.917  28.392  27.732  1.00  0.00     0.029 A 
ATOM     42  N   UNL A   1      40.246  29.228  29.779  1.00  0.00    -0.354 N 
ATOM     43  C   UNL A   1      43.504  27.859  32.258  1.00  0.00     0.074 A 
ATOM     44  C   UNL A   1      44.406  27.020  31.498  1.00  0.00     0.031 C 
ATOM     45  C   UNL A   1      38.973  29.321  27.944  1.00  0.00     0.029 A 
ATOM     46  C   UNL A   1      39.109  29.833  29.303  1.00  0.00     0.049 A 
ATOM     47  H   UNL A   1      40.638  29.431  30.659  1.00  0.00     0.167 HD
ATOM     48  C   UNL A   1      43.701  28.234  33.544  1.00  0.00     0.037 A 
ATOM     49  C   UNL A   1      38.238  30.665  29.907  1.00  0.00     0.037 A 
ATOM     50  C   UNL A   1      42.827  29.115  34.276  1.00  0.00     0.049 A 
ATOM     51  C   UNL A   1      38.462  31.044  31.344  1.00  0.00     0.074 A 
ATOM     52  C   UNL A   1      42.949  29.567  35.579  1.00  0.00     0.029 A 
ATOM     53  N   UNL A   1      41.677  29.693  33.758  1.00  0.00    -0.354 N 
ATOM     54  N   UNL A   1      39.435  30.693  32.149  1.00  0.00    -0.248 NA
ATOM     55  C   UNL A   1      37.454  31.915  31.964  1.00  0.00     0.031 C 
ATOM     56  C   UNL A   1      41.854  30.391  35.860  1.00  0.00     0.029 A 
ATOM     57  C   UNL A   1      41.074  30.488  34.719  1.00  0.00     0.049 A 
ATOM     58  H   UNL A   1      41.339  29.557  32.843  1.00  0.00     0.167 HD
ATOM     59  C   UNL A   1      39.167  31.309  33.363  1.00  0.00     0.074 A 
ATOM     60  C   UNL A   1      37.947  32.070  33.185  1.00  0.00     0.031 C 
ATOM     61  C   UNL A   1      39.866  31.247  34.521  1.00  0.00     0.037 A 
BRANCH  48  62
ATOM     62  C   UNL A   1      44.887  27.661  34.263  1.00  0.00     0.064 A 
ATOM     63  C   UNL A   1      46.130  28.309  34.283  1.00  0.00     0.173 A 
ATOM     64  C   UNL A   1      44.763  26.457  34.975  1.00  0.00     0.173 A 
ATOM     65  F   UNL A   1      46.306  29.454  33.607  1.00  0.00    -0.203 F 
ATOM     66  C   UNL A   1      47.211  27.761  34.970  1.00  0.00     0.198 A 
ATOM     67  C   UNL A   1      45.838  25.926  35.682  1.00  0.00     0.198 A 
ATOM     68  F   UNL A   1      43.593  25.800  34.991  1.00  0.00    -0.203 F 
ATOM     69  F   UNL A   1      48.403  28.374  34.940  1.00  0.00    -0.200 F 
ATOM     70  C   UNL A   1      47.063  26.575  35.674  1.00  0.00     0.200 A 
ATOM     71  F   UNL A   1      45.688  24.787  36.371  1.00  0.00    -0.200 F 
ATOM     72  F   UNL A   1      48.102  26.053  36.339  1.00  0.00    -0.200 F 
ENDBRANCH  48  62
BRANCH  49  73
ATOM     73  C   UNL A   1      37.049  31.156  29.163  1.00  0.00     0.064 A 
ATOM     74  C   UNL A   1      35.957  30.315  28.910  1.00  0.00     0.173 A 
ATOM     75  C   UNL A   1      36.975  32.480  28.700  1.00  0.00     0.173 A 
ATOM     76  F   UNL A   1      35.994  29.035  29.307  1.00  0.00    -0.203 F 
ATOM     77  C   UNL A   1      34.839  30.777  28.219  1.00  0.00     0.198 A 
ATOM     78  C   UNL A   1      35.844  32.948  28.037  1.00  0.00     0.198 A 
ATOM     79  F   UNL A   1      37.995  33.324  28.913  1.00  0.00    -0.203 F 
ATOM     80  F   UNL A   1      33.824  29.942  27.959  1.00  0.00    -0.200 F 
ATOM     81  C   UNL A   1      34.779  32.095  27.792  1.00  0.00     0.200 A 
ATOM     82  F   UNL A   1      35.785  34.226  27.638  1.00  0.00    -0.200 F 
ATOM     83  F   UNL A   1      33.698  32.541  27.138  1.00  0.00    -0.200 F 
ENDBRANCH  49  73
BRANCH  61  84
ATOM     84  C   UNL A   1      39.353  32.052  35.676  1.00  0.00     0.064 A 
ATOM     85  C   UNL A   1      39.719  33.394  35.857  1.00  0.00     0.173 A 
ATOM     86  C   UNL A   1      38.448  31.486  36.587  1.00  0.00     0.173 A 
ATOM     87  F   UNL A   1      40.594  33.973  35.020  1.00  0.00    -0.203 F 
ATOM     88  C   UNL A   1      39.212  34.136  36.920  1.00  0.00     0.198 A 
ATOM     89  C   UNL A   1      37.925  32.237  37.635  1.00  0.00     0.198 A 
ATOM     90  F   UNL A   1      38.064  30.208  36.452  1.00  0.00    -0.203 F 
ATOM     91  F   UNL A   1      39.603  35.404  37.097  1.00  0.00    -0.200 F 
ATOM     92  C   UNL A   1      38.310  33.559  37.803  1.00  0.00     0.200 A 
ATOM     93  F   UNL A   1      37.047  31.683  38.482  1.00  0.00    -0.200 F 
ATOM     94  F   UNL A   1      37.817  34.277  38.822  1.00  0.00    -0.200 F 
ENDBRANCH  61  84
ENDBRANCH  35  36
ENDBRANCH  28  30
ENDBRANCH  27  28
ENDBRANCH  26  27
ENDBRANCH   1  26
TORSDOF 14
ENDMDL
MODEL 2
REMARK VINA RESULT:     -12.6      5.212      7.524
REMARK SMILES O=C(Cc1cc(=O)[nH]c(=O)[nH]1)Nc1cccc(C(=O)OCCOC(=O)c2ccc(-c3c4nc(c(-c5c(F)c(F)c(F)c(F)c5F)c5ccc([nH]5)c(-c5c(F)c(F)c(F)c(F)c5F)c5nc(c(-c6c(F)c(F)c(F)c(F)c6F)c6ccc3[nH]6)C=C5)C=C4)cc2)c1
REMARK SMILES IDX 21 1 20 2 18 3 19 4 17 5 13 6 14 7 89 8 15 9 16 10 12 11
REMARK SMILES IDX 1 12 2 13 3 15 4 16 5 17 11 18 6 19 9 20 7 22 8 23 10 24
REMARK SMILES IDX 22 26 23 27 24 28 25 29 26 30 27 31 88 32 28 33 87 34 29 35
REMARK SMILES IDX 30 36 31 37 81 38 32 39 86 40 80 41 82 42 33 43 85 44 79 45
REMARK SMILES IDX 78 46 34 48 66 49 46 50 65 51 47 52 50 53 64 54 83 55 48 56
REMARK SMILES IDX 49 57 63 59 84 60 51 61 35 62 36 63 44 64 37 65 38 66 42 67
REMARK SMILES IDX 45 68 39 69 40 70 43 71 41 72 67 73 68 74 76 75 69 76 70 77
REMARK SMILES IDX 74 78 77 79 71 80 72 81 75 82 73 83 52 84 53 85 61 86 54 87
REMARK SMILES IDX 55 88 59 89 62 90 56 91 57 92 60 93 58 94
REMARK H PARENT 12 14 11 21 8 25 82 47 50 58
REMARK Flexibility Score: inf
ROOT
ATOM      1  C   UNL A   1      42.094  19.407  26.922  1.00  0.00     0.275 C 
ENDROOT
BRANCH   1   2
ATOM      2  O   UNL A   1      41.430  20.393  26.106  1.00  0.00    -0.458 OA
BRANCH   2   3
ATOM      3  C   UNL A   1      40.107  20.206  25.879  1.00  0.00     0.338 C 
ATOM      4  O   UNL A   1      39.541  19.144  25.676  1.00  0.00    -0.246 OA
BRANCH   3   5
ATOM      5  C   UNL A   1      39.383  21.485  26.074  1.00  0.00     0.062 A 
ATOM      6  C   UNL A   1      37.563  22.991  25.587  1.00  0.00     0.042 A 
ATOM      7  C   UNL A   1      38.199  23.990  26.337  1.00  0.00     0.026 A 
ATOM      8  C   UNL A   1      38.177  21.749  25.420  1.00  0.00     0.041 A 
ATOM      9  C   UNL A   1      39.371  23.711  27.030  1.00  0.00     0.003 A 
ATOM     10  C   UNL A   1      39.935  22.444  26.935  1.00  0.00     0.016 A 
BRANCH   6  11
ATOM     11  N   UNL A   1      36.297  23.308  25.070  1.00  0.00    -0.326 N 
ATOM     12  O   UNL A   1      36.630  22.952  22.792  1.00  0.00    -0.274 OA
ATOM     13  C   UNL A   1      35.913  23.256  23.740  1.00  0.00     0.230 C 
ATOM     14  H   UNL A   1      35.614  23.596  25.717  1.00  0.00     0.169 HD
BRANCH  13  15
ATOM     15  C   UNL A   1      34.438  23.599  23.533  1.00  0.00     0.154 C 
BRANCH  15  16
ATOM     16  C   UNL A   1      33.544  22.752  24.406  1.00  0.00     0.034 A 
ATOM     17  C   UNL A   1      33.331  21.447  24.184  1.00  0.00     0.093 A 
ATOM     18  N   UNL A   1      32.904  23.368  25.459  1.00  0.00    -0.311 N 
ATOM     19  C   UNL A   1      32.428  20.693  25.080  1.00  0.00     0.253 A 
ATOM     20  C   UNL A   1      32.113  22.717  26.364  1.00  0.00     0.325 A 
ATOM     21  H   UNL A   1      33.024  24.340  25.566  1.00  0.00     0.171 HD
ATOM     22  O   UNL A   1      32.159  19.519  24.863  1.00  0.00    -0.269 OA
ATOM     23  N   UNL A   1      31.920  21.388  26.139  1.00  0.00    -0.274 N 
ATOM     24  O   UNL A   1      31.613  23.312  27.312  1.00  0.00    -0.248 OA
ATOM     25  H   UNL A   1      31.375  20.891  26.791  1.00  0.00     0.175 HD
ENDBRANCH  15  16
ENDBRANCH  13  15
ENDBRANCH   6  11
ENDBRANCH   3   5
ENDBRANCH   2   3
ENDBRANCH   1   2
BRANCH   1  26
ATOM     26  C   UNL A   1      42.949  18.479  26.061  1.00  0.00     0.275 C 
BRANCH  26  27
ATOM     27  O   UNL A   1      43.194  19.095  24.783  1.00  0.00    -0.458 OA
BRANCH  27  28
ATOM     28  C   UNL A   1      44.486  19.347  24.479  1.00  0.00     0.338 C 
ATOM     29  O   UNL A   1      45.321  18.578  24.038  1.00  0.00    -0.246 OA
BRANCH  28  30
ATOM     30  C   UNL A   1      44.757  20.772  24.720  1.00  0.00     0.060 A 
ATOM     31  C   UNL A   1      45.518  21.124  25.830  1.00  0.00     0.016 A 
ATOM     32  C   UNL A   1      44.183  21.757  23.924  1.00  0.00     0.016 A 
ATOM     33  C   UNL A   1      45.651  22.457  26.204  1.00  0.00     0.010 A 
ATOM     34  C   UNL A   1      44.395  23.103  24.243  1.00  0.00     0.010 A 
ATOM     35  C   UNL A   1      45.109  23.468  25.402  1.00  0.00    -0.014 A 
BRANCH  35  36
ATOM     36  C   UNL A   1      45.262  24.901  25.781  1.00  0.00     0.031 A 
ATOM     37  C   UNL A   1      46.592  25.583  25.611  1.00  0.00     0.074 A 
ATOM     38  C   UNL A   1      44.220  25.595  26.279  1.00  0.00     0.049 A 
ATOM     39  N   UNL A   1      47.002  26.734  26.081  1.00  0.00    -0.248 NA
ATOM     40  C   UNL A   1      47.601  24.865  24.817  1.00  0.00     0.031 C 
ATOM     41  C   UNL A   1      42.858  25.084  26.442  1.00  0.00     0.029 A 
ATOM     42  N   UNL A   1      44.146  26.885  26.749  1.00  0.00    -0.354 N 
ATOM     43  C   UNL A   1      48.331  26.849  25.695  1.00  0.00     0.074 A 
ATOM     44  C   UNL A   1      48.658  25.654  24.946  1.00  0.00     0.031 C 
ATOM     45  C   UNL A   1      42.082  26.052  26.952  1.00  0.00     0.029 A 
ATOM     46  C   UNL A   1      42.907  27.219  27.239  1.00  0.00     0.049 A 
ATOM     47  H   UNL A   1      44.908  27.508  26.737  1.00  0.00     0.167 HD
ATOM     48  C   UNL A   1      49.198  27.857  25.953  1.00  0.00     0.037 A 
ATOM     49  C   UNL A   1      42.490  28.319  27.896  1.00  0.00     0.037 A 
ATOM     50  C   UNL A   1      48.849  29.068  26.650  1.00  0.00     0.049 A 
ATOM     51  C   UNL A   1      43.477  29.412  28.198  1.00  0.00     0.074 A 
ATOM     52  C   UNL A   1      49.651  30.156  26.948  1.00  0.00     0.029 A 
ATOM     53  N   UNL A   1      47.585  29.358  27.143  1.00  0.00    -0.354 N 
ATOM     54  N   UNL A   1      44.748  29.485  27.888  1.00  0.00    -0.248 NA
ATOM     55  C   UNL A   1      42.976  30.565  28.959  1.00  0.00     0.031 C 
ATOM     56  C   UNL A   1      48.882  31.089  27.651  1.00  0.00     0.029 A 
ATOM     57  C   UNL A   1      47.589  30.603  27.751  1.00  0.00     0.049 A 
ATOM     58  H   UNL A   1      46.801  28.767  27.071  1.00  0.00     0.167 HD
ATOM     59  C   UNL A   1      45.197  30.692  28.403  1.00  0.00     0.074 A 
ATOM     60  C   UNL A   1      44.057  31.329  29.031  1.00  0.00     0.031 C 
ATOM     61  C   UNL A   1      46.442  31.225  28.362  1.00  0.00     0.037 A 
BRANCH  48  62
ATOM     62  C   UNL A   1      50.622  27.680  25.517  1.00  0.00     0.064 A 
ATOM     63  C   UNL A   1      51.040  27.953  24.207  1.00  0.00     0.173 A 
ATOM     64  C   UNL A   1      51.593  27.263  26.442  1.00  0.00     0.173 A 
ATOM     65  F   UNL A   1      50.150  28.340  23.281  1.00  0.00    -0.203 F 
ATOM     66  C   UNL A   1      52.372  27.792  23.833  1.00  0.00     0.198 A 
ATOM     67  C   UNL A   1      52.928  27.130  26.071  1.00  0.00     0.198 A 
ATOM     68  F   UNL A   1      51.246  26.993  27.710  1.00  0.00    -0.203 F 
ATOM     69  F   UNL A   1      52.743  28.018  22.565  1.00  0.00    -0.200 F 
ATOM     70  C   UNL A   1      53.316  27.389  24.766  1.00  0.00     0.200 A 
ATOM     71  F   UNL A   1      53.839  26.751  26.978  1.00  0.00    -0.200 F 
ATOM     72  F   UNL A   1      54.598  27.242  24.406  1.00  0.00    -0.200 F 
ENDBRANCH  48  62
BRANCH  49  73
ATOM     73  C   UNL A   1      41.080  28.414  28.355  1.00  0.00     0.064 A 
ATOM     74  C   UNL A   1      40.706  27.990  29.637  1.00  0.00     0.173 A 
ATOM     75  C   UNL A   1      40.078  28.943  27.525  1.00  0.00     0.173 A 
ATOM     76  F   UNL A   1      41.622  27.450  30.455  1.00  0.00    -0.203 F 
ATOM     77  C   UNL A   1      39.386  28.085  30.070  1.00  0.00     0.198 A 
ATOM     78  C   UNL A   1      38.765  29.067  27.970  1.00  0.00     0.198 A 
ATOM     79  F   UNL A   1      40.383  29.360  26.287  1.00  0.00    -0.203 F 
ATOM     80  F   UNL A   1      39.048  27.638  31.287  1.00  0.00    -0.200 F 
ATOM     81  C   UNL A   1      38.418  28.633  29.240  1.00  0.00     0.200 A 
ATOM     82  F   UNL A   1      37.837  29.609  27.170  1.00  0.00    -0.200 F 
ATOM     83  F   UNL A   1      37.151  28.736  29.663  1.00  0.00    -0.200 F 
ENDBRANCH  49  73
BRANCH  61  84
ATOM     84  C   UNL A   1      46.630  32.578  28.979  1.00  0.00     0.064 A 
ATOM     85  C   UNL A   1      46.361  33.754  28.264  1.00  0.00     0.173 A 
ATOM     86  C   UNL A   1      47.041  32.696  30.315  1.00  0.00     0.173 A 
ATOM     87  F   UNL A   1      45.981  33.692  26.979  1.00  0.00    -0.203 F 
ATOM     88  C   UNL A   1      46.515  35.003  28.861  1.00  0.00     0.198 A 
ATOM     89  C   UNL A   1      47.172  33.944  30.915  1.00  0.00     0.198 A 
ATOM     90  F   UNL A   1      47.306  31.598  31.040  1.00  0.00    -0.203 F 
ATOM     91  F   UNL A   1      46.289  36.115  28.151  1.00  0.00    -0.200 F 
ATOM     92  C   UNL A   1      46.913  35.096  30.188  1.00  0.00     0.200 A 
ATOM     93  F   UNL A   1      47.547  34.032  32.199  1.00  0.00    -0.200 F 
ATOM     94  F   UNL A   1      47.054  36.298  30.763  1.00  0.00    -0.200 F 
ENDBRANCH  61  84
ENDBRANCH  35  36
ENDBRANCH  28  30
ENDBRANCH  27  28
ENDBRANCH  26  27
ENDBRANCH   1  26
TORSDOF 14
ENDMDL
MODEL 3
REMARK VINA RESULT:     -12.6      5.584     10.540
REMARK SMILES O=C(Cc1cc(=O)[nH]c(=O)[nH]1)Nc1cccc(C(=O)OCCOC(=O)c2ccc(-c3c4nc(c(-c5c(F)c(F)c(F)c(F)c5F)c5ccc([nH]5)c(-c5c(F)c(F)c(F)c(F)c5F)c5nc(c(-c6c(F)c(F)c(F)c(F)c6F)c6ccc3[nH]6)C=C5)C=C4)cc2)c1
REMARK SMILES IDX 21 1 20 2 18 3 19 4 17 5 13 6 14 7 89 8 15 9 16 10 12 11
REMARK SMILES IDX 1 12 2 13 3 15 4 16 5 17 11 18 6 19 9 20 7 22 8 23 10 24
REMARK SMILES IDX 22 26 23 27 24 28 25 29 26 30 27 31 88 32 28 33 87 34 29 35
REMARK SMILES IDX 30 36 31 37 81 38 32 39 86 40 80 41 82 42 33 43 85 44 79 45
REMARK SMILES IDX 78 46 34 48 66 49 46 50 65 51 47 52 50 53 64 54 83 55 48 56
REMARK SMILES IDX 49 57 63 59 84 60 51 61 35 62 36 63 44 64 37 65 38 66 42 67
REMARK SMILES IDX 45 68 39 69 40 70 43 71 41 72 67 73 68 74 76 75 69 76 70 77
REMARK SMILES IDX 74 78 77 79 71 80 72 81 75 82 73 83 52 84 53 85 61 86 54 87
REMARK SMILES IDX 55 88 59 89 62 90 56 91 57 92 60 93 58 94
REMARK H PARENT 12 14 11 21 8 25 82 47 50 58
REMARK Flexibility Score: inf
ROOT
ATOM      1  C   UNL A   1      33.701  34.449  29.456  1.00  0.00     0.275 C 
ENDROOT
BRANCH   1   2
ATOM      2  O   UNL A   1      34.122  33.453  28.501  1.00  0.00    -0.458 OA
BRANCH   2   3
ATOM      3  C   UNL A   1      33.146  32.847  27.782  1.00  0.00     0.338 C 
ATOM      4  O   UNL A   1      32.122  33.359  27.360  1.00  0.00    -0.246 OA
BRANCH   3   5
ATOM      5  C   UNL A   1      33.573  31.474  27.422  1.00  0.00     0.062 A 
ATOM      6  C   UNL A   1      33.114  29.256  26.595  1.00  0.00     0.042 A 
ATOM      7  C   UNL A   1      34.404  28.856  26.971  1.00  0.00     0.026 A 
ATOM      8  C   UNL A   1      32.683  30.556  26.860  1.00  0.00     0.041 A 
ATOM      9  C   UNL A   1      35.306  29.781  27.481  1.00  0.00     0.003 A 
ATOM     10  C   UNL A   1      34.903  31.100  27.662  1.00  0.00     0.016 A 
BRANCH   6  11
ATOM     11  N   UNL A   1      32.334  28.299  25.925  1.00  0.00    -0.326 N 
ATOM     12  O   UNL A   1      31.093  27.407  27.682  1.00  0.00    -0.274 OA
ATOM     13  C   UNL A   1      31.385  27.465  26.492  1.00  0.00     0.230 C 
ATOM     14  H   UNL A   1      32.476  28.214  24.955  1.00  0.00     0.169 HD
BRANCH  13  15
ATOM     15  C   UNL A   1      30.667  26.593  25.462  1.00  0.00     0.154 C 
BRANCH  15  16
ATOM     16  C   UNL A   1      30.859  25.124  25.751  1.00  0.00     0.034 A 
ATOM     17  C   UNL A   1      31.836  24.393  25.194  1.00  0.00     0.093 A 
ATOM     18  N   UNL A   1      29.968  24.515  26.606  1.00  0.00    -0.311 N 
ATOM     19  C   UNL A   1      31.945  22.955  25.520  1.00  0.00     0.253 A 
ATOM     20  C   UNL A   1      30.052  23.209  27.002  1.00  0.00     0.325 A 
ATOM     21  H   UNL A   1      29.221  25.055  26.953  1.00  0.00     0.171 HD
ATOM     22  O   UNL A   1      32.782  22.245  24.976  1.00  0.00    -0.269 OA
ATOM     23  N   UNL A   1      31.060  22.482  26.446  1.00  0.00    -0.274 N 
ATOM     24  O   UNL A   1      29.257  22.739  27.808  1.00  0.00    -0.248 OA
ATOM     25  H   UNL A   1      31.158  21.546  26.733  1.00  0.00     0.175 HD
ENDBRANCH  15  16
ENDBRANCH  13  15
ENDBRANCH   6  11
ENDBRANCH   3   5
ENDBRANCH   2   3
ENDBRANCH   1   2
BRANCH   1  26
ATOM     26  C   UNL A   1      34.263  34.141  30.843  1.00  0.00     0.275 C 
BRANCH  26  27
ATOM     27  O   UNL A   1      34.519  32.730  30.958  1.00  0.00    -0.458 OA
BRANCH  27  28
ATOM     28  C   UNL A   1      35.356  32.354  31.950  1.00  0.00     0.338 C 
ATOM     29  O   UNL A   1      35.200  32.466  33.152  1.00  0.00    -0.246 OA
BRANCH  28  30
ATOM     30  C   UNL A   1      36.532  31.705  31.351  1.00  0.00     0.060 A 
ATOM     31  C   UNL A   1      37.282  30.836  32.137  1.00  0.00     0.016 A 
ATOM     32  C   UNL A   1      36.954  32.027  30.066  1.00  0.00     0.016 A 
ATOM     33  C   UNL A   1      38.498  30.340  31.682  1.00  0.00     0.010 A 
ATOM     34  C   UNL A   1      38.130  31.452  29.569  1.00  0.00     0.010 A 
ATOM     35  C   UNL A   1      38.930  30.624  30.381  1.00  0.00    -0.014 A 
BRANCH  35  36
ATOM     36  C   UNL A   1      40.221  30.081  29.874  1.00  0.00     0.031 A 
ATOM     37  C   UNL A   1      41.435  30.966  29.814  1.00  0.00     0.074 A 
ATOM     38  C   UNL A   1      40.313  28.801  29.462  1.00  0.00     0.049 A 
ATOM     39  N   UNL A   1      42.578  30.771  29.206  1.00  0.00    -0.248 NA
ATOM     40  C   UNL A   1      41.345  32.251  30.524  1.00  0.00     0.031 C 
ATOM     41  C   UNL A   1      39.237  27.809  29.519  1.00  0.00     0.029 A 
ATOM     42  N   UNL A   1      41.365  28.113  28.905  1.00  0.00    -0.354 N 
ATOM     43  C   UNL A   1      43.316  31.930  29.405  1.00  0.00     0.074 A 
ATOM     44  C   UNL A   1      42.496  32.823  30.196  1.00  0.00     0.031 C 
ATOM     45  C   UNL A   1      39.689  26.641  29.040  1.00  0.00     0.029 A 
ATOM     46  C   UNL A   1      41.053  26.822  28.556  1.00  0.00     0.049 A 
ATOM     47  H   UNL A   1      42.257  28.508  28.769  1.00  0.00     0.167 HD
ATOM     48  C   UNL A   1      44.560  32.222  28.957  1.00  0.00     0.037 A 
ATOM     49  C   UNL A   1      41.760  25.900  27.874  1.00  0.00     0.037 A 
ATOM     50  C   UNL A   1      45.392  31.308  28.218  1.00  0.00     0.049 A 
ATOM     51  C   UNL A   1      43.127  26.257  27.361  1.00  0.00     0.074 A 
ATOM     52  C   UNL A   1      46.674  31.504  27.733  1.00  0.00     0.029 A 
ATOM     53  N   UNL A   1      45.028  30.014  27.873  1.00  0.00    -0.354 N 
ATOM     54  N   UNL A   1      43.793  27.378  27.496  1.00  0.00    -0.248 NA
ATOM     55  C   UNL A   1      43.832  25.229  26.584  1.00  0.00     0.031 C 
ATOM     56  C   UNL A   1      47.072  30.341  27.065  1.00  0.00     0.029 A 
ATOM     57  C   UNL A   1      46.057  29.405  27.173  1.00  0.00     0.049 A 
ATOM     58  H   UNL A   1      44.166  29.592  28.093  1.00  0.00     0.167 HD
ATOM     59  C   UNL A   1      44.997  27.188  26.833  1.00  0.00     0.074 A 
ATOM     60  C   UNL A   1      44.978  25.837  26.311  1.00  0.00     0.031 C 
ATOM     61  C   UNL A   1      46.024  28.055  26.670  1.00  0.00     0.037 A 
BRANCH  48  62
ATOM     62  C   UNL A   1      45.087  33.603  29.216  1.00  0.00     0.064 A 
ATOM     63  C   UNL A   1      44.756  34.693  28.399  1.00  0.00     0.173 A 
ATOM     64  C   UNL A   1      45.911  33.843  30.328  1.00  0.00     0.173 A 
ATOM     65  F   UNL A   1      43.984  34.515  27.316  1.00  0.00    -0.203 F 
ATOM     66  C   UNL A   1      45.249  35.967  28.671  1.00  0.00     0.198 A 
ATOM     67  C   UNL A   1      46.380  35.123  30.611  1.00  0.00     0.198 A 
ATOM     68  F   UNL A   1      46.255  32.835  31.144  1.00  0.00    -0.203 F 
ATOM     69  F   UNL A   1      44.954  36.987  27.852  1.00  0.00    -0.200 F 
ATOM     70  C   UNL A   1      46.054  36.183  29.780  1.00  0.00     0.200 A 
ATOM     71  F   UNL A   1      47.148  35.329  31.690  1.00  0.00    -0.200 F 
ATOM     72  F   UNL A   1      46.521  37.410  30.044  1.00  0.00    -0.200 F 
ENDBRANCH  48  62
BRANCH  49  73
ATOM     73  C   UNL A   1      41.163  24.568  27.597  1.00  0.00     0.064 A 
ATOM     74  C   UNL A   1      40.080  24.429  26.720  1.00  0.00     0.173 A 
ATOM     75  C   UNL A   1      41.673  23.403  28.195  1.00  0.00     0.173 A 
ATOM     76  F   UNL A   1      39.541  25.516  26.148  1.00  0.00    -0.203 F 
ATOM     77  C   UNL A   1      39.525  23.180  26.454  1.00  0.00     0.198 A 
ATOM     78  C   UNL A   1      41.136  22.152  27.904  1.00  0.00     0.198 A 
ATOM     79  F   UNL A   1      42.706  23.482  29.045  1.00  0.00    -0.203 F 
ATOM     80  F   UNL A   1      38.466  23.080  25.640  1.00  0.00    -0.200 F 
ATOM     81  C   UNL A   1      40.059  22.041  27.038  1.00  0.00     0.200 A 
ATOM     82  F   UNL A   1      41.665  21.054  28.461  1.00  0.00    -0.200 F 
ATOM     83  F   UNL A   1      39.533  20.838  26.772  1.00  0.00    -0.200 F 
ENDBRANCH  49  73
BRANCH  61  84
ATOM     84  C   UNL A   1      47.229  27.560  25.929  1.00  0.00     0.064 A 
ATOM     85  C   UNL A   1      47.334  27.678  24.535  1.00  0.00     0.173 A 
ATOM     86  C   UNL A   1      48.310  27.000  26.627  1.00  0.00     0.173 A 
ATOM     87  F   UNL A   1      46.319  28.192  23.823  1.00  0.00    -0.203 F 
ATOM     88  C   UNL A   1      48.472  27.237  23.865  1.00  0.00     0.198 A 
ATOM     89  C   UNL A   1      49.455  26.582  25.957  1.00  0.00     0.198 A 
ATOM     90  F   UNL A   1      48.257  26.871  27.961  1.00  0.00    -0.203 F 
ATOM     91  F   UNL A   1      48.537  27.325  22.530  1.00  0.00    -0.200 F 
ATOM     92  C   UNL A   1      49.533  26.696  24.577  1.00  0.00     0.200 A 
ATOM     93  F   UNL A   1      50.483  26.069  26.646  1.00  0.00    -0.200 F 
ATOM     94  F   UNL A   1      50.631  26.279  23.931  1.00  0.00    -0.200 F 
ENDBRANCH  61  84
ENDBRANCH  35  36
ENDBRANCH  28  30
ENDBRANCH  27  28
ENDBRANCH  26  27
ENDBRANCH   1  26
TORSDOF 14
ENDMDL
