MODEL 1
REMARK VINA RESULT:     -10.8      0.000      0.000
REMARK SMILES C/C(C(=O)N[C@@H](C)CCCO)=C(\C)C(=O)OCCOC(=O)c1ccc(-c2c3nc(c(-c4c(F)c(F)c(F)c(F)c4F)c4ccc([nH]4)c(-c4c(F)c(F)c(F)c(F)c4F)c4nc(c(-c5c(F)c(F)c(F)c(F)c5F)c5ccc2[nH]5)C=C4)C=C3)cc1
REMARK SMILES IDX 14 1 15 2 12 3 1 4 2 5 13 6 3 7 4 8 5 9 6 11 7 12 8 13 9 14
REMARK SMILES IDX 10 15 11 16 16 18 17 19 18 20 19 21 20 22 21 23 22 24 23 25
REMARK SMILES IDX 84 26 24 27 83 28 25 29 26 30 27 31 77 32 28 33 82 34 76 35
REMARK SMILES IDX 78 36 29 37 81 38 75 39 74 40 30 42 62 43 42 44 61 45 43 46
REMARK SMILES IDX 46 47 60 48 79 49 44 50 45 51 59 53 80 54 47 55 31 56 32 57
REMARK SMILES IDX 40 58 33 59 34 60 38 61 41 62 35 63 36 64 39 65 37 66 63 67
REMARK SMILES IDX 64 68 72 69 65 70 66 71 70 72 73 73 67 74 68 75 71 76 69 77
REMARK SMILES IDX 48 78 49 79 57 80 50 81 51 82 55 83 58 84 52 85 53 86 56 87
REMARK SMILES IDX 54 88
REMARK H PARENT 5 10 11 17 78 41 46 52
REMARK Flexibility Score: inf
ROOT
ATOM      1  C   UNL A   1      31.695  26.363  25.154  1.00  0.00     0.334 C 
ATOM      2  O   UNL A   1      30.922  25.976  24.295  1.00  0.00    -0.247 OA
ENDROOT
BRANCH   1   3
ATOM      3  C   UNL A   1      32.937  25.646  25.636  1.00  0.00     0.042 C 
ATOM      4  C   UNL A   1      34.298  23.751  26.506  1.00  0.00     0.051 C 
ATOM      5  C   UNL A   1      33.022  24.323  25.962  1.00  0.00     0.024 C 
ATOM      6  C   UNL A   1      34.110  26.593  25.806  1.00  0.00     0.053 C 
BRANCH   5   7
ATOM      7  C   UNL A   1      31.823  23.429  25.995  1.00  0.00     0.247 C 
ATOM      8  O   UNL A   1      31.222  23.231  27.049  1.00  0.00    -0.270 OA
ATOM      9  N   UNL A   1      31.305  22.857  24.868  1.00  0.00    -0.350 N 
ATOM     10  H   UNL A   1      30.374  23.112  24.672  1.00  0.00     0.164 HD
BRANCH   9  11
ATOM     11  C   UNL A   1      31.895  21.927  23.894  1.00  0.00     0.079 C 
ATOM     12  C   UNL A   1      32.714  22.762  22.891  1.00  0.00     0.031 C 
BRANCH  11  13
ATOM     13  C   UNL A   1      32.843  20.882  24.512  1.00  0.00     0.027 C 
BRANCH  13  14
ATOM     14  C   UNL A   1      32.396  19.419  24.487  1.00  0.00     0.030 C 
BRANCH  14  15
ATOM     15  C   UNL A   1      33.269  18.432  25.244  1.00  0.00     0.156 C 
BRANCH  15  16
ATOM     16  O   UNL A   1      32.744  18.138  26.528  1.00  0.00    -0.396 OA
ATOM     17  H   UNL A   1      31.777  18.219  26.509  1.00  0.00     0.210 HD
ENDBRANCH  15  16
ENDBRANCH  14  15
ENDBRANCH  13  14
ENDBRANCH  11  13
ENDBRANCH   9  11
ENDBRANCH   5   7
ENDBRANCH   1   3
BRANCH   1  18
ATOM     18  O   UNL A   1      31.546  27.530  25.842  1.00  0.00    -0.459 OA
BRANCH  18  19
ATOM     19  C   UNL A   1      31.236  28.719  25.084  1.00  0.00     0.275 C 
BRANCH  19  20
ATOM     20  C   UNL A   1      32.250  29.833  25.349  1.00  0.00     0.275 C 
BRANCH  20  21
ATOM     21  O   UNL A   1      32.539  29.942  26.753  1.00  0.00    -0.458 OA
BRANCH  21  22
ATOM     22  C   UNL A   1      33.095  31.113  27.131  1.00  0.00     0.338 C 
ATOM     23  O   UNL A   1      32.560  32.205  27.219  1.00  0.00    -0.246 OA
BRANCH  22  24
ATOM     24  C   UNL A   1      34.484  30.887  27.545  1.00  0.00     0.060 A 
ATOM     25  C   UNL A   1      34.843  29.595  27.895  1.00  0.00     0.016 A 
ATOM     26  C   UNL A   1      35.364  31.946  27.765  1.00  0.00     0.016 A 
ATOM     27  C   UNL A   1      36.045  29.368  28.550  1.00  0.00     0.010 A 
ATOM     28  C   UNL A   1      36.608  31.696  28.369  1.00  0.00     0.010 A 
ATOM     29  C   UNL A   1      36.943  30.405  28.812  1.00  0.00    -0.014 A 
BRANCH  29  30
ATOM     30  C   UNL A   1      38.148  30.121  29.644  1.00  0.00     0.031 A 
ATOM     31  C   UNL A   1      39.272  29.294  29.073  1.00  0.00     0.074 A 
ATOM     32  C   UNL A   1      38.310  30.691  30.857  1.00  0.00     0.049 A 
ATOM     33  N   UNL A   1      40.311  28.774  29.675  1.00  0.00    -0.248 NA
ATOM     34  C   UNL A   1      39.224  29.026  27.627  1.00  0.00     0.031 C 
ATOM     35  C   UNL A   1      37.386  31.638  31.484  1.00  0.00     0.029 A 
ATOM     36  N   UNL A   1      39.326  30.574  31.777  1.00  0.00    -0.354 N 
ATOM     37  C   UNL A   1      40.998  28.062  28.699  1.00  0.00     0.074 A 
ATOM     38  C   UNL A   1      40.273  28.235  27.460  1.00  0.00     0.031 C 
ATOM     39  C   UNL A   1      37.894  32.049  32.654  1.00  0.00     0.029 A 
ATOM     40  C   UNL A   1      39.106  31.288  32.932  1.00  0.00     0.049 A 
ATOM     41  H   UNL A   1      40.133  30.031  31.624  1.00  0.00     0.167 HD
ATOM     42  C   UNL A   1      42.120  27.315  28.837  1.00  0.00     0.037 A 
ATOM     43  C   UNL A   1      39.753  31.272  34.113  1.00  0.00     0.037 A 
ATOM     44  C   UNL A   1      42.852  27.185  30.071  1.00  0.00     0.049 A 
ATOM     45  C   UNL A   1      40.924  30.344  34.283  1.00  0.00     0.074 A 
ATOM     46  C   UNL A   1      43.970  26.415  30.336  1.00  0.00     0.029 A 
ATOM     47  N   UNL A   1      42.541  27.856  31.244  1.00  0.00    -0.354 N 
ATOM     48  N   UNL A   1      41.498  29.567  33.397  1.00  0.00    -0.248 NA
ATOM     49  C   UNL A   1      41.519  30.264  35.624  1.00  0.00     0.031 C 
ATOM     50  C   UNL A   1      44.302  26.577  31.685  1.00  0.00     0.029 A 
ATOM     51  C   UNL A   1      43.435  27.504  32.242  1.00  0.00     0.049 A 
ATOM     52  H   UNL A   1      41.795  28.490  31.352  1.00  0.00     0.167 HD
ATOM     53  C   UNL A   1      42.537  28.931  34.062  1.00  0.00     0.074 A 
ATOM     54  C   UNL A   1      42.519  29.417  35.426  1.00  0.00     0.031 C 
ATOM     55  C   UNL A   1      43.424  28.024  33.585  1.00  0.00     0.037 A 
BRANCH  42  56
ATOM     56  C   UNL A   1      42.576  26.515  27.650  1.00  0.00     0.064 A 
ATOM     57  C   UNL A   1      43.552  26.978  26.757  1.00  0.00     0.173 A 
ATOM     58  C   UNL A   1      42.030  25.242  27.418  1.00  0.00     0.173 A 
ATOM     59  F   UNL A   1      44.097  28.192  26.923  1.00  0.00    -0.203 F 
ATOM     60  C   UNL A   1      43.941  26.211  25.659  1.00  0.00     0.198 A 
ATOM     61  C   UNL A   1      42.443  24.465  26.339  1.00  0.00     0.198 A 
ATOM     62  F   UNL A   1      41.097  24.746  28.243  1.00  0.00    -0.203 F 
ATOM     63  F   UNL A   1      44.837  26.697  24.789  1.00  0.00    -0.200 F 
ATOM     64  C   UNL A   1      43.392  24.954  25.456  1.00  0.00     0.200 A 
ATOM     65  F   UNL A   1      41.921  23.245  26.154  1.00  0.00    -0.200 F 
ATOM     66  F   UNL A   1      43.769  24.218  24.401  1.00  0.00    -0.200 F 
ENDBRANCH  42  56
BRANCH  43  67
ATOM     67  C   UNL A   1      39.248  32.085  35.255  1.00  0.00     0.064 A 
ATOM     68  C   UNL A   1      39.591  33.438  35.395  1.00  0.00     0.173 A 
ATOM     69  C   UNL A   1      38.428  31.520  36.245  1.00  0.00     0.173 A 
ATOM     70  F   UNL A   1      40.396  34.021  34.496  1.00  0.00    -0.203 F 
ATOM     71  C   UNL A   1      39.145  34.185  36.485  1.00  0.00     0.198 A 
ATOM     72  C   UNL A   1      37.949  32.279  37.311  1.00  0.00     0.198 A 
ATOM     73  F   UNL A   1      38.077  30.228  36.170  1.00  0.00    -0.203 F 
ATOM     74  F   UNL A   1      39.533  35.460  36.623  1.00  0.00    -0.200 F 
ATOM     75  C   UNL A   1      38.317  33.608  37.436  1.00  0.00     0.200 A 
ATOM     76  F   UNL A   1      37.137  31.718  38.217  1.00  0.00    -0.200 F 
ATOM     77  F   UNL A   1      37.884  34.329  38.479  1.00  0.00    -0.200 F 
ENDBRANCH  43  67
BRANCH  55  78
ATOM     78  C   UNL A   1      44.504  27.555  34.515  1.00  0.00     0.064 A 
ATOM     79  C   UNL A   1      44.357  26.409  35.308  1.00  0.00     0.173 A 
ATOM     80  C   UNL A   1      45.733  28.233  34.555  1.00  0.00     0.173 A 
ATOM     81  F   UNL A   1      43.195  25.739  35.318  1.00  0.00    -0.203 F 
ATOM     82  C   UNL A   1      45.398  25.966  36.120  1.00  0.00     0.198 A 
ATOM     83  C   UNL A   1      46.781  27.769  35.342  1.00  0.00     0.198 A 
ATOM     84  F   UNL A   1      45.924  29.332  33.810  1.00  0.00    -0.203 F 
ATOM     85  F   UNL A   1      45.224  24.890  36.901  1.00  0.00    -0.200 F 
ATOM     86  C   UNL A   1      46.611  26.638  36.128  1.00  0.00     0.200 A 
ATOM     87  F   UNL A   1      47.957  28.411  35.335  1.00  0.00    -0.200 F 
ATOM     88  F   UNL A   1      47.618  26.200  36.895  1.00  0.00    -0.200 F 
ENDBRANCH  55  78
ENDBRANCH  29  30
ENDBRANCH  22  24
ENDBRANCH  21  22
ENDBRANCH  20  21
ENDBRANCH  19  20
ENDBRANCH  18  19
ENDBRANCH   1  18
TORSDOF 17
ENDMDL
MODEL 2
REMARK VINA RESULT:     -10.8      4.257      9.605
REMARK SMILES C/C(C(=O)N[C@@H](C)CCCO)=C(\C)C(=O)OCCOC(=O)c1ccc(-c2c3nc(c(-c4c(F)c(F)c(F)c(F)c4F)c4ccc([nH]4)c(-c4c(F)c(F)c(F)c(F)c4F)c4nc(c(-c5c(F)c(F)c(F)c(F)c5F)c5ccc2[nH]5)C=C4)C=C3)cc1
REMARK SMILES IDX 14 1 15 2 12 3 1 4 2 5 13 6 3 7 4 8 5 9 6 11 7 12 8 13 9 14
REMARK SMILES IDX 10 15 11 16 16 18 17 19 18 20 19 21 20 22 21 23 22 24 23 25
REMARK SMILES IDX 84 26 24 27 83 28 25 29 26 30 27 31 77 32 28 33 82 34 76 35
REMARK SMILES IDX 78 36 29 37 81 38 75 39 74 40 30 42 62 43 42 44 61 45 43 46
REMARK SMILES IDX 46 47 60 48 79 49 44 50 45 51 59 53 80 54 47 55 31 56 32 57
REMARK SMILES IDX 40 58 33 59 34 60 38 61 41 62 35 63 36 64 39 65 37 66 63 67
REMARK SMILES IDX 64 68 72 69 65 70 66 71 70 72 73 73 67 74 68 75 71 76 69 77
REMARK SMILES IDX 48 78 49 79 57 80 50 81 51 82 55 83 58 84 52 85 53 86 56 87
REMARK SMILES IDX 54 88
REMARK H PARENT 5 10 11 17 78 41 46 52
REMARK Flexibility Score: inf
ROOT
ATOM      1  C   UNL A   1      33.366  22.898  25.316  1.00  0.00     0.334 C 
ATOM      2  O   UNL A   1      32.417  22.457  24.690  1.00  0.00    -0.247 OA
ENDROOT
BRANCH   1   3
ATOM      3  C   UNL A   1      33.699  24.358  25.536  1.00  0.00     0.042 C 
ATOM      4  C   UNL A   1      33.283  26.741  26.126  1.00  0.00     0.051 C 
ATOM      5  C   UNL A   1      32.852  25.305  26.033  1.00  0.00     0.024 C 
ATOM      6  C   UNL A   1      35.097  24.699  25.055  1.00  0.00     0.053 C 
BRANCH   5   7
ATOM      7  C   UNL A   1      31.411  25.022  26.315  1.00  0.00     0.247 C 
ATOM      8  O   UNL A   1      31.092  24.277  27.239  1.00  0.00    -0.270 OA
ATOM      9  N   UNL A   1      30.397  25.621  25.621  1.00  0.00    -0.350 N 
ATOM     10  H   UNL A   1      29.788  26.161  26.175  1.00  0.00     0.164 HD
BRANCH   9  11
ATOM     11  C   UNL A   1      30.058  25.600  24.191  1.00  0.00     0.079 C 
ATOM     12  C   UNL A   1      28.711  26.328  24.022  1.00  0.00     0.031 C 
BRANCH  11  13
ATOM     13  C   UNL A   1      31.085  26.309  23.287  1.00  0.00     0.027 C 
BRANCH  13  14
ATOM     14  C   UNL A   1      31.993  25.430  22.425  1.00  0.00     0.030 C 
BRANCH  14  15
ATOM     15  C   UNL A   1      33.288  26.063  21.944  1.00  0.00     0.156 C 
BRANCH  15  16
ATOM     16  O   UNL A   1      33.261  26.328  20.550  1.00  0.00    -0.396 OA
ATOM     17  H   UNL A   1      33.949  26.977  20.332  1.00  0.00     0.210 HD
ENDBRANCH  15  16
ENDBRANCH  14  15
ENDBRANCH  13  14
ENDBRANCH  11  13
ENDBRANCH   9  11
ENDBRANCH   5   7
ENDBRANCH   1   3
BRANCH   1  18
ATOM     18  O   UNL A   1      34.309  22.119  25.918  1.00  0.00    -0.459 OA
BRANCH  18  19
ATOM     19  C   UNL A   1      34.782  20.962  25.197  1.00  0.00     0.275 C 
BRANCH  19  20
ATOM     20  C   UNL A   1      36.263  21.090  24.840  1.00  0.00     0.275 C 
BRANCH  20  21
ATOM     21  O   UNL A   1      36.962  21.876  25.820  1.00  0.00    -0.458 OA
BRANCH  21  22
ATOM     22  C   UNL A   1      38.296  21.674  25.866  1.00  0.00     0.338 C 
ATOM     23  O   UNL A   1      38.942  20.788  25.333  1.00  0.00    -0.246 OA
BRANCH  22  24
ATOM     24  C   UNL A   1      38.934  22.773  26.599  1.00  0.00     0.060 A 
ATOM     25  C   UNL A   1      38.424  24.048  26.409  1.00  0.00     0.016 A 
ATOM     26  C   UNL A   1      40.119  22.588  27.310  1.00  0.00     0.016 A 
ATOM     27  C   UNL A   1      39.144  25.150  26.848  1.00  0.00     0.010 A 
ATOM     28  C   UNL A   1      40.806  23.708  27.809  1.00  0.00     0.010 A 
ATOM     29  C   UNL A   1      40.347  25.009  27.542  1.00  0.00    -0.014 A 
BRANCH  29  30
ATOM     30  C   UNL A   1      41.142  26.231  27.861  1.00  0.00     0.031 A 
ATOM     31  C   UNL A   1      40.537  27.312  28.718  1.00  0.00     0.074 A 
ATOM     32  C   UNL A   1      42.439  26.335  27.498  1.00  0.00     0.049 A 
ATOM     33  N   UNL A   1      40.971  28.524  28.959  1.00  0.00    -0.248 NA
ATOM     34  C   UNL A   1      39.279  26.982  29.406  1.00  0.00     0.031 C 
ATOM     35  C   UNL A   1      43.214  25.308  26.799  1.00  0.00     0.029 A 
ATOM     36  N   UNL A   1      43.346  27.352  27.686  1.00  0.00    -0.354 N 
ATOM     37  C   UNL A   1      40.008  29.119  29.765  1.00  0.00     0.074 A 
ATOM     38  C   UNL A   1      38.977  28.131  29.993  1.00  0.00     0.031 C 
ATOM     39  C   UNL A   1      44.480  25.723  26.661  1.00  0.00     0.029 A 
ATOM     40  C   UNL A   1      44.576  27.100  27.126  1.00  0.00     0.049 A 
ATOM     41  H   UNL A   1      43.135  28.180  28.175  1.00  0.00     0.167 HD
ATOM     42  C   UNL A   1      39.983  30.384  30.248  1.00  0.00     0.037 A 
ATOM     43  C   UNL A   1      45.636  27.909  26.930  1.00  0.00     0.037 A 
ATOM     44  C   UNL A   1      41.037  31.344  30.044  1.00  0.00     0.049 A 
ATOM     45  C   UNL A   1      45.540  29.345  27.366  1.00  0.00     0.074 A 
ATOM     46  C   UNL A   1      41.091  32.668  30.444  1.00  0.00     0.029 A 
ATOM     47  N   UNL A   1      42.230  31.074  29.390  1.00  0.00    -0.354 N 
ATOM     48  N   UNL A   1      44.572  29.949  28.013  1.00  0.00    -0.248 NA
ATOM     49  C   UNL A   1      46.665  30.222  27.018  1.00  0.00     0.031 C 
ATOM     50  C   UNL A   1      42.294  33.214  29.983  1.00  0.00     0.029 A 
ATOM     51  C   UNL A   1      43.020  32.211  29.359  1.00  0.00     0.049 A 
ATOM     52  H   UNL A   1      42.479  30.203  29.005  1.00  0.00     0.167 HD
ATOM     53  C   UNL A   1      44.984  31.264  28.176  1.00  0.00     0.074 A 
ATOM     54  C   UNL A   1      46.293  31.370  27.565  1.00  0.00     0.031 C 
ATOM     55  C   UNL A   1      44.335  32.291  28.777  1.00  0.00     0.037 A 
BRANCH  42  56
ATOM     56  C   UNL A   1      38.743  30.831  30.970  1.00  0.00     0.064 A 
ATOM     57  C   UNL A   1      38.640  30.825  32.369  1.00  0.00     0.173 A 
ATOM     58  C   UNL A   1      37.638  31.293  30.236  1.00  0.00     0.173 A 
ATOM     59  F   UNL A   1      39.660  30.380  33.118  1.00  0.00    -0.203 F 
ATOM     60  C   UNL A   1      37.468  31.235  33.003  1.00  0.00     0.198 A 
ATOM     61  C   UNL A   1      36.481  31.732  30.873  1.00  0.00     0.198 A 
ATOM     62  F   UNL A   1      37.682  31.326  28.897  1.00  0.00    -0.203 F 
ATOM     63  F   UNL A   1      37.374  31.170  34.338  1.00  0.00    -0.200 F 
ATOM     64  C   UNL A   1      36.393  31.694  32.255  1.00  0.00     0.200 A 
ATOM     65  F   UNL A   1      35.450  32.189  30.149  1.00  0.00    -0.200 F 
ATOM     66  F   UNL A   1      35.268  32.090  32.868  1.00  0.00    -0.200 F 
ENDBRANCH  42  56
BRANCH  43  67
ATOM     67  C   UNL A   1      46.835  27.408  26.202  1.00  0.00     0.064 A 
ATOM     68  C   UNL A   1      46.968  27.572  24.816  1.00  0.00     0.173 A 
ATOM     69  C   UNL A   1      47.868  26.734  26.875  1.00  0.00     0.173 A 
ATOM     70  F   UNL A   1      45.999  28.181  24.118  1.00  0.00    -0.203 F 
ATOM     71  C   UNL A   1      48.076  27.071  24.133  1.00  0.00     0.198 A 
ATOM     72  C   UNL A   1      48.993  26.270  26.198  1.00  0.00     0.198 A 
ATOM     73  F   UNL A   1      47.790  26.537  28.199  1.00  0.00    -0.203 F 
ATOM     74  F   UNL A   1      48.150  27.193  22.801  1.00  0.00    -0.200 F 
ATOM     75  C   UNL A   1      49.092  26.429  24.826  1.00  0.00     0.200 A 
ATOM     76  F   UNL A   1      49.977  25.665  26.877  1.00  0.00    -0.200 F 
ATOM     77  F   UNL A   1      50.158  25.953  24.169  1.00  0.00    -0.200 F 
ENDBRANCH  43  67
BRANCH  55  78
ATOM     78  C   UNL A   1      45.057  33.602  28.881  1.00  0.00     0.064 A 
ATOM     79  C   UNL A   1      45.924  33.891  29.942  1.00  0.00     0.173 A 
ATOM     80  C   UNL A   1      44.925  34.555  27.857  1.00  0.00     0.173 A 
ATOM     81  F   UNL A   1      46.070  33.021  30.953  1.00  0.00    -0.203 F 
ATOM     82  C   UNL A   1      46.623  35.095  29.984  1.00  0.00     0.198 A 
ATOM     83  C   UNL A   1      45.649  35.741  27.886  1.00  0.00     0.198 A 
ATOM     84  F   UNL A   1      44.110  34.321  26.817  1.00  0.00    -0.203 F 
ATOM     85  F   UNL A   1      47.418  35.371  31.027  1.00  0.00    -0.200 F 
ATOM     86  C   UNL A   1      46.494  36.013  28.951  1.00  0.00     0.200 A 
ATOM     87  F   UNL A   1      45.535  36.618  26.879  1.00  0.00    -0.200 F 
ATOM     88  F   UNL A   1      47.182  37.162  28.983  1.00  0.00    -0.200 F 
ENDBRANCH  55  78
ENDBRANCH  29  30
ENDBRANCH  22  24
ENDBRANCH  21  22
ENDBRANCH  20  21
ENDBRANCH  19  20
ENDBRANCH  18  19
ENDBRANCH   1  18
TORSDOF 17
ENDMDL
MODEL 3
REMARK VINA RESULT:     -10.8      1.504      2.143
REMARK SMILES C/C(C(=O)N[C@@H](C)CCCO)=C(\C)C(=O)OCCOC(=O)c1ccc(-c2c3nc(c(-c4c(F)c(F)c(F)c(F)c4F)c4ccc([nH]4)c(-c4c(F)c(F)c(F)c(F)c4F)c4nc(c(-c5c(F)c(F)c(F)c(F)c5F)c5ccc2[nH]5)C=C4)C=C3)cc1
REMARK SMILES IDX 14 1 15 2 12 3 1 4 2 5 13 6 3 7 4 8 5 9 6 11 7 12 8 13 9 14
REMARK SMILES IDX 10 15 11 16 16 18 17 19 18 20 19 21 20 22 21 23 22 24 23 25
REMARK SMILES IDX 84 26 24 27 83 28 25 29 26 30 27 31 77 32 28 33 82 34 76 35
REMARK SMILES IDX 78 36 29 37 81 38 75 39 74 40 30 42 62 43 42 44 61 45 43 46
REMARK SMILES IDX 46 47 60 48 79 49 44 50 45 51 59 53 80 54 47 55 31 56 32 57
REMARK SMILES IDX 40 58 33 59 34 60 38 61 41 62 35 63 36 64 39 65 37 66 63 67
REMARK SMILES IDX 64 68 72 69 65 70 66 71 70 72 73 73 67 74 68 75 71 76 69 77
REMARK SMILES IDX 48 78 49 79 57 80 50 81 51 82 55 83 58 84 52 85 53 86 56 87
REMARK SMILES IDX 54 88
REMARK H PARENT 5 10 11 17 78 41 46 52
REMARK Flexibility Score: inf
ROOT
ATOM      1  C   UNL A   1      31.475  28.323  24.130  1.00  0.00     0.334 C 
ATOM      2  O   UNL A   1      30.400  27.882  23.761  1.00  0.00    -0.247 OA
ENDROOT
BRANCH   1   3
ATOM      3  C   UNL A   1      32.689  27.514  24.532  1.00  0.00     0.042 C 
ATOM      4  C   UNL A   1      34.016  25.875  25.856  1.00  0.00     0.051 C 
ATOM      5  C   UNL A   1      32.724  26.548  25.496  1.00  0.00     0.024 C 
ATOM      6  C   UNL A   1      33.935  27.953  23.786  1.00  0.00     0.053 C 
BRANCH   5   7
ATOM      7  C   UNL A   1      31.551  26.255  26.377  1.00  0.00     0.247 C 
ATOM      8  O   UNL A   1      31.218  27.047  27.256  1.00  0.00    -0.270 OA
ATOM      9  N   UNL A   1      30.766  25.150  26.207  1.00  0.00    -0.350 N 
ATOM     10  H   UNL A   1      29.821  25.347  26.015  1.00  0.00     0.164 HD
BRANCH   9  11
ATOM     11  C   UNL A   1      31.086  23.716  26.259  1.00  0.00     0.079 C 
ATOM     12  C   UNL A   1      29.931  23.008  26.994  1.00  0.00     0.031 C 
BRANCH  11  13
ATOM     13  C   UNL A   1      31.235  23.050  24.878  1.00  0.00     0.027 C 
BRANCH  13  14
ATOM     14  C   UNL A   1      30.762  23.842  23.657  1.00  0.00     0.030 C 
BRANCH  14  15
ATOM     15  C   UNL A   1      31.846  24.351  22.721  1.00  0.00     0.156 C 
BRANCH  15  16
ATOM     16  O   UNL A   1      31.424  25.493  21.994  1.00  0.00    -0.396 OA
ATOM     17  H   UNL A   1      30.586  25.298  21.544  1.00  0.00     0.210 HD
ENDBRANCH  15  16
ENDBRANCH  14  15
ENDBRANCH  13  14
ENDBRANCH  11  13
ENDBRANCH   9  11
ENDBRANCH   5   7
ENDBRANCH   1   3
BRANCH   1  18
ATOM     18  O   UNL A   1      31.750  29.652  24.254  1.00  0.00    -0.459 OA
BRANCH  18  19
ATOM     19  C   UNL A   1      31.023  30.396  25.255  1.00  0.00     0.275 C 
BRANCH  19  20
ATOM     20  C   UNL A   1      31.684  30.282  26.629  1.00  0.00     0.275 C 
BRANCH  20  21
ATOM     21  O   UNL A   1      33.106  30.473  26.533  1.00  0.00    -0.458 OA
BRANCH  21  22
ATOM     22  C   UNL A   1      33.593  31.501  27.261  1.00  0.00     0.338 C 
ATOM     23  O   UNL A   1      33.011  32.512  27.619  1.00  0.00    -0.246 OA
BRANCH  22  24
ATOM     24  C   UNL A   1      34.964  31.198  27.684  1.00  0.00     0.060 A 
ATOM     25  C   UNL A   1      35.262  29.878  27.985  1.00  0.00     0.016 A 
ATOM     26  C   UNL A   1      35.886  32.208  27.959  1.00  0.00     0.016 A 
ATOM     27  C   UNL A   1      36.443  29.573  28.645  1.00  0.00     0.010 A 
ATOM     28  C   UNL A   1      37.109  31.879  28.568  1.00  0.00     0.010 A 
ATOM     29  C   UNL A   1      37.381  30.557  28.961  1.00  0.00    -0.014 A 
BRANCH  29  30
ATOM     30  C   UNL A   1      38.561  30.187  29.797  1.00  0.00     0.031 A 
ATOM     31  C   UNL A   1      39.647  29.321  29.212  1.00  0.00     0.074 A 
ATOM     32  C   UNL A   1      38.737  30.711  31.029  1.00  0.00     0.049 A 
ATOM     33  N   UNL A   1      40.652  28.730  29.809  1.00  0.00    -0.248 NA
ATOM     34  C   UNL A   1      39.603  29.099  27.758  1.00  0.00     0.031 C 
ATOM     35  C   UNL A   1      37.855  31.685  31.675  1.00  0.00     0.029 A 
ATOM     36  N   UNL A   1      39.735  30.515  31.955  1.00  0.00    -0.354 N 
ATOM     37  C   UNL A   1      41.312  28.013  28.819  1.00  0.00     0.074 A 
ATOM     38  C   UNL A   1      40.612  28.261  27.578  1.00  0.00     0.031 C 
ATOM     39  C   UNL A   1      38.370  32.034  32.862  1.00  0.00     0.029 A 
ATOM     40  C   UNL A   1      39.538  31.204  33.129  1.00  0.00     0.049 A 
ATOM     41  H   UNL A   1      40.515  29.936  31.794  1.00  0.00     0.167 HD
ATOM     42  C   UNL A   1      42.393  27.206  28.945  1.00  0.00     0.037 A 
ATOM     43  C   UNL A   1      40.170  31.120  34.315  1.00  0.00     0.037 A 
ATOM     44  C   UNL A   1      43.103  27.002  30.182  1.00  0.00     0.049 A 
ATOM     45  C   UNL A   1      41.289  30.129  34.469  1.00  0.00     0.074 A 
ATOM     46  C   UNL A   1      44.177  26.167  30.435  1.00  0.00     0.029 A 
ATOM     47  N   UNL A   1      42.813  27.653  31.372  1.00  0.00    -0.354 N 
ATOM     48  N   UNL A   1      41.833  29.349  33.565  1.00  0.00    -0.248 NA
ATOM     49  C   UNL A   1      41.864  29.978  35.812  1.00  0.00     0.031 C 
ATOM     50  C   UNL A   1      44.501  26.272  31.792  1.00  0.00     0.029 A 
ATOM     51  C   UNL A   1      43.676  27.225  32.367  1.00  0.00     0.049 A 
ATOM     52  H   UNL A   1      42.099  28.320  31.492  1.00  0.00     0.167 HD
ATOM     53  C   UNL A   1      42.830  28.641  34.221  1.00  0.00     0.074 A 
ATOM     54  C   UNL A   1      42.821  29.087  35.599  1.00  0.00     0.031 C 
ATOM     55  C   UNL A   1      43.675  27.705  33.726  1.00  0.00     0.037 A 
BRANCH  42  56
ATOM     56  C   UNL A   1      42.822  26.419  27.739  1.00  0.00     0.064 A 
ATOM     57  C   UNL A   1      43.806  26.875  26.851  1.00  0.00     0.173 A 
ATOM     58  C   UNL A   1      42.240  25.167  27.482  1.00  0.00     0.173 A 
ATOM     59  F   UNL A   1      44.385  28.070  27.041  1.00  0.00    -0.203 F 
ATOM     60  C   UNL A   1      44.169  26.122  25.735  1.00  0.00     0.198 A 
ATOM     61  C   UNL A   1      42.627  24.403  26.386  1.00  0.00     0.198 A 
ATOM     62  F   UNL A   1      41.297  24.679  28.302  1.00  0.00    -0.203 F 
ATOM     63  F   UNL A   1      45.074  26.601  24.871  1.00  0.00    -0.200 F 
ATOM     64  C   UNL A   1      43.584  24.884  25.508  1.00  0.00     0.200 A 
ATOM     65  F   UNL A   1      42.071  23.202  26.177  1.00  0.00    -0.200 F 
ATOM     66  F   UNL A   1      43.937  24.161  24.435  1.00  0.00    -0.200 F 
ENDBRANCH  42  56
BRANCH  43  67
ATOM     67  C   UNL A   1      39.693  31.924  35.476  1.00  0.00     0.064 A 
ATOM     68  C   UNL A   1      40.241  33.181  35.766  1.00  0.00     0.173 A 
ATOM     69  C   UNL A   1      38.693  31.440  36.335  1.00  0.00     0.173 A 
ATOM     70  F   UNL A   1      41.221  33.678  34.998  1.00  0.00    -0.203 F 
ATOM     71  C   UNL A   1      39.817  33.914  36.875  1.00  0.00     0.198 A 
ATOM     72  C   UNL A   1      38.242  32.191  37.418  1.00  0.00     0.198 A 
ATOM     73  F   UNL A   1      38.141  30.238  36.114  1.00  0.00    -0.203 F 
ATOM     74  F   UNL A   1      40.397  35.087  37.160  1.00  0.00    -0.200 F 
ATOM     75  C   UNL A   1      38.811  33.422  37.694  1.00  0.00     0.200 A 
ATOM     76  F   UNL A   1      37.258  31.716  38.195  1.00  0.00    -0.200 F 
ATOM     77  F   UNL A   1      38.401  34.130  38.755  1.00  0.00    -0.200 F 
ENDBRANCH  43  67
BRANCH  55  78
ATOM     78  C   UNL A   1      44.719  27.153  34.652  1.00  0.00     0.064 A 
ATOM     79  C   UNL A   1      45.953  27.789  34.845  1.00  0.00     0.173 A 
ATOM     80  C   UNL A   1      44.444  26.002  35.407  1.00  0.00     0.173 A 
ATOM     81  F   UNL A   1      46.269  28.881  34.134  1.00  0.00    -0.203 F 
ATOM     82  C   UNL A   1      46.880  27.284  35.752  1.00  0.00     0.198 A 
ATOM     83  C   UNL A   1      45.360  25.519  36.335  1.00  0.00     0.198 A 
ATOM     84  F   UNL A   1      43.275  25.360  35.260  1.00  0.00    -0.203 F 
ATOM     85  F   UNL A   1      48.070  27.884  35.896  1.00  0.00    -0.200 F 
ATOM     86  C   UNL A   1      46.579  26.157  36.504  1.00  0.00     0.200 A 
ATOM     87  F   UNL A   1      45.060  24.440  37.071  1.00  0.00    -0.200 F 
ATOM     88  F   UNL A   1      47.465  25.684  37.390  1.00  0.00    -0.200 F 
ENDBRANCH  55  78
ENDBRANCH  29  30
ENDBRANCH  22  24
ENDBRANCH  21  22
ENDBRANCH  20  21
ENDBRANCH  19  20
ENDBRANCH  18  19
ENDBRANCH   1  18
TORSDOF 17
ENDMDL
