MODEL 1
REMARK VINA RESULT:     -12.7      0.000      0.000
REMARK SMILES NC(=O)C1CC[NH+](CC[C@H]2CN(C(=O)c3ccccc3)CC[C@H]2CC(=O)OCCOC(=O)c2ccc(-c3c4nc(c(-c5c(F)c(F)c(F)c(F)c5F)c5ccc([nH]5)c(-c5c(F)c(F)c(F)c(F)c5F)c5nc(c(-c6c(F)c(F)c(F)c(F)c6F)c6ccc3[nH]6)C=C5)C=C4)cc2)CC1
REMARK SMILES IDX 27 1 25 2 26 3 24 4 23 5 10 6 11 7 12 8 22 9 21 10 9 11 8 12
REMARK SMILES IDX 7 13 4 14 5 15 97 16 6 17 96 18 2 20 1 21 3 24 13 25 14 26
REMARK SMILES IDX 15 27 16 28 20 29 17 30 19 31 18 32 28 33 29 34 30 35 31 36
REMARK SMILES IDX 32 37 33 38 34 39 95 40 35 41 94 42 36 43 37 44 38 45 88 46
REMARK SMILES IDX 39 47 93 48 87 49 89 50 40 51 92 52 86 53 85 54 41 56 73 57
REMARK SMILES IDX 53 58 72 59 54 60 57 61 71 62 90 63 55 64 56 65 70 67 91 68
REMARK SMILES IDX 58 69 42 70 43 71 51 72 44 73 45 74 49 75 52 76 46 77 47 78
REMARK SMILES IDX 50 79 48 80 74 81 75 82 83 83 76 84 77 85 81 86 84 87 78 88
REMARK SMILES IDX 79 89 82 90 80 91 59 92 60 93 68 94 61 95 62 96 66 97 69 98
REMARK SMILES IDX 63 99 64 100 67 101 65 102
REMARK H PARENT 7 19 1 22 1 23 89 55 57 66
REMARK Flexibility Score: inf
ROOT
ATOM      1  O   UNL A   1      31.310  27.143  25.288  1.00  0.00    -0.462 OA
ENDROOT
BRANCH   1   2
ATOM      2  C   UNL A   1      30.901  25.926  25.712  1.00  0.00     0.306 C 
ATOM      3  O   UNL A   1      30.003  25.737  26.527  1.00  0.00    -0.252 OA
BRANCH   2   4
ATOM      4  C   UNL A   1      31.675  24.764  25.119  1.00  0.00     0.126 C 
BRANCH   4   5
ATOM      5  C   UNL A   1      32.992  24.296  25.779  1.00  0.00     0.007 C 
ATOM      6  C   UNL A   1      33.207  22.747  25.810  1.00  0.00     0.018 C 
ATOM      7  C   UNL A   1      34.643  22.445  26.282  1.00  0.00     0.124 C 
ATOM      8  N   UNL A   1      35.622  23.103  25.442  1.00  0.00    -0.338 N 
ATOM      9  C   UNL A   1      34.162  25.028  25.062  1.00  0.00     0.026 C 
ATOM     10  C   UNL A   1      35.555  24.555  25.475  1.00  0.00     0.120 C 
BRANCH   6  11
ATOM     11  C   UNL A   1      32.822  22.067  24.474  1.00  0.00     0.067 C 
BRANCH  11  12
ATOM     12  C   UNL A   1      32.253  20.632  24.485  1.00  0.00     0.262 C 
BRANCH  12  13
ATOM     13  N   UNL A   1      33.036  19.520  23.921  1.00  0.00    -0.335 N 
ATOM     14  C   UNL A   1      34.137  16.798  23.729  1.00  0.00     0.089 C 
ATOM     15  C   UNL A   1      34.969  17.967  24.251  1.00  0.00     0.075 C 
ATOM     16  C   UNL A   1      33.077  17.328  22.754  1.00  0.00     0.075 C 
ATOM     17  C   UNL A   1      34.099  19.084  24.817  1.00  0.00     0.263 C 
ATOM     18  C   UNL A   1      32.223  18.433  23.381  1.00  0.00     0.263 C 
ATOM     19  H   UNL A   1      33.506  19.896  23.097  1.00  0.00     0.348 HD
BRANCH  14  20
ATOM     20  C   UNL A   1      33.485  15.879  24.764  1.00  0.00     0.220 C 
ATOM     21  N   UNL A   1      32.153  15.984  25.012  1.00  0.00    -0.369 N 
ATOM     22  H   UNL A   1      31.728  15.395  25.676  1.00  0.00     0.159 HD
ATOM     23  H   UNL A   1      31.614  16.650  24.527  1.00  0.00     0.159 HD
ATOM     24  O   UNL A   1      34.141  15.037  25.376  1.00  0.00    -0.275 OA
ENDBRANCH  14  20
ENDBRANCH  12  13
ENDBRANCH  11  12
ENDBRANCH   6  11
BRANCH   8  25
ATOM     25  C   UNL A   1      36.420  22.316  24.620  1.00  0.00     0.253 C 
ATOM     26  O   UNL A   1      36.252  22.204  23.407  1.00  0.00    -0.269 OA
BRANCH  25  27
ATOM     27  C   UNL A   1      37.556  21.581  25.192  1.00  0.00     0.040 A 
ATOM     28  C   UNL A   1      38.508  22.296  25.925  1.00  0.00     0.014 A 
ATOM     29  C   UNL A   1      37.742  20.229  24.899  1.00  0.00     0.014 A 
ATOM     30  C   UNL A   1      39.641  21.640  26.400  1.00  0.00     0.001 A 
ATOM     31  C   UNL A   1      38.879  19.578  25.376  1.00  0.00     0.001 A 
ATOM     32  C   UNL A   1      39.824  20.283  26.126  1.00  0.00     0.000 A 
ENDBRANCH  25  27
ENDBRANCH   8  25
ENDBRANCH   4   5
ENDBRANCH   2   4
ENDBRANCH   1   2
BRANCH   1  33
ATOM     33  C   UNL A   1      31.815  28.045  26.299  1.00  0.00     0.274 C 
BRANCH  33  34
ATOM     34  C   UNL A   1      31.857  29.486  25.795  1.00  0.00     0.275 C 
BRANCH  34  35
ATOM     35  O   UNL A   1      33.180  30.026  25.915  1.00  0.00    -0.458 OA
BRANCH  35  36
ATOM     36  C   UNL A   1      33.329  30.968  26.877  1.00  0.00     0.338 C 
ATOM     37  O   UNL A   1      32.539  31.811  27.250  1.00  0.00    -0.246 OA
BRANCH  36  38
ATOM     38  C   UNL A   1      34.622  30.707  27.514  1.00  0.00     0.060 A 
ATOM     39  C   UNL A   1      35.416  31.796  27.874  1.00  0.00     0.016 A 
ATOM     40  C   UNL A   1      35.019  29.402  27.789  1.00  0.00     0.016 A 
ATOM     41  C   UNL A   1      36.612  31.592  28.545  1.00  0.00     0.010 A 
ATOM     42  C   UNL A   1      36.210  29.197  28.483  1.00  0.00     0.010 A 
ATOM     43  C   UNL A   1      37.002  30.292  28.875  1.00  0.00    -0.014 A 
BRANCH  43  44
ATOM     44  C   UNL A   1      38.239  30.073  29.651  1.00  0.00     0.031 A 
ATOM     45  C   UNL A   1      39.322  29.212  29.083  1.00  0.00     0.074 A 
ATOM     46  C   UNL A   1      38.358  30.635  30.867  1.00  0.00     0.049 A 
ATOM     47  N   UNL A   1      40.416  28.778  29.652  1.00  0.00    -0.248 NA
ATOM     48  C   UNL A   1      39.147  28.773  27.691  1.00  0.00     0.031 C 
ATOM     49  C   UNL A   1      37.372  31.523  31.486  1.00  0.00     0.029 A 
ATOM     50  N   UNL A   1      39.352  30.535  31.805  1.00  0.00    -0.354 N 
ATOM     51  C   UNL A   1      41.048  27.995  28.696  1.00  0.00     0.074 A 
ATOM     52  C   UNL A   1      40.206  27.995  27.520  1.00  0.00     0.031 C 
ATOM     53  C   UNL A   1      37.809  31.885  32.702  1.00  0.00     0.029 A 
ATOM     54  C   UNL A   1      39.070  31.203  32.972  1.00  0.00     0.049 A 
ATOM     55  H   UNL A   1      40.185  30.032  31.658  1.00  0.00     0.167 HD
ATOM     56  C   UNL A   1      42.227  27.340  28.804  1.00  0.00     0.037 A 
ATOM     57  C   UNL A   1      39.737  31.224  34.140  1.00  0.00     0.037 A 
ATOM     58  C   UNL A   1      43.046  27.359  29.987  1.00  0.00     0.049 A 
ATOM     59  C   UNL A   1      41.004  30.422  34.256  1.00  0.00     0.074 A 
ATOM     60  C   UNL A   1      44.267  26.748  30.203  1.00  0.00     0.029 A 
ATOM     61  N   UNL A   1      42.717  28.023  31.163  1.00  0.00    -0.354 N 
ATOM     62  N   UNL A   1      41.606  29.689  33.349  1.00  0.00    -0.248 NA
ATOM     63  C   UNL A   1      41.679  30.439  35.559  1.00  0.00     0.031 C 
ATOM     64  C   UNL A   1      44.649  26.992  31.526  1.00  0.00     0.029 A 
ATOM     65  C   UNL A   1      43.697  27.808  32.118  1.00  0.00     0.049 A 
ATOM     66  H   UNL A   1      41.907  28.566  31.297  1.00  0.00     0.167 HD
ATOM     67  C   UNL A   1      42.738  29.175  33.963  1.00  0.00     0.074 A 
ATOM     68  C   UNL A   1      42.751  29.697  35.315  1.00  0.00     0.031 C 
ATOM     69  C   UNL A   1      43.682  28.342  33.457  1.00  0.00     0.037 A 
BRANCH  56  70
ATOM     70  C   UNL A   1      42.676  26.522  27.629  1.00  0.00     0.064 A 
ATOM     71  C   UNL A   1      43.548  27.035  26.657  1.00  0.00     0.173 A 
ATOM     72  C   UNL A   1      42.243  25.195  27.483  1.00  0.00     0.173 A 
ATOM     73  F   UNL A   1      43.980  28.303  26.738  1.00  0.00    -0.203 F 
ATOM     74  C   UNL A   1      43.947  26.260  25.570  1.00  0.00     0.198 A 
ATOM     75  C   UNL A   1      42.668  24.413  26.412  1.00  0.00     0.198 A 
ATOM     76  F   UNL A   1      41.407  24.654  28.383  1.00  0.00    -0.203 F 
ATOM     77  F   UNL A   1      44.739  26.790  24.626  1.00  0.00    -0.200 F 
ATOM     78  C   UNL A   1      43.512  24.948  25.453  1.00  0.00     0.200 A 
ATOM     79  F   UNL A   1      42.256  23.142  26.308  1.00  0.00    -0.200 F 
ATOM     80  F   UNL A   1      43.901  24.202  24.409  1.00  0.00    -0.200 F 
ENDBRANCH  56  70
BRANCH  57  81
ATOM     81  C   UNL A   1      39.203  32.000  35.291  1.00  0.00     0.064 A 
ATOM     82  C   UNL A   1      39.460  33.372  35.415  1.00  0.00     0.173 A 
ATOM     83  C   UNL A   1      38.428  31.389  36.288  1.00  0.00     0.173 A 
ATOM     84  F   UNL A   1      40.214  33.998  34.500  1.00  0.00    -0.203 F 
ATOM     85  C   UNL A   1      38.977  34.099  36.502  1.00  0.00     0.198 A 
ATOM     86  C   UNL A   1      37.919  32.123  37.357  1.00  0.00     0.198 A 
ATOM     87  F   UNL A   1      38.153  30.079  36.217  1.00  0.00    -0.203 F 
ATOM     88  F   UNL A   1      39.278  35.399  36.622  1.00  0.00    -0.200 F 
ATOM     89  C   UNL A   1      38.202  33.476  37.469  1.00  0.00     0.200 A 
ATOM     90  F   UNL A   1      37.157  31.519  38.279  1.00  0.00    -0.200 F 
ATOM     91  F   UNL A   1      37.734  34.176  38.511  1.00  0.00    -0.200 F 
ENDBRANCH  57  81
BRANCH  69  92
ATOM     92  C   UNL A   1      44.818  27.969  34.364  1.00  0.00     0.064 A 
ATOM     93  C   UNL A   1      44.800  26.784  35.115  1.00  0.00     0.173 A 
ATOM     94  C   UNL A   1      45.957  28.784  34.448  1.00  0.00     0.173 A 
ATOM     95  F   UNL A   1      43.726  25.980  35.083  1.00  0.00    -0.203 F 
ATOM     96  C   UNL A   1      45.872  26.440  35.933  1.00  0.00     0.198 A 
ATOM     97  C   UNL A   1      47.041  28.420  35.241  1.00  0.00     0.198 A 
ATOM     98  F   UNL A   1      46.025  29.924  33.745  1.00  0.00    -0.203 F 
ATOM     99  F   UNL A   1      45.814  25.328  36.679  1.00  0.00    -0.200 F 
ATOM    100  C   UNL A   1      46.995  27.253  35.988  1.00  0.00     0.200 A 
ATOM    101  F   UNL A   1      48.131  29.198  35.279  1.00  0.00    -0.200 F 
ATOM    102  F   UNL A   1      48.031  26.914  36.767  1.00  0.00    -0.200 F 
ENDBRANCH  69  92
ENDBRANCH  43  44
ENDBRANCH  36  38
ENDBRANCH  35  36
ENDBRANCH  34  35
ENDBRANCH  33  34
ENDBRANCH   1  33
TORSDOF 18
ENDMDL
MODEL 2
REMARK VINA RESULT:     -12.7      2.297      4.494
REMARK SMILES NC(=O)C1CC[NH+](CC[C@H]2CN(C(=O)c3ccccc3)CC[C@H]2CC(=O)OCCOC(=O)c2ccc(-c3c4nc(c(-c5c(F)c(F)c(F)c(F)c5F)c5ccc([nH]5)c(-c5c(F)c(F)c(F)c(F)c5F)c5nc(c(-c6c(F)c(F)c(F)c(F)c6F)c6ccc3[nH]6)C=C5)C=C4)cc2)CC1
REMARK SMILES IDX 27 1 25 2 26 3 24 4 23 5 10 6 11 7 12 8 22 9 21 10 9 11 8 12
REMARK SMILES IDX 7 13 4 14 5 15 97 16 6 17 96 18 2 20 1 21 3 24 13 25 14 26
REMARK SMILES IDX 15 27 16 28 20 29 17 30 19 31 18 32 28 33 29 34 30 35 31 36
REMARK SMILES IDX 32 37 33 38 34 39 95 40 35 41 94 42 36 43 37 44 38 45 88 46
REMARK SMILES IDX 39 47 93 48 87 49 89 50 40 51 92 52 86 53 85 54 41 56 73 57
REMARK SMILES IDX 53 58 72 59 54 60 57 61 71 62 90 63 55 64 56 65 70 67 91 68
REMARK SMILES IDX 58 69 42 70 43 71 51 72 44 73 45 74 49 75 52 76 46 77 47 78
REMARK SMILES IDX 50 79 48 80 74 81 75 82 83 83 76 84 77 85 81 86 84 87 78 88
REMARK SMILES IDX 79 89 82 90 80 91 59 92 60 93 68 94 61 95 62 96 66 97 69 98
REMARK SMILES IDX 63 99 64 100 67 101 65 102
REMARK H PARENT 7 19 1 22 1 23 89 55 57 66
REMARK Flexibility Score: inf
ROOT
ATOM      1  O   UNL A   1      33.938  30.948  27.195  1.00  0.00    -0.462 OA
ENDROOT
BRANCH   1   2
ATOM      2  C   UNL A   1      34.458  29.762  27.582  1.00  0.00     0.306 C 
ATOM      3  O   UNL A   1      35.456  29.633  28.283  1.00  0.00    -0.252 OA
BRANCH   2   4
ATOM      4  C   UNL A   1      33.717  28.550  27.048  1.00  0.00     0.126 C 
BRANCH   4   5
ATOM      5  C   UNL A   1      33.968  28.068  25.601  1.00  0.00     0.007 C 
ATOM      6  C   UNL A   1      33.577  26.580  25.318  1.00  0.00     0.018 C 
ATOM      7  C   UNL A   1      33.667  26.313  23.803  1.00  0.00     0.124 C 
ATOM      8  N   UNL A   1      32.836  27.234  23.057  1.00  0.00    -0.338 N 
ATOM      9  C   UNL A   1      33.234  29.050  24.644  1.00  0.00     0.026 C 
ATOM     10  C   UNL A   1      33.233  28.627  23.177  1.00  0.00     0.120 C 
BRANCH   6  11
ATOM     11  C   UNL A   1      32.220  26.192  25.953  1.00  0.00     0.067 C 
BRANCH  11  12
ATOM     12  C   UNL A   1      31.902  24.706  26.224  1.00  0.00     0.262 C 
BRANCH  12  13
ATOM     13  N   UNL A   1      32.937  23.677  26.021  1.00  0.00    -0.335 N 
ATOM     14  C   UNL A   1      34.060  20.969  25.767  1.00  0.00     0.089 C 
ATOM     15  C   UNL A   1      34.212  21.786  27.047  1.00  0.00     0.075 C 
ATOM     16  C   UNL A   1      33.932  21.924  24.572  1.00  0.00     0.075 C 
ATOM     17  C   UNL A   1      33.114  22.834  27.196  1.00  0.00     0.263 C 
ATOM     18  C   UNL A   1      32.804  22.940  24.767  1.00  0.00     0.263 C 
ATOM     19  H   UNL A   1      33.817  24.181  25.907  1.00  0.00     0.348 HD
BRANCH  14  20
ATOM     20  C   UNL A   1      32.943  19.925  25.724  1.00  0.00     0.220 C 
ATOM     21  N   UNL A   1      32.931  18.916  26.634  1.00  0.00    -0.369 N 
ATOM     22  H   UNL A   1      32.215  18.241  26.612  1.00  0.00     0.159 HD
ATOM     23  H   UNL A   1      33.640  18.859  27.316  1.00  0.00     0.159 HD
ATOM     24  O   UNL A   1      32.046  19.981  24.884  1.00  0.00    -0.275 OA
ENDBRANCH  14  20
ENDBRANCH  12  13
ENDBRANCH  11  12
ENDBRANCH   6  11
BRANCH   8  25
ATOM     25  C   UNL A   1      31.705  26.733  22.421  1.00  0.00     0.253 C 
ATOM     26  O   UNL A   1      31.741  25.914  21.505  1.00  0.00    -0.269 OA
BRANCH  25  27
ATOM     27  C   UNL A   1      30.370  27.162  22.861  1.00  0.00     0.040 A 
ATOM     28  C   UNL A   1      29.584  26.255  23.578  1.00  0.00     0.014 A 
ATOM     29  C   UNL A   1      29.858  28.397  22.461  1.00  0.00     0.014 A 
ATOM     30  C   UNL A   1      28.281  26.604  23.927  1.00  0.00     0.001 A 
ATOM     31  C   UNL A   1      28.553  28.740  22.812  1.00  0.00     0.001 A 
ATOM     32  C   UNL A   1      27.769  27.846  23.545  1.00  0.00     0.000 A 
ENDBRANCH  25  27
ENDBRANCH   8  25
ENDBRANCH   4   5
ENDBRANCH   2   4
ENDBRANCH   1   2
BRANCH   1  33
ATOM     33  C   UNL A   1      32.499  31.077  27.261  1.00  0.00     0.274 C 
BRANCH  33  34
ATOM     34  C   UNL A   1      32.068  32.542  27.285  1.00  0.00     0.275 C 
BRANCH  34  35
ATOM     35  O   UNL A   1      33.211  33.405  27.344  1.00  0.00    -0.458 OA
BRANCH  35  36
ATOM     36  C   UNL A   1      33.285  34.184  28.450  1.00  0.00     0.338 C 
ATOM     37  O   UNL A   1      32.493  35.009  28.859  1.00  0.00    -0.246 OA
BRANCH  36  38
ATOM     38  C   UNL A   1      34.480  33.753  29.180  1.00  0.00     0.060 A 
ATOM     39  C   UNL A   1      34.343  32.766  30.155  1.00  0.00     0.016 A 
ATOM     40  C   UNL A   1      35.725  34.291  28.868  1.00  0.00     0.016 A 
ATOM     41  C   UNL A   1      35.461  32.281  30.814  1.00  0.00     0.010 A 
ATOM     42  C   UNL A   1      36.853  33.789  29.514  1.00  0.00     0.010 A 
ATOM     43  C   UNL A   1      36.725  32.772  30.478  1.00  0.00    -0.014 A 
BRANCH  43  44
ATOM     44  C   UNL A   1      37.927  32.209  31.126  1.00  0.00     0.031 A 
ATOM     45  C   UNL A   1      38.713  31.148  30.426  1.00  0.00     0.074 A 
ATOM     46  C   UNL A   1      38.278  32.649  32.348  1.00  0.00     0.049 A 
ATOM     47  N   UNL A   1      39.706  30.425  30.872  1.00  0.00    -0.248 NA
ATOM     48  C   UNL A   1      38.323  30.853  29.038  1.00  0.00     0.031 C 
ATOM     49  C   UNL A   1      37.597  33.710  33.092  1.00  0.00     0.029 A 
ATOM     50  N   UNL A   1      39.288  32.250  33.185  1.00  0.00    -0.354 N 
ATOM     51  C   UNL A   1      40.044  29.573  29.830  1.00  0.00     0.074 A 
ATOM     52  C   UNL A   1      39.138  29.852  28.738  1.00  0.00     0.031 C 
ATOM     53  C   UNL A   1      38.206  33.877  34.276  1.00  0.00     0.029 A 
ATOM     54  C   UNL A   1      39.275  32.892  34.399  1.00  0.00     0.049 A 
ATOM     55  H   UNL A   1      39.956  31.569  32.941  1.00  0.00     0.167 HD
ATOM     56  C   UNL A   1      41.028  28.644  29.801  1.00  0.00     0.037 A 
ATOM     57  C   UNL A   1      40.018  32.676  35.500  1.00  0.00     0.037 A 
ATOM     58  C   UNL A   1      41.918  28.388  30.903  1.00  0.00     0.049 A 
ATOM     59  C   UNL A   1      41.050  31.583  35.465  1.00  0.00     0.074 A 
ATOM     60  C   UNL A   1      42.962  27.485  30.979  1.00  0.00     0.029 A 
ATOM     61  N   UNL A   1      41.860  29.037  32.130  1.00  0.00    -0.354 N 
ATOM     62  N   UNL A   1      41.376  30.784  34.477  1.00  0.00    -0.248 NA
ATOM     63  C   UNL A   1      41.810  31.353  36.700  1.00  0.00     0.031 C 
ATOM     64  C   UNL A   1      43.497  27.545  32.270  1.00  0.00     0.029 A 
ATOM     65  C   UNL A   1      42.828  28.530  32.981  1.00  0.00     0.049 A 
ATOM     66  H   UNL A   1      41.224  29.752  32.361  1.00  0.00     0.167 HD
ATOM     67  C   UNL A   1      42.390  29.971  34.961  1.00  0.00     0.074 A 
ATOM     68  C   UNL A   1      42.641  30.388  36.326  1.00  0.00     0.031 C 
ATOM     69  C   UNL A   1      43.054  28.967  34.336  1.00  0.00     0.037 A 
BRANCH  56  70
ATOM     70  C   UNL A   1      41.165  27.816  28.557  1.00  0.00     0.064 A 
ATOM     71  C   UNL A   1      40.474  26.606  28.391  1.00  0.00     0.173 A 
ATOM     72  C   UNL A   1      41.985  28.251  27.504  1.00  0.00     0.173 A 
ATOM     73  F   UNL A   1      39.691  26.135  29.373  1.00  0.00    -0.203 F 
ATOM     74  C   UNL A   1      40.621  25.850  27.230  1.00  0.00     0.198 A 
ATOM     75  C   UNL A   1      42.105  27.508  26.332  1.00  0.00     0.198 A 
ATOM     76  F   UNL A   1      42.669  29.401  27.610  1.00  0.00    -0.203 F 
ATOM     77  F   UNL A   1      39.992  24.671  27.116  1.00  0.00    -0.200 F 
ATOM     78  C   UNL A   1      41.430  26.305  26.200  1.00  0.00     0.200 A 
ATOM     79  F   UNL A   1      42.878  27.956  25.334  1.00  0.00    -0.200 F 
ATOM     80  F   UNL A   1      41.566  25.579  25.081  1.00  0.00    -0.200 F 
ENDBRANCH  56  70
BRANCH  57  81
ATOM     81  C   UNL A   1      39.787  33.485  36.726  1.00  0.00     0.064 A 
ATOM     82  C   UNL A   1      40.519  34.656  36.965  1.00  0.00     0.173 A 
ATOM     83  C   UNL A   1      38.834  33.106  37.684  1.00  0.00     0.173 A 
ATOM     84  F   UNL A   1      41.457  35.049  36.090  1.00  0.00    -0.203 F 
ATOM     85  C   UNL A   1      40.320  35.407  38.122  1.00  0.00     0.198 A 
ATOM     86  C   UNL A   1      38.613  33.875  38.824  1.00  0.00     0.198 A 
ATOM     87  F   UNL A   1      38.106  31.995  37.505  1.00  0.00    -0.203 F 
ATOM     88  F   UNL A   1      41.067  36.496  38.348  1.00  0.00    -0.200 F 
ATOM     89  C   UNL A   1      39.362  35.020  39.048  1.00  0.00     0.200 A 
ATOM     90  F   UNL A   1      37.675  33.505  39.708  1.00  0.00    -0.200 F 
ATOM     91  F   UNL A   1      39.167  35.745  40.157  1.00  0.00    -0.200 F 
ENDBRANCH  57  81
BRANCH  69  92
ATOM     92  C   UNL A   1      44.130  28.270  35.118  1.00  0.00     0.064 A 
ATOM     93  C   UNL A   1      43.850  27.154  35.919  1.00  0.00     0.173 A 
ATOM     94  C   UNL A   1      45.463  28.699  35.028  1.00  0.00     0.173 A 
ATOM     95  F   UNL A   1      42.589  26.716  36.052  1.00  0.00    -0.203 F 
ATOM     96  C   UNL A   1      44.863  26.505  36.619  1.00  0.00     0.198 A 
ATOM     97  C   UNL A   1      46.478  28.028  35.702  1.00  0.00     0.198 A 
ATOM     98  F   UNL A   1      45.782  29.759  34.270  1.00  0.00    -0.203 F 
ATOM     99  F   UNL A   1      44.568  25.469  37.417  1.00  0.00    -0.200 F 
ATOM    100  C   UNL A   1      46.177  26.936  36.502  1.00  0.00     0.200 A 
ATOM    101  F   UNL A   1      47.748  28.436  35.574  1.00  0.00    -0.200 F 
ATOM    102  F   UNL A   1      47.152  26.303  37.167  1.00  0.00    -0.200 F 
ENDBRANCH  69  92
ENDBRANCH  43  44
ENDBRANCH  36  38
ENDBRANCH  35  36
ENDBRANCH  34  35
ENDBRANCH  33  34
ENDBRANCH   1  33
TORSDOF 18
ENDMDL
MODEL 3
REMARK VINA RESULT:     -12.6      4.293     10.178
REMARK SMILES NC(=O)C1CC[NH+](CC[C@H]2CN(C(=O)c3ccccc3)CC[C@H]2CC(=O)OCCOC(=O)c2ccc(-c3c4nc(c(-c5c(F)c(F)c(F)c(F)c5F)c5ccc([nH]5)c(-c5c(F)c(F)c(F)c(F)c5F)c5nc(c(-c6c(F)c(F)c(F)c(F)c6F)c6ccc3[nH]6)C=C5)C=C4)cc2)CC1
REMARK SMILES IDX 27 1 25 2 26 3 24 4 23 5 10 6 11 7 12 8 22 9 21 10 9 11 8 12
REMARK SMILES IDX 7 13 4 14 5 15 97 16 6 17 96 18 2 20 1 21 3 24 13 25 14 26
REMARK SMILES IDX 15 27 16 28 20 29 17 30 19 31 18 32 28 33 29 34 30 35 31 36
REMARK SMILES IDX 32 37 33 38 34 39 95 40 35 41 94 42 36 43 37 44 38 45 88 46
REMARK SMILES IDX 39 47 93 48 87 49 89 50 40 51 92 52 86 53 85 54 41 56 73 57
REMARK SMILES IDX 53 58 72 59 54 60 57 61 71 62 90 63 55 64 56 65 70 67 91 68
REMARK SMILES IDX 58 69 42 70 43 71 51 72 44 73 45 74 49 75 52 76 46 77 47 78
REMARK SMILES IDX 50 79 48 80 74 81 75 82 83 83 76 84 77 85 81 86 84 87 78 88
REMARK SMILES IDX 79 89 82 90 80 91 59 92 60 93 68 94 61 95 62 96 66 97 69 98
REMARK SMILES IDX 63 99 64 100 67 101 65 102
REMARK H PARENT 7 19 1 22 1 23 89 55 57 66
REMARK Flexibility Score: inf
ROOT
ATOM      1  O   UNL A   1      38.122  21.480  25.222  1.00  0.00    -0.462 OA
ENDROOT
BRANCH   1   2
ATOM      2  C   UNL A   1      37.355  22.373  24.557  1.00  0.00     0.306 C 
ATOM      3  O   UNL A   1      36.976  22.240  23.397  1.00  0.00    -0.252 OA
BRANCH   2   4
ATOM      4  C   UNL A   1      37.004  23.614  25.356  1.00  0.00     0.126 C 
BRANCH   4   5
ATOM      5  C   UNL A   1      35.706  23.652  26.193  1.00  0.00     0.007 C 
ATOM      6  C   UNL A   1      34.530  24.467  25.562  1.00  0.00     0.018 C 
ATOM      7  C   UNL A   1      33.250  24.228  26.386  1.00  0.00     0.124 C 
ATOM      8  N   UNL A   1      32.935  22.818  26.473  1.00  0.00    -0.338 N 
ATOM      9  C   UNL A   1      35.296  22.181  26.491  1.00  0.00     0.026 C 
ATOM     10  C   UNL A   1      33.936  22.026  27.169  1.00  0.00     0.120 C 
BRANCH   6  11
ATOM     11  C   UNL A   1      34.369  24.199  24.046  1.00  0.00     0.067 C 
BRANCH  11  12
ATOM     12  C   UNL A   1      33.725  25.275  23.145  1.00  0.00     0.262 C 
BRANCH  12  13
ATOM     13  N   UNL A   1      33.099  26.465  23.745  1.00  0.00    -0.335 N 
ATOM     14  C   UNL A   1      31.444  28.896  23.858  1.00  0.00     0.089 C 
ATOM     15  C   UNL A   1      32.964  28.963  23.739  1.00  0.00     0.075 C 
ATOM     16  C   UNL A   1      31.051  27.597  24.576  1.00  0.00     0.075 C 
ATOM     17  C   UNL A   1      33.549  27.700  23.115  1.00  0.00     0.263 C 
ATOM     18  C   UNL A   1      31.650  26.363  23.897  1.00  0.00     0.263 C 
ATOM     19  H   UNL A   1      33.436  26.507  24.707  1.00  0.00     0.348 HD
BRANCH  14  20
ATOM     20  C   UNL A   1      30.627  29.052  22.574  1.00  0.00     0.220 C 
ATOM     21  N   UNL A   1      31.028  29.938  21.626  1.00  0.00    -0.369 N 
ATOM     22  H   UNL A   1      30.507  30.043  20.798  1.00  0.00     0.159 HD
ATOM     23  H   UNL A   1      31.840  30.477  21.768  1.00  0.00     0.159 HD
ATOM     24  O   UNL A   1      29.612  28.384  22.376  1.00  0.00    -0.275 OA
ENDBRANCH  14  20
ENDBRANCH  12  13
ENDBRANCH  11  12
ENDBRANCH   6  11
BRANCH   8  25
ATOM     25  C   UNL A   1      31.812  22.351  25.800  1.00  0.00     0.253 C 
ATOM     26  O   UNL A   1      30.665  22.723  26.043  1.00  0.00    -0.269 OA
BRANCH  25  27
ATOM     27  C   UNL A   1      31.965  21.379  24.709  1.00  0.00     0.040 A 
ATOM     28  C   UNL A   1      32.291  20.059  25.037  1.00  0.00     0.014 A 
ATOM     29  C   UNL A   1      31.910  21.796  23.378  1.00  0.00     0.014 A 
ATOM     30  C   UNL A   1      32.532  19.140  24.018  1.00  0.00     0.001 A 
ATOM     31  C   UNL A   1      32.153  20.872  22.363  1.00  0.00     0.001 A 
ATOM     32  C   UNL A   1      32.461  19.547  22.684  1.00  0.00     0.000 A 
ENDBRANCH  25  27
ENDBRANCH   8  25
ENDBRANCH   4   5
ENDBRANCH   2   4
ENDBRANCH   1   2
BRANCH   1  33
ATOM     33  C   UNL A   1      37.857  20.082  24.968  1.00  0.00     0.274 C 
BRANCH  33  34
ATOM     34  C   UNL A   1      39.024  19.200  25.406  1.00  0.00     0.275 C 
BRANCH  34  35
ATOM     35  O   UNL A   1      39.855  19.892  26.348  1.00  0.00    -0.458 OA
BRANCH  35  36
ATOM     36  C   UNL A   1      41.187  19.709  26.182  1.00  0.00     0.338 C 
ATOM     37  O   UNL A   1      41.777  18.739  25.750  1.00  0.00    -0.246 OA
BRANCH  36  38
ATOM     38  C   UNL A   1      41.823  20.988  26.505  1.00  0.00     0.060 A 
ATOM     39  C   UNL A   1      41.953  21.940  25.493  1.00  0.00     0.016 A 
ATOM     40  C   UNL A   1      42.245  21.254  27.804  1.00  0.00     0.016 A 
ATOM     41  C   UNL A   1      42.482  23.188  25.779  1.00  0.00     0.010 A 
ATOM     42  C   UNL A   1      42.757  22.516  28.097  1.00  0.00     0.010 A 
ATOM     43  C   UNL A   1      42.864  23.491  27.088  1.00  0.00    -0.014 A 
BRANCH  43  44
ATOM     44  C   UNL A   1      43.363  24.842  27.413  1.00  0.00     0.031 A 
ATOM     45  C   UNL A   1      42.429  25.852  27.999  1.00  0.00     0.074 A 
ATOM     46  C   UNL A   1      44.647  25.146  27.152  1.00  0.00     0.049 A 
ATOM     47  N   UNL A   1      42.622  27.125  28.222  1.00  0.00    -0.248 NA
ATOM     48  C   UNL A   1      41.093  25.366  28.376  1.00  0.00     0.031 C 
ATOM     49  C   UNL A   1      45.644  24.215  26.619  1.00  0.00     0.029 A 
ATOM     50  N   UNL A   1      45.332  26.326  27.288  1.00  0.00    -0.354 N 
ATOM     51  C   UNL A   1      41.426  27.598  28.743  1.00  0.00     0.074 A 
ATOM     52  C   UNL A   1      40.506  26.482  28.783  1.00  0.00     0.031 C 
ATOM     53  C   UNL A   1      46.811  24.859  26.472  1.00  0.00     0.029 A 
ATOM     54  C   UNL A   1      46.627  26.259  26.836  1.00  0.00     0.049 A 
ATOM     55  H   UNL A   1      44.935  27.141  27.671  1.00  0.00     0.167 HD
ATOM     56  C   UNL A   1      41.135  28.856  29.150  1.00  0.00     0.037 A 
ATOM     57  C   UNL A   1      47.545  27.233  26.693  1.00  0.00     0.037 A 
ATOM     58  C   UNL A   1      42.072  29.948  29.101  1.00  0.00     0.049 A 
ATOM     59  C   UNL A   1      47.167  28.636  27.078  1.00  0.00     0.074 A 
ATOM     60  C   UNL A   1      41.892  31.258  29.503  1.00  0.00     0.029 A 
ATOM     61  N   UNL A   1      43.368  29.853  28.610  1.00  0.00    -0.354 N 
ATOM     62  N   UNL A   1      46.039  29.082  27.579  1.00  0.00    -0.248 NA
ATOM     63  C   UNL A   1      48.182  29.675  26.868  1.00  0.00     0.031 C 
ATOM     64  C   UNL A   1      43.058  31.970  29.201  1.00  0.00     0.029 A 
ATOM     65  C   UNL A   1      43.988  31.090  28.668  1.00  0.00     0.049 A 
ATOM     66  H   UNL A   1      43.784  29.028  28.270  1.00  0.00     0.167 HD
ATOM     67  C   UNL A   1      46.214  30.445  27.764  1.00  0.00     0.074 A 
ATOM     68  C   UNL A   1      47.566  30.751  27.340  1.00  0.00     0.031 C 
ATOM     69  C   UNL A   1      45.336  31.364  28.238  1.00  0.00     0.037 A 
BRANCH  56  70
ATOM     70  C   UNL A   1      39.743  29.121  29.643  1.00  0.00     0.064 A 
ATOM     71  C   UNL A   1      38.711  29.516  28.777  1.00  0.00     0.173 A 
ATOM     72  C   UNL A   1      39.430  28.958  31.002  1.00  0.00     0.173 A 
ATOM     73  F   UNL A   1      38.959  29.704  27.472  1.00  0.00    -0.203 F 
ATOM     74  C   UNL A   1      37.428  29.764  29.258  1.00  0.00     0.198 A 
ATOM     75  C   UNL A   1      38.138  29.176  31.474  1.00  0.00     0.198 A 
ATOM     76  F   UNL A   1      40.379  28.583  31.874  1.00  0.00    -0.203 F 
ATOM     77  F   UNL A   1      36.471  30.191  28.421  1.00  0.00    -0.200 F 
ATOM     78  C   UNL A   1      37.141  29.587  30.604  1.00  0.00     0.200 A 
ATOM     79  F   UNL A   1      37.861  28.993  32.772  1.00  0.00    -0.200 F 
ATOM     80  F   UNL A   1      35.903  29.820  31.064  1.00  0.00    -0.200 F 
ENDBRANCH  56  70
BRANCH  57  81
ATOM     81  C   UNL A   1      48.886  26.918  26.133  1.00  0.00     0.064 A 
ATOM     82  C   UNL A   1      49.144  27.049  24.762  1.00  0.00     0.173 A 
ATOM     83  C   UNL A   1      49.937  26.479  26.955  1.00  0.00     0.173 A 
ATOM     84  F   UNL A   1      48.167  27.443  23.932  1.00  0.00    -0.203 F 
ATOM     85  C   UNL A   1      50.394  26.736  24.231  1.00  0.00     0.198 A 
ATOM     86  C   UNL A   1      51.195  26.199  26.427  1.00  0.00     0.198 A 
ATOM     87  F   UNL A   1      49.744  26.337  28.274  1.00  0.00    -0.203 F 
ATOM     88  F   UNL A   1      50.599  26.824  22.910  1.00  0.00    -0.200 F 
ATOM     89  C   UNL A   1      51.420  26.318  25.065  1.00  0.00     0.200 A 
ATOM     90  F   UNL A   1      52.188  25.810  27.240  1.00  0.00    -0.200 F 
ATOM     91  F   UNL A   1      52.624  26.023  24.554  1.00  0.00    -0.200 F 
ENDBRANCH  57  81
BRANCH  69  92
ATOM     92  C   UNL A   1      45.823  32.780  28.345  1.00  0.00     0.064 A 
ATOM     93  C   UNL A   1      45.643  33.700  27.301  1.00  0.00     0.173 A 
ATOM     94  C   UNL A   1      46.436  33.233  29.524  1.00  0.00     0.173 A 
ATOM     95  F   UNL A   1      45.079  33.311  26.148  1.00  0.00    -0.203 F 
ATOM     96  C   UNL A   1      46.080  35.015  27.426  1.00  0.00     0.198 A 
ATOM     97  C   UNL A   1      46.840  34.557  29.657  1.00  0.00     0.198 A 
ATOM     98  F   UNL A   1      46.625  32.393  30.553  1.00  0.00    -0.203 F 
ATOM     99  F   UNL A   1      45.942  35.866  26.399  1.00  0.00    -0.200 F 
ATOM    100  C   UNL A   1      46.668  35.445  28.607  1.00  0.00     0.200 A 
ATOM    101  F   UNL A   1      47.394  34.974  30.805  1.00  0.00    -0.200 F 
ATOM    102  F   UNL A   1      47.077  36.715  28.729  1.00  0.00    -0.200 F 
ENDBRANCH  69  92
ENDBRANCH  43  44
ENDBRANCH  36  38
ENDBRANCH  35  36
ENDBRANCH  34  35
ENDBRANCH  33  34
ENDBRANCH   1  33
TORSDOF 18
ENDMDL
