MODEL 1
REMARK VINA RESULT:     -11.7      0.000      0.000
REMARK SMILES CC(C)CCNC(=O)[C@@H](C)Oc1ccc(N)cc1C(=O)OCCOC(=O)c1ccc(-c2c3nc(c(-c4c(F)c(F)c(F)c(F)c4F)c4ccc([nH]4)c(-c4c(F)c(F)c(F)c(F)c4F)c4nc(c(-c5c(F)c(F)c(F)c(F)c5F)c5ccc2[nH]5)C=C4)C=C3)cc1
REMARK SMILES IDX 19 1 20 2 18 3 12 4 13 5 14 6 17 7 15 8 11 9 9 10 10 11 7 12
REMARK SMILES IDX 6 13 8 15 5 16 4 17 2 18 1 19 3 20 16 21 21 24 22 25 23 26
REMARK SMILES IDX 24 27 25 28 26 29 27 30 28 31 89 32 29 33 88 34 30 35 31 36
REMARK SMILES IDX 32 37 82 38 33 39 87 40 81 41 83 42 34 43 86 44 80 45 79 46
REMARK SMILES IDX 35 48 67 49 47 50 66 51 48 52 51 53 65 54 84 55 49 56 50 57
REMARK SMILES IDX 64 59 85 60 52 61 36 62 37 63 45 64 38 65 39 66 43 67 46 68
REMARK SMILES IDX 40 69 41 70 44 71 42 72 68 73 69 74 77 75 70 76 71 77 75 78
REMARK SMILES IDX 78 79 72 80 73 81 76 82 74 83 53 84 54 85 62 86 55 87 56 88
REMARK SMILES IDX 60 89 63 90 57 91 58 92 61 93 59 94
REMARK H PARENT 6 14 16 22 16 23 83 47 51 58
REMARK Flexibility Score: inf
ROOT
ATOM      1  C   UNL A   1      32.042  27.661  25.629  1.00  0.00     0.342 C 
ATOM      2  O   UNL A   1      33.242  27.469  25.493  1.00  0.00    -0.246 OA
ENDROOT
BRANCH   1   3
ATOM      3  C   UNL A   1      31.148  27.688  24.447  1.00  0.00     0.104 A 
ATOM      4  C   UNL A   1      30.014  26.891  24.317  1.00  0.00     0.135 A 
ATOM      5  C   UNL A   1      28.974  27.328  23.491  1.00  0.00     0.049 A 
ATOM      6  C   UNL A   1      29.165  28.414  22.628  1.00  0.00     0.029 A 
ATOM      7  C   UNL A   1      31.349  28.728  23.524  1.00  0.00     0.045 A 
ATOM      8  C   UNL A   1      30.405  29.038  22.550  1.00  0.00     0.032 A 
BRANCH   4   9
ATOM      9  O   UNL A   1      29.850  25.744  25.032  1.00  0.00    -0.480 OA
BRANCH   9  10
ATOM     10  C   UNL A   1      30.925  24.804  24.880  1.00  0.00     0.258 C 
ATOM     11  C   UNL A   1      30.641  23.756  23.801  1.00  0.00     0.064 C 
BRANCH  10  12
ATOM     12  C   UNL A   1      31.733  24.247  26.100  1.00  0.00     0.260 C 
ATOM     13  N   UNL A   1      33.093  24.122  26.127  1.00  0.00    -0.353 N 
ATOM     14  H   UNL A   1      33.476  23.985  27.024  1.00  0.00     0.163 HD
ATOM     15  O   UNL A   1      31.133  23.893  27.123  1.00  0.00    -0.271 OA
BRANCH  13  16
ATOM     16  C   UNL A   1      34.064  24.161  25.053  1.00  0.00     0.116 C 
BRANCH  16  17
ATOM     17  C   UNL A   1      34.401  22.798  24.456  1.00  0.00     0.024 C 
BRANCH  17  18
ATOM     18  C   UNL A   1      35.834  22.283  24.717  1.00  0.00    -0.016 C 
ATOM     19  C   UNL A   1      35.899  20.785  25.027  1.00  0.00     0.007 C 
ATOM     20  C   UNL A   1      36.701  22.577  23.489  1.00  0.00     0.007 C 
ENDBRANCH  17  18
ENDBRANCH  16  17
ENDBRANCH  13  16
ENDBRANCH  10  12
ENDBRANCH   9  10
ENDBRANCH   4   9
BRANCH   8  21
ATOM     21  N   UNL A   1      30.649  30.048  21.636  1.00  0.00    -0.399 N 
ATOM     22  H   UNL A   1      31.124  30.863  21.917  1.00  0.00     0.156 HD
ATOM     23  H   UNL A   1      30.347  29.950  20.703  1.00  0.00     0.156 HD
ENDBRANCH   8  21
ENDBRANCH   1   3
BRANCH   1  24
ATOM     24  O   UNL A   1      31.408  27.840  26.811  1.00  0.00    -0.458 OA
BRANCH  24  25
ATOM     25  C   UNL A   1      31.895  28.942  27.606  1.00  0.00     0.275 C 
BRANCH  25  26
ATOM     26  C   UNL A   1      31.812  30.282  26.872  1.00  0.00     0.275 C 
BRANCH  26  27
ATOM     27  O   UNL A   1      33.114  30.758  26.483  1.00  0.00    -0.458 OA
BRANCH  27  28
ATOM     28  C   UNL A   1      33.625  31.727  27.267  1.00  0.00     0.338 C 
ATOM     29  O   UNL A   1      33.079  32.763  27.633  1.00  0.00    -0.246 OA
BRANCH  28  30
ATOM     30  C   UNL A   1      34.980  31.375  27.707  1.00  0.00     0.060 A 
ATOM     31  C   UNL A   1      35.257  30.045  28.001  1.00  0.00     0.016 A 
ATOM     32  C   UNL A   1      35.904  32.368  28.021  1.00  0.00     0.016 A 
ATOM     33  C   UNL A   1      36.392  29.707  28.730  1.00  0.00     0.010 A 
ATOM     34  C   UNL A   1      37.101  32.012  28.652  1.00  0.00     0.010 A 
ATOM     35  C   UNL A   1      37.338  30.684  29.058  1.00  0.00    -0.014 A 
BRANCH  35  36
ATOM     36  C   UNL A   1      38.547  30.343  29.858  1.00  0.00     0.031 A 
ATOM     37  C   UNL A   1      39.593  29.430  29.278  1.00  0.00     0.074 A 
ATOM     38  C   UNL A   1      38.719  30.836  31.100  1.00  0.00     0.049 A 
ATOM     39  N   UNL A   1      40.560  28.784  29.879  1.00  0.00    -0.248 NA
ATOM     40  C   UNL A   1      39.534  29.203  27.825  1.00  0.00     0.031 C 
ATOM     41  C   UNL A   1      37.831  31.787  31.768  1.00  0.00     0.029 A 
ATOM     42  N   UNL A   1      39.702  30.592  32.028  1.00  0.00    -0.354 N 
ATOM     43  C   UNL A   1      41.168  28.013  28.898  1.00  0.00     0.074 A 
ATOM     44  C   UNL A   1      40.478  28.288  27.655  1.00  0.00     0.031 C 
ATOM     45  C   UNL A   1      38.319  32.066  32.986  1.00  0.00     0.029 A 
ATOM     46  C   UNL A   1      39.492  31.233  33.224  1.00  0.00     0.049 A 
ATOM     47  H   UNL A   1      40.480  30.016  31.853  1.00  0.00     0.167 HD
ATOM     48  C   UNL A   1      42.200  27.145  29.029  1.00  0.00     0.037 A 
ATOM     49  C   UNL A   1      40.128  31.117  34.406  1.00  0.00     0.037 A 
ATOM     50  C   UNL A   1      42.923  26.928  30.256  1.00  0.00     0.049 A 
ATOM     51  C   UNL A   1      41.258  30.139  34.539  1.00  0.00     0.074 A 
ATOM     52  C   UNL A   1      43.984  26.073  30.498  1.00  0.00     0.029 A 
ATOM     53  N   UNL A   1      42.670  27.597  31.445  1.00  0.00    -0.354 N 
ATOM     54  N   UNL A   1      41.765  29.337  33.636  1.00  0.00    -0.248 NA
ATOM     55  C   UNL A   1      41.888  30.032  35.861  1.00  0.00     0.031 C 
ATOM     56  C   UNL A   1      44.357  26.207  31.840  1.00  0.00     0.029 A 
ATOM     57  C   UNL A   1      43.552  27.172  32.424  1.00  0.00     0.049 A 
ATOM     58  H   UNL A   1      41.965  28.272  31.575  1.00  0.00     0.167 HD
ATOM     59  C   UNL A   1      42.775  28.633  34.274  1.00  0.00     0.074 A 
ATOM     60  C   UNL A   1      42.821  29.114  35.640  1.00  0.00     0.031 C 
ATOM     61  C   UNL A   1      43.586  27.669  33.776  1.00  0.00     0.037 A 
BRANCH  48  62
ATOM     62  C   UNL A   1      42.576  26.326  27.829  1.00  0.00     0.064 A 
ATOM     63  C   UNL A   1      43.592  26.716  26.947  1.00  0.00     0.173 A 
ATOM     64  C   UNL A   1      41.912  25.115  27.571  1.00  0.00     0.173 A 
ATOM     65  F   UNL A   1      44.245  27.873  27.139  1.00  0.00    -0.203 F 
ATOM     66  C   UNL A   1      43.913  25.940  25.835  1.00  0.00     0.198 A 
ATOM     67  C   UNL A   1      42.253  24.329  26.475  1.00  0.00     0.198 A 
ATOM     68  F   UNL A   1      40.934  24.694  28.387  1.00  0.00    -0.203 F 
ATOM     69  F   UNL A   1      44.856  26.356  24.978  1.00  0.00    -0.200 F 
ATOM     70  C   UNL A   1      43.247  24.745  25.604  1.00  0.00     0.200 A 
ATOM     71  F   UNL A   1      41.615  23.170  26.258  1.00  0.00    -0.200 F 
ATOM     72  F   UNL A   1      43.558  23.999  24.534  1.00  0.00    -0.200 F 
ENDBRANCH  48  62
BRANCH  49  73
ATOM     73  C   UNL A   1      39.656  31.916  35.566  1.00  0.00     0.064 A 
ATOM     74  C   UNL A   1      40.171  33.194  35.818  1.00  0.00     0.173 A 
ATOM     75  C   UNL A   1      38.647  31.437  36.416  1.00  0.00     0.173 A 
ATOM     76  F   UNL A   1      41.154  33.683  35.048  1.00  0.00    -0.203 F 
ATOM     77  C   UNL A   1      39.690  33.965  36.874  1.00  0.00     0.198 A 
ATOM     78  C   UNL A   1      38.149  32.218  37.454  1.00  0.00     0.198 A 
ATOM     79  F   UNL A   1      38.123  30.219  36.214  1.00  0.00    -0.203 F 
ATOM     80  F   UNL A   1      40.214  35.175  37.110  1.00  0.00    -0.200 F 
ATOM     81  C   UNL A   1      38.672  33.482  37.684  1.00  0.00     0.200 A 
ATOM     82  F   UNL A   1      37.154  31.754  38.222  1.00  0.00    -0.200 F 
ATOM     83  F   UNL A   1      38.197  34.233  38.687  1.00  0.00    -0.200 F 
ENDBRANCH  49  73
BRANCH  61  84
ATOM     84  C   UNL A   1      44.614  27.097  34.702  1.00  0.00     0.064 A 
ATOM     85  C   UNL A   1      45.856  27.719  34.890  1.00  0.00     0.173 A 
ATOM     86  C   UNL A   1      44.335  25.938  35.441  1.00  0.00     0.173 A 
ATOM     87  F   UNL A   1      46.172  28.821  34.193  1.00  0.00    -0.203 F 
ATOM     88  C   UNL A   1      46.791  27.190  35.775  1.00  0.00     0.198 A 
ATOM     89  C   UNL A   1      45.264  25.423  36.339  1.00  0.00     0.198 A 
ATOM     90  F   UNL A   1      43.158  25.311  35.294  1.00  0.00    -0.203 F 
ATOM     91  F   UNL A   1      47.986  27.779  35.917  1.00  0.00    -0.200 F 
ATOM     92  C   UNL A   1      46.492  26.046  36.503  1.00  0.00     0.200 A 
ATOM     93  F   UNL A   1      44.972  24.322  37.046  1.00  0.00    -0.200 F 
ATOM     94  F   UNL A   1      47.392  25.540  37.358  1.00  0.00    -0.200 F 
ENDBRANCH  61  84
ENDBRANCH  35  36
ENDBRANCH  28  30
ENDBRANCH  27  28
ENDBRANCH  26  27
ENDBRANCH  25  26
ENDBRANCH  24  25
ENDBRANCH   1  24
TORSDOF 18
ENDMDL
MODEL 2
REMARK VINA RESULT:     -11.5      0.418      2.014
REMARK SMILES CC(C)CCNC(=O)[C@@H](C)Oc1ccc(N)cc1C(=O)OCCOC(=O)c1ccc(-c2c3nc(c(-c4c(F)c(F)c(F)c(F)c4F)c4ccc([nH]4)c(-c4c(F)c(F)c(F)c(F)c4F)c4nc(c(-c5c(F)c(F)c(F)c(F)c5F)c5ccc2[nH]5)C=C4)C=C3)cc1
REMARK SMILES IDX 19 1 20 2 18 3 12 4 13 5 14 6 17 7 15 8 11 9 9 10 10 11 7 12
REMARK SMILES IDX 6 13 8 15 5 16 4 17 2 18 1 19 3 20 16 21 21 24 22 25 23 26
REMARK SMILES IDX 24 27 25 28 26 29 27 30 28 31 89 32 29 33 88 34 30 35 31 36
REMARK SMILES IDX 32 37 82 38 33 39 87 40 81 41 83 42 34 43 86 44 80 45 79 46
REMARK SMILES IDX 35 48 67 49 47 50 66 51 48 52 51 53 65 54 84 55 49 56 50 57
REMARK SMILES IDX 64 59 85 60 52 61 36 62 37 63 45 64 38 65 39 66 43 67 46 68
REMARK SMILES IDX 40 69 41 70 44 71 42 72 68 73 69 74 77 75 70 76 71 77 75 78
REMARK SMILES IDX 78 79 72 80 73 81 76 82 74 83 53 84 54 85 62 86 55 87 56 88
REMARK SMILES IDX 60 89 63 90 57 91 58 92 61 93 59 94
REMARK H PARENT 6 14 16 22 16 23 83 47 51 58
REMARK Flexibility Score: inf
ROOT
ATOM      1  C   UNL A   1      32.119  27.314  25.954  1.00  0.00     0.342 C 
ATOM      2  O   UNL A   1      33.296  26.979  25.958  1.00  0.00    -0.246 OA
ENDROOT
BRANCH   1   3
ATOM      3  C   UNL A   1      31.363  27.378  24.681  1.00  0.00     0.104 A 
ATOM      4  C   UNL A   1      30.217  26.629  24.425  1.00  0.00     0.135 A 
ATOM      5  C   UNL A   1      29.294  27.110  23.491  1.00  0.00     0.049 A 
ATOM      6  C   UNL A   1      29.624  28.185  22.658  1.00  0.00     0.029 A 
ATOM      7  C   UNL A   1      31.708  28.407  23.789  1.00  0.00     0.045 A 
ATOM      8  C   UNL A   1      30.891  28.755  22.719  1.00  0.00     0.032 A 
BRANCH   4   9
ATOM      9  O   UNL A   1      29.927  25.492  25.114  1.00  0.00    -0.480 OA
BRANCH   9  10
ATOM     10  C   UNL A   1      30.982  24.517  25.100  1.00  0.00     0.258 C 
ATOM     11  C   UNL A   1      30.859  23.533  23.934  1.00  0.00     0.064 C 
BRANCH  10  12
ATOM     12  C   UNL A   1      31.546  23.872  26.411  1.00  0.00     0.260 C 
ATOM     13  N   UNL A   1      32.875  23.682  26.662  1.00  0.00    -0.353 N 
ATOM     14  H   UNL A   1      33.093  23.488  27.603  1.00  0.00     0.163 HD
ATOM     15  O   UNL A   1      30.766  23.504  27.298  1.00  0.00    -0.271 OA
BRANCH  13  16
ATOM     16  C   UNL A   1      34.017  23.720  25.771  1.00  0.00     0.116 C 
BRANCH  16  17
ATOM     17  C   UNL A   1      34.959  22.527  25.900  1.00  0.00     0.024 C 
BRANCH  17  18
ATOM     18  C   UNL A   1      36.250  22.593  25.054  1.00  0.00    -0.016 C 
ATOM     19  C   UNL A   1      35.996  22.878  23.570  1.00  0.00     0.007 C 
ATOM     20  C   UNL A   1      37.163  23.684  25.622  1.00  0.00     0.007 C 
ENDBRANCH  17  18
ENDBRANCH  16  17
ENDBRANCH  13  16
ENDBRANCH  10  12
ENDBRANCH   9  10
ENDBRANCH   4   9
BRANCH   8  21
ATOM     21  N   UNL A   1      31.277  29.752  21.840  1.00  0.00    -0.399 N 
ATOM     22  H   UNL A   1      31.145  30.698  22.079  1.00  0.00     0.156 HD
ATOM     23  H   UNL A   1      31.683  29.515  20.974  1.00  0.00     0.156 HD
ENDBRANCH   8  21
ENDBRANCH   1   3
BRANCH   1  24
ATOM     24  O   UNL A   1      31.393  27.628  27.051  1.00  0.00    -0.458 OA
BRANCH  24  25
ATOM     25  C   UNL A   1      31.819  28.819  27.747  1.00  0.00     0.275 C 
BRANCH  25  26
ATOM     26  C   UNL A   1      31.699  30.080  26.889  1.00  0.00     0.275 C 
BRANCH  26  27
ATOM     27  O   UNL A   1      32.991  30.583  26.499  1.00  0.00    -0.458 OA
BRANCH  27  28
ATOM     28  C   UNL A   1      33.480  31.565  27.280  1.00  0.00     0.338 C 
ATOM     29  O   UNL A   1      32.908  32.585  27.650  1.00  0.00    -0.246 OA
BRANCH  28  30
ATOM     30  C   UNL A   1      34.848  31.251  27.708  1.00  0.00     0.060 A 
ATOM     31  C   UNL A   1      35.155  29.935  28.034  1.00  0.00     0.016 A 
ATOM     32  C   UNL A   1      35.756  32.270  27.983  1.00  0.00     0.016 A 
ATOM     33  C   UNL A   1      36.307  29.638  28.755  1.00  0.00     0.010 A 
ATOM     34  C   UNL A   1      36.969  31.954  28.605  1.00  0.00     0.010 A 
ATOM     35  C   UNL A   1      37.238  30.642  29.043  1.00  0.00    -0.014 A 
BRANCH  35  36
ATOM     36  C   UNL A   1      38.465  30.346  29.833  1.00  0.00     0.031 A 
ATOM     37  C   UNL A   1      39.531  29.456  29.253  1.00  0.00     0.074 A 
ATOM     38  C   UNL A   1      38.635  30.860  31.067  1.00  0.00     0.049 A 
ATOM     39  N   UNL A   1      40.521  28.846  29.852  1.00  0.00    -0.248 NA
ATOM     40  C   UNL A   1      39.462  29.208  27.804  1.00  0.00     0.031 C 
ATOM     41  C   UNL A   1      37.729  31.794  31.733  1.00  0.00     0.029 A 
ATOM     42  N   UNL A   1      39.635  30.656  31.988  1.00  0.00    -0.354 N 
ATOM     43  C   UNL A   1      41.141  28.080  28.874  1.00  0.00     0.074 A 
ATOM     44  C   UNL A   1      40.430  28.318  27.635  1.00  0.00     0.031 C 
ATOM     45  C   UNL A   1      38.221  32.102  32.941  1.00  0.00     0.029 A 
ATOM     46  C   UNL A   1      39.420  31.306  33.177  1.00  0.00     0.049 A 
ATOM     47  H   UNL A   1      40.428  30.100  31.811  1.00  0.00     0.167 HD
ATOM     48  C   UNL A   1      42.199  27.243  29.004  1.00  0.00     0.037 A 
ATOM     49  C   UNL A   1      40.071  31.224  34.353  1.00  0.00     0.037 A 
ATOM     50  C   UNL A   1      42.941  27.063  30.226  1.00  0.00     0.049 A 
ATOM     51  C   UNL A   1      41.231  30.280  34.487  1.00  0.00     0.074 A 
ATOM     52  C   UNL A   1      44.029  26.241  30.467  1.00  0.00     0.029 A 
ATOM     53  N   UNL A   1      42.681  27.739  31.410  1.00  0.00    -0.354 N 
ATOM     54  N   UNL A   1      41.750  29.481  33.588  1.00  0.00    -0.248 NA
ATOM     55  C   UNL A   1      41.877  30.208  35.803  1.00  0.00     0.031 C 
ATOM     56  C   UNL A   1      44.411  26.403  31.803  1.00  0.00     0.029 A 
ATOM     57  C   UNL A   1      43.586  27.352  32.384  1.00  0.00     0.049 A 
ATOM     58  H   UNL A   1      41.959  28.396  31.538  1.00  0.00     0.167 HD
ATOM     59  C   UNL A   1      42.786  28.814  34.224  1.00  0.00     0.074 A 
ATOM     60  C   UNL A   1      42.833  29.314  35.582  1.00  0.00     0.031 C 
ATOM     61  C   UNL A   1      43.619  27.867  33.728  1.00  0.00     0.037 A 
BRANCH  48  62
ATOM     62  C   UNL A   1      42.585  26.420  27.811  1.00  0.00     0.064 A 
ATOM     63  C   UNL A   1      42.006  25.171  27.545  1.00  0.00     0.173 A 
ATOM     64  C   UNL A   1      43.543  26.904  26.906  1.00  0.00     0.173 A 
ATOM     65  F   UNL A   1      41.097  24.656  28.388  1.00  0.00    -0.203 F 
ATOM     66  C   UNL A   1      42.391  24.425  26.434  1.00  0.00     0.198 A 
ATOM     67  C   UNL A   1      43.906  26.168  25.781  1.00  0.00     0.198 A 
ATOM     68  F   UNL A   1      44.125  28.096  27.111  1.00  0.00    -0.203 F 
ATOM     69  F   UNL A   1      41.859  23.213  26.225  1.00  0.00    -0.200 F 
ATOM     70  C   UNL A   1      43.336  24.927  25.550  1.00  0.00     0.200 A 
ATOM     71  F   UNL A   1      44.813  26.658  24.925  1.00  0.00    -0.200 F 
ATOM     72  F   UNL A   1      43.705  24.207  24.481  1.00  0.00    -0.200 F 
ENDBRANCH  48  62
BRANCH  49  73
ATOM     73  C   UNL A   1      39.590  32.023  35.508  1.00  0.00     0.064 A 
ATOM     74  C   UNL A   1      38.615  31.517  36.379  1.00  0.00     0.173 A 
ATOM     75  C   UNL A   1      40.128  33.288  35.793  1.00  0.00     0.173 A 
ATOM     76  F   UNL A   1      38.054  30.324  36.133  1.00  0.00    -0.203 F 
ATOM     77  C   UNL A   1      38.203  32.244  37.494  1.00  0.00     0.198 A 
ATOM     78  C   UNL A   1      39.735  34.001  36.921  1.00  0.00     0.198 A 
ATOM     79  F   UNL A   1      41.064  33.814  34.988  1.00  0.00    -0.203 F 
ATOM     80  F   UNL A   1      37.253  31.749  38.299  1.00  0.00    -0.200 F 
ATOM     81  C   UNL A   1      38.770  33.479  37.771  1.00  0.00     0.200 A 
ATOM     82  F   UNL A   1      40.298  35.186  37.193  1.00  0.00    -0.200 F 
ATOM     83  F   UNL A   1      38.387  34.168  38.854  1.00  0.00    -0.200 F 
ENDBRANCH  49  73
BRANCH  61  84
ATOM     84  C   UNL A   1      44.673  27.337  34.651  1.00  0.00     0.064 A 
ATOM     85  C   UNL A   1      44.454  26.193  35.431  1.00  0.00     0.173 A 
ATOM     86  C   UNL A   1      45.929  27.957  34.723  1.00  0.00     0.173 A 
ATOM     87  F   UNL A   1      43.263  25.576  35.406  1.00  0.00    -0.203 F 
ATOM     88  C   UNL A   1      45.454  25.696  36.264  1.00  0.00     0.198 A 
ATOM     89  C   UNL A   1      46.931  27.447  35.541  1.00  0.00     0.198 A 
ATOM     90  F   UNL A   1      46.183  29.053  33.992  1.00  0.00    -0.203 F 
ATOM     91  F   UNL A   1      45.215  24.621  37.026  1.00  0.00    -0.200 F 
ATOM     92  C   UNL A   1      46.693  26.321  36.313  1.00  0.00     0.200 A 
ATOM     93  F   UNL A   1      48.130  28.046  35.584  1.00  0.00    -0.200 F 
ATOM     94  F   UNL A   1      47.655  25.838  37.112  1.00  0.00    -0.200 F 
ENDBRANCH  61  84
ENDBRANCH  35  36
ENDBRANCH  28  30
ENDBRANCH  27  28
ENDBRANCH  26  27
ENDBRANCH  25  26
ENDBRANCH  24  25
ENDBRANCH   1  24
TORSDOF 18
ENDMDL
MODEL 3
REMARK VINA RESULT:     -11.4      1.302      3.850
REMARK SMILES CC(C)CCNC(=O)[C@@H](C)Oc1ccc(N)cc1C(=O)OCCOC(=O)c1ccc(-c2c3nc(c(-c4c(F)c(F)c(F)c(F)c4F)c4ccc([nH]4)c(-c4c(F)c(F)c(F)c(F)c4F)c4nc(c(-c5c(F)c(F)c(F)c(F)c5F)c5ccc2[nH]5)C=C4)C=C3)cc1
REMARK SMILES IDX 19 1 20 2 18 3 12 4 13 5 14 6 17 7 15 8 11 9 9 10 10 11 7 12
REMARK SMILES IDX 6 13 8 15 5 16 4 17 2 18 1 19 3 20 16 21 21 24 22 25 23 26
REMARK SMILES IDX 24 27 25 28 26 29 27 30 28 31 89 32 29 33 88 34 30 35 31 36
REMARK SMILES IDX 32 37 82 38 33 39 87 40 81 41 83 42 34 43 86 44 80 45 79 46
REMARK SMILES IDX 35 48 67 49 47 50 66 51 48 52 51 53 65 54 84 55 49 56 50 57
REMARK SMILES IDX 64 59 85 60 52 61 36 62 37 63 45 64 38 65 39 66 43 67 46 68
REMARK SMILES IDX 40 69 41 70 44 71 42 72 68 73 69 74 77 75 70 76 71 77 75 78
REMARK SMILES IDX 78 79 72 80 73 81 76 82 74 83 53 84 54 85 62 86 55 87 56 88
REMARK SMILES IDX 60 89 63 90 57 91 58 92 61 93 59 94
REMARK H PARENT 6 14 16 22 16 23 83 47 51 58
REMARK Flexibility Score: inf
ROOT
ATOM      1  C   UNL A   1      33.170  26.238  25.392  1.00  0.00     0.342 C 
ATOM      2  O   UNL A   1      34.132  26.147  26.142  1.00  0.00    -0.246 OA
ENDROOT
BRANCH   1   3
ATOM      3  C   UNL A   1      32.562  25.021  24.802  1.00  0.00     0.104 A 
ATOM      4  C   UNL A   1      33.000  24.435  23.617  1.00  0.00     0.135 A 
ATOM      5  C   UNL A   1      32.772  23.071  23.416  1.00  0.00     0.049 A 
ATOM      6  C   UNL A   1      31.914  22.364  24.268  1.00  0.00     0.029 A 
ATOM      7  C   UNL A   1      31.648  24.317  25.603  1.00  0.00     0.045 A 
ATOM      8  C   UNL A   1      31.245  23.023  25.294  1.00  0.00     0.032 A 
BRANCH   4   9
ATOM      9  O   UNL A   1      33.715  25.128  22.688  1.00  0.00    -0.480 OA
BRANCH   9  10
ATOM     10  C   UNL A   1      32.930  26.053  21.920  1.00  0.00     0.258 C 
ATOM     11  C   UNL A   1      32.572  25.512  20.533  1.00  0.00     0.064 C 
BRANCH  10  12
ATOM     12  C   UNL A   1      33.189  27.597  21.944  1.00  0.00     0.260 C 
ATOM     13  N   UNL A   1      32.246  28.529  22.275  1.00  0.00    -0.353 N 
ATOM     14  H   UNL A   1      32.604  29.424  22.474  1.00  0.00     0.163 HD
ATOM     15  O   UNL A   1      34.310  28.036  21.657  1.00  0.00    -0.271 OA
BRANCH  13  16
ATOM     16  C   UNL A   1      30.806  28.414  22.381  1.00  0.00     0.116 C 
BRANCH  16  17
ATOM     17  C   UNL A   1      30.049  29.719  22.151  1.00  0.00     0.024 C 
BRANCH  17  18
ATOM     18  C   UNL A   1      28.951  30.052  23.186  1.00  0.00    -0.016 C 
ATOM     19  C   UNL A   1      29.117  31.432  23.831  1.00  0.00     0.007 C 
ATOM     20  C   UNL A   1      27.583  29.982  22.500  1.00  0.00     0.007 C 
ENDBRANCH  17  18
ENDBRANCH  16  17
ENDBRANCH  13  16
ENDBRANCH  10  12
ENDBRANCH   9  10
ENDBRANCH   4   9
BRANCH   8  21
ATOM     21  N   UNL A   1      30.318  22.370  26.087  1.00  0.00    -0.399 N 
ATOM     22  H   UNL A   1      30.599  21.617  26.656  1.00  0.00     0.156 HD
ATOM     23  H   UNL A   1      29.376  22.658  26.082  1.00  0.00     0.156 HD
ENDBRANCH   8  21
ENDBRANCH   1   3
BRANCH   1  24
ATOM     24  O   UNL A   1      32.558  27.392  25.042  1.00  0.00    -0.458 OA
BRANCH  24  25
ATOM     25  C   UNL A   1      31.716  27.971  26.062  1.00  0.00     0.275 C 
BRANCH  25  26
ATOM     26  C   UNL A   1      31.785  29.499  26.087  1.00  0.00     0.275 C 
BRANCH  26  27
ATOM     27  O   UNL A   1      32.323  29.987  27.330  1.00  0.00    -0.458 OA
BRANCH  27  28
ATOM     28  C   UNL A   1      33.007  31.145  27.239  1.00  0.00     0.338 C 
ATOM     29  O   UNL A   1      32.580  32.245  26.904  1.00  0.00    -0.246 OA
BRANCH  28  30
ATOM     30  C   UNL A   1      34.402  30.954  27.651  1.00  0.00     0.060 A 
ATOM     31  C   UNL A   1      34.854  29.659  27.882  1.00  0.00     0.016 A 
ATOM     32  C   UNL A   1      35.193  32.043  28.005  1.00  0.00     0.016 A 
ATOM     33  C   UNL A   1      36.033  29.439  28.586  1.00  0.00     0.010 A 
ATOM     34  C   UNL A   1      36.435  31.819  28.609  1.00  0.00     0.010 A 
ATOM     35  C   UNL A   1      36.848  30.516  28.951  1.00  0.00    -0.014 A 
BRANCH  35  36
ATOM     36  C   UNL A   1      38.103  30.300  29.725  1.00  0.00     0.031 A 
ATOM     37  C   UNL A   1      39.202  29.454  29.144  1.00  0.00     0.074 A 
ATOM     38  C   UNL A   1      38.268  30.849  30.944  1.00  0.00     0.049 A 
ATOM     39  N   UNL A   1      40.233  28.908  29.737  1.00  0.00    -0.248 NA
ATOM     40  C   UNL A   1      39.121  29.171  27.702  1.00  0.00     0.031 C 
ATOM     41  C   UNL A   1      37.326  31.750  31.607  1.00  0.00     0.029 A 
ATOM     42  N   UNL A   1      39.293  30.717  31.850  1.00  0.00    -0.354 N 
ATOM     43  C   UNL A   1      40.875  28.153  28.764  1.00  0.00     0.074 A 
ATOM     44  C   UNL A   1      40.130  28.328  27.534  1.00  0.00     0.031 C 
ATOM     45  C   UNL A   1      37.823  32.109  32.800  1.00  0.00     0.029 A 
ATOM     46  C   UNL A   1      39.065  31.381  33.030  1.00  0.00     0.049 A 
ATOM     47  H   UNL A   1      40.110  30.198  31.671  1.00  0.00     0.167 HD
ATOM     48  C   UNL A   1      41.976  27.374  28.892  1.00  0.00     0.037 A 
ATOM     49  C   UNL A   1      39.740  31.358  34.195  1.00  0.00     0.037 A 
ATOM     50  C   UNL A   1      42.747  27.259  30.104  1.00  0.00     0.049 A 
ATOM     51  C   UNL A   1      40.949  30.477  34.327  1.00  0.00     0.074 A 
ATOM     52  C   UNL A   1      43.880  26.500  30.341  1.00  0.00     0.029 A 
ATOM     53  N   UNL A   1      42.474  27.947  31.277  1.00  0.00    -0.354 N 
ATOM     54  N   UNL A   1      41.493  29.687  33.435  1.00  0.00    -0.248 NA
ATOM     55  C   UNL A   1      41.621  30.467  35.632  1.00  0.00     0.031 C 
ATOM     56  C   UNL A   1      44.277  26.710  31.667  1.00  0.00     0.029 A 
ATOM     57  C   UNL A   1      43.414  27.628  32.243  1.00  0.00     0.049 A 
ATOM     58  H   UNL A   1      41.721  28.569  31.406  1.00  0.00     0.167 HD
ATOM     59  C   UNL A   1      42.573  29.088  34.066  1.00  0.00     0.074 A 
ATOM     60  C   UNL A   1      42.618  29.619  35.413  1.00  0.00     0.031 C 
ATOM     61  C   UNL A   1      43.445  28.174  33.575  1.00  0.00     0.037 A 
BRANCH  48  62
ATOM     62  C   UNL A   1      42.383  26.546  27.709  1.00  0.00     0.064 A 
ATOM     63  C   UNL A   1      41.784  25.313  27.420  1.00  0.00     0.173 A 
ATOM     64  C   UNL A   1      43.382  27.011  26.839  1.00  0.00     0.173 A 
ATOM     65  F   UNL A   1      40.836  24.816  28.229  1.00  0.00    -0.203 F 
ATOM     66  C   UNL A   1      42.189  24.561  26.319  1.00  0.00     0.198 A 
ATOM     67  C   UNL A   1      43.766  26.270  25.725  1.00  0.00     0.198 A 
ATOM     68  F   UNL A   1      43.984  28.188  27.069  1.00  0.00    -0.203 F 
ATOM     69  F   UNL A   1      41.637  23.362  26.088  1.00  0.00    -0.200 F 
ATOM     70  C   UNL A   1      43.175  25.043  25.470  1.00  0.00     0.200 A 
ATOM     71  F   UNL A   1      44.713  26.741  24.902  1.00  0.00    -0.200 F 
ATOM     72  F   UNL A   1      43.563  24.318  24.411  1.00  0.00    -0.200 F 
ENDBRANCH  48  62
BRANCH  49  73
ATOM     73  C   UNL A   1      39.238  32.157  35.342  1.00  0.00     0.064 A 
ATOM     74  C   UNL A   1      38.443  31.571  36.335  1.00  0.00     0.173 A 
ATOM     75  C   UNL A   1      39.584  33.509  35.493  1.00  0.00     0.173 A 
ATOM     76  F   UNL A   1      38.066  30.289  36.220  1.00  0.00    -0.203 F 
ATOM     77  C   UNL A   1      38.017  32.306  37.439  1.00  0.00     0.198 A 
ATOM     78  C   UNL A   1      39.180  34.235  36.609  1.00  0.00     0.198 A 
ATOM     79  F   UNL A   1      40.344  34.113  34.568  1.00  0.00    -0.203 F 
ATOM     80  F   UNL A   1      37.238  31.730  38.365  1.00  0.00    -0.200 F 
ATOM     81  C   UNL A   1      38.395  33.633  37.582  1.00  0.00     0.200 A 
ATOM     82  F   UNL A   1      39.562  35.511  36.751  1.00  0.00    -0.200 F 
ATOM     83  F   UNL A   1      38.001  34.334  38.654  1.00  0.00    -0.200 F 
ENDBRANCH  49  73
BRANCH  61  84
ATOM     84  C   UNL A   1      44.540  27.718  34.489  1.00  0.00     0.064 A 
ATOM     85  C   UNL A   1      44.394  26.582  35.297  1.00  0.00     0.173 A 
ATOM     86  C   UNL A   1      45.764  28.402  34.524  1.00  0.00     0.173 A 
ATOM     87  F   UNL A   1      43.235  25.906  35.308  1.00  0.00    -0.203 F 
ATOM     88  C   UNL A   1      45.432  26.156  36.122  1.00  0.00     0.198 A 
ATOM     89  C   UNL A   1      46.805  27.962  35.334  1.00  0.00     0.198 A 
ATOM     90  F   UNL A   1      45.949  29.494  33.765  1.00  0.00    -0.203 F 
ATOM     91  F   UNL A   1      45.261  25.087  36.912  1.00  0.00    -0.200 F 
ATOM     92  C   UNL A   1      46.638  26.843  36.134  1.00  0.00     0.200 A 
ATOM     93  F   UNL A   1      47.972  28.622  35.341  1.00  0.00    -0.200 F 
ATOM     94  F   UNL A   1      47.637  26.428  36.925  1.00  0.00    -0.200 F 
ENDBRANCH  61  84
ENDBRANCH  35  36
ENDBRANCH  28  30
ENDBRANCH  27  28
ENDBRANCH  26  27
ENDBRANCH  25  26
ENDBRANCH  24  25
ENDBRANCH   1  24
TORSDOF 18
ENDMDL
