MODEL 1
REMARK VINA RESULT:     -12.9      0.000      0.000
REMARK SMILES CC1=C(C(=O)OCCOC(=O)c2ccc(-c3c4nc(c(-c5c(F)c(F)c(F)c(F)c5F)c5ccc([nH]5)c(-c5c(F)c(F)c(F)c(F)c5F)c5nc(c(-c6c(F)c(F)c(F)c(F)c6F)c6ccc3[nH]6)C=C5)C=C4)cc2)N2C(=O)[C@H](NC(=O)c3cc(C(F)(F)F)nn3C)[C@@H]2SC1
REMARK SMILES IDX 7 1 6 2 4 3 5 4 3 5 1 6 2 7 94 8 75 9 93 10 76 11 92 12
REMARK SMILES IDX 77 13 78 14 79 15 80 16 81 18 82 19 83 20 90 21 84 22 89 23
REMARK SMILES IDX 91 24 85 25 86 26 87 27 88 28 8 29 9 30 10 31 11 32 12 33
REMARK SMILES IDX 13 34 74 35 14 36 73 37 15 38 16 39 17 40 67 41 18 42 72 43
REMARK SMILES IDX 66 44 68 45 19 46 71 47 65 48 64 49 20 51 52 52 32 53 51 54
REMARK SMILES IDX 33 55 36 56 50 57 69 58 34 59 35 60 49 62 70 63 37 64 21 65
REMARK SMILES IDX 22 66 30 67 23 68 24 69 28 70 31 71 25 72 26 73 29 74 27 75
REMARK SMILES IDX 53 76 54 77 62 78 55 79 56 80 60 81 63 82 57 83 58 84 61 85
REMARK SMILES IDX 59 86 38 87 39 88 47 89 40 90 41 91 45 92 48 93 42 94 43 95
REMARK SMILES IDX 46 96 44 97
REMARK H PARENT 79 17 68 50 36 61
REMARK Flexibility Score: inf
ROOT
ATOM      1  C   UNL A   1      35.422  20.741  25.447  1.00  0.00     0.275 C 
ENDROOT
BRANCH   1   2
ATOM      2  O   UNL A   1      34.527  21.122  24.381  1.00  0.00    -0.457 OA
BRANCH   2   3
ATOM      3  C   UNL A   1      33.238  21.404  24.715  1.00  0.00     0.355 C 
ATOM      4  O   UNL A   1      32.339  20.579  24.745  1.00  0.00    -0.244 OA
BRANCH   3   5
ATOM      5  C   UNL A   1      33.082  22.848  25.153  1.00  0.00     0.131 C 
ATOM      6  C   UNL A   1      32.969  22.276  27.621  1.00  0.00     0.043 C 
ATOM      7  C   UNL A   1      32.961  23.237  26.453  1.00  0.00    -0.032 C 
ATOM      8  C   UNL A   1      32.850  24.687  26.912  1.00  0.00     0.105 C 
ATOM      9  N   UNL A   1      33.056  23.805  24.176  1.00  0.00    -0.289 N 
ATOM     10  S   UNL A   1      33.340  25.927  25.672  1.00  0.00    -0.129 SA
ATOM     11  C   UNL A   1      33.342  23.961  22.864  1.00  0.00     0.253 C 
ATOM     12  C   UNL A   1      32.427  25.096  24.368  1.00  0.00     0.181 C 
ATOM     13  O   UNL A   1      33.833  23.269  22.008  1.00  0.00    -0.272 OA
ATOM     14  C   UNL A   1      32.760  25.406  22.892  1.00  0.00     0.206 C 
BRANCH  14  15
ATOM     15  N   UNL A   1      33.707  26.492  22.557  1.00  0.00    -0.336 N 
ATOM     16  C   UNL A   1      33.410  27.811  22.295  1.00  0.00     0.270 C 
ATOM     17  H   UNL A   1      34.659  26.244  22.516  1.00  0.00     0.164 HD
ATOM     18  O   UNL A   1      34.241  28.483  21.689  1.00  0.00    -0.268 OA
BRANCH  16  19
ATOM     19  C   UNL A   1      32.144  28.349  22.736  1.00  0.00     0.126 A 
ATOM     20  C   UNL A   1      30.874  28.217  22.197  1.00  0.00     0.069 A 
ATOM     21  N   UNL A   1      31.949  29.049  23.901  1.00  0.00    -0.262 N 
ATOM     22  C   UNL A   1      29.986  28.893  23.077  1.00  0.00     0.167 A 
ATOM     23  N   UNL A   1      30.667  29.407  24.115  1.00  0.00    -0.168 NA
ATOM     24  C   UNL A   1      32.931  29.454  24.879  1.00  0.00     0.174 C 
BRANCH  22  25
ATOM     25  C   UNL A   1      28.491  29.023  22.933  1.00  0.00     0.435 C 
ATOM     26  F   UNL A   1      27.829  27.886  23.272  1.00  0.00    -0.164 F 
ATOM     27  F   UNL A   1      27.973  30.034  23.674  1.00  0.00    -0.164 F 
ATOM     28  F   UNL A   1      28.150  29.292  21.639  1.00  0.00    -0.164 F 
ENDBRANCH  22  25
ENDBRANCH  16  19
ENDBRANCH  14  15
ENDBRANCH   3   5
ENDBRANCH   2   3
ENDBRANCH   1   2
BRANCH   1  29
ATOM     29  C   UNL A   1      36.878  20.744  24.970  1.00  0.00     0.275 C 
BRANCH  29  30
ATOM     30  O   UNL A   1      37.607  21.853  25.531  1.00  0.00    -0.458 OA
BRANCH  30  31
ATOM     31  C   UNL A   1      38.835  21.538  25.997  1.00  0.00     0.338 C 
ATOM     32  O   UNL A   1      39.485  20.532  25.754  1.00  0.00    -0.246 OA
BRANCH  31  33
ATOM     33  C   UNL A   1      39.429  22.695  26.685  1.00  0.00     0.060 A 
ATOM     34  C   UNL A   1      38.923  23.937  26.315  1.00  0.00     0.016 A 
ATOM     35  C   UNL A   1      40.498  22.612  27.578  1.00  0.00     0.016 A 
ATOM     36  C   UNL A   1      39.472  25.105  26.823  1.00  0.00     0.010 A 
ATOM     37  C   UNL A   1      41.061  23.797  28.084  1.00  0.00     0.010 A 
ATOM     38  C   UNL A   1      40.558  25.054  27.697  1.00  0.00    -0.014 A 
BRANCH  38  39
ATOM     39  C   UNL A   1      41.210  26.342  28.054  1.00  0.00     0.031 A 
ATOM     40  C   UNL A   1      42.617  26.605  27.593  1.00  0.00     0.074 A 
ATOM     41  C   UNL A   1      40.510  27.326  28.651  1.00  0.00     0.049 A 
ATOM     42  N   UNL A   1      43.377  27.653  27.787  1.00  0.00    -0.248 NA
ATOM     43  C   UNL A   1      43.249  25.546  26.791  1.00  0.00     0.031 C 
ATOM     44  C   UNL A   1      39.104  27.244  29.045  1.00  0.00     0.029 A 
ATOM     45  N   UNL A   1      40.884  28.597  29.014  1.00  0.00    -0.354 N 
ATOM     46  C   UNL A   1      44.577  27.375  27.145  1.00  0.00     0.074 A 
ATOM     47  C   UNL A   1      44.457  26.046  26.584  1.00  0.00     0.031 C 
ATOM     48  C   UNL A   1      38.735  28.413  29.597  1.00  0.00     0.029 A 
ATOM     49  C   UNL A   1      39.889  29.308  29.638  1.00  0.00     0.049 A 
ATOM     50  H   UNL A   1      41.782  28.963  28.842  1.00  0.00     0.167 HD
ATOM     51  C   UNL A   1      45.676  28.158  27.030  1.00  0.00     0.037 A 
ATOM     52  C   UNL A   1      39.910  30.538  30.191  1.00  0.00     0.037 A 
ATOM     53  C   UNL A   1      45.788  29.489  27.571  1.00  0.00     0.049 A 
ATOM     54  C   UNL A   1      41.178  31.352  30.128  1.00  0.00     0.074 A 
ATOM     55  C   UNL A   1      46.872  30.348  27.534  1.00  0.00     0.029 A 
ATOM     56  N   UNL A   1      44.773  30.157  28.241  1.00  0.00    -0.354 N 
ATOM     57  N   UNL A   1      42.325  31.064  29.562  1.00  0.00    -0.248 NA
ATOM     58  C   UNL A   1      41.149  32.670  30.780  1.00  0.00     0.031 C 
ATOM     59  C   UNL A   1      46.541  31.504  28.248  1.00  0.00     0.029 A 
ATOM     60  C   UNL A   1      45.223  31.401  28.662  1.00  0.00     0.049 A 
ATOM     61  H   UNL A   1      43.868  29.803  28.396  1.00  0.00     0.167 HD
ATOM     62  C   UNL A   1      43.138  32.174  29.756  1.00  0.00     0.074 A 
ATOM     63  C   UNL A   1      42.346  33.149  30.474  1.00  0.00     0.031 C 
ATOM     64  C   UNL A   1      44.426  32.367  29.376  1.00  0.00     0.037 A 
BRANCH  51  65
ATOM     65  C   UNL A   1      46.877  27.564  26.349  1.00  0.00     0.064 A 
ATOM     66  C   UNL A   1      47.073  27.647  24.962  1.00  0.00     0.173 A 
ATOM     67  C   UNL A   1      47.855  26.902  27.110  1.00  0.00     0.173 A 
ATOM     68  F   UNL A   1      46.161  28.249  24.185  1.00  0.00    -0.203 F 
ATOM     69  C   UNL A   1      48.184  27.059  24.361  1.00  0.00     0.198 A 
ATOM     70  C   UNL A   1      48.982  26.349  26.509  1.00  0.00     0.198 A 
ATOM     71  F   UNL A   1      47.719  26.794  28.440  1.00  0.00    -0.203 F 
ATOM     72  F   UNL A   1      48.319  27.094  23.028  1.00  0.00    -0.200 F 
ATOM     73  C   UNL A   1      49.140  26.418  25.135  1.00  0.00     0.200 A 
ATOM     74  F   UNL A   1      49.909  25.741  27.261  1.00  0.00    -0.200 F 
ATOM     75  F   UNL A   1      50.209  25.854  24.554  1.00  0.00    -0.200 F 
ENDBRANCH  51  65
BRANCH  52  76
ATOM     76  C   UNL A   1      38.694  31.080  30.861  1.00  0.00     0.064 A 
ATOM     77  C   UNL A   1      38.519  30.979  32.250  1.00  0.00     0.173 A 
ATOM     78  C   UNL A   1      37.662  31.676  30.121  1.00  0.00     0.173 A 
ATOM     79  F   UNL A   1      39.462  30.396  33.004  1.00  0.00    -0.203 F 
ATOM     80  C   UNL A   1      37.352  31.428  32.866  1.00  0.00     0.198 A 
ATOM     81  C   UNL A   1      36.511  32.158  30.743  1.00  0.00     0.198 A 
ATOM     82  F   UNL A   1      37.771  31.794  28.790  1.00  0.00    -0.203 F 
ATOM     83  F   UNL A   1      37.190  31.264  34.186  1.00  0.00    -0.200 F 
ATOM     84  C   UNL A   1      36.352  32.023  32.113  1.00  0.00     0.200 A 
ATOM     85  F   UNL A   1      35.554  32.743  30.012  1.00  0.00    -0.200 F 
ATOM     86  F   UNL A   1      35.231  32.453  32.706  1.00  0.00    -0.200 F 
ENDBRANCH  52  76
BRANCH  64  87
ATOM     87  C   UNL A   1      45.052  33.698  29.701  1.00  0.00     0.064 A 
ATOM     88  C   UNL A   1      44.978  34.789  28.820  1.00  0.00     0.173 A 
ATOM     89  C   UNL A   1      45.720  33.890  30.921  1.00  0.00     0.173 A 
ATOM     90  F   UNL A   1      44.359  34.661  27.637  1.00  0.00    -0.203 F 
ATOM     91  C   UNL A   1      45.591  36.002  29.126  1.00  0.00     0.198 A 
ATOM     92  C   UNL A   1      46.296  35.118  31.241  1.00  0.00     0.198 A 
ATOM     93  F   UNL A   1      45.811  32.889  31.810  1.00  0.00    -0.203 F 
ATOM     94  F   UNL A   1      45.567  37.004  28.236  1.00  0.00    -0.200 F 
ATOM     95  C   UNL A   1      46.243  36.167  30.338  1.00  0.00     0.200 A 
ATOM     96  F   UNL A   1      46.907  35.282  32.423  1.00  0.00    -0.200 F 
ATOM     97  F   UNL A   1      46.831  37.336  30.631  1.00  0.00    -0.200 F 
ENDBRANCH  64  87
ENDBRANCH  38  39
ENDBRANCH  31  33
ENDBRANCH  30  31
ENDBRANCH  29  30
ENDBRANCH   1  29
TORSDOF 14
ENDMDL
MODEL 2
REMARK VINA RESULT:     -12.9      0.499      7.219
REMARK SMILES CC1=C(C(=O)OCCOC(=O)c2ccc(-c3c4nc(c(-c5c(F)c(F)c(F)c(F)c5F)c5ccc([nH]5)c(-c5c(F)c(F)c(F)c(F)c5F)c5nc(c(-c6c(F)c(F)c(F)c(F)c6F)c6ccc3[nH]6)C=C5)C=C4)cc2)N2C(=O)[C@H](NC(=O)c3cc(C(F)(F)F)nn3C)[C@@H]2SC1
REMARK SMILES IDX 7 1 6 2 4 3 5 4 3 5 1 6 2 7 94 8 75 9 93 10 76 11 92 12
REMARK SMILES IDX 77 13 78 14 79 15 80 16 81 18 82 19 83 20 90 21 84 22 89 23
REMARK SMILES IDX 91 24 85 25 86 26 87 27 88 28 8 29 9 30 10 31 11 32 12 33
REMARK SMILES IDX 13 34 74 35 14 36 73 37 15 38 16 39 17 40 67 41 18 42 72 43
REMARK SMILES IDX 66 44 68 45 19 46 71 47 65 48 64 49 20 51 52 52 32 53 51 54
REMARK SMILES IDX 33 55 36 56 50 57 69 58 34 59 35 60 49 62 70 63 37 64 21 65
REMARK SMILES IDX 22 66 30 67 23 68 24 69 28 70 31 71 25 72 26 73 29 74 27 75
REMARK SMILES IDX 53 76 54 77 62 78 55 79 56 80 60 81 63 82 57 83 58 84 61 85
REMARK SMILES IDX 59 86 38 87 39 88 47 89 40 90 41 91 45 92 48 93 42 94 43 95
REMARK SMILES IDX 46 96 44 97
REMARK H PARENT 79 17 68 50 36 61
REMARK Flexibility Score: inf
ROOT
ATOM      1  C   UNL A   1      35.184  20.668  25.380  1.00  0.00     0.275 C 
ENDROOT
BRANCH   1   2
ATOM      2  O   UNL A   1      34.350  21.119  24.292  1.00  0.00    -0.457 OA
BRANCH   2   3
ATOM      3  C   UNL A   1      33.054  21.422  24.579  1.00  0.00     0.355 C 
ATOM      4  O   UNL A   1      32.136  20.619  24.542  1.00  0.00    -0.244 OA
BRANCH   3   5
ATOM      5  C   UNL A   1      32.914  22.854  25.062  1.00  0.00     0.131 C 
ATOM      6  C   UNL A   1      32.742  22.205  27.507  1.00  0.00     0.043 C 
ATOM      7  C   UNL A   1      32.773  23.203  26.370  1.00  0.00    -0.032 C 
ATOM      8  C   UNL A   1      32.676  24.639  26.874  1.00  0.00     0.105 C 
ATOM      9  N   UNL A   1      32.922  23.842  24.115  1.00  0.00    -0.289 N 
ATOM     10  S   UNL A   1      33.212  25.910  25.685  1.00  0.00    -0.129 SA
ATOM     11  C   UNL A   1      33.238  24.035  22.815  1.00  0.00     0.253 C 
ATOM     12  C   UNL A   1      32.311  25.137  24.337  1.00  0.00     0.181 C 
ATOM     13  O   UNL A   1      33.734  23.362  21.947  1.00  0.00    -0.272 OA
ATOM     14  C   UNL A   1      32.679  25.489  22.879  1.00  0.00     0.206 C 
BRANCH  14  15
ATOM     15  N   UNL A   1      33.651  26.568  22.598  1.00  0.00    -0.336 N 
ATOM     16  C   UNL A   1      33.381  27.900  22.376  1.00  0.00     0.270 C 
ATOM     17  H   UNL A   1      34.599  26.305  22.564  1.00  0.00     0.164 HD
ATOM     18  O   UNL A   1      34.234  28.578  21.809  1.00  0.00    -0.268 OA
BRANCH  16  19
ATOM     19  C   UNL A   1      32.117  28.445  22.814  1.00  0.00     0.126 A 
ATOM     20  C   UNL A   1      30.864  28.402  22.222  1.00  0.00     0.069 A 
ATOM     21  N   UNL A   1      31.900  29.056  24.025  1.00  0.00    -0.262 N 
ATOM     22  C   UNL A   1      29.966  29.035  23.122  1.00  0.00     0.167 A 
ATOM     23  N   UNL A   1      30.623  29.441  24.222  1.00  0.00    -0.168 NA
ATOM     24  C   UNL A   1      32.856  29.347  25.067  1.00  0.00     0.174 C 
BRANCH  22  25
ATOM     25  C   UNL A   1      28.483  29.229  22.936  1.00  0.00     0.435 C 
ATOM     26  F   UNL A   1      28.126  29.331  21.629  1.00  0.00    -0.164 F 
ATOM     27  F   UNL A   1      27.745  28.232  23.485  1.00  0.00    -0.164 F 
ATOM     28  F   UNL A   1      28.064  30.381  23.538  1.00  0.00    -0.164 F 
ENDBRANCH  22  25
ENDBRANCH  16  19
ENDBRANCH  14  15
ENDBRANCH   3   5
ENDBRANCH   2   3
ENDBRANCH   1   2
BRANCH   1  29
ATOM     29  C   UNL A   1      36.664  20.702  24.989  1.00  0.00     0.275 C 
BRANCH  29  30
ATOM     30  O   UNL A   1      37.369  21.732  25.709  1.00  0.00    -0.458 OA
BRANCH  30  31
ATOM     31  C   UNL A   1      38.644  21.419  26.030  1.00  0.00     0.338 C 
ATOM     32  O   UNL A   1      39.249  20.393  25.753  1.00  0.00    -0.246 OA
BRANCH  31  33
ATOM     33  C   UNL A   1      39.331  22.595  26.587  1.00  0.00     0.060 A 
ATOM     34  C   UNL A   1      38.879  23.827  26.124  1.00  0.00     0.016 A 
ATOM     35  C   UNL A   1      40.432  22.528  27.441  1.00  0.00     0.016 A 
ATOM     36  C   UNL A   1      39.515  25.000  26.502  1.00  0.00     0.010 A 
ATOM     37  C   UNL A   1      41.082  23.718  27.815  1.00  0.00     0.010 A 
ATOM     38  C   UNL A   1      40.633  24.963  27.334  1.00  0.00    -0.014 A 
BRANCH  38  39
ATOM     39  C   UNL A   1      41.371  26.237  27.546  1.00  0.00     0.031 A 
ATOM     40  C   UNL A   1      40.731  27.329  28.358  1.00  0.00     0.074 A 
ATOM     41  C   UNL A   1      42.652  26.364  27.150  1.00  0.00     0.049 A 
ATOM     42  N   UNL A   1      41.189  28.515  28.669  1.00  0.00    -0.248 NA
ATOM     43  C   UNL A   1      39.397  27.038  28.904  1.00  0.00     0.031 C 
ATOM     44  C   UNL A   1      43.430  25.337  26.458  1.00  0.00     0.029 A 
ATOM     45  N   UNL A   1      43.533  27.409  27.293  1.00  0.00    -0.354 N 
ATOM     46  C   UNL A   1      40.198  29.115  29.434  1.00  0.00     0.074 A 
ATOM     47  C   UNL A   1      39.099  28.176  29.512  1.00  0.00     0.031 C 
ATOM     48  C   UNL A   1      44.670  25.804  26.233  1.00  0.00     0.029 A 
ATOM     49  C   UNL A   1      44.761  27.178  26.724  1.00  0.00     0.049 A 
ATOM     50  H   UNL A   1      43.304  28.245  27.759  1.00  0.00     0.167 HD
ATOM     51  C   UNL A   1      40.204  30.335  30.023  1.00  0.00     0.037 A 
ATOM     52  C   UNL A   1      45.833  27.986  26.601  1.00  0.00     0.037 A 
ATOM     53  C   UNL A   1      41.306  31.261  29.962  1.00  0.00     0.049 A 
ATOM     54  C   UNL A   1      45.778  29.376  27.186  1.00  0.00     0.074 A 
ATOM     55  C   UNL A   1      41.395  32.535  30.498  1.00  0.00     0.029 A 
ATOM     56  N   UNL A   1      42.517  31.010  29.332  1.00  0.00    -0.354 N 
ATOM     57  N   UNL A   1      44.819  29.955  27.867  1.00  0.00    -0.248 NA
ATOM     58  C   UNL A   1      46.964  30.222  26.989  1.00  0.00     0.031 C 
ATOM     59  C   UNL A   1      42.627  33.082  30.127  1.00  0.00     0.029 A 
ATOM     60  C   UNL A   1      43.341  32.122  29.429  1.00  0.00     0.049 A 
ATOM     61  H   UNL A   1      42.757  30.167  28.884  1.00  0.00     0.167 HD
ATOM     62  C   UNL A   1      45.297  31.214  28.210  1.00  0.00     0.074 A 
ATOM     63  C   UNL A   1      46.641  31.305  27.679  1.00  0.00     0.031 C 
ATOM     64  C   UNL A   1      44.679  32.205  28.898  1.00  0.00     0.037 A 
BRANCH  51  65
ATOM     65  C   UNL A   1      38.948  30.768  30.725  1.00  0.00     0.064 A 
ATOM     66  C   UNL A   1      38.769  30.614  32.108  1.00  0.00     0.173 A 
ATOM     67  C   UNL A   1      37.905  31.356  29.991  1.00  0.00     0.173 A 
ATOM     68  F   UNL A   1      39.724  30.040  32.855  1.00  0.00    -0.203 F 
ATOM     69  C   UNL A   1      37.580  31.002  32.722  1.00  0.00     0.198 A 
ATOM     70  C   UNL A   1      36.733  31.775  30.615  1.00  0.00     0.198 A 
ATOM     71  F   UNL A   1      38.023  31.529  28.666  1.00  0.00    -0.203 F 
ATOM     72  F   UNL A   1      37.404  30.787  34.033  1.00  0.00    -0.200 F 
ATOM     73  C   UNL A   1      36.566  31.588  31.977  1.00  0.00     0.200 A 
ATOM     74  F   UNL A   1      35.762  32.352  29.894  1.00  0.00    -0.200 F 
ATOM     75  F   UNL A   1      35.424  31.960  32.570  1.00  0.00    -0.200 F 
ENDBRANCH  51  65
BRANCH  52  76
ATOM     76  C   UNL A   1      47.053  27.512  25.888  1.00  0.00     0.064 A 
ATOM     77  C   UNL A   1      48.125  26.931  26.583  1.00  0.00     0.173 A 
ATOM     78  C   UNL A   1      47.188  27.664  24.501  1.00  0.00     0.173 A 
ATOM     79  F   UNL A   1      48.061  26.784  27.914  1.00  0.00    -0.203 F 
ATOM     80  C   UNL A   1      49.291  26.548  25.923  1.00  0.00     0.198 A 
ATOM     81  C   UNL A   1      48.340  27.246  23.836  1.00  0.00     0.198 A 
ATOM     82  F   UNL A   1      46.198  28.217  23.785  1.00  0.00    -0.203 F 
ATOM     83  F   UNL A   1      50.321  26.052  26.622  1.00  0.00    -0.200 F 
ATOM     84  C   UNL A   1      49.395  26.700  24.549  1.00  0.00     0.200 A 
ATOM     85  F   UNL A   1      48.430  27.384  22.507  1.00  0.00    -0.200 F 
ATOM     86  F   UNL A   1      50.517  26.332  23.916  1.00  0.00    -0.200 F 
ENDBRANCH  52  76
BRANCH  64  87
ATOM     87  C   UNL A   1      45.462  33.467  29.148  1.00  0.00     0.064 A 
ATOM     88  C   UNL A   1      46.275  33.625  30.282  1.00  0.00     0.173 A 
ATOM     89  C   UNL A   1      45.411  34.528  28.231  1.00  0.00     0.173 A 
ATOM     90  F   UNL A   1      46.357  32.647  31.197  1.00  0.00    -0.203 F 
ATOM     91  C   UNL A   1      46.966  34.812  30.511  1.00  0.00     0.198 A 
ATOM     92  C   UNL A   1      46.137  35.699  28.442  1.00  0.00     0.198 A 
ATOM     93  F   UNL A   1      44.663  34.431  27.121  1.00  0.00    -0.203 F 
ATOM     94  F   UNL A   1      47.678  34.964  31.636  1.00  0.00    -0.200 F 
ATOM     95  C   UNL A   1      46.902  35.845  29.588  1.00  0.00     0.200 A 
ATOM     96  F   UNL A   1      46.090  36.687  27.538  1.00  0.00    -0.200 F 
ATOM     97  F   UNL A   1      47.569  36.987  29.809  1.00  0.00    -0.200 F 
ENDBRANCH  64  87
ENDBRANCH  38  39
ENDBRANCH  31  33
ENDBRANCH  30  31
ENDBRANCH  29  30
ENDBRANCH   1  29
TORSDOF 14
ENDMDL
MODEL 3
REMARK VINA RESULT:     -12.8      4.488      9.666
REMARK SMILES CC1=C(C(=O)OCCOC(=O)c2ccc(-c3c4nc(c(-c5c(F)c(F)c(F)c(F)c5F)c5ccc([nH]5)c(-c5c(F)c(F)c(F)c(F)c5F)c5nc(c(-c6c(F)c(F)c(F)c(F)c6F)c6ccc3[nH]6)C=C5)C=C4)cc2)N2C(=O)[C@H](NC(=O)c3cc(C(F)(F)F)nn3C)[C@@H]2SC1
REMARK SMILES IDX 7 1 6 2 4 3 5 4 3 5 1 6 2 7 94 8 75 9 93 10 76 11 92 12
REMARK SMILES IDX 77 13 78 14 79 15 80 16 81 18 82 19 83 20 90 21 84 22 89 23
REMARK SMILES IDX 91 24 85 25 86 26 87 27 88 28 8 29 9 30 10 31 11 32 12 33
REMARK SMILES IDX 13 34 74 35 14 36 73 37 15 38 16 39 17 40 67 41 18 42 72 43
REMARK SMILES IDX 66 44 68 45 19 46 71 47 65 48 64 49 20 51 52 52 32 53 51 54
REMARK SMILES IDX 33 55 36 56 50 57 69 58 34 59 35 60 49 62 70 63 37 64 21 65
REMARK SMILES IDX 22 66 30 67 23 68 24 69 28 70 31 71 25 72 26 73 29 74 27 75
REMARK SMILES IDX 53 76 54 77 62 78 55 79 56 80 60 81 63 82 57 83 58 84 61 85
REMARK SMILES IDX 59 86 38 87 39 88 47 89 40 90 41 91 45 92 48 93 42 94 43 95
REMARK SMILES IDX 46 96 44 97
REMARK H PARENT 79 17 68 50 36 61
REMARK Flexibility Score: inf
ROOT
ATOM      1  C   UNL A   1      31.371  29.028  25.410  1.00  0.00     0.275 C 
ENDROOT
BRANCH   1   2
ATOM      2  O   UNL A   1      31.162  29.002  23.982  1.00  0.00    -0.457 OA
BRANCH   2   3
ATOM      3  C   UNL A   1      30.891  27.798  23.409  1.00  0.00     0.355 C 
ATOM      4  O   UNL A   1      29.897  27.560  22.744  1.00  0.00    -0.244 OA
BRANCH   3   5
ATOM      5  C   UNL A   1      32.036  26.821  23.608  1.00  0.00     0.131 C 
ATOM      6  C   UNL A   1      33.591  28.039  22.019  1.00  0.00     0.043 C 
ATOM      7  C   UNL A   1      33.241  26.929  22.985  1.00  0.00    -0.032 C 
ATOM      8  C   UNL A   1      34.416  25.981  23.209  1.00  0.00     0.105 C 
ATOM      9  N   UNL A   1      31.827  25.770  24.459  1.00  0.00    -0.289 N 
ATOM     10  S   UNL A   1      34.293  24.943  24.700  1.00  0.00    -0.129 SA
ATOM     11  C   UNL A   1      30.969  25.365  25.422  1.00  0.00     0.253 C 
ATOM     12  C   UNL A   1      32.577  24.533  24.367  1.00  0.00     0.181 C 
ATOM     13  O   UNL A   1      30.020  25.853  25.981  1.00  0.00    -0.272 OA
ATOM     14  C   UNL A   1      31.692  23.987  25.508  1.00  0.00     0.206 C 
BRANCH  14  15
ATOM     15  N   UNL A   1      32.293  23.653  26.819  1.00  0.00    -0.336 N 
ATOM     16  C   UNL A   1      32.765  22.428  27.234  1.00  0.00     0.270 C 
ATOM     17  H   UNL A   1      32.362  24.389  27.468  1.00  0.00     0.164 HD
ATOM     18  O   UNL A   1      32.889  22.234  28.441  1.00  0.00    -0.268 OA
BRANCH  16  19
ATOM     19  C   UNL A   1      33.093  21.426  26.246  1.00  0.00     0.126 A 
ATOM     20  C   UNL A   1      32.273  20.582  25.515  1.00  0.00     0.069 A 
ATOM     21  N   UNL A   1      34.352  21.191  25.752  1.00  0.00    -0.262 N 
ATOM     22  C   UNL A   1      33.120  19.854  24.635  1.00  0.00     0.167 A 
ATOM     23  N   UNL A   1      34.397  20.235  24.803  1.00  0.00    -0.168 NA
ATOM     24  C   UNL A   1      35.598  21.812  26.138  1.00  0.00     0.174 C 
BRANCH  22  25
ATOM     25  C   UNL A   1      32.700  18.816  23.626  1.00  0.00     0.435 C 
ATOM     26  F   UNL A   1      33.741  18.068  23.177  1.00  0.00    -0.164 F 
ATOM     27  F   UNL A   1      31.758  17.964  24.102  1.00  0.00    -0.164 F 
ATOM     28  F   UNL A   1      32.150  19.406  22.523  1.00  0.00    -0.164 F 
ENDBRANCH  22  25
ENDBRANCH  16  19
ENDBRANCH  14  15
ENDBRANCH   3   5
ENDBRANCH   2   3
ENDBRANCH   1   2
BRANCH   1  29
ATOM     29  C   UNL A   1      31.851  30.408  25.871  1.00  0.00     0.275 C 
BRANCH  29  30
ATOM     30  O   UNL A   1      32.806  30.295  26.944  1.00  0.00    -0.458 OA
BRANCH  30  31
ATOM     31  C   UNL A   1      33.414  31.454  27.278  1.00  0.00     0.338 C 
ATOM     32  O   UNL A   1      32.903  32.560  27.371  1.00  0.00    -0.246 OA
BRANCH  31  33
ATOM     33  C   UNL A   1      34.781  31.191  27.757  1.00  0.00     0.060 A 
ATOM     34  C   UNL A   1      35.075  29.859  28.024  1.00  0.00     0.016 A 
ATOM     35  C   UNL A   1      35.718  32.186  28.037  1.00  0.00     0.016 A 
ATOM     36  C   UNL A   1      36.298  29.501  28.573  1.00  0.00     0.010 A 
ATOM     37  C   UNL A   1      36.953  31.824  28.603  1.00  0.00     0.010 A 
ATOM     38  C   UNL A   1      37.244  30.476  28.888  1.00  0.00    -0.014 A 
BRANCH  38  39
ATOM     39  C   UNL A   1      38.451  30.041  29.641  1.00  0.00     0.031 A 
ATOM     40  C   UNL A   1      38.643  30.512  31.055  1.00  0.00     0.074 A 
ATOM     41  C   UNL A   1      39.288  29.120  29.126  1.00  0.00     0.049 A 
ATOM     42  N   UNL A   1      39.615  30.259  31.895  1.00  0.00    -0.248 NA
ATOM     43  C   UNL A   1      37.586  31.377  31.603  1.00  0.00     0.031 C 
ATOM     44  C   UNL A   1      39.151  28.493  27.811  1.00  0.00     0.029 A 
ATOM     45  N   UNL A   1      40.412  28.536  29.657  1.00  0.00    -0.354 N 
ATOM     46  C   UNL A   1      39.295  30.941  33.061  1.00  0.00     0.074 A 
ATOM     47  C   UNL A   1      38.056  31.647  32.811  1.00  0.00     0.031 C 
ATOM     48  C   UNL A   1      40.154  27.615  27.639  1.00  0.00     0.029 A 
ATOM     49  C   UNL A   1      41.029  27.650  28.809  1.00  0.00     0.049 A 
ATOM     50  H   UNL A   1      40.744  28.734  30.563  1.00  0.00     0.167 HD
ATOM     51  C   UNL A   1      39.969  30.973  34.236  1.00  0.00     0.037 A 
ATOM     52  C   UNL A   1      42.176  26.956  28.954  1.00  0.00     0.037 A 
ATOM     53  C   UNL A   1      41.191  30.254  34.491  1.00  0.00     0.049 A 
ATOM     54  C   UNL A   1      42.956  27.083  30.238  1.00  0.00     0.074 A 
ATOM     55  C   UNL A   1      41.967  30.248  35.638  1.00  0.00     0.029 A 
ATOM     56  N   UNL A   1      41.813  29.405  33.587  1.00  0.00    -0.354 N 
ATOM     57  N   UNL A   1      42.673  27.767  31.320  1.00  0.00    -0.248 NA
ATOM     58  C   UNL A   1      44.216  26.329  30.322  1.00  0.00     0.031 C 
ATOM     59  C   UNL A   1      43.096  29.459  35.401  1.00  0.00     0.029 A 
ATOM     60  C   UNL A   1      42.986  28.906  34.135  1.00  0.00     0.049 A 
ATOM     61  H   UNL A   1      41.473  29.187  32.689  1.00  0.00     0.167 HD
ATOM     62  C   UNL A   1      43.695  27.500  32.222  1.00  0.00     0.074 A 
ATOM     63  C   UNL A   1      44.594  26.574  31.567  1.00  0.00     0.031 C 
ATOM     64  C   UNL A   1      43.876  27.982  33.477  1.00  0.00     0.037 A 
BRANCH  51  65
ATOM     65  C   UNL A   1      39.435  31.874  35.313  1.00  0.00     0.064 A 
ATOM     66  C   UNL A   1      38.543  31.422  36.297  1.00  0.00     0.173 A 
ATOM     67  C   UNL A   1      39.834  33.220  35.360  1.00  0.00     0.173 A 
ATOM     68  F   UNL A   1      38.112  30.151  36.288  1.00  0.00    -0.203 F 
ATOM     69  C   UNL A   1      38.045  32.292  37.265  1.00  0.00     0.198 A 
ATOM     70  C   UNL A   1      39.363  34.076  36.351  1.00  0.00     0.198 A 
ATOM     71  F   UNL A   1      40.686  33.706  34.445  1.00  0.00    -0.203 F 
ATOM     72  F   UNL A   1      37.144  31.855  38.157  1.00  0.00    -0.200 F 
ATOM     73  C   UNL A   1      38.460  33.615  37.296  1.00  0.00     0.200 A 
ATOM     74  F   UNL A   1      39.776  35.351  36.384  1.00  0.00    -0.200 F 
ATOM     75  F   UNL A   1      37.981  34.450  38.228  1.00  0.00    -0.200 F 
ENDBRANCH  51  65
BRANCH  52  76
ATOM     76  C   UNL A   1      42.667  26.081  27.851  1.00  0.00     0.064 A 
ATOM     77  C   UNL A   1      43.468  26.589  26.817  1.00  0.00     0.173 A 
ATOM     78  C   UNL A   1      42.314  24.726  27.789  1.00  0.00     0.173 A 
ATOM     79  F   UNL A   1      43.816  27.884  26.812  1.00  0.00    -0.203 F 
ATOM     80  C   UNL A   1      43.872  25.784  25.754  1.00  0.00     0.198 A 
ATOM     81  C   UNL A   1      42.750  23.912  26.744  1.00  0.00     0.198 A 
ATOM     82  F   UNL A   1      41.546  24.186  28.747  1.00  0.00    -0.203 F 
ATOM     83  F   UNL A   1      44.586  26.313  24.751  1.00  0.00    -0.200 F 
ATOM     84  C   UNL A   1      43.518  24.444  25.722  1.00  0.00     0.200 A 
ATOM     85  F   UNL A   1      42.414  22.615  26.724  1.00  0.00    -0.200 F 
ATOM     86  F   UNL A   1      43.907  23.672  24.698  1.00  0.00    -0.200 F 
ENDBRANCH  52  76
BRANCH  64  87
ATOM     87  C   UNL A   1      45.076  27.488  34.242  1.00  0.00     0.064 A 
ATOM     88  C   UNL A   1      46.310  28.155  34.199  1.00  0.00     0.173 A 
ATOM     89  C   UNL A   1      44.983  26.340  35.045  1.00  0.00     0.173 A 
ATOM     90  F   UNL A   1      46.460  29.253  33.443  1.00  0.00    -0.203 F 
ATOM     91  C   UNL A   1      47.417  27.664  34.889  1.00  0.00     0.198 A 
ATOM     92  C   UNL A   1      46.080  25.876  35.767  1.00  0.00     0.198 A 
ATOM     93  F   UNL A   1      43.825  25.669  35.138  1.00  0.00    -0.203 F 
ATOM     94  F   UNL A   1      48.602  28.278  34.773  1.00  0.00    -0.200 F 
ATOM     95  C   UNL A   1      47.298  26.529  35.677  1.00  0.00     0.200 A 
ATOM     96  F   UNL A   1      45.958  24.791  36.545  1.00  0.00    -0.200 F 
ATOM     97  F   UNL A   1      48.364  26.058  36.341  1.00  0.00    -0.200 F 
ENDBRANCH  64  87
ENDBRANCH  38  39
ENDBRANCH  31  33
ENDBRANCH  30  31
ENDBRANCH  29  30
ENDBRANCH   1  29
TORSDOF 14
ENDMDL
