MODEL 1
REMARK VINA RESULT:     -11.7      0.000      0.000
REMARK SMILES COC(=O)C[C@H](c1ccc(C(=O)OCCOC(=O)c2ccc(-c3c4nc(c(-c5c(F)c(F)c(F)c(F)c5F)c5ccc([nH]5)c(-c5c(F)c(F)c(F)c(F)c5F)c5nc(c(-c6c(F)c(F)c(F)c(F)c6F)c6ccc3[nH]6)C=C5)C=C4)cc2)cc1)c1c(O)n[nH]c1C
REMARK SMILES IDX 14 1 13 2 11 3 12 4 10 5 7 6 8 7 83 8 9 9 82 10 6 11 5 12
REMARK SMILES IDX 3 13 4 14 2 15 1 16 84 17 85 18 89 19 87 20 88 21 90 22
REMARK SMILES IDX 86 24 15 26 16 27 17 28 18 29 19 30 20 31 81 32 21 33 80 34
REMARK SMILES IDX 22 35 23 36 24 37 74 38 25 39 79 40 73 41 75 42 26 43 78 44
REMARK SMILES IDX 72 45 71 46 27 48 59 49 39 50 58 51 40 52 43 53 57 54 76 55
REMARK SMILES IDX 41 56 42 57 56 59 77 60 44 61 28 62 29 63 37 64 30 65 31 66
REMARK SMILES IDX 35 67 38 68 32 69 33 70 36 71 34 72 60 73 61 74 69 75 62 76
REMARK SMILES IDX 63 77 67 78 70 79 64 80 65 81 68 82 66 83 45 84 46 85 54 86
REMARK SMILES IDX 47 87 48 88 52 89 55 90 49 91 50 92 53 93 51 94
REMARK H PARENT 88 23 86 25 75 47 43 58
REMARK Flexibility Score: inf
ROOT
ATOM      1  C   UNL A   1      42.518  20.875  26.241  1.00  0.00     0.275 C 
ENDROOT
BRANCH   1   2
ATOM      2  O   UNL A   1      41.166  21.047  25.777  1.00  0.00    -0.458 OA
BRANCH   2   3
ATOM      3  C   UNL A   1      40.267  21.432  26.716  1.00  0.00     0.338 C 
ATOM      4  O   UNL A   1      40.444  21.425  27.926  1.00  0.00    -0.246 OA
BRANCH   3   5
ATOM      5  C   UNL A   1      39.046  22.005  26.091  1.00  0.00     0.060 A 
ATOM      6  C   UNL A   1      36.570  22.876  25.036  1.00  0.00    -0.040 A 
ATOM      7  C   UNL A   1      37.032  21.571  24.807  1.00  0.00     0.005 A 
ATOM      8  C   UNL A   1      37.397  23.752  25.766  1.00  0.00     0.005 A 
ATOM      9  C   UNL A   1      38.265  21.151  25.306  1.00  0.00     0.016 A 
ATOM     10  C   UNL A   1      38.618  23.319  26.303  1.00  0.00     0.016 A 
BRANCH   6  11
ATOM     11  C   UNL A   1      35.229  23.365  24.500  1.00  0.00     0.068 C 
BRANCH  11  12
ATOM     12  C   UNL A   1      34.959  22.980  23.035  1.00  0.00     0.136 C 
BRANCH  12  13
ATOM     13  C   UNL A   1      33.718  23.645  22.508  1.00  0.00     0.306 C 
ATOM     14  O   UNL A   1      32.630  23.092  22.411  1.00  0.00    -0.252 OA
BRANCH  13  15
ATOM     15  O   UNL A   1      33.970  24.945  22.194  1.00  0.00    -0.469 OA
ATOM     16  C   UNL A   1      33.078  25.877  22.806  1.00  0.00     0.282 C 
ENDBRANCH  13  15
ENDBRANCH  12  13
ENDBRANCH  11  12
BRANCH  11  17
ATOM     17  C   UNL A   1      34.119  22.893  25.420  1.00  0.00     0.044 A 
ATOM     18  C   UNL A   1      33.374  23.763  26.246  1.00  0.00     0.234 A 
ATOM     19  C   UNL A   1      33.561  21.655  25.744  1.00  0.00     0.040 A 
ATOM     20  N   UNL A   1      32.435  23.200  26.981  1.00  0.00    -0.137 NA
ATOM     21  N   UNL A   1      32.564  21.907  26.659  1.00  0.00    -0.279 N 
ATOM     22  C   UNL A   1      33.827  20.254  25.330  1.00  0.00     0.066 C 
ATOM     23  H   UNL A   1      31.997  21.199  27.042  1.00  0.00     0.190 HD
BRANCH  18  24
ATOM     24  O   UNL A   1      33.469  25.082  26.391  1.00  0.00    -0.492 OA
ATOM     25  H   UNL A   1      34.312  25.494  26.396  1.00  0.00     0.295 HD
ENDBRANCH  18  24
ENDBRANCH  11  17
ENDBRANCH   6  11
ENDBRANCH   3   5
ENDBRANCH   2   3
ENDBRANCH   1   2
BRANCH   1  26
ATOM     26  C   UNL A   1      43.485  21.776  25.472  1.00  0.00     0.275 C 
BRANCH  26  27
ATOM     27  O   UNL A   1      42.825  22.951  24.964  1.00  0.00    -0.458 OA
BRANCH  27  28
ATOM     28  C   UNL A   1      43.545  24.094  25.028  1.00  0.00     0.338 C 
ATOM     29  O   UNL A   1      44.534  24.396  24.383  1.00  0.00    -0.246 OA
BRANCH  28  30
ATOM     30  C   UNL A   1      42.921  25.020  25.985  1.00  0.00     0.060 A 
ATOM     31  C   UNL A   1      43.333  26.351  25.976  1.00  0.00     0.016 A 
ATOM     32  C   UNL A   1      42.055  24.556  26.973  1.00  0.00     0.016 A 
ATOM     33  C   UNL A   1      42.907  27.227  26.972  1.00  0.00     0.010 A 
ATOM     34  C   UNL A   1      41.603  25.444  27.960  1.00  0.00     0.010 A 
ATOM     35  C   UNL A   1      42.044  26.781  27.981  1.00  0.00    -0.014 A 
BRANCH  35  36
ATOM     36  C   UNL A   1      41.659  27.686  29.097  1.00  0.00     0.031 A 
ATOM     37  C   UNL A   1      42.467  27.694  30.366  1.00  0.00     0.074 A 
ATOM     38  C   UNL A   1      40.601  28.511  28.979  1.00  0.00     0.049 A 
ATOM     39  N   UNL A   1      42.211  28.273  31.513  1.00  0.00    -0.248 NA
ATOM     40  C   UNL A   1      43.733  26.947  30.340  1.00  0.00     0.031 C 
ATOM     41  C   UNL A   1      39.768  28.653  27.786  1.00  0.00     0.029 A 
ATOM     42  N   UNL A   1      40.044  29.384  29.882  1.00  0.00    -0.354 N 
ATOM     43  C   UNL A   1      43.254  27.918  32.357  1.00  0.00     0.074 A 
ATOM     44  C   UNL A   1      44.151  27.079  31.592  1.00  0.00     0.031 C 
ATOM     45  C   UNL A   1      38.813  29.566  28.026  1.00  0.00     0.029 A 
ATOM     46  C   UNL A   1      38.925  30.023  29.409  1.00  0.00     0.049 A 
ATOM     47  H   UNL A   1      40.413  29.538  30.781  1.00  0.00     0.167 HD
ATOM     48  C   UNL A   1      43.441  28.260  33.655  1.00  0.00     0.037 A 
ATOM     49  C   UNL A   1      38.062  30.851  30.029  1.00  0.00     0.037 A 
ATOM     50  C   UNL A   1      42.572  29.130  34.403  1.00  0.00     0.049 A 
ATOM     51  C   UNL A   1      38.272  31.188  31.480  1.00  0.00     0.074 A 
ATOM     52  C   UNL A   1      42.680  29.536  35.723  1.00  0.00     0.029 A 
ATOM     53  N   UNL A   1      41.438  29.742  33.890  1.00  0.00    -0.354 N 
ATOM     54  N   UNL A   1      39.229  30.804  32.288  1.00  0.00    -0.248 NA
ATOM     55  C   UNL A   1      37.271  32.062  32.109  1.00  0.00     0.031 C 
ATOM     56  C   UNL A   1      41.597  30.369  36.017  1.00  0.00     0.029 A 
ATOM     57  C   UNL A   1      40.834  30.516  34.869  1.00  0.00     0.049 A 
ATOM     58  H   UNL A   1      41.111  29.642  32.967  1.00  0.00     0.167 HD
ATOM     59  C   UNL A   1      38.957  31.399  33.513  1.00  0.00     0.074 A 
ATOM     60  C   UNL A   1      37.752  32.182  33.339  1.00  0.00     0.031 C 
ATOM     61  C   UNL A   1      39.642  31.300  34.677  1.00  0.00     0.037 A 
BRANCH  48  62
ATOM     62  C   UNL A   1      44.617  27.659  34.368  1.00  0.00     0.064 A 
ATOM     63  C   UNL A   1      44.526  26.436  35.048  1.00  0.00     0.173 A 
ATOM     64  C   UNL A   1      45.863  28.305  34.337  1.00  0.00     0.173 A 
ATOM     65  F   UNL A   1      43.353  25.790  35.121  1.00  0.00    -0.203 F 
ATOM     66  C   UNL A   1      45.637  25.891  35.687  1.00  0.00     0.198 A 
ATOM     67  C   UNL A   1      46.976  27.744  34.956  1.00  0.00     0.198 A 
ATOM     68  F   UNL A   1      46.002  29.475  33.698  1.00  0.00    -0.203 F 
ATOM     69  F   UNL A   1      45.519  24.741  36.367  1.00  0.00    -0.200 F 
ATOM     70  C   UNL A   1      46.862  26.541  35.636  1.00  0.00     0.200 A 
ATOM     71  F   UNL A   1      48.161  28.369  34.896  1.00  0.00    -0.200 F 
ATOM     72  F   UNL A   1      47.930  26.011  36.248  1.00  0.00    -0.200 F 
ENDBRANCH  48  62
BRANCH  49  73
ATOM     73  C   UNL A   1      36.894  31.390  29.286  1.00  0.00     0.064 A 
ATOM     74  C   UNL A   1      36.849  32.732  28.886  1.00  0.00     0.173 A 
ATOM     75  C   UNL A   1      35.799  30.575  28.962  1.00  0.00     0.173 A 
ATOM     76  F   UNL A   1      37.859  33.557  29.200  1.00  0.00    -0.203 F 
ATOM     77  C   UNL A   1      35.751  33.240  28.197  1.00  0.00     0.198 A 
ATOM     78  C   UNL A   1      34.714  31.077  28.249  1.00  0.00     0.198 A 
ATOM     79  F   UNL A   1      35.791  29.284  29.328  1.00  0.00    -0.203 F 
ATOM     80  F   UNL A   1      35.715  34.537  27.860  1.00  0.00    -0.200 F 
ATOM     81  C   UNL A   1      34.688  32.411  27.871  1.00  0.00     0.200 A 
ATOM     82  F   UNL A   1      33.694  30.269  27.928  1.00  0.00    -0.200 F 
ATOM     83  F   UNL A   1      33.634  32.899  27.202  1.00  0.00    -0.200 F 
ENDBRANCH  49  73
BRANCH  61  84
ATOM     84  C   UNL A   1      39.129  32.087  35.845  1.00  0.00     0.064 A 
ATOM     85  C   UNL A   1      38.279  31.513  36.801  1.00  0.00     0.173 A 
ATOM     86  C   UNL A   1      39.529  33.419  36.033  1.00  0.00     0.173 A 
ATOM     87  F   UNL A   1      37.857  30.248  36.656  1.00  0.00    -0.203 F 
ATOM     88  C   UNL A   1      37.831  32.252  37.893  1.00  0.00     0.198 A 
ATOM     89  C   UNL A   1      39.096  34.147  37.137  1.00  0.00     0.198 A 
ATOM     90  F   UNL A   1      40.346  34.011  35.149  1.00  0.00    -0.203 F 
ATOM     91  F   UNL A   1      36.988  31.696  38.775  1.00  0.00    -0.200 F 
ATOM     92  C   UNL A   1      38.245  33.565  38.064  1.00  0.00     0.200 A 
ATOM     93  F   UNL A   1      39.505  35.412  37.306  1.00  0.00    -0.200 F 
ATOM     94  F   UNL A   1      37.816  34.271  39.119  1.00  0.00    -0.200 F 
ENDBRANCH  61  84
ENDBRANCH  35  36
ENDBRANCH  28  30
ENDBRANCH  27  28
ENDBRANCH  26  27
ENDBRANCH   1  26
TORSDOF 17
ENDMDL
MODEL 2
REMARK VINA RESULT:     -11.4      3.049      8.400
REMARK SMILES COC(=O)C[C@H](c1ccc(C(=O)OCCOC(=O)c2ccc(-c3c4nc(c(-c5c(F)c(F)c(F)c(F)c5F)c5ccc([nH]5)c(-c5c(F)c(F)c(F)c(F)c5F)c5nc(c(-c6c(F)c(F)c(F)c(F)c6F)c6ccc3[nH]6)C=C5)C=C4)cc2)cc1)c1c(O)n[nH]c1C
REMARK SMILES IDX 14 1 13 2 11 3 12 4 10 5 7 6 8 7 83 8 9 9 82 10 6 11 5 12
REMARK SMILES IDX 3 13 4 14 2 15 1 16 84 17 85 18 89 19 87 20 88 21 90 22
REMARK SMILES IDX 86 24 15 26 16 27 17 28 18 29 19 30 20 31 81 32 21 33 80 34
REMARK SMILES IDX 22 35 23 36 24 37 74 38 25 39 79 40 73 41 75 42 26 43 78 44
REMARK SMILES IDX 72 45 71 46 27 48 59 49 39 50 58 51 40 52 43 53 57 54 76 55
REMARK SMILES IDX 41 56 42 57 56 59 77 60 44 61 28 62 29 63 37 64 30 65 31 66
REMARK SMILES IDX 35 67 38 68 32 69 33 70 36 71 34 72 60 73 61 74 69 75 62 76
REMARK SMILES IDX 63 77 67 78 70 79 64 80 65 81 68 82 66 83 45 84 46 85 54 86
REMARK SMILES IDX 47 87 48 88 52 89 55 90 49 91 50 92 53 93 51 94
REMARK H PARENT 88 23 86 25 75 47 43 58
REMARK Flexibility Score: inf
ROOT
ATOM      1  C   UNL A   1      30.937  30.476  24.420  1.00  0.00     0.275 C 
ENDROOT
BRANCH   1   2
ATOM      2  O   UNL A   1      29.790  29.763  23.922  1.00  0.00    -0.458 OA
BRANCH   2   3
ATOM      3  C   UNL A   1      29.978  29.082  22.765  1.00  0.00     0.338 C 
ATOM      4  O   UNL A   1      30.074  29.574  21.649  1.00  0.00    -0.246 OA
BRANCH   3   5
ATOM      5  C   UNL A   1      30.192  27.634  23.020  1.00  0.00     0.060 A 
ATOM      6  C   UNL A   1      30.876  24.950  23.600  1.00  0.00    -0.040 A 
ATOM      7  C   UNL A   1      31.645  25.714  22.708  1.00  0.00     0.005 A 
ATOM      8  C   UNL A   1      29.727  25.545  24.159  1.00  0.00     0.005 A 
ATOM      9  C   UNL A   1      31.292  27.028  22.403  1.00  0.00     0.016 A 
ATOM     10  C   UNL A   1      29.395  26.880  23.886  1.00  0.00     0.016 A 
BRANCH   6  11
ATOM     11  C   UNL A   1      31.233  23.509  23.948  1.00  0.00     0.068 C 
BRANCH  11  12
ATOM     12  C   UNL A   1      32.260  22.869  22.998  1.00  0.00     0.136 C 
BRANCH  12  13
ATOM     13  C   UNL A   1      32.795  21.578  23.552  1.00  0.00     0.306 C 
ATOM     14  O   UNL A   1      32.145  20.543  23.634  1.00  0.00    -0.252 OA
BRANCH  13  15
ATOM     15  O   UNL A   1      34.101  21.717  23.909  1.00  0.00    -0.469 OA
ATOM     16  C   UNL A   1      34.585  20.684  24.767  1.00  0.00     0.282 C 
ENDBRANCH  13  15
ENDBRANCH  12  13
ENDBRANCH  11  12
BRANCH  11  17
ATOM     17  C   UNL A   1      31.684  23.441  25.395  1.00  0.00     0.044 A 
ATOM     18  C   UNL A   1      30.985  22.727  26.393  1.00  0.00     0.234 A 
ATOM     19  C   UNL A   1      32.739  23.986  26.129  1.00  0.00     0.040 A 
ATOM     20  N   UNL A   1      31.512  22.756  27.601  1.00  0.00    -0.137 NA
ATOM     21  N   UNL A   1      32.588  23.533  27.420  1.00  0.00    -0.279 N 
ATOM     22  C   UNL A   1      33.877  24.885  25.807  1.00  0.00     0.066 C 
ATOM     23  H   UNL A   1      33.215  23.759  28.144  1.00  0.00     0.190 HD
BRANCH  18  24
ATOM     24  O   UNL A   1      29.868  22.012  26.296  1.00  0.00    -0.492 OA
ATOM     25  H   UNL A   1      29.085  22.408  25.967  1.00  0.00     0.295 HD
ENDBRANCH  18  24
ENDBRANCH  11  17
ENDBRANCH   6  11
ENDBRANCH   3   5
ENDBRANCH   2   3
ENDBRANCH   1   2
BRANCH   1  26
ATOM     26  C   UNL A   1      31.466  29.842  25.708  1.00  0.00     0.275 C 
BRANCH  26  27
ATOM     27  O   UNL A   1      32.862  30.134  25.908  1.00  0.00    -0.458 OA
BRANCH  27  28
ATOM     28  C   UNL A   1      33.130  31.067  26.850  1.00  0.00     0.338 C 
ATOM     29  O   UNL A   1      32.398  31.948  27.264  1.00  0.00    -0.246 OA
BRANCH  28  30
ATOM     30  C   UNL A   1      34.475  30.844  27.400  1.00  0.00     0.060 A 
ATOM     31  C   UNL A   1      34.843  29.540  27.727  1.00  0.00     0.016 A 
ATOM     32  C   UNL A   1      35.305  31.915  27.728  1.00  0.00     0.016 A 
ATOM     33  C   UNL A   1      36.032  29.295  28.413  1.00  0.00     0.010 A 
ATOM     34  C   UNL A   1      36.514  31.667  28.392  1.00  0.00     0.010 A 
ATOM     35  C   UNL A   1      36.877  30.357  28.761  1.00  0.00    -0.014 A 
BRANCH  35  36
ATOM     36  C   UNL A   1      38.100  30.112  29.571  1.00  0.00     0.031 A 
ATOM     37  C   UNL A   1      39.200  29.245  29.022  1.00  0.00     0.074 A 
ATOM     38  C   UNL A   1      38.241  30.670  30.788  1.00  0.00     0.049 A 
ATOM     39  N   UNL A   1      40.262  28.768  29.621  1.00  0.00    -0.248 NA
ATOM     40  C   UNL A   1      39.085  28.861  27.607  1.00  0.00     0.031 C 
ATOM     41  C   UNL A   1      37.286  31.580  31.417  1.00  0.00     0.029 A 
ATOM     42  N   UNL A   1      39.248  30.547  31.716  1.00  0.00    -0.354 N 
ATOM     43  C   UNL A   1      40.913  27.988  28.674  1.00  0.00     0.074 A 
ATOM     44  C   UNL A   1      40.131  28.059  27.458  1.00  0.00     0.031 C 
ATOM     45  C   UNL A   1      37.755  31.942  32.623  1.00  0.00     0.029 A 
ATOM     46  C   UNL A   1      39.009  31.238  32.879  1.00  0.00     0.049 A 
ATOM     47  H   UNL A   1      40.061  30.016  31.562  1.00  0.00     0.167 HD
ATOM     48  C   UNL A   1      42.057  27.275  28.811  1.00  0.00     0.037 A 
ATOM     49  C   UNL A   1      39.699  31.269  34.034  1.00  0.00     0.037 A 
ATOM     50  C   UNL A   1      42.858  27.240  30.007  1.00  0.00     0.049 A 
ATOM     51  C   UNL A   1      40.948  30.442  34.174  1.00  0.00     0.074 A 
ATOM     52  C   UNL A   1      44.034  26.548  30.241  1.00  0.00     0.029 A 
ATOM     53  N   UNL A   1      42.570  27.941  31.169  1.00  0.00    -0.354 N 
ATOM     54  N   UNL A   1      41.527  29.663  33.295  1.00  0.00    -0.248 NA
ATOM     55  C   UNL A   1      41.630  30.487  35.476  1.00  0.00     0.031 C 
ATOM     56  C   UNL A   1      44.443  26.807  31.553  1.00  0.00     0.029 A 
ATOM     57  C   UNL A   1      43.543  27.691  32.125  1.00  0.00     0.049 A 
ATOM     58  H   UNL A   1      41.791  28.529  31.296  1.00  0.00     0.167 HD
ATOM     59  C   UNL A   1      42.646  29.138  33.926  1.00  0.00     0.074 A 
ATOM     60  C   UNL A   1      42.675  29.699  35.261  1.00  0.00     0.031 C 
ATOM     61  C   UNL A   1      43.564  28.267  33.444  1.00  0.00     0.037 A 
BRANCH  48  62
ATOM     62  C   UNL A   1      42.497  26.438  27.646  1.00  0.00     0.064 A 
ATOM     63  C   UNL A   1      43.464  26.886  26.735  1.00  0.00     0.173 A 
ATOM     64  C   UNL A   1      41.966  25.152  27.464  1.00  0.00     0.173 A 
ATOM     65  F   UNL A   1      43.988  28.115  26.856  1.00  0.00    -0.203 F 
ATOM     66  C   UNL A   1      43.868  26.082  25.671  1.00  0.00     0.198 A 
ATOM     67  C   UNL A   1      42.391  24.343  26.415  1.00  0.00     0.198 A 
ATOM     68  F   UNL A   1      41.041  24.676  28.310  1.00  0.00    -0.203 F 
ATOM     69  F   UNL A   1      44.763  26.546  24.787  1.00  0.00    -0.200 F 
ATOM     70  C   UNL A   1      43.337  24.811  25.515  1.00  0.00     0.200 A 
ATOM     71  F   UNL A   1      41.884  23.110  26.272  1.00  0.00    -0.200 F 
ATOM     72  F   UNL A   1      43.732  24.038  24.493  1.00  0.00    -0.200 F 
ENDBRANCH  48  62
BRANCH  49  73
ATOM     73  C   UNL A   1      39.200  32.088  35.169  1.00  0.00     0.064 A 
ATOM     74  C   UNL A   1      38.433  31.514  36.191  1.00  0.00     0.173 A 
ATOM     75  C   UNL A   1      39.478  33.461  35.254  1.00  0.00     0.173 A 
ATOM     76  F   UNL A   1      38.114  30.212  36.137  1.00  0.00    -0.203 F 
ATOM     77  C   UNL A   1      37.956  32.283  37.251  1.00  0.00     0.198 A 
ATOM     78  C   UNL A   1      39.026  34.222  36.328  1.00  0.00     0.198 A 
ATOM     79  F   UNL A   1      40.204  34.058  34.297  1.00  0.00    -0.203 F 
ATOM     80  F   UNL A   1      37.192  31.718  38.195  1.00  0.00    -0.200 F 
ATOM     81  C   UNL A   1      38.261  33.634  37.323  1.00  0.00     0.200 A 
ATOM     82  F   UNL A   1      39.331  35.525  36.398  1.00  0.00    -0.200 F 
ATOM     83  F   UNL A   1      37.808  34.372  38.347  1.00  0.00    -0.200 F 
ENDBRANCH  49  73
BRANCH  61  84
ATOM     84  C   UNL A   1      44.700  27.894  34.349  1.00  0.00     0.064 A 
ATOM     85  C   UNL A   1      45.878  28.653  34.399  1.00  0.00     0.173 A 
ATOM     86  C   UNL A   1      44.589  26.791  35.208  1.00  0.00     0.173 A 
ATOM     87  F   UNL A   1      46.036  29.708  33.586  1.00  0.00    -0.203 F 
ATOM     88  C   UNL A   1      46.914  28.308  35.264  1.00  0.00     0.198 A 
ATOM     89  C   UNL A   1      45.618  26.461  36.086  1.00  0.00     0.198 A 
ATOM     90  F   UNL A   1      43.479  26.037  35.201  1.00  0.00    -0.203 F 
ATOM     91  F   UNL A   1      48.047  29.024  35.269  1.00  0.00    -0.200 F 
ATOM     92  C   UNL A   1      46.780  27.217  36.111  1.00  0.00     0.200 A 
ATOM     93  F   UNL A   1      45.483  25.413  36.910  1.00  0.00    -0.200 F 
ATOM     94  F   UNL A   1      47.776  26.890  36.945  1.00  0.00    -0.200 F 
ENDBRANCH  61  84
ENDBRANCH  35  36
ENDBRANCH  28  30
ENDBRANCH  27  28
ENDBRANCH  26  27
ENDBRANCH   1  26
TORSDOF 17
ENDMDL
MODEL 3
REMARK VINA RESULT:     -11.4      2.707      8.181
REMARK SMILES COC(=O)C[C@H](c1ccc(C(=O)OCCOC(=O)c2ccc(-c3c4nc(c(-c5c(F)c(F)c(F)c(F)c5F)c5ccc([nH]5)c(-c5c(F)c(F)c(F)c(F)c5F)c5nc(c(-c6c(F)c(F)c(F)c(F)c6F)c6ccc3[nH]6)C=C5)C=C4)cc2)cc1)c1c(O)n[nH]c1C
REMARK SMILES IDX 14 1 13 2 11 3 12 4 10 5 7 6 8 7 83 8 9 9 82 10 6 11 5 12
REMARK SMILES IDX 3 13 4 14 2 15 1 16 84 17 85 18 89 19 87 20 88 21 90 22
REMARK SMILES IDX 86 24 15 26 16 27 17 28 18 29 19 30 20 31 81 32 21 33 80 34
REMARK SMILES IDX 22 35 23 36 24 37 74 38 25 39 79 40 73 41 75 42 26 43 78 44
REMARK SMILES IDX 72 45 71 46 27 48 59 49 39 50 58 51 40 52 43 53 57 54 76 55
REMARK SMILES IDX 41 56 42 57 56 59 77 60 44 61 28 62 29 63 37 64 30 65 31 66
REMARK SMILES IDX 35 67 38 68 32 69 33 70 36 71 34 72 60 73 61 74 69 75 62 76
REMARK SMILES IDX 63 77 67 78 70 79 64 80 65 81 68 82 66 83 45 84 46 85 54 86
REMARK SMILES IDX 47 87 48 88 52 89 55 90 49 91 50 92 53 93 51 94
REMARK H PARENT 88 23 86 25 75 47 43 58
REMARK Flexibility Score: inf
ROOT
ATOM      1  C   UNL A   1      31.186  29.813  24.849  1.00  0.00     0.275 C 
ENDROOT
BRANCH   1   2
ATOM      2  O   UNL A   1      31.174  28.476  24.315  1.00  0.00    -0.458 OA
BRANCH   2   3
ATOM      3  C   UNL A   1      32.248  28.135  23.561  1.00  0.00     0.338 C 
ATOM      4  O   UNL A   1      32.770  28.828  22.699  1.00  0.00    -0.246 OA
BRANCH   3   5
ATOM      5  C   UNL A   1      32.823  26.836  23.999  1.00  0.00     0.060 A 
ATOM      6  C   UNL A   1      34.138  24.413  24.633  1.00  0.00    -0.040 A 
ATOM      7  C   UNL A   1      33.734  24.691  23.318  1.00  0.00     0.005 A 
ATOM      8  C   UNL A   1      33.828  25.355  25.634  1.00  0.00     0.005 A 
ATOM      9  C   UNL A   1      33.062  25.874  23.012  1.00  0.00     0.016 A 
ATOM     10  C   UNL A   1      33.190  26.564  25.320  1.00  0.00     0.016 A 
BRANCH   6  11
ATOM     11  C   UNL A   1      34.869  23.126  25.000  1.00  0.00     0.068 C 
BRANCH  11  12
ATOM     12  C   UNL A   1      35.784  23.251  26.230  1.00  0.00     0.136 C 
BRANCH  12  13
ATOM     13  C   UNL A   1      37.235  23.137  25.853  1.00  0.00     0.306 C 
ATOM     14  O   UNL A   1      37.925  24.079  25.485  1.00  0.00    -0.252 OA
BRANCH  13  15
ATOM     15  O   UNL A   1      37.671  21.859  26.016  1.00  0.00    -0.469 OA
ATOM     16  C   UNL A   1      39.093  21.728  26.062  1.00  0.00     0.282 C 
ENDBRANCH  13  15
ENDBRANCH  12  13
ENDBRANCH  11  12
BRANCH  11  17
ATOM     17  C   UNL A   1      33.858  22.005  25.162  1.00  0.00     0.044 A 
ATOM     18  C   UNL A   1      34.207  20.637  25.140  1.00  0.00     0.234 A 
ATOM     19  C   UNL A   1      32.473  21.937  25.326  1.00  0.00     0.040 A 
ATOM     20  N   UNL A   1      33.215  19.784  25.304  1.00  0.00    -0.137 NA
ATOM     21  N   UNL A   1      32.159  20.600  25.418  1.00  0.00    -0.279 N 
ATOM     22  C   UNL A   1      31.384  22.944  25.403  1.00  0.00     0.066 C 
ATOM     23  H   UNL A   1      31.241  20.274  25.555  1.00  0.00     0.190 HD
BRANCH  18  24
ATOM     24  O   UNL A   1      35.401  20.070  24.987  1.00  0.00    -0.492 OA
ATOM     25  H   UNL A   1      35.637  19.327  25.507  1.00  0.00     0.295 HD
ENDBRANCH  18  24
ENDBRANCH  11  17
ENDBRANCH   6  11
ENDBRANCH   3   5
ENDBRANCH   2   3
ENDBRANCH   1   2
BRANCH   1  26
ATOM     26  C   UNL A   1      31.853  29.852  26.225  1.00  0.00     0.275 C 
BRANCH  26  27
ATOM     27  O   UNL A   1      33.188  30.387  26.153  1.00  0.00    -0.458 OA
BRANCH  27  28
ATOM     28  C   UNL A   1      33.497  31.307  27.095  1.00  0.00     0.338 C 
ATOM     29  O   UNL A   1      32.810  32.230  27.497  1.00  0.00    -0.246 OA
BRANCH  28  30
ATOM     30  C   UNL A   1      34.819  31.009  27.663  1.00  0.00     0.060 A 
ATOM     31  C   UNL A   1      35.102  29.691  28.015  1.00  0.00     0.016 A 
ATOM     32  C   UNL A   1      35.711  32.032  27.984  1.00  0.00     0.016 A 
ATOM     33  C   UNL A   1      36.266  29.383  28.717  1.00  0.00     0.010 A 
ATOM     34  C   UNL A   1      36.895  31.720  28.665  1.00  0.00     0.010 A 
ATOM     35  C   UNL A   1      37.172  30.397  29.058  1.00  0.00    -0.014 A 
BRANCH  35  36
ATOM     36  C   UNL A   1      38.369  30.089  29.886  1.00  0.00     0.031 A 
ATOM     37  C   UNL A   1      39.442  29.185  29.342  1.00  0.00     0.074 A 
ATOM     38  C   UNL A   1      38.511  30.623  31.114  1.00  0.00     0.049 A 
ATOM     39  N   UNL A   1      40.473  28.656  29.952  1.00  0.00    -0.248 NA
ATOM     40  C   UNL A   1      39.337  28.827  27.920  1.00  0.00     0.031 C 
ATOM     41  C   UNL A   1      37.583  31.562  31.740  1.00  0.00     0.029 A 
ATOM     42  N   UNL A   1      39.495  30.445  32.057  1.00  0.00    -0.354 N 
ATOM     43  C   UNL A   1      41.108  27.864  29.005  1.00  0.00     0.074 A 
ATOM     44  C   UNL A   1      40.351  27.985  27.777  1.00  0.00     0.031 C 
ATOM     45  C   UNL A   1      38.045  31.887  32.959  1.00  0.00     0.029 A 
ATOM     46  C   UNL A   1      39.264  31.128  33.226  1.00  0.00     0.049 A 
ATOM     47  H   UNL A   1      40.289  29.883  31.909  1.00  0.00     0.167 HD
ATOM     48  C   UNL A   1      42.219  27.102  29.151  1.00  0.00     0.037 A 
ATOM     49  C   UNL A   1      39.934  31.113  34.394  1.00  0.00     0.037 A 
ATOM     50  C   UNL A   1      42.996  27.016  30.360  1.00  0.00     0.049 A 
ATOM     51  C   UNL A   1      41.145  30.233  34.543  1.00  0.00     0.074 A 
ATOM     52  C   UNL A   1      44.138  26.272  30.604  1.00  0.00     0.029 A 
ATOM     53  N   UNL A   1      42.717  27.711  31.527  1.00  0.00    -0.354 N 
ATOM     54  N   UNL A   1      41.707  29.443  33.661  1.00  0.00    -0.248 NA
ATOM     55  C   UNL A   1      41.805  30.230  35.856  1.00  0.00     0.031 C 
ATOM     56  C   UNL A   1      44.533  26.494  31.926  1.00  0.00     0.029 A 
ATOM     57  C   UNL A   1      43.661  27.407  32.496  1.00  0.00     0.049 A 
ATOM     58  H   UNL A   1      41.960  28.329  31.650  1.00  0.00     0.167 HD
ATOM     59  C   UNL A   1      42.792  28.863  34.304  1.00  0.00     0.074 A 
ATOM     60  C   UNL A   1      42.820  29.402  35.647  1.00  0.00     0.031 C 
ATOM     61  C   UNL A   1      43.682  27.962  33.824  1.00  0.00     0.037 A 
BRANCH  48  62
ATOM     62  C   UNL A   1      42.645  26.265  27.981  1.00  0.00     0.064 A 
ATOM     63  C   UNL A   1      43.527  26.749  27.005  1.00  0.00     0.173 A 
ATOM     64  C   UNL A   1      42.188  24.943  27.858  1.00  0.00     0.173 A 
ATOM     65  F   UNL A   1      43.978  28.011  27.068  1.00  0.00    -0.203 F 
ATOM     66  C   UNL A   1      43.922  25.945  25.937  1.00  0.00     0.198 A 
ATOM     67  C   UNL A   1      42.604  24.136  26.804  1.00  0.00     0.198 A 
ATOM     68  F   UNL A   1      41.345  24.432  28.768  1.00  0.00    -0.203 F 
ATOM     69  F   UNL A   1      44.733  26.442  24.993  1.00  0.00    -0.200 F 
ATOM     70  C   UNL A   1      43.466  24.639  25.841  1.00  0.00     0.200 A 
ATOM     71  F   UNL A   1      42.170  22.870  26.718  1.00  0.00    -0.200 F 
ATOM     72  F   UNL A   1      43.851  23.867  24.815  1.00  0.00    -0.200 F 
ENDBRANCH  48  62
BRANCH  49  73
ATOM     73  C   UNL A   1      39.448  31.935  35.532  1.00  0.00     0.064 A 
ATOM     74  C   UNL A   1      38.526  31.420  36.453  1.00  0.00     0.173 A 
ATOM     75  C   UNL A   1      39.895  33.251  35.721  1.00  0.00     0.173 A 
ATOM     76  F   UNL A   1      38.046  30.178  36.295  1.00  0.00    -0.203 F 
ATOM     77  C   UNL A   1      38.063  32.193  37.515  1.00  0.00     0.198 A 
ATOM     78  C   UNL A   1      39.454  34.013  36.800  1.00  0.00     0.198 A 
ATOM     79  F   UNL A   1      40.774  33.792  34.864  1.00  0.00    -0.203 F 
ATOM     80  F   UNL A   1      37.152  31.691  38.359  1.00  0.00    -0.200 F 
ATOM     81  C   UNL A   1      38.534  33.486  37.693  1.00  0.00     0.200 A 
ATOM     82  F   UNL A   1      39.919  35.258  36.973  1.00  0.00    -0.200 F 
ATOM     83  F   UNL A   1      38.094  34.227  38.720  1.00  0.00    -0.200 F 
ENDBRANCH  49  73
BRANCH  61  84
ATOM     84  C   UNL A   1      44.785  27.529  34.743  1.00  0.00     0.064 A 
ATOM     85  C   UNL A   1      45.990  28.241  34.830  1.00  0.00     0.173 A 
ATOM     86  C   UNL A   1      44.616  26.415  35.578  1.00  0.00     0.173 A 
ATOM     87  F   UNL A   1      46.203  29.305  34.041  1.00  0.00    -0.203 F 
ATOM     88  C   UNL A   1      46.994  27.840  35.707  1.00  0.00     0.198 A 
ATOM     89  C   UNL A   1      45.613  26.030  36.469  1.00  0.00     0.198 A 
ATOM     90  F   UNL A   1      43.478  25.704  35.536  1.00  0.00    -0.203 F 
ATOM     91  F   UNL A   1      48.153  28.513  35.748  1.00  0.00    -0.200 F 
ATOM     92  C   UNL A   1      46.803  26.740  36.530  1.00  0.00     0.200 A 
ATOM     93  F   UNL A   1      45.423  24.972  37.270  1.00  0.00    -0.200 F 
ATOM     94  F   UNL A   1      47.769  26.359  37.376  1.00  0.00    -0.200 F 
ENDBRANCH  61  84
ENDBRANCH  35  36
ENDBRANCH  28  30
ENDBRANCH  27  28
ENDBRANCH  26  27
ENDBRANCH   1  26
TORSDOF 17
ENDMDL
