MODEL 1
REMARK VINA RESULT:     -13.6      0.000      0.000
REMARK SMILES Cc1cccc(-c2ccc(Cl)c(C(=O)OCCOC(=O)c3ccc(-c4c5nc(c(-c6c(F)c(F)c(F)c(F)c6F)c6ccc([nH]6)c(-c6c(F)c(F)c(F)c(F)c6F)c6nc(c(-c7c(F)c(F)c(F)c(F)c7F)c7ccc4[nH]7)C=C6)C=C5)cc3)c2)c1
REMARK SMILES IDX 17 1 16 2 15 3 13 4 14 5 12 6 7 7 8 8 84 9 9 10 10 11 11 12
REMARK SMILES IDX 6 13 1 14 2 15 3 16 85 17 4 18 5 19 18 20 19 21 20 22 21 23
REMARK SMILES IDX 22 24 83 25 23 26 82 27 24 28 25 29 26 30 76 31 27 32 81 33
REMARK SMILES IDX 75 34 77 35 28 36 80 37 74 38 73 39 29 41 61 42 41 43 60 44
REMARK SMILES IDX 42 45 45 46 59 47 78 48 43 49 44 50 58 52 79 53 46 54 30 55
REMARK SMILES IDX 31 56 39 57 32 58 33 59 37 60 40 61 34 62 35 63 38 64 36 65
REMARK SMILES IDX 62 66 63 67 71 68 64 69 65 70 69 71 72 72 66 73 67 74 70 75
REMARK SMILES IDX 68 76 47 77 48 78 56 79 49 80 50 81 54 82 57 83 51 84 52 85
REMARK SMILES IDX 55 86 53 87
REMARK H PARENT 77 40 45 51
REMARK Flexibility Score: inf
ROOT
ATOM      1  C   UNL A   1      33.814  30.495  27.444  1.00  0.00     0.275 C 
ENDROOT
BRANCH   1   2
ATOM      2  C   UNL A   1      32.697  29.476  27.176  1.00  0.00     0.275 C 
BRANCH   2   3
ATOM      3  O   UNL A   1      33.099  28.092  27.273  1.00  0.00    -0.458 OA
BRANCH   3   4
ATOM      4  C   UNL A   1      32.166  27.258  26.737  1.00  0.00     0.339 C 
ATOM      5  O   UNL A   1      31.021  27.143  27.155  1.00  0.00    -0.246 OA
BRANCH   4   6
ATOM      6  C   UNL A   1      32.608  26.431  25.592  1.00  0.00     0.079 A 
ATOM      7  C   UNL A   1      34.145  24.733  24.687  1.00  0.00    -0.017 A 
ATOM      8  C   UNL A   1      33.984  25.339  23.427  1.00  0.00     0.010 A 
ATOM      9  C   UNL A   1      33.399  25.273  25.761  1.00  0.00     0.026 A 
ATOM     10  C   UNL A   1      33.144  26.435  23.236  1.00  0.00     0.022 A 
ATOM     11  C   UNL A   1      32.463  26.988  24.314  1.00  0.00     0.055 A 
ATOM     12  Cl  UNL A   1      31.440  28.344  23.983  1.00  0.00    -0.083 Cl
BRANCH   7  13
ATOM     13  C   UNL A   1      35.095  23.594  24.821  1.00  0.00    -0.018 A 
ATOM     14  C   UNL A   1      34.951  19.746  24.840  1.00  0.00     0.044 C 
ATOM     15  C   UNL A   1      35.479  21.150  24.920  1.00  0.00    -0.051 A 
ATOM     16  C   UNL A   1      36.801  21.377  25.300  1.00  0.00     0.003 A 
ATOM     17  C   UNL A   1      34.647  22.257  24.675  1.00  0.00     0.012 A 
ATOM     18  C   UNL A   1      37.283  22.681  25.407  1.00  0.00     0.001 A 
ATOM     19  C   UNL A   1      36.441  23.778  25.167  1.00  0.00     0.009 A 
ENDBRANCH   7  13
ENDBRANCH   4   6
ENDBRANCH   3   4
ENDBRANCH   2   3
ENDBRANCH   1   2
BRANCH   1  20
ATOM     20  O   UNL A   1      35.199  30.057  27.349  1.00  0.00    -0.458 OA
BRANCH  20  21
ATOM     21  C   UNL A   1      36.297  30.682  27.834  1.00  0.00     0.338 C 
ATOM     22  O   UNL A   1      36.327  31.892  28.037  1.00  0.00    -0.246 OA
BRANCH  21  23
ATOM     23  C   UNL A   1      37.462  29.848  28.151  1.00  0.00     0.060 A 
ATOM     24  C   UNL A   1      37.439  29.033  29.295  1.00  0.00     0.016 A 
ATOM     25  C   UNL A   1      38.515  29.790  27.248  1.00  0.00     0.016 A 
ATOM     26  C   UNL A   1      38.413  28.064  29.478  1.00  0.00     0.010 A 
ATOM     27  C   UNL A   1      39.369  28.729  27.320  1.00  0.00     0.010 A 
ATOM     28  C   UNL A   1      39.362  27.926  28.472  1.00  0.00    -0.014 A 
BRANCH  28  29
ATOM     29  C   UNL A   1      40.617  27.230  28.662  1.00  0.00     0.031 A 
ATOM     30  C   UNL A   1      40.708  25.785  28.442  1.00  0.00     0.074 A 
ATOM     31  C   UNL A   1      41.612  28.119  28.885  1.00  0.00     0.049 A 
ATOM     32  N   UNL A   1      41.607  25.029  28.958  1.00  0.00    -0.248 NA
ATOM     33  C   UNL A   1      39.735  25.031  27.658  1.00  0.00     0.031 C 
ATOM     34  C   UNL A   1      43.056  28.024  28.847  1.00  0.00     0.029 A 
ATOM     35  N   UNL A   1      41.388  29.432  29.358  1.00  0.00    -0.354 N 
ATOM     36  C   UNL A   1      41.579  23.839  28.254  1.00  0.00     0.074 A 
ATOM     37  C   UNL A   1      40.284  23.812  27.631  1.00  0.00     0.031 C 
ATOM     38  C   UNL A   1      43.560  29.029  29.597  1.00  0.00     0.029 A 
ATOM     39  C   UNL A   1      42.434  29.709  30.234  1.00  0.00     0.049 A 
ATOM     40  H   UNL A   1      40.643  30.030  29.117  1.00  0.00     0.167 HD
ATOM     41  C   UNL A   1      42.757  23.163  28.100  1.00  0.00     0.037 A 
ATOM     42  C   UNL A   1      42.130  29.711  31.567  1.00  0.00     0.037 A 
ATOM     43  C   UNL A   1      43.797  23.873  28.850  1.00  0.00     0.049 A 
ATOM     44  C   UNL A   1      42.812  28.544  32.238  1.00  0.00     0.074 A 
ATOM     45  C   UNL A   1      44.734  24.814  28.453  1.00  0.00     0.029 A 
ATOM     46  N   UNL A   1      43.669  23.999  30.229  1.00  0.00    -0.354 N 
ATOM     47  N   UNL A   1      43.018  27.383  31.671  1.00  0.00    -0.248 NA
ATOM     48  C   UNL A   1      43.417  28.653  33.557  1.00  0.00     0.031 C 
ATOM     49  C   UNL A   1      45.093  25.575  29.601  1.00  0.00     0.029 A 
ATOM     50  C   UNL A   1      44.372  25.098  30.684  1.00  0.00     0.049 A 
ATOM     51  H   UNL A   1      43.150  23.388  30.802  1.00  0.00     0.167 HD
ATOM     52  C   UNL A   1      43.855  26.644  32.464  1.00  0.00     0.074 A 
ATOM     53  C   UNL A   1      44.054  27.474  33.642  1.00  0.00     0.031 C 
ATOM     54  C   UNL A   1      44.369  25.430  32.101  1.00  0.00     0.037 A 
BRANCH  41  55
ATOM     55  C   UNL A   1      43.078  22.108  27.053  1.00  0.00     0.064 A 
ATOM     56  C   UNL A   1      42.387  20.871  27.066  1.00  0.00     0.173 A 
ATOM     57  C   UNL A   1      44.060  22.205  26.047  1.00  0.00     0.173 A 
ATOM     58  F   UNL A   1      41.373  20.645  27.912  1.00  0.00    -0.203 F 
ATOM     59  C   UNL A   1      42.702  19.812  26.209  1.00  0.00     0.198 A 
ATOM     60  C   UNL A   1      44.387  21.137  25.197  1.00  0.00     0.198 A 
ATOM     61  F   UNL A   1      44.719  23.340  25.807  1.00  0.00    -0.203 F 
ATOM     62  F   UNL A   1      42.017  18.662  26.292  1.00  0.00    -0.200 F 
ATOM     63  C   UNL A   1      43.715  19.938  25.284  1.00  0.00     0.200 A 
ATOM     64  F   UNL A   1      45.361  21.289  24.287  1.00  0.00    -0.200 F 
ATOM     65  F   UNL A   1      44.024  18.923  24.466  1.00  0.00    -0.200 F 
ENDBRANCH  41  55
BRANCH  42  66
ATOM     66  C   UNL A   1      40.754  30.240  31.888  1.00  0.00     0.064 A 
ATOM     67  C   UNL A   1      39.757  29.328  32.318  1.00  0.00     0.173 A 
ATOM     68  C   UNL A   1      40.456  31.600  32.043  1.00  0.00     0.173 A 
ATOM     69  F   UNL A   1      39.957  28.005  32.192  1.00  0.00    -0.203 F 
ATOM     70  C   UNL A   1      38.593  29.745  32.966  1.00  0.00     0.198 A 
ATOM     71  C   UNL A   1      39.269  32.018  32.665  1.00  0.00     0.198 A 
ATOM     72  F   UNL A   1      41.336  32.537  31.664  1.00  0.00    -0.203 F 
ATOM     73  F   UNL A   1      37.746  28.836  33.473  1.00  0.00    -0.200 F 
ATOM     74  C   UNL A   1      38.353  31.092  33.148  1.00  0.00     0.200 A 
ATOM     75  F   UNL A   1      39.051  33.324  32.878  1.00  0.00    -0.200 F 
ATOM     76  F   UNL A   1      37.273  31.501  33.829  1.00  0.00    -0.200 F 
ENDBRANCH  42  66
BRANCH  54  77
ATOM     77  C   UNL A   1      45.005  24.442  33.047  1.00  0.00     0.064 A 
ATOM     78  C   UNL A   1      44.393  23.239  33.433  1.00  0.00     0.173 A 
ATOM     79  C   UNL A   1      46.354  24.597  33.449  1.00  0.00     0.173 A 
ATOM     80  F   UNL A   1      43.174  22.899  32.995  1.00  0.00    -0.203 F 
ATOM     81  C   UNL A   1      45.049  22.306  34.233  1.00  0.00     0.198 A 
ATOM     82  C   UNL A   1      47.035  23.620  34.166  1.00  0.00     0.198 A 
ATOM     83  F   UNL A   1      47.073  25.684  33.127  1.00  0.00    -0.203 F 
ATOM     84  F   UNL A   1      44.395  21.207  34.633  1.00  0.00    -0.200 F 
ATOM     85  C   UNL A   1      46.373  22.486  34.583  1.00  0.00     0.200 A 
ATOM     86  F   UNL A   1      48.340  23.774  34.428  1.00  0.00    -0.200 F 
ATOM     87  F   UNL A   1      47.017  21.555  35.299  1.00  0.00    -0.200 F 
ENDBRANCH  54  77
ENDBRANCH  28  29
ENDBRANCH  21  23
ENDBRANCH  20  21
ENDBRANCH   1  20
TORSDOF 12
ENDMDL
MODEL 2
REMARK VINA RESULT:     -13.3      0.439      1.234
REMARK SMILES Cc1cccc(-c2ccc(Cl)c(C(=O)OCCOC(=O)c3ccc(-c4c5nc(c(-c6c(F)c(F)c(F)c(F)c6F)c6ccc([nH]6)c(-c6c(F)c(F)c(F)c(F)c6F)c6nc(c(-c7c(F)c(F)c(F)c(F)c7F)c7ccc4[nH]7)C=C6)C=C5)cc3)c2)c1
REMARK SMILES IDX 17 1 16 2 15 3 13 4 14 5 12 6 7 7 8 8 84 9 9 10 10 11 11 12
REMARK SMILES IDX 6 13 1 14 2 15 3 16 85 17 4 18 5 19 18 20 19 21 20 22 21 23
REMARK SMILES IDX 22 24 83 25 23 26 82 27 24 28 25 29 26 30 76 31 27 32 81 33
REMARK SMILES IDX 75 34 77 35 28 36 80 37 74 38 73 39 29 41 61 42 41 43 60 44
REMARK SMILES IDX 42 45 45 46 59 47 78 48 43 49 44 50 58 52 79 53 46 54 30 55
REMARK SMILES IDX 31 56 39 57 32 58 33 59 37 60 40 61 34 62 35 63 38 64 36 65
REMARK SMILES IDX 62 66 63 67 71 68 64 69 65 70 69 71 72 72 66 73 67 74 70 75
REMARK SMILES IDX 68 76 47 77 48 78 56 79 49 80 50 81 54 82 57 83 51 84 52 85
REMARK SMILES IDX 55 86 53 87
REMARK H PARENT 77 40 45 51
REMARK Flexibility Score: inf
ROOT
ATOM      1  C   UNL A   1      33.799  30.517  27.381  1.00  0.00     0.275 C 
ENDROOT
BRANCH   1   2
ATOM      2  C   UNL A   1      32.645  29.596  26.957  1.00  0.00     0.275 C 
BRANCH   2   3
ATOM      3  O   UNL A   1      33.050  28.384  26.283  1.00  0.00    -0.458 OA
BRANCH   3   4
ATOM      4  C   UNL A   1      32.168  27.370  26.497  1.00  0.00     0.339 C 
ATOM      5  O   UNL A   1      31.270  27.399  27.329  1.00  0.00    -0.246 OA
BRANCH   4   6
ATOM      6  C   UNL A   1      32.352  26.157  25.670  1.00  0.00     0.079 A 
ATOM      7  C   UNL A   1      33.834  24.366  24.856  1.00  0.00    -0.017 A 
ATOM      8  C   UNL A   1      33.051  24.327  23.686  1.00  0.00     0.010 A 
ATOM      9  C   UNL A   1      33.432  25.267  25.870  1.00  0.00     0.026 A 
ATOM     10  C   UNL A   1      31.937  25.147  23.515  1.00  0.00     0.022 A 
ATOM     11  C   UNL A   1      31.590  26.067  24.498  1.00  0.00     0.055 A 
ATOM     12  Cl  UNL A   1      30.191  27.041  24.201  1.00  0.00    -0.083 Cl
BRANCH   7  13
ATOM     13  C   UNL A   1      35.035  23.492  24.946  1.00  0.00    -0.018 A 
ATOM     14  C   UNL A   1      35.822  19.722  25.001  1.00  0.00     0.044 C 
ATOM     15  C   UNL A   1      36.000  21.213  25.042  1.00  0.00    -0.051 A 
ATOM     16  C   UNL A   1      37.247  21.758  25.348  1.00  0.00     0.003 A 
ATOM     17  C   UNL A   1      34.915  22.084  24.835  1.00  0.00     0.012 A 
ATOM     18  C   UNL A   1      37.406  23.141  25.419  1.00  0.00     0.001 A 
ATOM     19  C   UNL A   1      36.313  23.999  25.217  1.00  0.00     0.009 A 
ENDBRANCH   7  13
ENDBRANCH   4   6
ENDBRANCH   3   4
ENDBRANCH   2   3
ENDBRANCH   1   2
BRANCH   1  20
ATOM     20  O   UNL A   1      35.115  29.936  27.598  1.00  0.00    -0.458 OA
BRANCH  20  21
ATOM     21  C   UNL A   1      36.260  30.584  27.918  1.00  0.00     0.338 C 
ATOM     22  O   UNL A   1      36.321  31.807  28.000  1.00  0.00    -0.246 OA
BRANCH  21  23
ATOM     23  C   UNL A   1      37.442  29.762  28.204  1.00  0.00     0.060 A 
ATOM     24  C   UNL A   1      37.461  28.954  29.353  1.00  0.00     0.016 A 
ATOM     25  C   UNL A   1      38.467  29.708  27.270  1.00  0.00     0.016 A 
ATOM     26  C   UNL A   1      38.448  27.995  29.512  1.00  0.00     0.010 A 
ATOM     27  C   UNL A   1      39.332  28.654  27.322  1.00  0.00     0.010 A 
ATOM     28  C   UNL A   1      39.367  27.858  28.478  1.00  0.00    -0.014 A 
BRANCH  28  29
ATOM     29  C   UNL A   1      40.634  27.175  28.634  1.00  0.00     0.031 A 
ATOM     30  C   UNL A   1      40.738  25.735  28.390  1.00  0.00     0.074 A 
ATOM     31  C   UNL A   1      41.622  28.072  28.852  1.00  0.00     0.049 A 
ATOM     32  N   UNL A   1      41.654  24.981  28.877  1.00  0.00    -0.248 NA
ATOM     33  C   UNL A   1      39.758  24.981  27.613  1.00  0.00     0.031 C 
ATOM     34  C   UNL A   1      43.066  27.995  28.785  1.00  0.00     0.029 A 
ATOM     35  N   UNL A   1      41.392  29.375  29.350  1.00  0.00    -0.354 N 
ATOM     36  C   UNL A   1      41.627  23.801  28.156  1.00  0.00     0.074 A 
ATOM     37  C   UNL A   1      40.321  23.768  27.557  1.00  0.00     0.031 C 
ATOM     38  C   UNL A   1      43.573  28.994  29.541  1.00  0.00     0.029 A 
ATOM     39  C   UNL A   1      42.451  29.652  30.209  1.00  0.00     0.049 A 
ATOM     40  H   UNL A   1      40.636  29.968  29.131  1.00  0.00     0.167 HD
ATOM     41  C   UNL A   1      42.809  23.142  27.971  1.00  0.00     0.037 A 
ATOM     42  C   UNL A   1      42.173  29.630  31.548  1.00  0.00     0.037 A 
ATOM     43  C   UNL A   1      43.855  23.853  28.712  1.00  0.00     0.049 A 
ATOM     44  C   UNL A   1      42.881  28.461  32.188  1.00  0.00     0.074 A 
ATOM     45  C   UNL A   1      44.774  24.811  28.311  1.00  0.00     0.029 A 
ATOM     46  N   UNL A   1      43.752  23.956  30.094  1.00  0.00    -0.354 N 
ATOM     47  N   UNL A   1      43.089  27.311  31.600  1.00  0.00    -0.248 NA
ATOM     48  C   UNL A   1      43.509  28.557  33.497  1.00  0.00     0.031 C 
ATOM     49  C   UNL A   1      45.145  25.559  29.464  1.00  0.00     0.029 A 
ATOM     50  C   UNL A   1      44.451  25.058  30.553  1.00  0.00     0.049 A 
ATOM     51  H   UNL A   1      43.251  23.331  30.667  1.00  0.00     0.167 HD
ATOM     52  C   UNL A   1      43.949  26.570  32.366  1.00  0.00     0.074 A 
ATOM     53  C   UNL A   1      44.161  27.385  33.552  1.00  0.00     0.031 C 
ATOM     54  C   UNL A   1      44.471  25.368  31.974  1.00  0.00     0.037 A 
BRANCH  41  55
ATOM     55  C   UNL A   1      43.123  22.107  26.902  1.00  0.00     0.064 A 
ATOM     56  C   UNL A   1      42.527  20.824  26.969  1.00  0.00     0.173 A 
ATOM     57  C   UNL A   1      44.013  22.269  25.821  1.00  0.00     0.173 A 
ATOM     58  F   UNL A   1      41.602  20.530  27.893  1.00  0.00    -0.203 F 
ATOM     59  C   UNL A   1      42.850  19.784  26.090  1.00  0.00     0.198 A 
ATOM     60  C   UNL A   1      44.349  21.223  24.948  1.00  0.00     0.198 A 
ATOM     61  F   UNL A   1      44.567  23.447  25.530  1.00  0.00    -0.203 F 
ATOM     62  F   UNL A   1      42.259  18.589  26.227  1.00  0.00    -0.200 F 
ATOM     63  C   UNL A   1      43.774  19.978  25.088  1.00  0.00     0.200 A 
ATOM     64  F   UNL A   1      45.235  21.439  23.964  1.00  0.00    -0.200 F 
ATOM     65  F   UNL A   1      44.091  18.983  24.249  1.00  0.00    -0.200 F 
ENDBRANCH  41  55
BRANCH  42  66
ATOM     66  C   UNL A   1      40.797  30.137  31.903  1.00  0.00     0.064 A 
ATOM     67  C   UNL A   1      39.807  29.202  32.298  1.00  0.00     0.173 A 
ATOM     68  C   UNL A   1      40.495  31.488  32.121  1.00  0.00     0.173 A 
ATOM     69  F   UNL A   1      40.012  27.888  32.111  1.00  0.00    -0.203 F 
ATOM     70  C   UNL A   1      38.646  29.585  32.974  1.00  0.00     0.198 A 
ATOM     71  C   UNL A   1      39.311  31.872  32.770  1.00  0.00     0.198 A 
ATOM     72  F   UNL A   1      41.368  32.445  31.778  1.00  0.00    -0.203 F 
ATOM     73  F   UNL A   1      37.807  28.650  33.445  1.00  0.00    -0.200 F 
ATOM     74  C   UNL A   1      38.402  30.921  33.217  1.00  0.00     0.200 A 
ATOM     75  F   UNL A   1      39.089  33.166  33.043  1.00  0.00    -0.200 F 
ATOM     76  F   UNL A   1      37.326  31.294  33.925  1.00  0.00    -0.200 F 
ENDBRANCH  42  66
BRANCH  54  77
ATOM     77  C   UNL A   1      45.135  24.373  32.893  1.00  0.00     0.064 A 
ATOM     78  C   UNL A   1      46.405  24.570  33.456  1.00  0.00     0.173 A 
ATOM     79  C   UNL A   1      44.414  23.259  33.388  1.00  0.00     0.173 A 
ATOM     80  F   UNL A   1      47.130  25.665  33.189  1.00  0.00    -0.203 F 
ATOM     81  C   UNL A   1      46.948  23.675  34.376  1.00  0.00     0.198 A 
ATOM     82  C   UNL A   1      44.921  22.423  34.377  1.00  0.00     0.198 A 
ATOM     83  F   UNL A   1      43.176  22.964  32.962  1.00  0.00    -0.203 F 
ATOM     84  F   UNL A   1      48.193  23.871  34.829  1.00  0.00    -0.200 F 
ATOM     85  C   UNL A   1      46.201  22.614  34.850  1.00  0.00     0.200 A 
ATOM     86  F   UNL A   1      44.153  21.448  34.882  1.00  0.00    -0.200 F 
ATOM     87  F   UNL A   1      46.705  21.794  35.781  1.00  0.00    -0.200 F 
ENDBRANCH  54  77
ENDBRANCH  28  29
ENDBRANCH  21  23
ENDBRANCH  20  21
ENDBRANCH   1  20
TORSDOF 12
ENDMDL
MODEL 3
REMARK VINA RESULT:     -13.2      2.135      4.025
REMARK SMILES Cc1cccc(-c2ccc(Cl)c(C(=O)OCCOC(=O)c3ccc(-c4c5nc(c(-c6c(F)c(F)c(F)c(F)c6F)c6ccc([nH]6)c(-c6c(F)c(F)c(F)c(F)c6F)c6nc(c(-c7c(F)c(F)c(F)c(F)c7F)c7ccc4[nH]7)C=C6)C=C5)cc3)c2)c1
REMARK SMILES IDX 17 1 16 2 15 3 13 4 14 5 12 6 7 7 8 8 84 9 9 10 10 11 11 12
REMARK SMILES IDX 6 13 1 14 2 15 3 16 85 17 4 18 5 19 18 20 19 21 20 22 21 23
REMARK SMILES IDX 22 24 83 25 23 26 82 27 24 28 25 29 26 30 76 31 27 32 81 33
REMARK SMILES IDX 75 34 77 35 28 36 80 37 74 38 73 39 29 41 61 42 41 43 60 44
REMARK SMILES IDX 42 45 45 46 59 47 78 48 43 49 44 50 58 52 79 53 46 54 30 55
REMARK SMILES IDX 31 56 39 57 32 58 33 59 37 60 40 61 34 62 35 63 38 64 36 65
REMARK SMILES IDX 62 66 63 67 71 68 64 69 65 70 69 71 72 72 66 73 67 74 70 75
REMARK SMILES IDX 68 76 47 77 48 78 56 79 49 80 50 81 54 82 57 83 51 84 52 85
REMARK SMILES IDX 55 86 53 87
REMARK H PARENT 77 40 45 51
REMARK Flexibility Score: inf
ROOT
ATOM      1  C   UNL A   1      34.111  29.308  27.164  1.00  0.00     0.275 C 
ENDROOT
BRANCH   1   2
ATOM      2  C   UNL A   1      33.996  27.950  26.456  1.00  0.00     0.275 C 
BRANCH   2   3
ATOM      3  O   UNL A   1      32.649  27.549  26.124  1.00  0.00    -0.458 OA
BRANCH   3   4
ATOM      4  C   UNL A   1      32.569  27.049  24.861  1.00  0.00     0.339 C 
ATOM      5  O   UNL A   1      33.480  26.462  24.291  1.00  0.00    -0.246 OA
BRANCH   4   6
ATOM      6  C   UNL A   1      31.291  27.271  24.149  1.00  0.00     0.079 A 
ATOM      7  C   UNL A   1      29.562  28.837  23.358  1.00  0.00    -0.017 A 
ATOM      8  C   UNL A   1      28.635  27.784  23.472  1.00  0.00     0.010 A 
ATOM      9  C   UNL A   1      30.913  28.541  23.659  1.00  0.00     0.026 A 
ATOM     10  C   UNL A   1      29.015  26.506  23.879  1.00  0.00     0.022 A 
ATOM     11  C   UNL A   1      30.336  26.248  24.225  1.00  0.00     0.055 A 
ATOM     12  Cl  UNL A   1      30.717  24.633  24.716  1.00  0.00    -0.083 Cl
BRANCH   7  13
ATOM     13  C   UNL A   1      29.073  30.186  22.961  1.00  0.00    -0.018 A 
ATOM     14  C   UNL A   1      27.781  31.928  19.779  1.00  0.00     0.044 C 
ATOM     15  C   UNL A   1      28.224  31.702  21.196  1.00  0.00    -0.051 A 
ATOM     16  C   UNL A   1      28.350  32.782  22.068  1.00  0.00     0.003 A 
ATOM     17  C   UNL A   1      28.575  30.419  21.654  1.00  0.00     0.012 A 
ATOM     18  C   UNL A   1      28.793  32.577  23.374  1.00  0.00     0.001 A 
ATOM     19  C   UNL A   1      29.147  31.293  23.817  1.00  0.00     0.009 A 
ENDBRANCH   7  13
ENDBRANCH   4   6
ENDBRANCH   3   4
ENDBRANCH   2   3
ENDBRANCH   1   2
BRANCH   1  20
ATOM     20  O   UNL A   1      35.325  30.090  26.985  1.00  0.00    -0.458 OA
BRANCH  20  21
ATOM     21  C   UNL A   1      36.167  30.538  27.946  1.00  0.00     0.338 C 
ATOM     22  O   UNL A   1      35.945  31.558  28.591  1.00  0.00    -0.246 OA
BRANCH  21  23
ATOM     23  C   UNL A   1      37.361  29.730  28.225  1.00  0.00     0.060 A 
ATOM     24  C   UNL A   1      37.396  28.920  29.372  1.00  0.00     0.016 A 
ATOM     25  C   UNL A   1      38.381  29.691  27.285  1.00  0.00     0.016 A 
ATOM     26  C   UNL A   1      38.397  27.974  29.524  1.00  0.00     0.010 A 
ATOM     27  C   UNL A   1      39.261  28.648  27.331  1.00  0.00     0.010 A 
ATOM     28  C   UNL A   1      39.312  27.851  28.485  1.00  0.00    -0.014 A 
BRANCH  28  29
ATOM     29  C   UNL A   1      40.588  27.184  28.634  1.00  0.00     0.031 A 
ATOM     30  C   UNL A   1      40.711  25.747  28.377  1.00  0.00     0.074 A 
ATOM     31  C   UNL A   1      41.565  28.093  28.857  1.00  0.00     0.049 A 
ATOM     32  N   UNL A   1      41.639  25.002  28.857  1.00  0.00    -0.248 NA
ATOM     33  C   UNL A   1      39.740  24.986  27.596  1.00  0.00     0.031 C 
ATOM     34  C   UNL A   1      43.009  28.036  28.787  1.00  0.00     0.029 A 
ATOM     35  N   UNL A   1      41.317  29.388  29.366  1.00  0.00    -0.354 N 
ATOM     36  C   UNL A   1      41.626  23.828  28.126  1.00  0.00     0.074 A 
ATOM     37  C   UNL A   1      40.320  23.782  27.529  1.00  0.00     0.031 C 
ATOM     38  C   UNL A   1      43.504  29.036  29.550  1.00  0.00     0.029 A 
ATOM     39  C   UNL A   1      42.374  29.672  30.226  1.00  0.00     0.049 A 
ATOM     40  H   UNL A   1      40.553  29.972  29.154  1.00  0.00     0.167 HD
ATOM     41  C   UNL A   1      42.817  23.187  27.933  1.00  0.00     0.037 A 
ATOM     42  C   UNL A   1      42.099  29.635  31.564  1.00  0.00     0.037 A 
ATOM     43  C   UNL A   1      43.855  23.906  28.678  1.00  0.00     0.049 A 
ATOM     44  C   UNL A   1      42.824  28.471  32.193  1.00  0.00     0.074 A 
ATOM     45  C   UNL A   1      44.759  24.879  28.284  1.00  0.00     0.029 A 
ATOM     46  N   UNL A   1      43.752  23.996  30.062  1.00  0.00    -0.354 N 
ATOM     47  N   UNL A   1      43.047  27.329  31.596  1.00  0.00    -0.248 NA
ATOM     48  C   UNL A   1      43.453  28.565  33.503  1.00  0.00     0.031 C 
ATOM     49  C   UNL A   1      45.123  25.622  29.442  1.00  0.00     0.029 A 
ATOM     50  C   UNL A   1      44.437  25.103  30.528  1.00  0.00     0.049 A 
ATOM     51  H   UNL A   1      43.262  23.360  30.630  1.00  0.00     0.167 HD
ATOM     52  C   UNL A   1      43.918  26.593  32.354  1.00  0.00     0.074 A 
ATOM     53  C   UNL A   1      44.121  27.402  33.547  1.00  0.00     0.031 C 
ATOM     54  C   UNL A   1      44.456  25.402  31.952  1.00  0.00     0.037 A 
BRANCH  41  55
ATOM     55  C   UNL A   1      43.143  22.164  26.855  1.00  0.00     0.064 A 
ATOM     56  C   UNL A   1      42.559  20.875  26.909  1.00  0.00     0.173 A 
ATOM     57  C   UNL A   1      44.034  22.345  25.778  1.00  0.00     0.173 A 
ATOM     58  F   UNL A   1      41.635  20.564  27.828  1.00  0.00    -0.203 F 
ATOM     59  C   UNL A   1      42.893  19.847  26.021  1.00  0.00     0.198 A 
ATOM     60  C   UNL A   1      44.381  21.310  24.896  1.00  0.00     0.198 A 
ATOM     61  F   UNL A   1      44.577  23.531  25.499  1.00  0.00    -0.203 F 
ATOM     62  F   UNL A   1      42.314  18.645  26.146  1.00  0.00    -0.200 F 
ATOM     63  C   UNL A   1      43.818  20.059  25.023  1.00  0.00     0.200 A 
ATOM     64  F   UNL A   1      45.267  21.544  23.916  1.00  0.00    -0.200 F 
ATOM     65  F   UNL A   1      44.146  19.075  24.175  1.00  0.00    -0.200 F 
ENDBRANCH  41  55
BRANCH  42  66
ATOM     66  C   UNL A   1      40.717  30.121  31.926  1.00  0.00     0.064 A 
ATOM     67  C   UNL A   1      39.736  29.168  32.302  1.00  0.00     0.173 A 
ATOM     68  C   UNL A   1      40.399  31.464  32.168  1.00  0.00     0.173 A 
ATOM     69  F   UNL A   1      39.956  27.859  32.092  1.00  0.00    -0.203 F 
ATOM     70  C   UNL A   1      38.571  29.526  32.983  1.00  0.00     0.198 A 
ATOM     71  C   UNL A   1      39.210  31.823  32.821  1.00  0.00     0.198 A 
ATOM     72  F   UNL A   1      41.262  32.437  31.844  1.00  0.00    -0.203 F 
ATOM     73  F   UNL A   1      37.741  28.573  33.435  1.00  0.00    -0.200 F 
ATOM     74  C   UNL A   1      38.312  30.855  33.250  1.00  0.00     0.200 A 
ATOM     75  F   UNL A   1      38.973  33.109  33.118  1.00  0.00    -0.200 F 
ATOM     76  F   UNL A   1      37.230  31.203  33.962  1.00  0.00    -0.200 F 
ENDBRANCH  42  66
BRANCH  54  77
ATOM     77  C   UNL A   1      45.135  24.409  32.861  1.00  0.00     0.064 A 
ATOM     78  C   UNL A   1      46.400  24.623  33.431  1.00  0.00     0.173 A 
ATOM     79  C   UNL A   1      44.433  23.276  33.341  1.00  0.00     0.173 A 
ATOM     80  F   UNL A   1      47.105  25.733  33.179  1.00  0.00    -0.203 F 
ATOM     81  C   UNL A   1      46.956  23.727  34.342  1.00  0.00     0.198 A 
ATOM     82  C   UNL A   1      44.952  22.438  34.322  1.00  0.00     0.198 A 
ATOM     83  F   UNL A   1      43.202  22.964  32.907  1.00  0.00    -0.203 F 
ATOM     84  F   UNL A   1      48.196  23.940  34.801  1.00  0.00    -0.200 F 
ATOM     85  C   UNL A   1      46.227  22.647  34.801  1.00  0.00     0.200 A 
ATOM     86  F   UNL A   1      44.201  21.443  34.813  1.00  0.00    -0.200 F 
ATOM     87  F   UNL A   1      46.742  21.825  35.724  1.00  0.00    -0.200 F 
ENDBRANCH  54  77
ENDBRANCH  28  29
ENDBRANCH  21  23
ENDBRANCH  20  21
ENDBRANCH   1  20
TORSDOF 12
ENDMDL
