MODEL 1
REMARK VINA RESULT:     -12.3      0.000      0.000
REMARK SMILES COc1cccc(N2C(=O)/C(=C/c3ccccc3C(=O)OCCOC(=O)c3ccc(-c4c5nc(c(-c6c(F)c(F)c(F)c(F)c6F)c6ccc([nH]6)c(-c6c(F)c(F)c(F)c(F)c6F)c6nc(c(-c7c(F)c(F)c(F)c(F)c7F)c7ccc4[nH]7)C=C6)C=C5)cc3)SC2=S)c1
REMARK SMILES IDX 22 1 21 2 19 3 20 4 18 5 13 6 14 7 15 8 17 9 16 10 12 11
REMARK SMILES IDX 8 12 9 13 91 14 10 15 11 16 90 17 92 18 7 19 3 20 4 21 93 22
REMARK SMILES IDX 5 23 6 24 2 25 1 26 23 27 24 28 25 29 26 30 27 31 28 32
REMARK SMILES IDX 89 33 29 34 88 35 30 36 31 37 32 38 82 39 33 40 87 41 81 42
REMARK SMILES IDX 83 43 34 44 86 45 80 46 79 47 35 49 67 50 47 51 66 52 48 53
REMARK SMILES IDX 51 54 65 55 84 56 49 57 50 58 64 60 85 61 52 62 36 63 37 64
REMARK SMILES IDX 45 65 38 66 39 67 43 68 46 69 40 70 41 71 44 72 42 73 68 74
REMARK SMILES IDX 69 75 77 76 70 77 71 78 75 79 78 80 72 81 73 82 76 83 74 84
REMARK SMILES IDX 53 85 54 86 62 87 55 88 56 89 60 90 63 91 57 92 58 93 61 94
REMARK SMILES IDX 59 95
REMARK H PARENT 83 48 51 59
REMARK Flexibility Score: inf
ROOT
ATOM      1  C   UNL A   1      38.142  21.120  25.357  1.00  0.00     0.275 C 
ENDROOT
BRANCH   1   2
ATOM      2  O   UNL A   1      36.891  20.984  24.650  1.00  0.00    -0.458 OA
BRANCH   2   3
ATOM      3  C   UNL A   1      35.756  21.191  25.369  1.00  0.00     0.338 C 
ATOM      4  O   UNL A   1      35.662  21.864  26.379  1.00  0.00    -0.246 OA
BRANCH   3   5
ATOM      5  C   UNL A   1      34.580  20.514  24.747  1.00  0.00     0.067 A 
ATOM      6  C   UNL A   1      33.592  21.194  24.008  1.00  0.00    -0.010 A 
ATOM      7  C   UNL A   1      32.534  20.460  23.449  1.00  0.00     0.009 A 
ATOM      8  C   UNL A   1      32.462  19.074  23.609  1.00  0.00     0.001 A 
ATOM      9  C   UNL A   1      34.518  19.115  24.861  1.00  0.00     0.016 A 
ATOM     10  C   UNL A   1      33.454  18.401  24.313  1.00  0.00     0.001 A 
BRANCH   6  11
ATOM     11  C   UNL A   1      33.606  22.647  23.789  1.00  0.00     0.030 C 
ATOM     12  N   UNL A   1      31.675  25.548  24.670  1.00  0.00    -0.261 N 
ATOM     13  C   UNL A   1      32.723  24.933  23.994  1.00  0.00     0.270 C 
ATOM     14  C   UNL A   1      31.010  24.774  25.614  1.00  0.00     0.152 C 
ATOM     15  O   UNL A   1      33.444  25.410  23.127  1.00  0.00    -0.268 OA
ATOM     16  C   UNL A   1      32.872  23.535  24.472  1.00  0.00     0.081 C 
ATOM     17  S   UNL A   1      31.872  23.257  25.838  1.00  0.00    -0.054 SA
ATOM     18  S   UNL A   1      29.559  25.058  26.397  1.00  0.00    -0.051 S 
BRANCH  12  19
ATOM     19  C   UNL A   1      31.367  26.910  24.397  1.00  0.00     0.054 A 
ATOM     20  C   UNL A   1      30.204  28.553  23.042  1.00  0.00     0.120 A 
ATOM     21  C   UNL A   1      30.653  29.567  23.884  1.00  0.00     0.046 A 
ATOM     22  C   UNL A   1      30.592  27.234  23.277  1.00  0.00     0.073 A 
ATOM     23  C   UNL A   1      31.424  29.258  25.004  1.00  0.00     0.006 A 
ATOM     24  C   UNL A   1      31.760  27.930  25.274  1.00  0.00     0.027 A 
BRANCH  20  25
ATOM     25  O   UNL A   1      29.401  28.935  22.002  1.00  0.00    -0.497 OA
ATOM     26  C   UNL A   1      29.153  30.339  21.945  1.00  0.00     0.278 C 
ENDBRANCH  20  25
ENDBRANCH  12  19
ENDBRANCH   6  11
ENDBRANCH   3   5
ENDBRANCH   2   3
ENDBRANCH   1   2
BRANCH   1  27
ATOM     27  C   UNL A   1      38.917  19.805  25.368  1.00  0.00     0.275 C 
BRANCH  27  28
ATOM     28  O   UNL A   1      39.811  19.779  26.491  1.00  0.00    -0.458 OA
BRANCH  28  29
ATOM     29  C   UNL A   1      41.112  19.592  26.184  1.00  0.00     0.338 C 
ATOM     30  O   UNL A   1      41.627  18.631  25.636  1.00  0.00    -0.246 OA
BRANCH  29  31
ATOM     31  C   UNL A   1      41.861  20.806  26.518  1.00  0.00     0.060 A 
ATOM     32  C   UNL A   1      42.151  21.042  27.859  1.00  0.00     0.016 A 
ATOM     33  C   UNL A   1      42.142  21.771  25.557  1.00  0.00     0.016 A 
ATOM     34  C   UNL A   1      42.647  22.272  28.268  1.00  0.00     0.010 A 
ATOM     35  C   UNL A   1      42.720  22.980  25.957  1.00  0.00     0.010 A 
ATOM     36  C   UNL A   1      42.944  23.258  27.320  1.00  0.00    -0.014 A 
BRANCH  36  37
ATOM     37  C   UNL A   1      43.426  24.595  27.761  1.00  0.00     0.031 A 
ATOM     38  C   UNL A   1      42.432  25.633  28.206  1.00  0.00     0.074 A 
ATOM     39  C   UNL A   1      44.744  24.875  27.787  1.00  0.00     0.049 A 
ATOM     40  N   UNL A   1      42.610  26.911  28.427  1.00  0.00    -0.248 NA
ATOM     41  C   UNL A   1      41.048  25.177  28.416  1.00  0.00     0.031 C 
ATOM     42  C   UNL A   1      45.818  23.941  27.445  1.00  0.00     0.029 A 
ATOM     43  N   UNL A   1      45.406  26.032  28.116  1.00  0.00    -0.354 N 
ATOM     44  C   UNL A   1      41.354  27.420  28.731  1.00  0.00     0.074 A 
ATOM     45  C   UNL A   1      40.422  26.316  28.679  1.00  0.00     0.031 C 
ATOM     46  C   UNL A   1      47.002  24.552  27.605  1.00  0.00     0.029 A 
ATOM     47  C   UNL A   1      46.770  25.945  27.969  1.00  0.00     0.049 A 
ATOM     48  H   UNL A   1      44.948  26.847  28.428  1.00  0.00     0.167 HD
ATOM     49  C   UNL A   1      41.015  28.699  29.020  1.00  0.00     0.037 A 
ATOM     50  C   UNL A   1      47.723  26.892  28.061  1.00  0.00     0.037 A 
ATOM     51  C   UNL A   1      41.961  29.778  29.143  1.00  0.00     0.049 A 
ATOM     52  C   UNL A   1      47.315  28.308  28.365  1.00  0.00     0.074 A 
ATOM     53  C   UNL A   1      41.722  31.102  29.463  1.00  0.00     0.029 A 
ATOM     54  N   UNL A   1      43.331  29.647  28.973  1.00  0.00    -0.354 N 
ATOM     55  N   UNL A   1      46.120  28.794  28.597  1.00  0.00    -0.248 NA
ATOM     56  C   UNL A   1      48.387  29.312  28.398  1.00  0.00     0.031 C 
ATOM     57  C   UNL A   1      42.944  31.782  29.451  1.00  0.00     0.029 A 
ATOM     58  C   UNL A   1      43.949  30.871  29.169  1.00  0.00     0.049 A 
ATOM     59  H   UNL A   1      43.796  28.809  28.747  1.00  0.00     0.167 HD
ATOM     60  C   UNL A   1      46.297  30.151  28.820  1.00  0.00     0.074 A 
ATOM     61  C   UNL A   1      47.718  30.411  28.717  1.00  0.00     0.031 C 
ATOM     62  C   UNL A   1      45.367  31.102  29.078  1.00  0.00     0.037 A 
BRANCH  49  63
ATOM     63  C   UNL A   1      39.561  29.022  29.191  1.00  0.00     0.064 A 
ATOM     64  C   UNL A   1      38.949  29.071  30.451  1.00  0.00     0.173 A 
ATOM     65  C   UNL A   1      38.783  29.356  28.070  1.00  0.00     0.173 A 
ATOM     66  F   UNL A   1      39.644  28.748  31.551  1.00  0.00    -0.203 F 
ATOM     67  C   UNL A   1      37.610  29.434  30.582  1.00  0.00     0.198 A 
ATOM     68  C   UNL A   1      37.452  29.743  28.208  1.00  0.00     0.198 A 
ATOM     69  F   UNL A   1      39.321  29.329  26.841  1.00  0.00    -0.203 F 
ATOM     70  F   UNL A   1      37.038  29.446  31.794  1.00  0.00    -0.200 F 
ATOM     71  C   UNL A   1      36.866  29.778  29.463  1.00  0.00     0.200 A 
ATOM     72  F   UNL A   1      36.741  30.088  27.125  1.00  0.00    -0.200 F 
ATOM     73  F   UNL A   1      35.583  30.143  29.594  1.00  0.00    -0.200 F 
ENDBRANCH  49  63
BRANCH  50  74
ATOM     74  C   UNL A   1      49.146  26.549  27.806  1.00  0.00     0.064 A 
ATOM     75  C   UNL A   1      50.046  26.357  28.865  1.00  0.00     0.173 A 
ATOM     76  C   UNL A   1      49.645  26.430  26.500  1.00  0.00     0.173 A 
ATOM     77  F   UNL A   1      49.626  26.488  30.132  1.00  0.00    -0.203 F 
ATOM     78  C   UNL A   1      51.390  26.079  28.626  1.00  0.00     0.198 A 
ATOM     79  C   UNL A   1      50.981  26.116  26.262  1.00  0.00     0.198 A 
ATOM     80  F   UNL A   1      48.829  26.607  25.450  1.00  0.00    -0.203 F 
ATOM     81  F   UNL A   1      52.240  25.955  29.655  1.00  0.00    -0.200 F 
ATOM     82  C   UNL A   1      51.856  25.952  27.325  1.00  0.00     0.200 A 
ATOM     83  F   UNL A   1      51.422  25.982  25.004  1.00  0.00    -0.200 F 
ATOM     84  F   UNL A   1      53.148  25.683  27.096  1.00  0.00    -0.200 F 
ENDBRANCH  50  74
BRANCH  62  85
ATOM     85  C   UNL A   1      45.863  32.497  29.311  1.00  0.00     0.064 A 
ATOM     86  C   UNL A   1      45.967  33.424  28.265  1.00  0.00     0.173 A 
ATOM     87  C   UNL A   1      46.209  32.918  30.604  1.00  0.00     0.173 A 
ATOM     88  F   UNL A   1      45.663  33.061  27.010  1.00  0.00    -0.203 F 
ATOM     89  C   UNL A   1      46.424  34.717  28.500  1.00  0.00     0.198 A 
ATOM     90  C   UNL A   1      46.639  34.220  30.840  1.00  0.00     0.198 A 
ATOM     91  F   UNL A   1      46.120  32.069  31.639  1.00  0.00    -0.203 F 
ATOM     92  F   UNL A   1      46.563  35.574  27.479  1.00  0.00    -0.200 F 
ATOM     93  C   UNL A   1      46.754  35.116  29.788  1.00  0.00     0.200 A 
ATOM     94  F   UNL A   1      46.946  34.607  32.086  1.00  0.00    -0.200 F 
ATOM     95  F   UNL A   1      47.190  36.363  30.013  1.00  0.00    -0.200 F 
ENDBRANCH  62  85
ENDBRANCH  36  37
ENDBRANCH  29  31
ENDBRANCH  28  29
ENDBRANCH  27  28
ENDBRANCH   1  27
TORSDOF 14
ENDMDL
MODEL 2
REMARK VINA RESULT:     -12.3      1.689      2.465
REMARK SMILES COc1cccc(N2C(=O)/C(=C/c3ccccc3C(=O)OCCOC(=O)c3ccc(-c4c5nc(c(-c6c(F)c(F)c(F)c(F)c6F)c6ccc([nH]6)c(-c6c(F)c(F)c(F)c(F)c6F)c6nc(c(-c7c(F)c(F)c(F)c(F)c7F)c7ccc4[nH]7)C=C6)C=C5)cc3)SC2=S)c1
REMARK SMILES IDX 22 1 21 2 19 3 20 4 18 5 13 6 14 7 15 8 17 9 16 10 12 11
REMARK SMILES IDX 8 12 9 13 91 14 10 15 11 16 90 17 92 18 7 19 3 20 4 21 93 22
REMARK SMILES IDX 5 23 6 24 2 25 1 26 23 27 24 28 25 29 26 30 27 31 28 32
REMARK SMILES IDX 89 33 29 34 88 35 30 36 31 37 32 38 82 39 33 40 87 41 81 42
REMARK SMILES IDX 83 43 34 44 86 45 80 46 79 47 35 49 67 50 47 51 66 52 48 53
REMARK SMILES IDX 51 54 65 55 84 56 49 57 50 58 64 60 85 61 52 62 36 63 37 64
REMARK SMILES IDX 45 65 38 66 39 67 43 68 46 69 40 70 41 71 44 72 42 73 68 74
REMARK SMILES IDX 69 75 77 76 70 77 71 78 75 79 78 80 72 81 73 82 76 83 74 84
REMARK SMILES IDX 53 85 54 86 62 87 55 88 56 89 60 90 63 91 57 92 58 93 61 94
REMARK SMILES IDX 59 95
REMARK H PARENT 83 48 51 59
REMARK Flexibility Score: inf
ROOT
ATOM      1  C   UNL A   1      36.401  20.223  24.921  1.00  0.00     0.275 C 
ENDROOT
BRANCH   1   2
ATOM      2  O   UNL A   1      35.816  21.309  25.670  1.00  0.00    -0.458 OA
BRANCH   2   3
ATOM      3  C   UNL A   1      34.551  21.124  26.131  1.00  0.00     0.338 C 
ATOM      4  O   UNL A   1      34.125  21.480  27.215  1.00  0.00    -0.246 OA
BRANCH   3   5
ATOM      5  C   UNL A   1      33.690  20.447  25.117  1.00  0.00     0.067 A 
ATOM      6  C   UNL A   1      33.064  21.123  24.051  1.00  0.00    -0.010 A 
ATOM      7  C   UNL A   1      32.288  20.390  23.141  1.00  0.00     0.009 A 
ATOM      8  C   UNL A   1      32.145  19.006  23.275  1.00  0.00     0.001 A 
ATOM      9  C   UNL A   1      33.573  19.050  25.213  1.00  0.00     0.016 A 
ATOM     10  C   UNL A   1      32.788  18.336  24.310  1.00  0.00     0.001 A 
BRANCH   6  11
ATOM     11  C   UNL A   1      33.178  22.573  23.840  1.00  0.00     0.030 C 
ATOM     12  N   UNL A   1      31.372  25.583  24.613  1.00  0.00    -0.261 N 
ATOM     13  C   UNL A   1      32.421  24.907  23.999  1.00  0.00     0.270 C 
ATOM     14  C   UNL A   1      30.607  24.850  25.512  1.00  0.00     0.152 C 
ATOM     15  O   UNL A   1      33.220  25.341  23.179  1.00  0.00    -0.268 OA
ATOM     16  C   UNL A   1      32.458  23.503  24.480  1.00  0.00     0.081 C 
ATOM     17  S   UNL A   1      31.362  23.285  25.781  1.00  0.00    -0.054 SA
ATOM     18  S   UNL A   1      29.130  25.220  26.207  1.00  0.00    -0.051 S 
BRANCH  12  19
ATOM     19  C   UNL A   1      31.162  26.961  24.328  1.00  0.00     0.054 A 
ATOM     20  C   UNL A   1      30.110  28.671  22.964  1.00  0.00     0.120 A 
ATOM     21  C   UNL A   1      30.641  29.658  23.790  1.00  0.00     0.046 A 
ATOM     22  C   UNL A   1      30.402  27.330  23.210  1.00  0.00     0.073 A 
ATOM     23  C   UNL A   1      31.398  29.306  24.906  1.00  0.00     0.006 A 
ATOM     24  C   UNL A   1      31.638  27.959  25.188  1.00  0.00     0.027 A 
BRANCH  20  25
ATOM     25  O   UNL A   1      29.327  29.100  21.927  1.00  0.00    -0.497 OA
ATOM     26  C   UNL A   1      28.078  29.658  22.335  1.00  0.00     0.278 C 
ENDBRANCH  20  25
ENDBRANCH  12  19
ENDBRANCH   6  11
ENDBRANCH   3   5
ENDBRANCH   2   3
ENDBRANCH   1   2
BRANCH   1  27
ATOM     27  C   UNL A   1      37.924  20.322  24.900  1.00  0.00     0.275 C 
BRANCH  27  28
ATOM     28  O   UNL A   1      38.354  21.366  25.788  1.00  0.00    -0.458 OA
BRANCH  28  29
ATOM     29  C   UNL A   1      39.517  21.128  26.431  1.00  0.00     0.338 C 
ATOM     30  O   UNL A   1      40.135  20.079  26.508  1.00  0.00    -0.246 OA
BRANCH  29  31
ATOM     31  C   UNL A   1      40.029  22.389  26.973  1.00  0.00     0.060 A 
ATOM     32  C   UNL A   1      39.540  23.575  26.433  1.00  0.00     0.016 A 
ATOM     33  C   UNL A   1      41.077  22.412  27.886  1.00  0.00     0.016 A 
ATOM     34  C   UNL A   1      40.143  24.789  26.732  1.00  0.00     0.010 A 
ATOM     35  C   UNL A   1      41.632  23.642  28.254  1.00  0.00     0.010 A 
ATOM     36  C   UNL A   1      41.195  24.840  27.652  1.00  0.00    -0.014 A 
BRANCH  36  37
ATOM     37  C   UNL A   1      41.877  26.132  27.934  1.00  0.00     0.031 A 
ATOM     38  C   UNL A   1      41.173  27.179  28.754  1.00  0.00     0.074 A 
ATOM     39  C   UNL A   1      43.125  26.363  27.482  1.00  0.00     0.049 A 
ATOM     40  N   UNL A   1      41.488  28.436  28.942  1.00  0.00    -0.248 NA
ATOM     41  C   UNL A   1      39.941  26.762  29.444  1.00  0.00     0.031 C 
ATOM     42  C   UNL A   1      43.947  25.411  26.732  1.00  0.00     0.029 A 
ATOM     43  N   UNL A   1      43.923  27.476  27.587  1.00  0.00    -0.354 N 
ATOM     44  C   UNL A   1      40.461  28.973  29.708  1.00  0.00     0.074 A 
ATOM     45  C   UNL A   1      39.517  27.907  29.963  1.00  0.00     0.031 C 
ATOM     46  C   UNL A   1      45.137  25.970  26.466  1.00  0.00     0.029 A 
ATOM     47  C   UNL A   1      45.130  27.348  26.942  1.00  0.00     0.049 A 
ATOM     48  H   UNL A   1      43.656  28.287  28.076  1.00  0.00     0.167 HD
ATOM     49  C   UNL A   1      40.322  30.244  30.151  1.00  0.00     0.037 A 
ATOM     50  C   UNL A   1      46.100  28.253  26.712  1.00  0.00     0.037 A 
ATOM     51  C   UNL A   1      41.303  31.280  29.956  1.00  0.00     0.049 A 
ATOM     52  C   UNL A   1      45.909  29.664  27.198  1.00  0.00     0.074 A 
ATOM     53  C   UNL A   1      41.270  32.593  30.391  1.00  0.00     0.029 A 
ATOM     54  N   UNL A   1      42.505  31.110  29.287  1.00  0.00    -0.354 N 
ATOM     55  N   UNL A   1      44.911  30.179  27.874  1.00  0.00    -0.248 NA
ATOM     56  C   UNL A   1      46.971  30.626  26.871  1.00  0.00     0.031 C 
ATOM     57  C   UNL A   1      42.437  33.228  29.955  1.00  0.00     0.029 A 
ATOM     58  C   UNL A   1      43.217  32.299  29.286  1.00  0.00     0.049 A 
ATOM     59  H   UNL A   1      42.809  30.269  28.873  1.00  0.00     0.167 HD
ATOM     60  C   UNL A   1      45.230  31.514  28.068  1.00  0.00     0.074 A 
ATOM     61  C   UNL A   1      46.525  31.728  27.456  1.00  0.00     0.031 C 
ATOM     62  C   UNL A   1      44.513  32.482  28.687  1.00  0.00     0.037 A 
BRANCH  49  63
ATOM     63  C   UNL A   1      39.051  30.610  30.859  1.00  0.00     0.064 A 
ATOM     64  C   UNL A   1      38.937  30.570  32.255  1.00  0.00     0.173 A 
ATOM     65  C   UNL A   1      37.950  31.075  30.122  1.00  0.00     0.173 A 
ATOM     66  F   UNL A   1      39.955  30.121  33.003  1.00  0.00    -0.203 F 
ATOM     67  C   UNL A   1      37.762  30.973  32.888  1.00  0.00     0.198 A 
ATOM     68  C   UNL A   1      36.788  31.502  30.760  1.00  0.00     0.198 A 
ATOM     69  F   UNL A   1      38.009  31.137  28.784  1.00  0.00    -0.203 F 
ATOM     70  F   UNL A   1      37.664  30.900  34.222  1.00  0.00    -0.200 F 
ATOM     71  C   UNL A   1      36.693  31.447  32.141  1.00  0.00     0.200 A 
ATOM     72  F   UNL A   1      35.762  31.972  30.035  1.00  0.00    -0.200 F 
ATOM     73  F   UNL A   1      35.571  31.850  32.753  1.00  0.00    -0.200 F 
ENDBRANCH  49  63
BRANCH  50  74
ATOM     74  C   UNL A   1      47.310  27.874  25.936  1.00  0.00     0.064 A 
ATOM     75  C   UNL A   1      47.274  27.787  24.537  1.00  0.00     0.173 A 
ATOM     76  C   UNL A   1      48.520  27.566  26.576  1.00  0.00     0.173 A 
ATOM     77  F   UNL A   1      46.133  28.043  23.879  1.00  0.00    -0.203 F 
ATOM     78  C   UNL A   1      48.395  27.388  23.811  1.00  0.00     0.198 A 
ATOM     79  C   UNL A   1      49.650  27.202  25.847  1.00  0.00     0.198 A 
ATOM     80  F   UNL A   1      48.609  27.629  27.913  1.00  0.00    -0.203 F 
ATOM     81  F   UNL A   1      48.318  27.260  22.480  1.00  0.00    -0.200 F 
ATOM     82  C   UNL A   1      49.584  27.103  24.466  1.00  0.00     0.200 A 
ATOM     83  F   UNL A   1      50.799  26.941  26.484  1.00  0.00    -0.200 F 
ATOM     84  F   UNL A   1      50.662  26.722  23.768  1.00  0.00    -0.200 F 
ENDBRANCH  50  74
BRANCH  62  85
ATOM     85  C   UNL A   1      45.134  33.844  28.773  1.00  0.00     0.064 A 
ATOM     86  C   UNL A   1      44.891  34.825  27.801  1.00  0.00     0.173 A 
ATOM     87  C   UNL A   1      45.957  34.179  29.858  1.00  0.00     0.173 A 
ATOM     88  F   UNL A   1      44.124  34.545  26.738  1.00  0.00    -0.203 F 
ATOM     89  C   UNL A   1      45.472  36.086  27.900  1.00  0.00     0.198 A 
ATOM     90  C   UNL A   1      46.514  35.449  29.968  1.00  0.00     0.198 A 
ATOM     91  F   UNL A   1      46.214  33.276  30.817  1.00  0.00    -0.203 F 
ATOM     92  F   UNL A   1      45.266  36.994  26.936  1.00  0.00    -0.200 F 
ATOM     93  C   UNL A   1      46.278  36.399  28.986  1.00  0.00     0.200 A 
ATOM     94  F   UNL A   1      47.282  35.753  31.023  1.00  0.00    -0.200 F 
ATOM     95  F   UNL A   1      46.832  37.615  29.081  1.00  0.00    -0.200 F 
ENDBRANCH  62  85
ENDBRANCH  36  37
ENDBRANCH  29  31
ENDBRANCH  28  29
ENDBRANCH  27  28
ENDBRANCH   1  27
TORSDOF 14
ENDMDL
MODEL 3
REMARK VINA RESULT:     -12.3      0.717      1.736
REMARK SMILES COc1cccc(N2C(=O)/C(=C/c3ccccc3C(=O)OCCOC(=O)c3ccc(-c4c5nc(c(-c6c(F)c(F)c(F)c(F)c6F)c6ccc([nH]6)c(-c6c(F)c(F)c(F)c(F)c6F)c6nc(c(-c7c(F)c(F)c(F)c(F)c7F)c7ccc4[nH]7)C=C6)C=C5)cc3)SC2=S)c1
REMARK SMILES IDX 22 1 21 2 19 3 20 4 18 5 13 6 14 7 15 8 17 9 16 10 12 11
REMARK SMILES IDX 8 12 9 13 91 14 10 15 11 16 90 17 92 18 7 19 3 20 4 21 93 22
REMARK SMILES IDX 5 23 6 24 2 25 1 26 23 27 24 28 25 29 26 30 27 31 28 32
REMARK SMILES IDX 89 33 29 34 88 35 30 36 31 37 32 38 82 39 33 40 87 41 81 42
REMARK SMILES IDX 83 43 34 44 86 45 80 46 79 47 35 49 67 50 47 51 66 52 48 53
REMARK SMILES IDX 51 54 65 55 84 56 49 57 50 58 64 60 85 61 52 62 36 63 37 64
REMARK SMILES IDX 45 65 38 66 39 67 43 68 46 69 40 70 41 71 44 72 42 73 68 74
REMARK SMILES IDX 69 75 77 76 70 77 71 78 75 79 78 80 72 81 73 82 76 83 74 84
REMARK SMILES IDX 53 85 54 86 62 87 55 88 56 89 60 90 63 91 57 92 58 93 61 94
REMARK SMILES IDX 59 95
REMARK H PARENT 83 48 51 59
REMARK Flexibility Score: inf
ROOT
ATOM      1  C   UNL A   1      38.235  21.178  25.367  1.00  0.00     0.275 C 
ENDROOT
BRANCH   1   2
ATOM      2  O   UNL A   1      36.999  21.051  24.632  1.00  0.00    -0.458 OA
BRANCH   2   3
ATOM      3  C   UNL A   1      35.859  21.391  25.288  1.00  0.00     0.338 C 
ATOM      4  O   UNL A   1      35.771  22.191  26.201  1.00  0.00    -0.246 OA
BRANCH   3   5
ATOM      5  C   UNL A   1      34.670  20.686  24.725  1.00  0.00     0.067 A 
ATOM      6  C   UNL A   1      33.640  21.339  24.019  1.00  0.00    -0.010 A 
ATOM      7  C   UNL A   1      32.572  20.581  23.516  1.00  0.00     0.009 A 
ATOM      8  C   UNL A   1      32.531  19.196  23.696  1.00  0.00     0.001 A 
ATOM      9  C   UNL A   1      34.636  19.289  24.860  1.00  0.00     0.016 A 
ATOM     10  C   UNL A   1      33.563  18.549  24.367  1.00  0.00     0.001 A 
BRANCH   6  11
ATOM     11  C   UNL A   1      33.620  22.789  23.781  1.00  0.00     0.030 C 
ATOM     12  N   UNL A   1      31.623  25.656  24.625  1.00  0.00    -0.261 N 
ATOM     13  C   UNL A   1      32.685  25.057  23.956  1.00  0.00     0.270 C 
ATOM     14  C   UNL A   1      30.978  24.880  25.580  1.00  0.00     0.152 C 
ATOM     15  O   UNL A   1      33.393  25.538  23.081  1.00  0.00    -0.268 OA
ATOM     16  C   UNL A   1      32.866  23.669  24.453  1.00  0.00     0.081 C 
ATOM     17  S   UNL A   1      31.874  23.387  25.823  1.00  0.00    -0.054 SA
ATOM     18  S   UNL A   1      29.521  25.142  26.361  1.00  0.00    -0.051 S 
BRANCH  12  19
ATOM     19  C   UNL A   1      31.283  27.007  24.334  1.00  0.00     0.054 A 
ATOM     20  C   UNL A   1      30.050  28.602  22.982  1.00  0.00     0.120 A 
ATOM     21  C   UNL A   1      30.508  29.641  23.788  1.00  0.00     0.046 A 
ATOM     22  C   UNL A   1      30.468  27.295  23.232  1.00  0.00     0.073 A 
ATOM     23  C   UNL A   1      31.319  29.369  24.889  1.00  0.00     0.006 A 
ATOM     24  C   UNL A   1      31.686  28.052  25.176  1.00  0.00     0.027 A 
BRANCH  20  25
ATOM     25  O   UNL A   1      29.208  28.948  21.960  1.00  0.00    -0.497 OA
ATOM     26  C   UNL A   1      29.125  30.354  21.728  1.00  0.00     0.278 C 
ENDBRANCH  20  25
ENDBRANCH  12  19
ENDBRANCH   6  11
ENDBRANCH   3   5
ENDBRANCH   2   3
ENDBRANCH   1   2
BRANCH   1  27
ATOM     27  C   UNL A   1      39.020  19.870  25.361  1.00  0.00     0.275 C 
BRANCH  27  28
ATOM     28  O   UNL A   1      39.935  19.850  26.468  1.00  0.00    -0.458 OA
BRANCH  28  29
ATOM     29  C   UNL A   1      41.227  19.635  26.139  1.00  0.00     0.338 C 
ATOM     30  O   UNL A   1      41.721  18.641  25.632  1.00  0.00    -0.246 OA
BRANCH  29  31
ATOM     31  C   UNL A   1      41.993  20.859  26.388  1.00  0.00     0.060 A 
ATOM     32  C   UNL A   1      42.342  21.150  27.703  1.00  0.00     0.016 A 
ATOM     33  C   UNL A   1      42.234  21.780  25.375  1.00  0.00     0.016 A 
ATOM     34  C   UNL A   1      42.859  22.394  28.037  1.00  0.00     0.010 A 
ATOM     35  C   UNL A   1      42.832  23.003  25.697  1.00  0.00     0.010 A 
ATOM     36  C   UNL A   1      43.117  23.337  27.036  1.00  0.00    -0.014 A 
BRANCH  36  37
ATOM     37  C   UNL A   1      43.621  24.690  27.398  1.00  0.00     0.031 A 
ATOM     38  C   UNL A   1      42.678  25.699  27.994  1.00  0.00     0.074 A 
ATOM     39  C   UNL A   1      44.917  25.010  27.217  1.00  0.00     0.049 A 
ATOM     40  N   UNL A   1      42.849  26.982  28.186  1.00  0.00    -0.248 NA
ATOM     41  C   UNL A   1      41.358  25.202  28.418  1.00  0.00     0.031 C 
ATOM     42  C   UNL A   1      45.953  24.107  26.710  1.00  0.00     0.029 A 
ATOM     43  N   UNL A   1      45.588  26.187  27.440  1.00  0.00    -0.354 N 
ATOM     44  C   UNL A   1      41.641  27.455  28.683  1.00  0.00     0.074 A 
ATOM     45  C   UNL A   1      40.747  26.322  28.777  1.00  0.00     0.031 C 
ATOM     46  C   UNL A   1      47.128  24.754  26.684  1.00  0.00     0.029 A 
ATOM     47  C   UNL A   1      46.913  26.141  27.081  1.00  0.00     0.049 A 
ATOM     48  H   UNL A   1      45.160  26.988  27.821  1.00  0.00     0.167 HD
ATOM     49  C   UNL A   1      41.314  28.723  29.024  1.00  0.00     0.037 A 
ATOM     50  C   UNL A   1      47.840  27.116  27.025  1.00  0.00     0.037 A 
ATOM     51  C   UNL A   1      42.234  29.831  28.999  1.00  0.00     0.049 A 
ATOM     52  C   UNL A   1      47.442  28.520  27.390  1.00  0.00     0.074 A 
ATOM     53  C   UNL A   1      42.008  31.149  29.354  1.00  0.00     0.029 A 
ATOM     54  N   UNL A   1      43.564  29.741  28.616  1.00  0.00    -0.354 N 
ATOM     55  N   UNL A   1      46.284  28.971  27.807  1.00  0.00    -0.248 NA
ATOM     56  C   UNL A   1      48.475  29.556  27.257  1.00  0.00     0.031 C 
ATOM     57  C   UNL A   1      43.192  31.865  29.152  1.00  0.00     0.029 A 
ATOM     58  C   UNL A   1      44.167  30.984  28.714  1.00  0.00     0.049 A 
ATOM     59  H   UNL A   1      44.012  28.916  28.319  1.00  0.00     0.167 HD
ATOM     60  C   UNL A   1      46.452  30.333  28.002  1.00  0.00     0.074 A 
ATOM     61  C   UNL A   1      47.831  30.635  27.677  1.00  0.00     0.031 C 
ATOM     62  C   UNL A   1      45.546  31.257  28.404  1.00  0.00     0.037 A 
BRANCH  49  63
ATOM     63  C   UNL A   1      39.895  29.004  29.421  1.00  0.00     0.064 A 
ATOM     64  C   UNL A   1      38.914  29.360  28.485  1.00  0.00     0.173 A 
ATOM     65  C   UNL A   1      39.499  28.844  30.759  1.00  0.00     0.173 A 
ATOM     66  F   UNL A   1      39.243  29.539  27.197  1.00  0.00    -0.203 F 
ATOM     67  C   UNL A   1      37.591  29.556  28.875  1.00  0.00     0.198 A 
ATOM     68  C   UNL A   1      38.170  29.015  31.140  1.00  0.00     0.198 A 
ATOM     69  F   UNL A   1      40.397  28.500  31.693  1.00  0.00    -0.203 F 
ATOM     70  F   UNL A   1      36.675  29.925  27.969  1.00  0.00    -0.200 F 
ATOM     71  C   UNL A   1      37.219  29.375  30.199  1.00  0.00     0.200 A 
ATOM     72  F   UNL A   1      37.812  28.825  32.418  1.00  0.00    -0.200 F 
ATOM     73  F   UNL A   1      35.942  29.547  30.569  1.00  0.00    -0.200 F 
ENDBRANCH  49  63
BRANCH  50  74
ATOM     74  C   UNL A   1      49.216  26.815  26.549  1.00  0.00     0.064 A 
ATOM     75  C   UNL A   1      50.215  26.398  27.441  1.00  0.00     0.173 A 
ATOM     76  C   UNL A   1      49.569  26.961  25.199  1.00  0.00     0.173 A 
ATOM     77  F   UNL A   1      49.936  26.271  28.747  1.00  0.00    -0.203 F 
ATOM     78  C   UNL A   1      51.516  26.159  27.003  1.00  0.00     0.198 A 
ATOM     79  C   UNL A   1      50.861  26.687  24.757  1.00  0.00     0.198 A 
ATOM     80  F   UNL A   1      48.654  27.361  24.304  1.00  0.00    -0.203 F 
ATOM     81  F   UNL A   1      52.465  25.815  27.885  1.00  0.00    -0.200 F 
ATOM     82  C   UNL A   1      51.837  26.296  25.661  1.00  0.00     0.200 A 
ATOM     83  F   UNL A   1      51.162  26.808  23.457  1.00  0.00    -0.200 F 
ATOM     84  F   UNL A   1      53.087  26.064  25.240  1.00  0.00    -0.200 F 
ENDBRANCH  50  74
BRANCH  62  85
ATOM     85  C   UNL A   1      46.030  32.667  28.558  1.00  0.00     0.064 A 
ATOM     86  C   UNL A   1      46.583  33.127  29.762  1.00  0.00     0.173 A 
ATOM     87  C   UNL A   1      45.969  33.558  27.477  1.00  0.00     0.173 A 
ATOM     88  F   UNL A   1      46.646  32.315  30.828  1.00  0.00    -0.203 F 
ATOM     89  C   UNL A   1      47.032  34.438  29.886  1.00  0.00     0.198 A 
ATOM     90  C   UNL A   1      46.445  34.860  27.595  1.00  0.00     0.198 A 
ATOM     91  F   UNL A   1      45.455  33.163  26.302  1.00  0.00    -0.203 F 
ATOM     92  F   UNL A   1      47.512  34.872  31.059  1.00  0.00    -0.200 F 
ATOM     93  C   UNL A   1      46.968  35.301  28.801  1.00  0.00     0.200 A 
ATOM     94  F   UNL A   1      46.394  35.689  26.544  1.00  0.00    -0.200 F 
ATOM     95  F   UNL A   1      47.406  36.562  28.921  1.00  0.00    -0.200 F 
ENDBRANCH  62  85
ENDBRANCH  36  37
ENDBRANCH  29  31
ENDBRANCH  28  29
ENDBRANCH  27  28
ENDBRANCH   1  27
TORSDOF 14
ENDMDL
