MODEL 1
REMARK VINA RESULT:     -13.2      0.000      0.000
REMARK SMILES N#C/C(=C\c1ccc(-c2cc(C(F)(F)F)ccc2Cl)o1)C(=O)OCCOC(=O)c1ccc(-c2c3nc(c(-c4c(F)c(F)c(F)c(F)c4F)c4ccc([nH]4)c(-c4c(F)c(F)c(F)c(F)c4F)c4nc(c(-c5c(F)c(F)c(F)c(F)c5F)c5ccc2[nH]5)C=C4)C=C3)cc1
REMARK SMILES IDX 24 1 23 2 21 3 22 4 3 5 4 6 2 7 1 8 5 9 6 10 20 11 7 12 8 13
REMARK SMILES IDX 9 14 10 15 18 16 11 17 17 18 19 19 16 20 12 21 13 22 14 23
REMARK SMILES IDX 15 24 25 25 26 26 27 27 28 28 29 29 30 30 91 31 31 32 90 33
REMARK SMILES IDX 32 34 33 35 34 36 84 37 35 38 89 39 83 40 85 41 36 42 88 43
REMARK SMILES IDX 82 44 81 45 37 47 69 48 49 49 68 50 50 51 53 52 67 53 86 54
REMARK SMILES IDX 51 55 52 56 66 58 87 59 54 60 38 61 39 62 47 63 40 64 41 65
REMARK SMILES IDX 45 66 48 67 42 68 43 69 46 70 44 71 70 72 71 73 79 74 72 75
REMARK SMILES IDX 73 76 77 77 80 78 74 79 75 80 78 81 76 82 55 83 56 84 64 85
REMARK SMILES IDX 57 86 58 87 62 88 65 89 59 90 60 91 63 92 61 93
REMARK H PARENT 85 46 53 57
REMARK Flexibility Score: inf
ROOT
ATOM      1  C   UNL A   1      31.496  28.816  25.208  1.00  0.00     0.275 C 
ENDROOT
BRANCH   1   2
ATOM      2  O   UNL A   1      32.197  27.589  25.484  1.00  0.00    -0.458 OA
BRANCH   2   3
ATOM      3  C   UNL A   1      31.706  26.841  26.503  1.00  0.00     0.349 C 
ATOM      4  O   UNL A   1      31.139  27.268  27.498  1.00  0.00    -0.245 OA
BRANCH   3   5
ATOM      5  C   UNL A   1      31.903  25.410  26.235  1.00  0.00     0.141 C 
ATOM      6  C   UNL A   1      33.161  24.990  25.951  1.00  0.00     0.074 C 
BRANCH   5   7
ATOM      7  C   UNL A   1      30.898  24.366  26.695  1.00  0.00     0.107 C 
ATOM      8  N   UNL A   1      30.065  23.500  27.077  1.00  0.00    -0.192 NA
ENDBRANCH   5   7
BRANCH   6   9
ATOM      9  C   UNL A   1      33.532  23.603  25.949  1.00  0.00     0.129 A 
ATOM     10  C   UNL A   1      34.351  22.900  26.829  1.00  0.00     0.051 A 
ATOM     11  O   UNL A   1      33.115  22.703  24.977  1.00  0.00    -0.457 OA
ATOM     12  C   UNL A   1      34.487  21.581  26.351  1.00  0.00     0.051 A 
ATOM     13  C   UNL A   1      33.692  21.489  25.233  1.00  0.00     0.136 A 
BRANCH  13  14
ATOM     14  C   UNL A   1      33.378  20.372  24.344  1.00  0.00     0.036 A 
ATOM     15  C   UNL A   1      33.904  19.092  24.603  1.00  0.00     0.026 A 
ATOM     16  C   UNL A   1      32.467  20.512  23.278  1.00  0.00     0.052 A 
ATOM     17  C   UNL A   1      33.511  17.968  23.844  1.00  0.00     0.056 A 
ATOM     18  C   UNL A   1      32.080  19.405  22.515  1.00  0.00     0.022 A 
ATOM     19  Cl  UNL A   1      31.779  22.039  22.834  1.00  0.00    -0.084 Cl
ATOM     20  C   UNL A   1      32.592  18.141  22.800  1.00  0.00     0.014 A 
BRANCH  17  21
ATOM     21  C   UNL A   1      34.053  16.593  24.163  1.00  0.00     0.416 C 
ATOM     22  F   UNL A   1      33.152  15.818  24.826  1.00  0.00    -0.166 F 
ATOM     23  F   UNL A   1      34.400  15.897  23.046  1.00  0.00    -0.166 F 
ATOM     24  F   UNL A   1      35.168  16.618  24.946  1.00  0.00    -0.166 F 
ENDBRANCH  17  21
ENDBRANCH  13  14
ENDBRANCH   6   9
ENDBRANCH   3   5
ENDBRANCH   2   3
ENDBRANCH   1   2
BRANCH   1  25
ATOM     25  C   UNL A   1      32.407  30.016  25.476  1.00  0.00     0.275 C 
BRANCH  25  26
ATOM     26  O   UNL A   1      32.599  30.218  26.891  1.00  0.00    -0.458 OA
BRANCH  26  27
ATOM     27  C   UNL A   1      33.217  31.373  27.228  1.00  0.00     0.338 C 
ATOM     28  O   UNL A   1      32.710  32.477  27.341  1.00  0.00    -0.246 OA
BRANCH  27  29
ATOM     29  C   UNL A   1      34.609  31.120  27.628  1.00  0.00     0.060 A 
ATOM     30  C   UNL A   1      34.954  29.817  27.948  1.00  0.00     0.016 A 
ATOM     31  C   UNL A   1      35.486  32.158  27.927  1.00  0.00     0.016 A 
ATOM     32  C   UNL A   1      36.077  29.554  28.715  1.00  0.00     0.010 A 
ATOM     33  C   UNL A   1      36.706  31.866  28.558  1.00  0.00     0.010 A 
ATOM     34  C   UNL A   1      36.996  30.562  29.005  1.00  0.00    -0.014 A 
BRANCH  34  35
ATOM     35  C   UNL A   1      38.213  30.230  29.800  1.00  0.00     0.031 A 
ATOM     36  C   UNL A   1      39.295  29.365  29.210  1.00  0.00     0.074 A 
ATOM     37  C   UNL A   1      38.387  30.748  31.037  1.00  0.00     0.049 A 
ATOM     38  N   UNL A   1      40.310  28.787  29.801  1.00  0.00    -0.248 NA
ATOM     39  C   UNL A   1      39.212  29.100  27.765  1.00  0.00     0.031 C 
ATOM     40  C   UNL A   1      37.472  31.674  31.709  1.00  0.00     0.029 A 
ATOM     41  N   UNL A   1      39.404  30.581  31.947  1.00  0.00    -0.354 N 
ATOM     42  C   UNL A   1      40.946  28.039  28.817  1.00  0.00     0.074 A 
ATOM     43  C   UNL A   1      40.197  28.231  27.593  1.00  0.00     0.031 C 
ATOM     44  C   UNL A   1      37.989  32.033  32.890  1.00  0.00     0.029 A 
ATOM     45  C   UNL A   1      39.200  31.261  33.123  1.00  0.00     0.049 A 
ATOM     46  H   UNL A   1      40.199  30.028  31.773  1.00  0.00     0.167 HD
ATOM     47  C   UNL A   1      42.051  27.263  28.933  1.00  0.00     0.037 A 
ATOM     48  C   UNL A   1      39.865  31.218  34.293  1.00  0.00     0.037 A 
ATOM     49  C   UNL A   1      42.818  27.129  30.145  1.00  0.00     0.049 A 
ATOM     50  C   UNL A   1      41.047  30.304  34.419  1.00  0.00     0.074 A 
ATOM     51  C   UNL A   1      43.948  26.362  30.373  1.00  0.00     0.029 A 
ATOM     52  N   UNL A   1      42.545  27.797  31.331  1.00  0.00    -0.354 N 
ATOM     53  N   UNL A   1      41.584  29.520  33.516  1.00  0.00    -0.248 NA
ATOM     54  C   UNL A   1      41.700  30.247  35.732  1.00  0.00     0.031 C 
ATOM     55  C   UNL A   1      44.328  26.529  31.710  1.00  0.00     0.029 A 
ATOM     56  C   UNL A   1      43.472  27.445  32.299  1.00  0.00     0.049 A 
ATOM     57  H   UNL A   1      41.800  28.428  31.464  1.00  0.00     0.167 HD
ATOM     58  C   UNL A   1      42.645  28.886  34.145  1.00  0.00     0.074 A 
ATOM     59  C   UNL A   1      42.689  29.394  35.501  1.00  0.00     0.031 C 
ATOM     60  C   UNL A   1      43.502  27.962  33.644  1.00  0.00     0.037 A 
BRANCH  47  61
ATOM     61  C   UNL A   1      42.462  26.457  27.731  1.00  0.00     0.064 A 
ATOM     62  C   UNL A   1      41.888  25.214  27.428  1.00  0.00     0.173 A 
ATOM     63  C   UNL A   1      43.445  26.951  26.858  1.00  0.00     0.173 A 
ATOM     64  F   UNL A   1      40.955  24.686  28.234  1.00  0.00    -0.203 F 
ATOM     65  C   UNL A   1      42.309  24.480  26.320  1.00  0.00     0.198 A 
ATOM     66  C   UNL A   1      43.838  26.232  25.733  1.00  0.00     0.198 A 
ATOM     67  F   UNL A   1      44.025  28.139  27.093  1.00  0.00    -0.203 F 
ATOM     68  F   UNL A   1      41.790  23.266  26.087  1.00  0.00    -0.200 F 
ATOM     69  C   UNL A   1      43.278  24.991  25.471  1.00  0.00     0.200 A 
ATOM     70  F   UNL A   1      44.764  26.736  24.905  1.00  0.00    -0.200 F 
ATOM     71  F   UNL A   1      43.680  24.285  24.405  1.00  0.00    -0.200 F 
ENDBRANCH  47  61
BRANCH  48  72
ATOM     72  C   UNL A   1      39.370  32.012  35.450  1.00  0.00     0.064 A 
ATOM     73  C   UNL A   1      38.489  31.459  36.389  1.00  0.00     0.173 A 
ATOM     74  C   UNL A   1      39.790  33.338  35.653  1.00  0.00     0.173 A 
ATOM     75  F   UNL A   1      38.037  30.207  36.227  1.00  0.00    -0.203 F 
ATOM     76  C   UNL A   1      38.045  32.202  37.482  1.00  0.00     0.198 A 
ATOM     77  C   UNL A   1      39.374  34.065  36.765  1.00  0.00     0.198 A 
ATOM     78  F   UNL A   1      40.631  33.917  34.783  1.00  0.00    -0.203 F 
ATOM     79  F   UNL A   1      37.170  31.664  38.342  1.00  0.00    -0.200 F 
ATOM     80  C   UNL A   1      38.496  33.499  37.675  1.00  0.00     0.200 A 
ATOM     81  F   UNL A   1      39.831  35.311  36.956  1.00  0.00    -0.200 F 
ATOM     82  F   UNL A   1      38.080  34.206  38.734  1.00  0.00    -0.200 F 
ENDBRANCH  48  72
BRANCH  60  83
ATOM     83  C   UNL A   1      44.582  27.470  34.562  1.00  0.00     0.064 A 
ATOM     84  C   UNL A   1      44.387  26.366  35.406  1.00  0.00     0.173 A 
ATOM     85  C   UNL A   1      45.837  28.098  34.579  1.00  0.00     0.173 A 
ATOM     86  F   UNL A   1      43.199  25.743  35.440  1.00  0.00    -0.203 F 
ATOM     87  C   UNL A   1      45.400  25.927  36.253  1.00  0.00     0.198 A 
ATOM     88  C   UNL A   1      46.857  27.636  35.404  1.00  0.00     0.198 A 
ATOM     89  F   UNL A   1      46.075  29.156  33.789  1.00  0.00    -0.203 F 
ATOM     90  F   UNL A   1      45.175  24.904  37.089  1.00  0.00    -0.200 F 
ATOM     91  C   UNL A   1      46.636  26.557  36.247  1.00  0.00     0.200 A 
ATOM     92  F   UNL A   1      48.055  28.239  35.387  1.00  0.00    -0.200 F 
ATOM     93  F   UNL A   1      47.612  26.129  37.058  1.00  0.00    -0.200 F 
ENDBRANCH  60  83
ENDBRANCH  34  35
ENDBRANCH  27  29
ENDBRANCH  26  27
ENDBRANCH  25  26
ENDBRANCH   1  25
TORSDOF 15
ENDMDL
MODEL 2
REMARK VINA RESULT:     -13.0      5.213     10.433
REMARK SMILES N#C/C(=C\c1ccc(-c2cc(C(F)(F)F)ccc2Cl)o1)C(=O)OCCOC(=O)c1ccc(-c2c3nc(c(-c4c(F)c(F)c(F)c(F)c4F)c4ccc([nH]4)c(-c4c(F)c(F)c(F)c(F)c4F)c4nc(c(-c5c(F)c(F)c(F)c(F)c5F)c5ccc2[nH]5)C=C4)C=C3)cc1
REMARK SMILES IDX 24 1 23 2 21 3 22 4 3 5 4 6 2 7 1 8 5 9 6 10 20 11 7 12 8 13
REMARK SMILES IDX 9 14 10 15 18 16 11 17 17 18 19 19 16 20 12 21 13 22 14 23
REMARK SMILES IDX 15 24 25 25 26 26 27 27 28 28 29 29 30 30 91 31 31 32 90 33
REMARK SMILES IDX 32 34 33 35 34 36 84 37 35 38 89 39 83 40 85 41 36 42 88 43
REMARK SMILES IDX 82 44 81 45 37 47 69 48 49 49 68 50 50 51 53 52 67 53 86 54
REMARK SMILES IDX 51 55 52 56 66 58 87 59 54 60 38 61 39 62 47 63 40 64 41 65
REMARK SMILES IDX 45 66 48 67 42 68 43 69 46 70 44 71 70 72 71 73 79 74 72 75
REMARK SMILES IDX 73 76 77 77 80 78 74 79 75 80 78 81 76 82 55 83 56 84 64 85
REMARK SMILES IDX 57 86 58 87 62 88 65 89 59 90 60 91 63 92 61 93
REMARK H PARENT 85 46 53 57
REMARK Flexibility Score: inf
ROOT
ATOM      1  C   UNL A   1      35.698  21.244  25.118  1.00  0.00     0.275 C 
ENDROOT
BRANCH   1   2
ATOM      2  O   UNL A   1      35.459  22.505  24.465  1.00  0.00    -0.458 OA
BRANCH   2   3
ATOM      3  C   UNL A   1      35.187  23.554  25.281  1.00  0.00     0.349 C 
ATOM      4  O   UNL A   1      35.669  23.747  26.387  1.00  0.00    -0.245 OA
BRANCH   3   5
ATOM      5  C   UNL A   1      34.248  24.481  24.635  1.00  0.00     0.141 C 
ATOM      6  C   UNL A   1      34.053  25.689  25.221  1.00  0.00     0.074 C 
BRANCH   5   7
ATOM      7  C   UNL A   1      33.862  24.337  23.172  1.00  0.00     0.107 C 
ATOM      8  N   UNL A   1      33.543  24.218  21.958  1.00  0.00    -0.192 NA
ENDBRANCH   5   7
BRANCH   6   9
ATOM      9  C   UNL A   1      33.392  26.776  24.554  1.00  0.00     0.129 A 
ATOM     10  C   UNL A   1      33.934  27.859  23.867  1.00  0.00     0.051 A 
ATOM     11  O   UNL A   1      32.012  26.924  24.520  1.00  0.00    -0.457 OA
ATOM     12  C   UNL A   1      32.879  28.707  23.472  1.00  0.00     0.051 A 
ATOM     13  C   UNL A   1      31.716  28.086  23.861  1.00  0.00     0.136 A 
BRANCH  13  14
ATOM     14  C   UNL A   1      30.309  28.443  23.684  1.00  0.00     0.036 A 
ATOM     15  C   UNL A   1      29.929  29.794  23.581  1.00  0.00     0.026 A 
ATOM     16  C   UNL A   1      29.317  27.459  23.504  1.00  0.00     0.052 A 
ATOM     17  C   UNL A   1      28.601  30.164  23.275  1.00  0.00     0.056 A 
ATOM     18  C   UNL A   1      27.997  27.817  23.208  1.00  0.00     0.022 A 
ATOM     19  Cl  UNL A   1      29.647  25.764  23.642  1.00  0.00    -0.084 Cl
ATOM     20  C   UNL A   1      27.643  29.158  23.088  1.00  0.00     0.014 A 
BRANCH  17  21
ATOM     21  C   UNL A   1      28.220  31.620  23.126  1.00  0.00     0.416 C 
ATOM     22  F   UNL A   1      29.174  32.461  23.608  1.00  0.00    -0.166 F 
ATOM     23  F   UNL A   1      28.022  31.976  21.827  1.00  0.00    -0.166 F 
ATOM     24  F   UNL A   1      27.069  31.948  23.779  1.00  0.00    -0.166 F 
ENDBRANCH  17  21
ENDBRANCH  13  14
ENDBRANCH   6   9
ENDBRANCH   3   5
ENDBRANCH   2   3
ENDBRANCH   1   2
BRANCH   1  25
ATOM     25  C   UNL A   1      37.122  20.764  24.831  1.00  0.00     0.275 C 
BRANCH  25  26
ATOM     26  O   UNL A   1      38.087  21.795  25.124  1.00  0.00    -0.458 OA
BRANCH  26  27
ATOM     27  C   UNL A   1      39.071  21.434  25.979  1.00  0.00     0.338 C 
ATOM     28  O   UNL A   1      39.587  20.334  26.091  1.00  0.00    -0.246 OA
BRANCH  27  29
ATOM     29  C   UNL A   1      39.600  22.608  26.689  1.00  0.00     0.060 A 
ATOM     30  C   UNL A   1      39.153  23.855  26.279  1.00  0.00     0.016 A 
ATOM     31  C   UNL A   1      40.687  22.515  27.552  1.00  0.00     0.016 A 
ATOM     32  C   UNL A   1      39.879  24.996  26.580  1.00  0.00     0.010 A 
ATOM     33  C   UNL A   1      41.319  23.691  27.989  1.00  0.00     0.010 A 
ATOM     34  C   UNL A   1      40.952  24.947  27.469  1.00  0.00    -0.014 A 
BRANCH  34  35
ATOM     35  C   UNL A   1      41.684  26.204  27.796  1.00  0.00     0.031 A 
ATOM     36  C   UNL A   1      41.038  27.258  28.656  1.00  0.00     0.074 A 
ATOM     37  C   UNL A   1      42.954  26.389  27.374  1.00  0.00     0.049 A 
ATOM     38  N   UNL A   1      41.407  28.495  28.873  1.00  0.00    -0.248 NA
ATOM     39  C   UNL A   1      39.799  26.873  29.351  1.00  0.00     0.031 C 
ATOM     40  C   UNL A   1      43.747  25.423  26.611  1.00  0.00     0.029 A 
ATOM     41  N   UNL A   1      43.812  27.450  27.541  1.00  0.00    -0.354 N 
ATOM     42  C   UNL A   1      40.416  29.053  29.671  1.00  0.00     0.074 A 
ATOM     43  C   UNL A   1      39.425  28.022  29.894  1.00  0.00     0.031 C 
ATOM     44  C   UNL A   1      44.981  25.907  26.423  1.00  0.00     0.029 A 
ATOM     45  C   UNL A   1      45.029  27.270  26.928  1.00  0.00     0.049 A 
ATOM     46  H   UNL A   1      43.578  28.260  28.049  1.00  0.00     0.167 HD
ATOM     47  C   UNL A   1      40.345  30.313  30.165  1.00  0.00     0.037 A 
ATOM     48  C   UNL A   1      46.048  28.125  26.724  1.00  0.00     0.037 A 
ATOM     49  C   UNL A   1      41.369  31.310  29.982  1.00  0.00     0.049 A 
ATOM     50  C   UNL A   1      45.921  29.533  27.224  1.00  0.00     0.074 A 
ATOM     51  C   UNL A   1      41.392  32.619  30.431  1.00  0.00     0.029 A 
ATOM     52  N   UNL A   1      42.565  31.100  29.308  1.00  0.00    -0.354 N 
ATOM     53  N   UNL A   1      44.938  30.087  27.890  1.00  0.00    -0.248 NA
ATOM     54  C   UNL A   1      47.033  30.443  26.922  1.00  0.00     0.031 C 
ATOM     55  C   UNL A   1      42.580  33.214  29.988  1.00  0.00     0.029 A 
ATOM     56  C   UNL A   1      43.324  32.260  29.313  1.00  0.00     0.049 A 
ATOM     57  H   UNL A   1      42.833  30.251  28.887  1.00  0.00     0.167 HD
ATOM     58  C   UNL A   1      45.314  31.405  28.099  1.00  0.00     0.074 A 
ATOM     59  C   UNL A   1      46.628  31.562  27.508  1.00  0.00     0.031 C 
ATOM     60  C   UNL A   1      44.630  32.398  28.720  1.00  0.00     0.037 A 
BRANCH  47  61
ATOM     61  C   UNL A   1      39.094  30.699  30.905  1.00  0.00     0.064 A 
ATOM     62  C   UNL A   1      37.972  31.235  30.255  1.00  0.00     0.173 A 
ATOM     63  C   UNL A   1      39.015  30.514  32.295  1.00  0.00     0.173 A 
ATOM     64  F   UNL A   1      37.995  31.447  28.931  1.00  0.00    -0.203 F 
ATOM     65  C   UNL A   1      36.836  31.605  30.973  1.00  0.00     0.198 A 
ATOM     66  C   UNL A   1      37.866  30.852  33.004  1.00  0.00     0.198 A 
ATOM     67  F   UNL A   1      40.054  29.999  32.969  1.00  0.00    -0.203 F 
ATOM     68  F   UNL A   1      35.800  32.173  30.338  1.00  0.00    -0.200 F 
ATOM     69  C   UNL A   1      36.781  31.408  32.344  1.00  0.00     0.200 A 
ATOM     70  F   UNL A   1      37.810  30.646  34.327  1.00  0.00    -0.200 F 
ATOM     71  F   UNL A   1      35.687  31.763  33.032  1.00  0.00    -0.200 F 
ENDBRANCH  47  61
BRANCH  48  72
ATOM     72  C   UNL A   1      47.236  27.681  25.944  1.00  0.00     0.064 A 
ATOM     73  C   UNL A   1      47.250  27.739  24.545  1.00  0.00     0.173 A 
ATOM     74  C   UNL A   1      48.392  27.211  26.589  1.00  0.00     0.173 A 
ATOM     75  F   UNL A   1      46.163  28.154  23.880  1.00  0.00    -0.203 F 
ATOM     76  C   UNL A   1      48.373  27.340  23.821  1.00  0.00     0.198 A 
ATOM     77  C   UNL A   1      49.525  26.850  25.866  1.00  0.00     0.198 A 
ATOM     78  F   UNL A   1      48.431  27.133  27.928  1.00  0.00    -0.203 F 
ATOM     79  F   UNL A   1      48.347  27.366  22.482  1.00  0.00    -0.200 F 
ATOM     80  C   UNL A   1      49.513  26.907  24.482  1.00  0.00     0.200 A 
ATOM     81  F   UNL A   1      50.631  26.451  26.512  1.00  0.00    -0.200 F 
ATOM     82  F   UNL A   1      50.596  26.539  23.785  1.00  0.00    -0.200 F 
ENDBRANCH  48  72
BRANCH  60  83
ATOM     83  C   UNL A   1      45.311  33.731  28.822  1.00  0.00     0.064 A 
ATOM     84  C   UNL A   1      45.123  34.730  27.856  1.00  0.00     0.173 A 
ATOM     85  C   UNL A   1      46.143  34.020  29.914  1.00  0.00     0.173 A 
ATOM     86  F   UNL A   1      44.352  34.497  26.783  1.00  0.00    -0.203 F 
ATOM     87  C   UNL A   1      45.766  35.960  27.966  1.00  0.00     0.198 A 
ATOM     88  C   UNL A   1      46.758  35.261  30.038  1.00  0.00     0.198 A 
ATOM     89  F   UNL A   1      46.352  33.099  30.868  1.00  0.00    -0.203 F 
ATOM     90  F   UNL A   1      45.615  36.881  27.005  1.00  0.00    -0.200 F 
ATOM     91  C   UNL A   1      46.577  36.227  29.060  1.00  0.00     0.200 A 
ATOM     92  F   UNL A   1      47.531  35.522  31.101  1.00  0.00    -0.200 F 
ATOM     93  F   UNL A   1      47.190  37.413  29.166  1.00  0.00    -0.200 F 
ENDBRANCH  60  83
ENDBRANCH  34  35
ENDBRANCH  27  29
ENDBRANCH  26  27
ENDBRANCH  25  26
ENDBRANCH   1  25
TORSDOF 15
ENDMDL
MODEL 3
REMARK VINA RESULT:     -13.0      5.197     10.401
REMARK SMILES N#C/C(=C\c1ccc(-c2cc(C(F)(F)F)ccc2Cl)o1)C(=O)OCCOC(=O)c1ccc(-c2c3nc(c(-c4c(F)c(F)c(F)c(F)c4F)c4ccc([nH]4)c(-c4c(F)c(F)c(F)c(F)c4F)c4nc(c(-c5c(F)c(F)c(F)c(F)c5F)c5ccc2[nH]5)C=C4)C=C3)cc1
REMARK SMILES IDX 24 1 23 2 21 3 22 4 3 5 4 6 2 7 1 8 5 9 6 10 20 11 7 12 8 13
REMARK SMILES IDX 9 14 10 15 18 16 11 17 17 18 19 19 16 20 12 21 13 22 14 23
REMARK SMILES IDX 15 24 25 25 26 26 27 27 28 28 29 29 30 30 91 31 31 32 90 33
REMARK SMILES IDX 32 34 33 35 34 36 84 37 35 38 89 39 83 40 85 41 36 42 88 43
REMARK SMILES IDX 82 44 81 45 37 47 69 48 49 49 68 50 50 51 53 52 67 53 86 54
REMARK SMILES IDX 51 55 52 56 66 58 87 59 54 60 38 61 39 62 47 63 40 64 41 65
REMARK SMILES IDX 45 66 48 67 42 68 43 69 46 70 44 71 70 72 71 73 79 74 72 75
REMARK SMILES IDX 73 76 77 77 80 78 74 79 75 80 78 81 76 82 55 83 56 84 64 85
REMARK SMILES IDX 57 86 58 87 62 88 65 89 59 90 60 91 63 92 61 93
REMARK H PARENT 85 46 53 57
REMARK Flexibility Score: inf
ROOT
ATOM      1  C   UNL A   1      35.707  21.087  24.919  1.00  0.00     0.275 C 
ENDROOT
BRANCH   1   2
ATOM      2  O   UNL A   1      35.651  22.472  24.529  1.00  0.00    -0.458 OA
BRANCH   2   3
ATOM      3  C   UNL A   1      35.097  23.320  25.431  1.00  0.00     0.349 C 
ATOM      4  O   UNL A   1      35.318  23.335  26.633  1.00  0.00    -0.245 OA
BRANCH   3   5
ATOM      5  C   UNL A   1      34.206  24.277  24.761  1.00  0.00     0.141 C 
ATOM      6  C   UNL A   1      34.004  25.477  25.361  1.00  0.00     0.074 C 
BRANCH   5   7
ATOM      7  C   UNL A   1      33.888  24.169  23.278  1.00  0.00     0.107 C 
ATOM      8  N   UNL A   1      33.625  24.079  22.048  1.00  0.00    -0.192 NA
ENDBRANCH   5   7
BRANCH   6   9
ATOM      9  C   UNL A   1      33.395  26.588  24.686  1.00  0.00     0.129 A 
ATOM     10  C   UNL A   1      33.987  27.660  24.023  1.00  0.00     0.051 A 
ATOM     11  O   UNL A   1      32.021  26.778  24.616  1.00  0.00    -0.457 OA
ATOM     12  C   UNL A   1      32.970  28.542  23.607  1.00  0.00     0.051 A 
ATOM     13  C   UNL A   1      31.778  27.954  23.960  1.00  0.00     0.136 A 
BRANCH  13  14
ATOM     14  C   UNL A   1      30.389  28.355  23.749  1.00  0.00     0.036 A 
ATOM     15  C   UNL A   1      30.048  29.719  23.680  1.00  0.00     0.026 A 
ATOM     16  C   UNL A   1      29.378  27.405  23.501  1.00  0.00     0.052 A 
ATOM     17  C   UNL A   1      28.742  30.135  23.343  1.00  0.00     0.056 A 
ATOM     18  C   UNL A   1      28.078  27.809  23.174  1.00  0.00     0.022 A 
ATOM     19  Cl  UNL A   1      29.659  25.698  23.590  1.00  0.00    -0.084 Cl
ATOM     20  C   UNL A   1      27.764  29.163  23.088  1.00  0.00     0.014 A 
BRANCH  17  21
ATOM     21  C   UNL A   1      28.404  31.605  23.232  1.00  0.00     0.416 C 
ATOM     22  F   UNL A   1      28.414  32.047  21.945  1.00  0.00    -0.166 F 
ATOM     23  F   UNL A   1      27.167  31.894  23.722  1.00  0.00    -0.166 F 
ATOM     24  F   UNL A   1      29.268  32.413  23.909  1.00  0.00    -0.166 F 
ENDBRANCH  17  21
ENDBRANCH  13  14
ENDBRANCH   6   9
ENDBRANCH   3   5
ENDBRANCH   2   3
ENDBRANCH   1   2
BRANCH   1  25
ATOM     25  C   UNL A   1      37.162  20.619  24.994  1.00  0.00     0.275 C 
BRANCH  25  26
ATOM     26  O   UNL A   1      38.046  21.716  25.301  1.00  0.00    -0.458 OA
BRANCH  26  27
ATOM     27  C   UNL A   1      39.118  21.394  26.062  1.00  0.00     0.338 C 
ATOM     28  O   UNL A   1      39.703  20.325  26.100  1.00  0.00    -0.246 OA
BRANCH  27  29
ATOM     29  C   UNL A   1      39.636  22.581  26.758  1.00  0.00     0.060 A 
ATOM     30  C   UNL A   1      39.179  23.819  26.335  1.00  0.00     0.016 A 
ATOM     31  C   UNL A   1      40.724  22.508  27.623  1.00  0.00     0.016 A 
ATOM     32  C   UNL A   1      39.894  24.970  26.622  1.00  0.00     0.010 A 
ATOM     33  C   UNL A   1      41.346  23.694  28.047  1.00  0.00     0.010 A 
ATOM     34  C   UNL A   1      40.967  24.940  27.512  1.00  0.00    -0.014 A 
BRANCH  34  35
ATOM     35  C   UNL A   1      41.688  26.208  27.825  1.00  0.00     0.031 A 
ATOM     36  C   UNL A   1      41.031  27.267  28.670  1.00  0.00     0.074 A 
ATOM     37  C   UNL A   1      42.959  26.397  27.404  1.00  0.00     0.049 A 
ATOM     38  N   UNL A   1      41.391  28.509  28.871  1.00  0.00    -0.248 NA
ATOM     39  C   UNL A   1      39.794  26.881  29.366  1.00  0.00     0.031 C 
ATOM     40  C   UNL A   1      43.761  25.428  26.655  1.00  0.00     0.029 A 
ATOM     41  N   UNL A   1      43.807  27.467  27.560  1.00  0.00    -0.354 N 
ATOM     42  C   UNL A   1      40.393  29.070  29.659  1.00  0.00     0.074 A 
ATOM     43  C   UNL A   1      39.409  28.034  29.893  1.00  0.00     0.031 C 
ATOM     44  C   UNL A   1      44.992  25.919  26.464  1.00  0.00     0.029 A 
ATOM     45  C   UNL A   1      45.027  27.290  26.952  1.00  0.00     0.049 A 
ATOM     46  H   UNL A   1      43.565  28.282  28.057  1.00  0.00     0.167 HD
ATOM     47  C   UNL A   1      40.310  30.336  30.138  1.00  0.00     0.037 A 
ATOM     48  C   UNL A   1      46.040  28.150  26.740  1.00  0.00     0.037 A 
ATOM     49  C   UNL A   1      41.326  31.339  29.944  1.00  0.00     0.049 A 
ATOM     50  C   UNL A   1      45.900  29.563  27.221  1.00  0.00     0.074 A 
ATOM     51  C   UNL A   1      41.338  32.654  30.377  1.00  0.00     0.029 A 
ATOM     52  N   UNL A   1      42.526  31.129  29.276  1.00  0.00    -0.354 N 
ATOM     53  N   UNL A   1      44.911  30.118  27.878  1.00  0.00    -0.248 NA
ATOM     54  C   UNL A   1      47.006  30.478  26.911  1.00  0.00     0.031 C 
ATOM     55  C   UNL A   1      42.522  33.252  29.929  1.00  0.00     0.029 A 
ATOM     56  C   UNL A   1      43.276  32.295  29.268  1.00  0.00     0.049 A 
ATOM     57  H   UNL A   1      42.802  30.277  28.867  1.00  0.00     0.167 HD
ATOM     58  C   UNL A   1      45.276  31.441  28.070  1.00  0.00     0.074 A 
ATOM     59  C   UNL A   1      46.590  31.601  27.482  1.00  0.00     0.031 C 
ATOM     60  C   UNL A   1      44.583  32.436  28.677  1.00  0.00     0.037 A 
BRANCH  47  61
ATOM     61  C   UNL A   1      39.054  30.721  30.869  1.00  0.00     0.064 A 
ATOM     62  C   UNL A   1      38.932  30.613  32.262  1.00  0.00     0.173 A 
ATOM     63  C   UNL A   1      37.953  31.224  30.155  1.00  0.00     0.173 A 
ATOM     64  F   UNL A   1      39.945  30.127  32.993  1.00  0.00    -0.203 F 
ATOM     65  C   UNL A   1      37.744  30.955  32.907  1.00  0.00     0.198 A 
ATOM     66  C   UNL A   1      36.781  31.598  30.807  1.00  0.00     0.198 A 
ATOM     67  F   UNL A   1      38.014  31.357  28.821  1.00  0.00    -0.203 F 
ATOM     68  F   UNL A   1      37.630  30.784  34.232  1.00  0.00    -0.200 F 
ATOM     69  C   UNL A   1      36.673  31.453  32.181  1.00  0.00     0.200 A 
ATOM     70  F   UNL A   1      35.753  32.093  30.104  1.00  0.00    -0.200 F 
ATOM     71  F   UNL A   1      35.534  31.784  32.803  1.00  0.00    -0.200 F 
ENDBRANCH  47  61
BRANCH  48  72
ATOM     72  C   UNL A   1      47.233  27.706  25.969  1.00  0.00     0.064 A 
ATOM     73  C   UNL A   1      48.370  27.203  26.614  1.00  0.00     0.173 A 
ATOM     74  C   UNL A   1      47.249  27.754  24.565  1.00  0.00     0.173 A 
ATOM     75  F   UNL A   1      48.417  27.160  27.954  1.00  0.00    -0.203 F 
ATOM     76  C   UNL A   1      49.477  26.769  25.886  1.00  0.00     0.198 A 
ATOM     77  C   UNL A   1      48.340  27.286  23.839  1.00  0.00     0.198 A 
ATOM     78  F   UNL A   1      46.187  28.229  23.897  1.00  0.00    -0.203 F 
ATOM     79  F   UNL A   1      50.569  26.332  26.528  1.00  0.00    -0.200 F 
ATOM     80  C   UNL A   1      49.457  26.801  24.499  1.00  0.00     0.200 A 
ATOM     81  F   UNL A   1      48.306  27.301  22.498  1.00  0.00    -0.200 F 
ATOM     82  F   UNL A   1      50.516  26.370  23.800  1.00  0.00    -0.200 F 
ENDBRANCH  48  72
BRANCH  60  83
ATOM     83  C   UNL A   1      45.252  33.776  28.764  1.00  0.00     0.064 A 
ATOM     84  C   UNL A   1      46.116  34.101  29.820  1.00  0.00     0.173 A 
ATOM     85  C   UNL A   1      45.045  34.737  27.763  1.00  0.00     0.173 A 
ATOM     86  F   UNL A   1      46.333  33.224  30.812  1.00  0.00    -0.203 F 
ATOM     87  C   UNL A   1      46.725  35.351  29.885  1.00  0.00     0.198 A 
ATOM     88  C   UNL A   1      45.681  35.973  27.814  1.00  0.00     0.198 A 
ATOM     89  F   UNL A   1      44.231  34.473  26.730  1.00  0.00    -0.203 F 
ATOM     90  F   UNL A   1      47.505  35.661  30.930  1.00  0.00    -0.200 F 
ATOM     91  C   UNL A   1      46.513  36.283  28.879  1.00  0.00     0.200 A 
ATOM     92  F   UNL A   1      45.485  36.867  26.835  1.00  0.00    -0.200 F 
ATOM     93  F   UNL A   1      47.106  37.483  28.941  1.00  0.00    -0.200 F 
ENDBRANCH  60  83
ENDBRANCH  34  35
ENDBRANCH  27  29
ENDBRANCH  26  27
ENDBRANCH  25  26
ENDBRANCH   1  25
TORSDOF 15
ENDMDL
