MODEL 1
REMARK VINA RESULT:     -10.6      0.000      0.000
REMARK SMILES CC(C)N(CC1CC1)C(=O)NC1(CC(=O)OCCOC(=O)c2ccc(-c3c4nc(c(-c5c(F)c(F)c(F)c(F)c5F)c5ccc([nH]5)c(-c5c(F)c(F)c(F)c(F)c5F)c5nc(c(-c6c(F)c(F)c(F)c(F)c6F)c6ccc3[nH]6)C=C5)C=C4)cc2)CCC1
REMARK SMILES IDX 16 1 14 2 15 3 13 4 12 5 85 6 87 7 86 8 11 9 9 10 10 11 4 13
REMARK SMILES IDX 2 14 1 15 3 16 5 17 6 18 7 19 8 20 17 21 18 22 19 23 20 24
REMARK SMILES IDX 21 25 22 26 23 27 84 28 24 29 83 30 25 31 26 32 27 33 77 34
REMARK SMILES IDX 28 35 82 36 76 37 78 38 29 39 81 40 75 41 74 42 30 44 62 45
REMARK SMILES IDX 42 46 61 47 43 48 46 49 60 50 79 51 44 52 45 53 59 55 80 56
REMARK SMILES IDX 47 57 31 58 32 59 40 60 33 61 34 62 38 63 41 64 35 65 36 66
REMARK SMILES IDX 39 67 37 68 63 69 64 70 72 71 65 72 66 73 70 74 73 75 67 76
REMARK SMILES IDX 68 77 71 78 69 79 48 80 49 81 57 82 50 83 51 84 55 85 58 86
REMARK SMILES IDX 52 87 53 88 56 89 54 90
REMARK H PARENT 11 12 78 43 46 54
REMARK Flexibility Score: inf
ROOT
ATOM      1  O   UNL A   1      33.054  28.665  23.869  1.00  0.00    -0.462 OA
ENDROOT
BRANCH   1   2
ATOM      2  C   UNL A   1      33.054  27.614  23.011  1.00  0.00     0.308 C 
ATOM      3  O   UNL A   1      33.863  27.453  22.105  1.00  0.00    -0.252 OA
BRANCH   2   4
ATOM      4  C   UNL A   1      32.002  26.569  23.348  1.00  0.00     0.151 C 
BRANCH   4   5
ATOM      5  C   UNL A   1      32.466  25.340  24.162  1.00  0.00     0.052 C 
ATOM      6  C   UNL A   1      31.389  24.236  24.260  1.00  0.00     0.029 C 
ATOM      7  C   UNL A   1      32.240  25.684  25.642  1.00  0.00     0.029 C 
ATOM      8  C   UNL A   1      31.082  24.676  25.698  1.00  0.00     0.005 C 
BRANCH   5   9
ATOM      9  N   UNL A   1      33.792  24.874  23.644  1.00  0.00    -0.332 N 
ATOM     10  C   UNL A   1      34.441  23.689  23.512  1.00  0.00     0.318 C 
ATOM     11  O   UNL A   1      34.817  23.456  22.359  1.00  0.00    -0.249 OA
ATOM     12  H   UNL A   1      34.336  25.624  23.313  1.00  0.00     0.165 HD
BRANCH  10  13
ATOM     13  N   UNL A   1      34.804  22.898  24.573  1.00  0.00    -0.322 N 
BRANCH  13  14
ATOM     14  C   UNL A   1      35.212  23.551  25.843  1.00  0.00     0.080 C 
ATOM     15  C   UNL A   1      34.564  22.939  27.088  1.00  0.00     0.031 C 
ATOM     16  C   UNL A   1      36.735  23.646  26.002  1.00  0.00     0.031 C 
ENDBRANCH  13  14
BRANCH  13  17
ATOM     17  C   UNL A   1      34.596  21.459  24.675  1.00  0.00     0.125 C 
BRANCH  17  18
ATOM     18  C   UNL A   1      33.234  21.053  24.181  1.00  0.00     0.009 C 
ATOM     19  C   UNL A   1      32.769  19.618  24.227  1.00  0.00     0.006 C 
ATOM     20  C   UNL A   1      32.113  20.640  25.109  1.00  0.00     0.006 C 
ENDBRANCH  17  18
ENDBRANCH  13  17
ENDBRANCH  10  13
ENDBRANCH   5   9
ENDBRANCH   4   5
ENDBRANCH   2   4
ENDBRANCH   1   2
BRANCH   1  21
ATOM     21  C   UNL A   1      31.793  29.312  24.148  1.00  0.00     0.274 C 
BRANCH  21  22
ATOM     22  C   UNL A   1      31.790  29.826  25.587  1.00  0.00     0.275 C 
BRANCH  22  23
ATOM     23  O   UNL A   1      33.154  30.029  25.991  1.00  0.00    -0.458 OA
BRANCH  23  24
ATOM     24  C   UNL A   1      33.365  31.025  26.882  1.00  0.00     0.338 C 
ATOM     25  O   UNL A   1      32.622  31.948  27.152  1.00  0.00    -0.246 OA
BRANCH  24  26
ATOM     26  C   UNL A   1      34.663  30.798  27.547  1.00  0.00     0.060 A 
ATOM     27  C   UNL A   1      35.016  29.512  27.957  1.00  0.00     0.016 A 
ATOM     28  C   UNL A   1      35.495  31.874  27.840  1.00  0.00     0.016 A 
ATOM     29  C   UNL A   1      36.149  29.302  28.732  1.00  0.00     0.010 A 
ATOM     30  C   UNL A   1      36.695  31.647  28.521  1.00  0.00     0.010 A 
ATOM     31  C   UNL A   1      37.022  30.362  28.995  1.00  0.00    -0.014 A 
BRANCH  31  32
ATOM     32  C   UNL A   1      38.271  30.133  29.765  1.00  0.00     0.031 A 
ATOM     33  C   UNL A   1      39.362  29.278  29.187  1.00  0.00     0.074 A 
ATOM     34  C   UNL A   1      38.421  30.686  30.986  1.00  0.00     0.049 A 
ATOM     35  N   UNL A   1      40.425  28.784  29.769  1.00  0.00    -0.248 NA
ATOM     36  C   UNL A   1      39.234  28.920  27.765  1.00  0.00     0.031 C 
ATOM     37  C   UNL A   1      37.461  31.579  31.636  1.00  0.00     0.029 A 
ATOM     38  N   UNL A   1      39.437  30.572  31.901  1.00  0.00    -0.354 N 
ATOM     39  C   UNL A   1      41.060  28.014  28.805  1.00  0.00     0.074 A 
ATOM     40  C   UNL A   1      40.267  28.106  27.598  1.00  0.00     0.031 C 
ATOM     41  C   UNL A   1      37.943  31.951  32.832  1.00  0.00     0.029 A 
ATOM     42  C   UNL A   1      39.198  31.250  33.071  1.00  0.00     0.049 A 
ATOM     43  H   UNL A   1      40.259  30.055  31.736  1.00  0.00     0.167 HD
ATOM     44  C   UNL A   1      42.199  27.290  28.924  1.00  0.00     0.037 A 
ATOM     45  C   UNL A   1      39.883  31.265  34.230  1.00  0.00     0.037 A 
ATOM     46  C   UNL A   1      43.001  27.242  30.119  1.00  0.00     0.049 A 
ATOM     47  C   UNL A   1      41.123  30.425  34.350  1.00  0.00     0.074 A 
ATOM     48  C   UNL A   1      44.177  26.548  30.346  1.00  0.00     0.029 A 
ATOM     49  N   UNL A   1      42.713  27.930  31.290  1.00  0.00    -0.354 N 
ATOM     50  N   UNL A   1      41.688  29.654  33.453  1.00  0.00    -0.248 NA
ATOM     51  C   UNL A   1      41.809  30.442  35.649  1.00  0.00     0.031 C 
ATOM     52  C   UNL A   1      44.581  26.789  31.663  1.00  0.00     0.029 A 
ATOM     53  C   UNL A   1      43.681  27.668  32.245  1.00  0.00     0.049 A 
ATOM     54  H   UNL A   1      41.934  28.519  31.422  1.00  0.00     0.167 HD
ATOM     55  C   UNL A   1      42.800  29.103  34.071  1.00  0.00     0.074 A 
ATOM     56  C   UNL A   1      42.841  29.644  35.415  1.00  0.00     0.031 C 
ATOM     57  C   UNL A   1      43.703  28.223  33.574  1.00  0.00     0.037 A 
BRANCH  44  58
ATOM     58  C   UNL A   1      42.623  26.462  27.748  1.00  0.00     0.064 A 
ATOM     59  C   UNL A   1      42.118  25.174  27.524  1.00  0.00     0.173 A 
ATOM     60  C   UNL A   1      43.530  26.982  26.811  1.00  0.00     0.173 A 
ATOM     61  F   UNL A   1      41.257  24.625  28.395  1.00  0.00    -0.203 F 
ATOM     62  C   UNL A   1      42.524  24.426  26.420  1.00  0.00     0.198 A 
ATOM     63  C   UNL A   1      43.915  26.242  25.695  1.00  0.00     0.198 A 
ATOM     64  F   UNL A   1      44.041  28.212  26.975  1.00  0.00    -0.203 F 
ATOM     65  F   UNL A   1      42.059  23.181  26.249  1.00  0.00    -0.200 F 
ATOM     66  C   UNL A   1      43.416  24.963  25.505  1.00  0.00     0.200 A 
ATOM     67  F   UNL A   1      44.767  26.769  24.805  1.00  0.00    -0.200 F 
ATOM     68  F   UNL A   1      43.801  24.245  24.439  1.00  0.00    -0.200 F 
ENDBRANCH  44  58
BRANCH  45  69
ATOM     69  C   UNL A   1      39.383  32.069  35.375  1.00  0.00     0.064 A 
ATOM     70  C   UNL A   1      39.754  33.411  35.532  1.00  0.00     0.173 A 
ATOM     71  C   UNL A   1      38.513  31.517  36.328  1.00  0.00     0.173 A 
ATOM     72  F   UNL A   1      40.604  33.975  34.661  1.00  0.00    -0.203 F 
ATOM     73  C   UNL A   1      39.279  34.168  36.601  1.00  0.00     0.198 A 
ATOM     74  C   UNL A   1      38.015  32.284  37.378  1.00  0.00     0.198 A 
ATOM     75  F   UNL A   1      38.127  30.237  36.224  1.00  0.00    -0.203 F 
ATOM     76  F   UNL A   1      39.679  35.439  36.747  1.00  0.00    -0.200 F 
ATOM     77  C   UNL A   1      38.403  33.608  37.517  1.00  0.00     0.200 A 
ATOM     78  F   UNL A   1      37.156  31.741  38.253  1.00  0.00    -0.200 F 
ATOM     79  F   UNL A   1      37.938  34.341  38.539  1.00  0.00    -0.200 F 
ENDBRANCH  45  69
BRANCH  57  80
ATOM     80  C   UNL A   1      44.827  27.821  34.480  1.00  0.00     0.064 A 
ATOM     81  C   UNL A   1      44.739  26.686  35.299  1.00  0.00     0.173 A 
ATOM     82  C   UNL A   1      46.016  28.565  34.506  1.00  0.00     0.173 A 
ATOM     83  F   UNL A   1      43.614  25.955  35.321  1.00  0.00    -0.203 F 
ATOM     84  C   UNL A   1      45.794  26.324  36.131  1.00  0.00     0.198 A 
ATOM     85  C   UNL A   1      47.078  28.185  35.321  1.00  0.00     0.198 A 
ATOM     86  F   UNL A   1      46.149  29.656  33.738  1.00  0.00    -0.203 F 
ATOM     87  F   UNL A   1      45.672  25.262  36.940  1.00  0.00    -0.200 F 
ATOM     88  C   UNL A   1      46.964  27.069  36.137  1.00  0.00     0.200 A 
ATOM     89  F   UNL A   1      48.212  28.900  35.318  1.00  0.00    -0.200 F 
ATOM     90  F   UNL A   1      47.980  26.716  36.936  1.00  0.00    -0.200 F 
ENDBRANCH  57  80
ENDBRANCH  31  32
ENDBRANCH  24  26
ENDBRANCH  23  24
ENDBRANCH  22  23
ENDBRANCH  21  22
ENDBRANCH   1  21
TORSDOF 17
ENDMDL
MODEL 2
REMARK VINA RESULT:     -10.5      0.638      2.109
REMARK SMILES CC(C)N(CC1CC1)C(=O)NC1(CC(=O)OCCOC(=O)c2ccc(-c3c4nc(c(-c5c(F)c(F)c(F)c(F)c5F)c5ccc([nH]5)c(-c5c(F)c(F)c(F)c(F)c5F)c5nc(c(-c6c(F)c(F)c(F)c(F)c6F)c6ccc3[nH]6)C=C5)C=C4)cc2)CCC1
REMARK SMILES IDX 16 1 14 2 15 3 13 4 12 5 85 6 87 7 86 8 11 9 9 10 10 11 4 13
REMARK SMILES IDX 2 14 1 15 3 16 5 17 6 18 7 19 8 20 17 21 18 22 19 23 20 24
REMARK SMILES IDX 21 25 22 26 23 27 84 28 24 29 83 30 25 31 26 32 27 33 77 34
REMARK SMILES IDX 28 35 82 36 76 37 78 38 29 39 81 40 75 41 74 42 30 44 62 45
REMARK SMILES IDX 42 46 61 47 43 48 46 49 60 50 79 51 44 52 45 53 59 55 80 56
REMARK SMILES IDX 47 57 31 58 32 59 40 60 33 61 34 62 38 63 41 64 35 65 36 66
REMARK SMILES IDX 39 67 37 68 63 69 64 70 72 71 65 72 66 73 70 74 73 75 67 76
REMARK SMILES IDX 68 77 71 78 69 79 48 80 49 81 57 82 50 83 51 84 55 85 58 86
REMARK SMILES IDX 52 87 53 88 56 89 54 90
REMARK H PARENT 11 12 78 43 46 54
REMARK Flexibility Score: inf
ROOT
ATOM      1  O   UNL A   1      32.060  29.141  23.755  1.00  0.00    -0.462 OA
ENDROOT
BRANCH   1   2
ATOM      2  C   UNL A   1      32.672  27.998  23.354  1.00  0.00     0.308 C 
ATOM      3  O   UNL A   1      33.877  27.789  23.429  1.00  0.00    -0.252 OA
BRANCH   2   4
ATOM      4  C   UNL A   1      31.694  26.930  22.892  1.00  0.00     0.151 C 
BRANCH   4   5
ATOM      5  C   UNL A   1      31.826  25.530  23.534  1.00  0.00     0.052 C 
ATOM      6  C   UNL A   1      30.494  24.747  23.560  1.00  0.00     0.029 C 
ATOM      7  C   UNL A   1      31.730  25.734  25.053  1.00  0.00     0.029 C 
ATOM      8  C   UNL A   1      30.345  25.069  25.053  1.00  0.00     0.005 C 
BRANCH   5   9
ATOM      9  N   UNL A   1      32.967  24.798  22.897  1.00  0.00    -0.332 N 
ATOM     10  C   UNL A   1      33.284  23.507  22.622  1.00  0.00     0.318 C 
ATOM     11  O   UNL A   1      33.545  23.304  21.432  1.00  0.00    -0.249 OA
ATOM     12  H   UNL A   1      33.674  25.416  22.601  1.00  0.00     0.165 HD
BRANCH  10  13
ATOM     13  N   UNL A   1      33.468  22.547  23.585  1.00  0.00    -0.322 N 
BRANCH  13  14
ATOM     14  C   UNL A   1      32.323  21.674  23.951  1.00  0.00     0.080 C 
ATOM     15  C   UNL A   1      32.503  20.212  23.533  1.00  0.00     0.031 C 
ATOM     16  C   UNL A   1      31.939  21.785  25.432  1.00  0.00     0.031 C 
ENDBRANCH  13  14
BRANCH  13  17
ATOM     17  C   UNL A   1      34.751  22.116  24.125  1.00  0.00     0.125 C 
BRANCH  17  18
ATOM     18  C   UNL A   1      35.673  23.277  24.374  1.00  0.00     0.009 C 
ATOM     19  C   UNL A   1      35.497  24.190  25.564  1.00  0.00     0.006 C 
ATOM     20  C   UNL A   1      36.696  23.290  25.488  1.00  0.00     0.006 C 
ENDBRANCH  17  18
ENDBRANCH  13  17
ENDBRANCH  10  13
ENDBRANCH   5   9
ENDBRANCH   4   5
ENDBRANCH   2   4
ENDBRANCH   1   2
BRANCH   1  21
ATOM     21  C   UNL A   1      31.389  29.138  25.034  1.00  0.00     0.274 C 
BRANCH  21  22
ATOM     22  C   UNL A   1      31.636  30.467  25.744  1.00  0.00     0.275 C 
BRANCH  22  23
ATOM     23  O   UNL A   1      32.996  30.479  26.210  1.00  0.00    -0.458 OA
BRANCH  23  24
ATOM     24  C   UNL A   1      33.340  31.515  27.009  1.00  0.00     0.338 C 
ATOM     25  O   UNL A   1      32.709  32.533  27.214  1.00  0.00    -0.246 OA
BRANCH  24  26
ATOM     26  C   UNL A   1      34.623  31.201  27.666  1.00  0.00     0.060 A 
ATOM     27  C   UNL A   1      34.873  29.904  28.113  1.00  0.00     0.016 A 
ATOM     28  C   UNL A   1      35.545  32.212  27.915  1.00  0.00     0.016 A 
ATOM     29  C   UNL A   1      35.996  29.623  28.881  1.00  0.00     0.010 A 
ATOM     30  C   UNL A   1      36.732  31.906  28.589  1.00  0.00     0.010 A 
ATOM     31  C   UNL A   1      36.958  30.614  29.100  1.00  0.00    -0.014 A 
BRANCH  31  32
ATOM     32  C   UNL A   1      38.194  30.306  29.862  1.00  0.00     0.031 A 
ATOM     33  C   UNL A   1      39.237  29.403  29.267  1.00  0.00     0.074 A 
ATOM     34  C   UNL A   1      38.377  30.829  31.092  1.00  0.00     0.049 A 
ATOM     35  N   UNL A   1      40.272  28.843  29.838  1.00  0.00    -0.248 NA
ATOM     36  C   UNL A   1      39.087  29.077  27.840  1.00  0.00     0.031 C 
ATOM     37  C   UNL A   1      37.467  31.761  31.760  1.00  0.00     0.029 A 
ATOM     38  N   UNL A   1      39.387  30.645  32.002  1.00  0.00    -0.354 N 
ATOM     39  C   UNL A   1      40.863  28.056  28.859  1.00  0.00     0.074 A 
ATOM     40  C   UNL A   1      40.074  28.211  27.656  1.00  0.00     0.031 C 
ATOM     41  C   UNL A   1      37.970  32.087  32.960  1.00  0.00     0.029 A 
ATOM     42  C   UNL A   1      39.187  31.315  33.184  1.00  0.00     0.049 A 
ATOM     43  H   UNL A   1      40.179  30.087  31.825  1.00  0.00     0.167 HD
ATOM     44  C   UNL A   1      41.963  27.270  28.963  1.00  0.00     0.037 A 
ATOM     45  C   UNL A   1      39.874  31.274  34.341  1.00  0.00     0.037 A 
ATOM     46  C   UNL A   1      42.763  27.159  30.155  1.00  0.00     0.049 A 
ATOM     47  C   UNL A   1      41.067  30.367  34.443  1.00  0.00     0.074 A 
ATOM     48  C   UNL A   1      43.900  26.399  30.366  1.00  0.00     0.029 A 
ATOM     49  N   UNL A   1      42.514  27.842  31.338  1.00  0.00    -0.354 N 
ATOM     50  N   UNL A   1      41.588  29.582  33.532  1.00  0.00    -0.248 NA
ATOM     51  C   UNL A   1      41.755  30.325  35.740  1.00  0.00     0.031 C 
ATOM     52  C   UNL A   1      44.319  26.596  31.686  1.00  0.00     0.029 A 
ATOM     53  C   UNL A   1      43.469  27.512  32.286  1.00  0.00     0.049 A 
ATOM     54  H   UNL A   1      41.769  28.469  31.481  1.00  0.00     0.167 HD
ATOM     55  C   UNL A   1      42.670  28.961  34.137  1.00  0.00     0.074 A 
ATOM     56  C   UNL A   1      42.743  29.477  35.490  1.00  0.00     0.031 C 
ATOM     57  C   UNL A   1      43.523  28.043  33.623  1.00  0.00     0.037 A 
BRANCH  44  58
ATOM     58  C   UNL A   1      42.339  26.441  27.771  1.00  0.00     0.064 A 
ATOM     59  C   UNL A   1      43.305  26.862  26.846  1.00  0.00     0.173 A 
ATOM     60  C   UNL A   1      41.740  25.187  27.569  1.00  0.00     0.173 A 
ATOM     61  F   UNL A   1      43.899  28.057  26.987  1.00  0.00    -0.203 F 
ATOM     62  C   UNL A   1      43.640  26.071  25.749  1.00  0.00     0.198 A 
ATOM     63  C   UNL A   1      42.096  24.387  26.485  1.00  0.00     0.198 A 
ATOM     64  F   UNL A   1      40.813  24.734  28.426  1.00  0.00    -0.203 F 
ATOM     65  F   UNL A   1      44.536  26.512  24.856  1.00  0.00    -0.200 F 
ATOM     66  C   UNL A   1      43.040  24.833  25.574  1.00  0.00     0.200 A 
ATOM     67  F   UNL A   1      41.525  23.185  26.325  1.00  0.00    -0.200 F 
ATOM     68  F   UNL A   1      43.369  24.069  24.522  1.00  0.00    -0.200 F 
ENDBRANCH  44  58
BRANCH  45  69
ATOM     69  C   UNL A   1      39.420  32.085  35.501  1.00  0.00     0.064 A 
ATOM     70  C   UNL A   1      39.813  33.422  35.645  1.00  0.00     0.173 A 
ATOM     71  C   UNL A   1      38.573  31.543  36.481  1.00  0.00     0.173 A 
ATOM     72  F   UNL A   1      40.642  33.975  34.748  1.00  0.00    -0.203 F 
ATOM     73  C   UNL A   1      39.381  34.184  36.728  1.00  0.00     0.198 A 
ATOM     74  C   UNL A   1      38.118  32.317  37.545  1.00  0.00     0.198 A 
ATOM     75  F   UNL A   1      38.168  30.268  36.389  1.00  0.00    -0.203 F 
ATOM     76  F   UNL A   1      39.802  35.450  36.861  1.00  0.00    -0.200 F 
ATOM     77  C   UNL A   1      38.527  33.635  37.671  1.00  0.00     0.200 A 
ATOM     78  F   UNL A   1      37.280  31.785  38.447  1.00  0.00    -0.200 F 
ATOM     79  F   UNL A   1      38.104  34.374  38.707  1.00  0.00    -0.200 F 
ENDBRANCH  45  69
BRANCH  57  80
ATOM     80  C   UNL A   1      44.626  27.566  34.519  1.00  0.00     0.064 A 
ATOM     81  C   UNL A   1      45.861  28.229  34.579  1.00  0.00     0.173 A 
ATOM     82  C   UNL A   1      44.435  26.448  35.345  1.00  0.00     0.173 A 
ATOM     83  F   UNL A   1      46.096  29.291  33.793  1.00  0.00    -0.203 F 
ATOM     84  C   UNL A   1      46.873  27.776  35.420  1.00  0.00     0.198 A 
ATOM     85  C   UNL A   1      45.441  26.014  36.202  1.00  0.00     0.198 A 
ATOM     86  F   UNL A   1      43.270  25.783  35.324  1.00  0.00    -0.203 F 
ATOM     87  F   UNL A   1      48.061  28.397  35.429  1.00  0.00    -0.200 F 
ATOM     88  C   UNL A   1      46.660  26.674  36.234  1.00  0.00     0.200 A 
ATOM     89  F   UNL A   1      45.230  24.954  36.996  1.00  0.00    -0.200 F 
ATOM     90  F   UNL A   1      47.635  26.241  37.046  1.00  0.00    -0.200 F 
ENDBRANCH  57  80
ENDBRANCH  31  32
ENDBRANCH  24  26
ENDBRANCH  23  24
ENDBRANCH  22  23
ENDBRANCH  21  22
ENDBRANCH   1  21
TORSDOF 17
ENDMDL
MODEL 3
REMARK VINA RESULT:     -10.5      1.080      2.450
REMARK SMILES CC(C)N(CC1CC1)C(=O)NC1(CC(=O)OCCOC(=O)c2ccc(-c3c4nc(c(-c5c(F)c(F)c(F)c(F)c5F)c5ccc([nH]5)c(-c5c(F)c(F)c(F)c(F)c5F)c5nc(c(-c6c(F)c(F)c(F)c(F)c6F)c6ccc3[nH]6)C=C5)C=C4)cc2)CCC1
REMARK SMILES IDX 16 1 14 2 15 3 13 4 12 5 85 6 87 7 86 8 11 9 9 10 10 11 4 13
REMARK SMILES IDX 2 14 1 15 3 16 5 17 6 18 7 19 8 20 17 21 18 22 19 23 20 24
REMARK SMILES IDX 21 25 22 26 23 27 84 28 24 29 83 30 25 31 26 32 27 33 77 34
REMARK SMILES IDX 28 35 82 36 76 37 78 38 29 39 81 40 75 41 74 42 30 44 62 45
REMARK SMILES IDX 42 46 61 47 43 48 46 49 60 50 79 51 44 52 45 53 59 55 80 56
REMARK SMILES IDX 47 57 31 58 32 59 40 60 33 61 34 62 38 63 41 64 35 65 36 66
REMARK SMILES IDX 39 67 37 68 63 69 64 70 72 71 65 72 66 73 70 74 73 75 67 76
REMARK SMILES IDX 68 77 71 78 69 79 48 80 49 81 57 82 50 83 51 84 55 85 58 86
REMARK SMILES IDX 52 87 53 88 56 89 54 90
REMARK H PARENT 11 12 78 43 46 54
REMARK Flexibility Score: inf
ROOT
ATOM      1  O   UNL A   1      32.775  27.719  26.352  1.00  0.00    -0.462 OA
ENDROOT
BRANCH   1   2
ATOM      2  C   UNL A   1      32.489  26.397  26.251  1.00  0.00     0.308 C 
ATOM      3  O   UNL A   1      31.574  25.834  26.841  1.00  0.00    -0.252 OA
BRANCH   2   4
ATOM      4  C   UNL A   1      33.354  25.676  25.231  1.00  0.00     0.151 C 
BRANCH   4   5
ATOM      5  C   UNL A   1      32.699  24.519  24.442  1.00  0.00     0.052 C 
ATOM      6  C   UNL A   1      33.505  24.106  23.191  1.00  0.00     0.029 C 
ATOM      7  C   UNL A   1      31.632  25.155  23.539  1.00  0.00     0.029 C 
ATOM      8  C   UNL A   1      32.500  24.857  22.306  1.00  0.00     0.005 C 
BRANCH   5   9
ATOM      9  N   UNL A   1      32.384  23.395  25.380  1.00  0.00    -0.332 N 
ATOM     10  C   UNL A   1      33.072  22.605  26.243  1.00  0.00     0.318 C 
ATOM     11  O   UNL A   1      32.623  22.620  27.395  1.00  0.00    -0.249 OA
ATOM     12  H   UNL A   1      31.426  23.170  25.368  1.00  0.00     0.165 HD
BRANCH  10  13
ATOM     13  N   UNL A   1      34.061  21.737  25.857  1.00  0.00    -0.322 N 
BRANCH  13  14
ATOM     14  C   UNL A   1      33.741  20.694  24.848  1.00  0.00     0.080 C 
ATOM     15  C   UNL A   1      34.809  19.604  24.726  1.00  0.00     0.031 C 
ATOM     16  C   UNL A   1      32.346  20.085  25.042  1.00  0.00     0.031 C 
ENDBRANCH  13  14
BRANCH  13  17
ATOM     17  C   UNL A   1      35.482  21.878  26.146  1.00  0.00     0.125 C 
BRANCH  17  18
ATOM     18  C   UNL A   1      35.964  23.285  25.915  1.00  0.00     0.009 C 
ATOM     19  C   UNL A   1      37.391  23.690  26.193  1.00  0.00     0.006 C 
ATOM     20  C   UNL A   1      36.889  23.660  24.779  1.00  0.00     0.006 C 
ENDBRANCH  17  18
ENDBRANCH  13  17
ENDBRANCH  10  13
ENDBRANCH   5   9
ENDBRANCH   4   5
ENDBRANCH   2   4
ENDBRANCH   1   2
BRANCH   1  21
ATOM     21  C   UNL A   1      31.718  28.612  26.766  1.00  0.00     0.274 C 
BRANCH  21  22
ATOM     22  C   UNL A   1      31.765  29.885  25.923  1.00  0.00     0.275 C 
BRANCH  22  23
ATOM     23  O   UNL A   1      33.101  30.412  25.985  1.00  0.00    -0.458 OA
BRANCH  23  24
ATOM     24  C   UNL A   1      33.317  31.367  26.918  1.00  0.00     0.338 C 
ATOM     25  O   UNL A   1      32.585  32.289  27.220  1.00  0.00    -0.246 OA
BRANCH  24  26
ATOM     26  C   UNL A   1      34.605  31.093  27.585  1.00  0.00     0.060 A 
ATOM     27  C   UNL A   1      34.929  29.788  27.956  1.00  0.00     0.016 A 
ATOM     28  C   UNL A   1      35.455  32.142  27.918  1.00  0.00     0.016 A 
ATOM     29  C   UNL A   1      36.052  29.531  28.733  1.00  0.00     0.010 A 
ATOM     30  C   UNL A   1      36.646  31.870  28.600  1.00  0.00     0.010 A 
ATOM     31  C   UNL A   1      36.943  30.564  29.035  1.00  0.00    -0.014 A 
BRANCH  31  32
ATOM     32  C   UNL A   1      38.181  30.286  29.807  1.00  0.00     0.031 A 
ATOM     33  C   UNL A   1      39.251  29.411  29.219  1.00  0.00     0.074 A 
ATOM     34  C   UNL A   1      38.341  30.812  31.038  1.00  0.00     0.049 A 
ATOM     35  N   UNL A   1      40.296  28.876  29.796  1.00  0.00    -0.248 NA
ATOM     36  C   UNL A   1      39.120  29.083  27.790  1.00  0.00     0.031 C 
ATOM     37  C   UNL A   1      37.403  31.720  31.701  1.00  0.00     0.029 A 
ATOM     38  N   UNL A   1      39.349  30.653  31.956  1.00  0.00    -0.354 N 
ATOM     39  C   UNL A   1      40.914  28.106  28.821  1.00  0.00     0.074 A 
ATOM     40  C   UNL A   1      40.130  28.243  27.612  1.00  0.00     0.031 C 
ATOM     41  C   UNL A   1      37.889  32.057  32.905  1.00  0.00     0.029 A 
ATOM     42  C   UNL A   1      39.123  31.316  33.137  1.00  0.00     0.049 A 
ATOM     43  H   UNL A   1      40.156  30.115  31.785  1.00  0.00     0.167 HD
ATOM     44  C   UNL A   1      42.032  27.348  28.932  1.00  0.00     0.037 A 
ATOM     45  C   UNL A   1      39.802  31.291  34.299  1.00  0.00     0.037 A 
ATOM     46  C   UNL A   1      42.826  27.256  30.130  1.00  0.00     0.049 A 
ATOM     47  C   UNL A   1      41.017  30.414  34.409  1.00  0.00     0.074 A 
ATOM     48  C   UNL A   1      43.980  26.525  30.349  1.00  0.00     0.029 A 
ATOM     49  N   UNL A   1      42.551  27.931  31.312  1.00  0.00    -0.354 N 
ATOM     50  N   UNL A   1      41.564  29.644  33.501  1.00  0.00    -0.248 NA
ATOM     51  C   UNL A   1      41.697  30.388  35.711  1.00  0.00     0.031 C 
ATOM     52  C   UNL A   1      44.385  26.730  31.672  1.00  0.00     0.029 A 
ATOM     53  C   UNL A   1      43.507  27.623  32.267  1.00  0.00     0.049 A 
ATOM     54  H   UNL A   1      41.789  28.539  31.451  1.00  0.00     0.167 HD
ATOM     55  C   UNL A   1      42.658  29.050  34.114  1.00  0.00     0.074 A 
ATOM     56  C   UNL A   1      42.707  29.565  35.468  1.00  0.00     0.031 C 
ATOM     57  C   UNL A   1      43.537  28.154  33.605  1.00  0.00     0.037 A 
BRANCH  44  58
ATOM     58  C   UNL A   1      42.438  26.530  27.743  1.00  0.00     0.064 A 
ATOM     59  C   UNL A   1      43.408  26.972  26.832  1.00  0.00     0.173 A 
ATOM     60  C   UNL A   1      41.865  25.267  27.528  1.00  0.00     0.173 A 
ATOM     61  F   UNL A   1      43.978  28.177  26.984  1.00  0.00    -0.203 F 
ATOM     62  C   UNL A   1      43.771  26.191  25.736  1.00  0.00     0.198 A 
ATOM     63  C   UNL A   1      42.249  24.477  26.447  1.00  0.00     0.198 A 
ATOM     64  F   UNL A   1      40.936  24.794  28.373  1.00  0.00    -0.203 F 
ATOM     65  F   UNL A   1      44.670  26.652  24.855  1.00  0.00    -0.200 F 
ATOM     66  C   UNL A   1      43.196  24.943  25.549  1.00  0.00     0.200 A 
ATOM     67  F   UNL A   1      41.701  23.266  26.275  1.00  0.00    -0.200 F 
ATOM     68  F   UNL A   1      43.552  24.190  24.498  1.00  0.00    -0.200 F 
ENDBRANCH  44  58
BRANCH  45  69
ATOM     69  C   UNL A   1      39.319  32.088  35.456  1.00  0.00     0.064 A 
ATOM     70  C   UNL A   1      38.476  31.522  36.422  1.00  0.00     0.173 A 
ATOM     71  C   UNL A   1      39.703  33.427  35.629  1.00  0.00     0.173 A 
ATOM     72  F   UNL A   1      38.062  30.254  36.286  1.00  0.00    -0.203 F 
ATOM     73  C   UNL A   1      38.030  32.267  37.511  1.00  0.00     0.198 A 
ATOM     74  C   UNL A   1      39.281  34.160  36.736  1.00  0.00     0.198 A 
ATOM     75  F   UNL A   1      40.509  34.016  34.734  1.00  0.00    -0.203 F 
ATOM     76  F   UNL A   1      37.194  31.712  38.400  1.00  0.00    -0.200 F 
ATOM     77  C   UNL A   1      38.440  33.581  37.673  1.00  0.00     0.200 A 
ATOM     78  F   UNL A   1      39.693  35.426  36.894  1.00  0.00    -0.200 F 
ATOM     79  F   UNL A   1      38.019  34.292  38.728  1.00  0.00    -0.200 F 
ENDBRANCH  45  69
BRANCH  57  80
ATOM     80  C   UNL A   1      44.646  27.704  34.509  1.00  0.00     0.064 A 
ATOM     81  C   UNL A   1      44.520  26.559  35.309  1.00  0.00     0.173 A 
ATOM     82  C   UNL A   1      45.856  28.411  34.552  1.00  0.00     0.173 A 
ATOM     83  F   UNL A   1      43.373  25.862  35.314  1.00  0.00    -0.203 F 
ATOM     84  C   UNL A   1      45.560  26.152  36.139  1.00  0.00     0.198 A 
ATOM     85  C   UNL A   1      46.903  27.986  35.364  1.00  0.00     0.198 A 
ATOM     86  F   UNL A   1      46.024  29.511  33.802  1.00  0.00    -0.203 F 
ATOM     87  F   UNL A   1      45.403  25.081  36.930  1.00  0.00    -0.200 F 
ATOM     88  C   UNL A   1      46.752  26.861  36.161  1.00  0.00     0.200 A 
ATOM     89  F   UNL A   1      48.057  28.668  35.377  1.00  0.00    -0.200 F 
ATOM     90  F   UNL A   1      47.753  26.466  36.959  1.00  0.00    -0.200 F 
ENDBRANCH  57  80
ENDBRANCH  31  32
ENDBRANCH  24  26
ENDBRANCH  23  24
ENDBRANCH  22  23
ENDBRANCH  21  22
ENDBRANCH   1  21
TORSDOF 17
ENDMDL
