MODEL 1
REMARK VINA RESULT:     -13.1      0.000      0.000
REMARK SMILES Cc1ccnc(C(=O)c2[nH]c3cc(F)ccc3c2CC(=O)OCCOC(=O)c2ccc(-c3c4nc(c(-c5c(F)c(F)c(F)c(F)c5F)c5ccc([nH]5)c(-c5c(F)c(F)c(F)c(F)c5F)c5nc(c(-c6c(F)c(F)c(F)c(F)c6F)c6ccc3[nH]6)C=C5)C=C4)cc2)c1
REMARK SMILES IDX 23 1 22 2 20 3 21 4 19 5 18 6 9 7 10 8 11 9 17 11 12 12
REMARK SMILES IDX 16 13 13 14 15 15 14 16 7 17 8 18 6 19 1 20 2 21 3 22 91 23
REMARK SMILES IDX 4 24 5 25 24 26 25 27 26 28 27 29 28 30 29 31 90 32 30 33
REMARK SMILES IDX 89 34 31 35 32 36 33 37 83 38 34 39 88 40 82 41 84 42 35 43
REMARK SMILES IDX 87 44 81 45 80 46 36 48 68 49 48 50 67 51 49 52 52 53 66 54
REMARK SMILES IDX 85 55 50 56 51 57 65 59 86 60 53 61 37 62 38 63 46 64 39 65
REMARK SMILES IDX 40 66 44 67 47 68 41 69 42 70 45 71 43 72 69 73 70 74 78 75
REMARK SMILES IDX 71 76 72 77 76 78 79 79 73 80 74 81 77 82 75 83 54 84 55 85
REMARK SMILES IDX 63 86 56 87 57 88 61 89 64 90 58 91 59 92 62 93 60 94
REMARK H PARENT 10 10 84 47 52 58
REMARK Flexibility Score: inf
ROOT
ATOM      1  C   UNL A   1      32.077  28.108  27.064  1.00  0.00     0.274 C 
ENDROOT
BRANCH   1   2
ATOM      2  O   UNL A   1      30.823  27.411  26.884  1.00  0.00    -0.462 OA
BRANCH   2   3
ATOM      3  C   UNL A   1      30.885  26.238  26.208  1.00  0.00     0.310 C 
ATOM      4  O   UNL A   1      31.365  25.206  26.676  1.00  0.00    -0.252 OA
BRANCH   3   5
ATOM      5  C   UNL A   1      30.201  26.215  24.861  1.00  0.00     0.161 C 
BRANCH   5   6
ATOM      6  C   UNL A   1      30.542  27.228  23.812  1.00  0.00     0.000 A 
ATOM      7  C   UNL A   1      31.800  27.628  23.359  1.00  0.00     0.093 A 
ATOM      8  N   UNL A   1      31.599  28.635  22.444  1.00  0.00    -0.351 N 
ATOM      9  C   UNL A   1      30.285  29.012  22.408  1.00  0.00     0.049 A 
ATOM     10  H   UNL A   1      32.308  29.033  21.889  1.00  0.00     0.167 HD
ATOM     11  C   UNL A   1      29.580  28.104  23.193  1.00  0.00     0.004 A 
ATOM     12  C   UNL A   1      29.677  30.075  21.734  1.00  0.00     0.066 A 
ATOM     13  C   UNL A   1      28.174  28.237  23.270  1.00  0.00     0.013 A 
ATOM     14  C   UNL A   1      28.296  30.193  21.852  1.00  0.00     0.125 A 
ATOM     15  C   UNL A   1      27.545  29.289  22.592  1.00  0.00     0.040 A 
ATOM     16  F   UNL A   1      27.676  31.207  21.235  1.00  0.00    -0.207 F 
BRANCH   7  17
ATOM     17  C   UNL A   1      33.162  27.176  23.607  1.00  0.00     0.227 C 
ATOM     18  O   UNL A   1      34.000  27.966  24.040  1.00  0.00    -0.285 OA
BRANCH  17  19
ATOM     19  C   UNL A   1      33.475  25.696  23.628  1.00  0.00     0.113 A 
ATOM     20  C   UNL A   1      35.884  23.244  25.247  1.00  0.00     0.044 C 
ATOM     21  C   UNL A   1      34.835  23.845  24.359  1.00  0.00    -0.047 A 
ATOM     22  C   UNL A   1      34.368  23.120  23.262  1.00  0.00     0.023 A 
ATOM     23  C   UNL A   1      34.364  25.152  24.556  1.00  0.00     0.036 A 
ATOM     24  C   UNL A   1      33.465  23.724  22.408  1.00  0.00     0.112 A 
ATOM     25  N   UNL A   1      33.015  24.983  22.562  1.00  0.00    -0.253 NA
ENDBRANCH  17  19
ENDBRANCH   7  17
ENDBRANCH   5   6
ENDBRANCH   3   5
ENDBRANCH   2   3
ENDBRANCH   1   2
BRANCH   1  26
ATOM     26  C   UNL A   1      31.915  29.635  26.974  1.00  0.00     0.275 C 
BRANCH  26  27
ATOM     27  O   UNL A   1      33.054  30.297  26.377  1.00  0.00    -0.458 OA
BRANCH  27  28
ATOM     28  C   UNL A   1      33.576  31.260  27.157  1.00  0.00     0.338 C 
ATOM     29  O   UNL A   1      32.978  32.231  27.611  1.00  0.00    -0.246 OA
BRANCH  28  30
ATOM     30  C   UNL A   1      34.947  31.011  27.586  1.00  0.00     0.060 A 
ATOM     31  C   UNL A   1      35.256  29.703  27.962  1.00  0.00     0.016 A 
ATOM     32  C   UNL A   1      35.811  32.061  27.895  1.00  0.00     0.016 A 
ATOM     33  C   UNL A   1      36.385  29.448  28.722  1.00  0.00     0.010 A 
ATOM     34  C   UNL A   1      36.994  31.791  28.595  1.00  0.00     0.010 A 
ATOM     35  C   UNL A   1      37.272  30.486  29.038  1.00  0.00    -0.014 A 
BRANCH  35  36
ATOM     36  C   UNL A   1      38.502  30.142  29.789  1.00  0.00     0.031 A 
ATOM     37  C   UNL A   1      38.751  30.669  31.171  1.00  0.00     0.074 A 
ATOM     38  C   UNL A   1      39.347  29.252  29.238  1.00  0.00     0.049 A 
ATOM     39  N   UNL A   1      39.719  30.375  32.003  1.00  0.00    -0.248 NA
ATOM     40  C   UNL A   1      37.785  31.643  31.699  1.00  0.00     0.031 C 
ATOM     41  C   UNL A   1      39.183  28.648  27.914  1.00  0.00     0.029 A 
ATOM     42  N   UNL A   1      40.489  28.676  29.729  1.00  0.00    -0.354 N 
ATOM     43  C   UNL A   1      39.467  31.106  33.155  1.00  0.00     0.074 A 
ATOM     44  C   UNL A   1      38.274  31.886  32.909  1.00  0.00     0.031 C 
ATOM     45  C   UNL A   1      40.168  27.763  27.710  1.00  0.00     0.029 A 
ATOM     46  C   UNL A   1      41.060  27.777  28.863  1.00  0.00     0.049 A 
ATOM     47  H   UNL A   1      40.864  28.886  30.614  1.00  0.00     0.167 HD
ATOM     48  C   UNL A   1      40.168  31.114  34.316  1.00  0.00     0.037 A 
ATOM     49  C   UNL A   1      42.190  27.058  28.977  1.00  0.00     0.037 A 
ATOM     50  C   UNL A   1      41.381  30.370  34.541  1.00  0.00     0.049 A 
ATOM     51  C   UNL A   1      43.003  27.176  30.232  1.00  0.00     0.074 A 
ATOM     52  C   UNL A   1      42.178  30.333  35.673  1.00  0.00     0.029 A 
ATOM     53  N   UNL A   1      41.982  29.542  33.604  1.00  0.00    -0.354 N 
ATOM     54  N   UNL A   1      42.747  27.859  31.320  1.00  0.00    -0.248 NA
ATOM     55  C   UNL A   1      44.268  26.432  30.267  1.00  0.00     0.031 C 
ATOM     56  C   UNL A   1      43.283  29.516  35.406  1.00  0.00     0.029 A 
ATOM     57  C   UNL A   1      43.156  29.014  34.122  1.00  0.00     0.049 A 
ATOM     58  H   UNL A   1      41.628  29.356  32.705  1.00  0.00     0.167 HD
ATOM     59  C   UNL A   1      43.814  27.625  32.173  1.00  0.00     0.074 A 
ATOM     60  C   UNL A   1      44.708  26.715  31.484  1.00  0.00     0.031 C 
ATOM     61  C   UNL A   1      44.038  28.125  33.413  1.00  0.00     0.037 A 
BRANCH  48  62
ATOM     62  C   UNL A   1      39.650  31.967  35.434  1.00  0.00     0.064 A 
ATOM     63  C   UNL A   1      40.027  33.313  35.555  1.00  0.00     0.173 A 
ATOM     64  C   UNL A   1      38.719  31.458  36.351  1.00  0.00     0.173 A 
ATOM     65  F   UNL A   1      40.929  33.840  34.714  1.00  0.00    -0.203 F 
ATOM     66  C   UNL A   1      39.492  34.117  36.558  1.00  0.00     0.198 A 
ATOM     67  C   UNL A   1      38.175  32.270  37.344  1.00  0.00     0.198 A 
ATOM     68  F   UNL A   1      38.329  30.178  36.277  1.00  0.00    -0.203 F 
ATOM     69  F   UNL A   1      39.880  35.396  36.668  1.00  0.00    -0.200 F 
ATOM     70  C   UNL A   1      38.561  33.598  37.446  1.00  0.00     0.200 A 
ATOM     71  F   UNL A   1      37.274  31.767  38.199  1.00  0.00    -0.200 F 
ATOM     72  F   UNL A   1      38.040  34.377  38.405  1.00  0.00    -0.200 F 
ENDBRANCH  48  62
BRANCH  49  73
ATOM     73  C   UNL A   1      42.625  26.194  27.853  1.00  0.00     0.064 A 
ATOM     74  C   UNL A   1      43.491  26.670  26.863  1.00  0.00     0.173 A 
ATOM     75  C   UNL A   1      42.188  24.863  27.759  1.00  0.00     0.173 A 
ATOM     76  F   UNL A   1      43.917  27.942  26.902  1.00  0.00    -0.203 F 
ATOM     77  C   UNL A   1      43.900  25.851  25.814  1.00  0.00     0.198 A 
ATOM     78  C   UNL A   1      42.618  24.037  26.726  1.00  0.00     0.198 A 
ATOM     79  F   UNL A   1      41.358  24.361  28.685  1.00  0.00    -0.203 F 
ATOM     80  F   UNL A   1      44.702  26.340  24.859  1.00  0.00    -0.200 F 
ATOM     81  C   UNL A   1      43.469  24.533  25.750  1.00  0.00     0.200 A 
ATOM     82  F   UNL A   1      42.210  22.762  26.676  1.00  0.00    -0.200 F 
ATOM     83  F   UNL A   1      43.868  23.744  24.743  1.00  0.00    -0.200 F 
ENDBRANCH  49  73
BRANCH  61  84
ATOM     84  C   UNL A   1      45.304  27.694  34.088  1.00  0.00     0.064 A 
ATOM     85  C   UNL A   1      46.488  28.434  33.954  1.00  0.00     0.173 A 
ATOM     86  C   UNL A   1      45.337  26.530  34.869  1.00  0.00     0.173 A 
ATOM     87  F   UNL A   1      46.509  29.543  33.200  1.00  0.00    -0.203 F 
ATOM     88  C   UNL A   1      47.669  28.005  34.553  1.00  0.00     0.198 A 
ATOM     89  C   UNL A   1      46.514  26.117  35.485  1.00  0.00     0.198 A 
ATOM     90  F   UNL A   1      44.228  25.791  35.028  1.00  0.00    -0.203 F 
ATOM     91  F   UNL A   1      48.801  28.697  34.368  1.00  0.00    -0.200 F 
ATOM     92  C   UNL A   1      47.680  26.850  35.320  1.00  0.00     0.200 A 
ATOM     93  F   UNL A   1      46.523  25.003  36.230  1.00  0.00    -0.200 F 
ATOM     94  F   UNL A   1      48.820  26.434  35.890  1.00  0.00    -0.200 F 
ENDBRANCH  61  84
ENDBRANCH  35  36
ENDBRANCH  28  30
ENDBRANCH  27  28
ENDBRANCH  26  27
ENDBRANCH   1  26
TORSDOF 14
ENDMDL
MODEL 2
REMARK VINA RESULT:     -12.9      1.699      3.942
REMARK SMILES Cc1ccnc(C(=O)c2[nH]c3cc(F)ccc3c2CC(=O)OCCOC(=O)c2ccc(-c3c4nc(c(-c5c(F)c(F)c(F)c(F)c5F)c5ccc([nH]5)c(-c5c(F)c(F)c(F)c(F)c5F)c5nc(c(-c6c(F)c(F)c(F)c(F)c6F)c6ccc3[nH]6)C=C5)C=C4)cc2)c1
REMARK SMILES IDX 23 1 22 2 20 3 21 4 19 5 18 6 9 7 10 8 11 9 17 11 12 12
REMARK SMILES IDX 16 13 13 14 15 15 14 16 7 17 8 18 6 19 1 20 2 21 3 22 91 23
REMARK SMILES IDX 4 24 5 25 24 26 25 27 26 28 27 29 28 30 29 31 90 32 30 33
REMARK SMILES IDX 89 34 31 35 32 36 33 37 83 38 34 39 88 40 82 41 84 42 35 43
REMARK SMILES IDX 87 44 81 45 80 46 36 48 68 49 48 50 67 51 49 52 52 53 66 54
REMARK SMILES IDX 85 55 50 56 51 57 65 59 86 60 53 61 37 62 38 63 46 64 39 65
REMARK SMILES IDX 40 66 44 67 47 68 41 69 42 70 45 71 43 72 69 73 70 74 78 75
REMARK SMILES IDX 71 76 72 77 76 78 79 79 73 80 74 81 77 82 75 83 54 84 55 85
REMARK SMILES IDX 63 86 56 87 57 88 61 89 64 90 58 91 59 92 62 93 60 94
REMARK H PARENT 10 10 84 47 52 58
REMARK Flexibility Score: inf
ROOT
ATOM      1  C   UNL A   1      31.706  28.634  27.261  1.00  0.00     0.274 C 
ENDROOT
BRANCH   1   2
ATOM      2  O   UNL A   1      31.694  27.737  26.128  1.00  0.00    -0.462 OA
BRANCH   2   3
ATOM      3  C   UNL A   1      32.236  26.512  26.333  1.00  0.00     0.310 C 
ATOM      4  O   UNL A   1      31.599  25.545  26.751  1.00  0.00    -0.252 OA
BRANCH   3   5
ATOM      5  C   UNL A   1      33.671  26.341  25.888  1.00  0.00     0.161 C 
BRANCH   5   6
ATOM      6  C   UNL A   1      34.038  25.305  24.871  1.00  0.00     0.000 A 
ATOM      7  C   UNL A   1      33.747  25.277  23.506  1.00  0.00     0.093 A 
ATOM      8  N   UNL A   1      34.230  24.088  23.014  1.00  0.00    -0.351 N 
ATOM      9  C   UNL A   1      34.674  23.280  24.025  1.00  0.00     0.049 A 
ATOM     10  H   UNL A   1      34.255  23.849  22.060  1.00  0.00     0.167 HD
ATOM     11  C   UNL A   1      34.640  24.037  25.194  1.00  0.00     0.004 A 
ATOM     12  C   UNL A   1      35.106  21.951  23.985  1.00  0.00     0.066 A 
ATOM     13  C   UNL A   1      35.114  23.444  26.387  1.00  0.00     0.013 A 
ATOM     14  C   UNL A   1      35.541  21.392  25.182  1.00  0.00     0.125 A 
ATOM     15  C   UNL A   1      35.564  22.118  26.364  1.00  0.00     0.040 A 
ATOM     16  F   UNL A   1      35.949  20.116  25.190  1.00  0.00    -0.207 F 
BRANCH   7  17
ATOM     17  C   UNL A   1      33.134  26.217  22.578  1.00  0.00     0.227 C 
ATOM     18  O   UNL A   1      33.713  26.508  21.531  1.00  0.00    -0.285 OA
BRANCH  17  19
ATOM     19  C   UNL A   1      31.680  26.599  22.739  1.00  0.00     0.113 A 
ATOM     20  C   UNL A   1      29.488  29.691  23.019  1.00  0.00     0.044 C 
ATOM     21  C   UNL A   1      29.965  28.269  23.028  1.00  0.00    -0.047 A 
ATOM     22  C   UNL A   1      29.140  27.273  23.552  1.00  0.00     0.023 A 
ATOM     23  C   UNL A   1      31.254  27.921  22.596  1.00  0.00     0.036 A 
ATOM     24  C   UNL A   1      29.629  25.983  23.630  1.00  0.00     0.112 A 
ATOM     25  N   UNL A   1      30.869  25.628  23.243  1.00  0.00    -0.253 NA
ENDBRANCH  17  19
ENDBRANCH   7  17
ENDBRANCH   5   6
ENDBRANCH   3   5
ENDBRANCH   2   3
ENDBRANCH   1   2
BRANCH   1  26
ATOM     26  C   UNL A   1      31.736  30.112  26.837  1.00  0.00     0.275 C 
BRANCH  26  27
ATOM     27  O   UNL A   1      33.042  30.555  26.400  1.00  0.00    -0.458 OA
BRANCH  27  28
ATOM     28  C   UNL A   1      33.584  31.484  27.208  1.00  0.00     0.338 C 
ATOM     29  O   UNL A   1      33.011  32.461  27.679  1.00  0.00    -0.246 OA
BRANCH  28  30
ATOM     30  C   UNL A   1      34.943  31.183  27.643  1.00  0.00     0.060 A 
ATOM     31  C   UNL A   1      35.179  29.888  28.105  1.00  0.00     0.016 A 
ATOM     32  C   UNL A   1      35.871  32.199  27.875  1.00  0.00     0.016 A 
ATOM     33  C   UNL A   1      36.300  29.618  28.873  1.00  0.00     0.010 A 
ATOM     34  C   UNL A   1      37.043  31.908  28.583  1.00  0.00     0.010 A 
ATOM     35  C   UNL A   1      37.249  30.621  29.112  1.00  0.00    -0.014 A 
BRANCH  35  36
ATOM     36  C   UNL A   1      38.464  30.257  29.876  1.00  0.00     0.031 A 
ATOM     37  C   UNL A   1      38.688  30.747  31.276  1.00  0.00     0.074 A 
ATOM     38  C   UNL A   1      39.319  29.380  29.318  1.00  0.00     0.049 A 
ATOM     39  N   UNL A   1      39.641  30.431  32.118  1.00  0.00    -0.248 NA
ATOM     40  C   UNL A   1      37.713  31.707  31.811  1.00  0.00     0.031 C 
ATOM     41  C   UNL A   1      39.179  28.811  27.976  1.00  0.00     0.029 A 
ATOM     42  N   UNL A   1      40.452  28.791  29.814  1.00  0.00    -0.354 N 
ATOM     43  C   UNL A   1      39.368  31.131  33.284  1.00  0.00     0.074 A 
ATOM     44  C   UNL A   1      38.180  31.919  33.036  1.00  0.00     0.031 C 
ATOM     45  C   UNL A   1      40.167  27.931  27.767  1.00  0.00     0.029 A 
ATOM     46  C   UNL A   1      41.038  27.914  28.936  1.00  0.00     0.049 A 
ATOM     47  H   UNL A   1      40.810  28.978  30.712  1.00  0.00     0.167 HD
ATOM     48  C   UNL A   1      40.047  31.108  34.457  1.00  0.00     0.037 A 
ATOM     49  C   UNL A   1      42.166  27.192  29.052  1.00  0.00     0.037 A 
ATOM     50  C   UNL A   1      41.255  30.357  34.685  1.00  0.00     0.049 A 
ATOM     51  C   UNL A   1      42.955  27.276  30.324  1.00  0.00     0.074 A 
ATOM     52  C   UNL A   1      42.031  30.290  35.830  1.00  0.00     0.029 A 
ATOM     53  N   UNL A   1      41.874  29.554  33.738  1.00  0.00    -0.354 N 
ATOM     54  N   UNL A   1      42.680  27.930  31.425  1.00  0.00    -0.248 NA
ATOM     55  C   UNL A   1      44.219  26.530  30.363  1.00  0.00     0.031 C 
ATOM     56  C   UNL A   1      43.141  29.479  35.562  1.00  0.00     0.029 A 
ATOM     57  C   UNL A   1      43.037  29.011  34.263  1.00  0.00     0.049 A 
ATOM     58  H   UNL A   1      41.536  29.391  32.828  1.00  0.00     0.167 HD
ATOM     59  C   UNL A   1      43.731  27.673  32.292  1.00  0.00     0.074 A 
ATOM     60  C   UNL A   1      44.636  26.781  31.596  1.00  0.00     0.031 C 
ATOM     61  C   UNL A   1      43.932  28.141  33.547  1.00  0.00     0.037 A 
BRANCH  48  62
ATOM     62  C   UNL A   1      39.509  31.933  35.587  1.00  0.00     0.064 A 
ATOM     63  C   UNL A   1      38.539  31.421  36.462  1.00  0.00     0.173 A 
ATOM     64  C   UNL A   1      40.012  33.218  35.839  1.00  0.00     0.173 A 
ATOM     65  F   UNL A   1      38.014  30.205  36.251  1.00  0.00    -0.203 F 
ATOM     66  C   UNL A   1      38.091  32.169  37.548  1.00  0.00     0.198 A 
ATOM     67  C   UNL A   1      39.571  33.956  36.935  1.00  0.00     0.198 A 
ATOM     68  F   UNL A   1      40.939  33.751  35.030  1.00  0.00    -0.203 F 
ATOM     69  F   UNL A   1      37.149  31.668  38.360  1.00  0.00    -0.200 F 
ATOM     70  C   UNL A   1      38.612  33.432  37.788  1.00  0.00     0.200 A 
ATOM     71  F   UNL A   1      40.078  35.176  37.166  1.00  0.00    -0.200 F 
ATOM     72  F   UNL A   1      38.186  34.146  38.839  1.00  0.00    -0.200 F 
ENDBRANCH  48  62
BRANCH  49  73
ATOM     73  C   UNL A   1      42.621  26.357  27.914  1.00  0.00     0.064 A 
ATOM     74  C   UNL A   1      42.168  25.043  27.751  1.00  0.00     0.173 A 
ATOM     75  C   UNL A   1      43.511  26.869  26.957  1.00  0.00     0.173 A 
ATOM     76  F   UNL A   1      41.333  24.505  28.652  1.00  0.00    -0.203 F 
ATOM     77  C   UNL A   1      42.595  24.266  26.676  1.00  0.00     0.198 A 
ATOM     78  C   UNL A   1      43.915  26.102  25.869  1.00  0.00     0.198 A 
ATOM     79  F   UNL A   1      43.971  28.123  27.071  1.00  0.00    -0.203 F 
ATOM     80  F   UNL A   1      42.176  22.999  26.560  1.00  0.00    -0.200 F 
ATOM     81  C   UNL A   1      43.463  24.799  25.733  1.00  0.00     0.200 A 
ATOM     82  F   UNL A   1      44.743  26.625  24.954  1.00  0.00    -0.200 F 
ATOM     83  F   UNL A   1      43.868  24.053  24.696  1.00  0.00    -0.200 F 
ENDBRANCH  49  73
BRANCH  61  84
ATOM     84  C   UNL A   1      45.185  27.690  34.235  1.00  0.00     0.064 A 
ATOM     85  C   UNL A   1      45.212  26.513  34.997  1.00  0.00     0.173 A 
ATOM     86  C   UNL A   1      46.364  28.442  34.138  1.00  0.00     0.173 A 
ATOM     87  F   UNL A   1      44.102  25.772  35.134  1.00  0.00    -0.203 F 
ATOM     88  C   UNL A   1      46.369  26.121  35.664  1.00  0.00     0.198 A 
ATOM     89  C   UNL A   1      47.525  28.035  34.787  1.00  0.00     0.198 A 
ATOM     90  F   UNL A   1      46.387  29.574  33.418  1.00  0.00    -0.203 F 
ATOM     91  F   UNL A   1      46.358  25.022  36.431  1.00  0.00    -0.200 F 
ATOM     92  C   UNL A   1      47.524  26.880  35.556  1.00  0.00     0.200 A 
ATOM     93  F   UNL A   1      48.643  28.766  34.679  1.00  0.00    -0.200 F 
ATOM     94  F   UNL A   1      48.635  26.507  36.206  1.00  0.00    -0.200 F 
ENDBRANCH  61  84
ENDBRANCH  35  36
ENDBRANCH  28  30
ENDBRANCH  27  28
ENDBRANCH  26  27
ENDBRANCH   1  26
TORSDOF 14
ENDMDL
MODEL 3
REMARK VINA RESULT:     -12.9      4.612      9.869
REMARK SMILES Cc1ccnc(C(=O)c2[nH]c3cc(F)ccc3c2CC(=O)OCCOC(=O)c2ccc(-c3c4nc(c(-c5c(F)c(F)c(F)c(F)c5F)c5ccc([nH]5)c(-c5c(F)c(F)c(F)c(F)c5F)c5nc(c(-c6c(F)c(F)c(F)c(F)c6F)c6ccc3[nH]6)C=C5)C=C4)cc2)c1
REMARK SMILES IDX 23 1 22 2 20 3 21 4 19 5 18 6 9 7 10 8 11 9 17 11 12 12
REMARK SMILES IDX 16 13 13 14 15 15 14 16 7 17 8 18 6 19 1 20 2 21 3 22 91 23
REMARK SMILES IDX 4 24 5 25 24 26 25 27 26 28 27 29 28 30 29 31 90 32 30 33
REMARK SMILES IDX 89 34 31 35 32 36 33 37 83 38 34 39 88 40 82 41 84 42 35 43
REMARK SMILES IDX 87 44 81 45 80 46 36 48 68 49 48 50 67 51 49 52 52 53 66 54
REMARK SMILES IDX 85 55 50 56 51 57 65 59 86 60 53 61 37 62 38 63 46 64 39 65
REMARK SMILES IDX 40 66 44 67 47 68 41 69 42 70 45 71 43 72 69 73 70 74 78 75
REMARK SMILES IDX 71 76 72 77 76 78 79 79 73 80 74 81 77 82 75 83 54 84 55 85
REMARK SMILES IDX 63 86 56 87 57 88 61 89 64 90 58 91 59 92 62 93 60 94
REMARK H PARENT 10 10 84 47 52 58
REMARK Flexibility Score: inf
ROOT
ATOM      1  C   UNL A   1      36.503  22.518  23.546  1.00  0.00     0.274 C 
ENDROOT
BRANCH   1   2
ATOM      2  O   UNL A   1      35.163  22.689  24.061  1.00  0.00    -0.462 OA
BRANCH   2   3
ATOM      3  C   UNL A   1      34.180  22.806  23.137  1.00  0.00     0.310 C 
ATOM      4  O   UNL A   1      34.322  23.383  22.058  1.00  0.00    -0.252 OA
BRANCH   3   5
ATOM      5  C   UNL A   1      32.900  22.060  23.435  1.00  0.00     0.161 C 
BRANCH   5   6
ATOM      6  C   UNL A   1      32.854  21.019  24.510  1.00  0.00     0.000 A 
ATOM      7  C   UNL A   1      33.002  21.177  25.889  1.00  0.00     0.093 A 
ATOM      8  N   UNL A   1      32.957  19.921  26.447  1.00  0.00    -0.351 N 
ATOM      9  C   UNL A   1      32.951  18.952  25.481  1.00  0.00     0.049 A 
ATOM     10  H   UNL A   1      32.933  19.742  27.415  1.00  0.00     0.167 HD
ATOM     11  C   UNL A   1      32.809  19.601  24.257  1.00  0.00     0.004 A 
ATOM     12  C   UNL A   1      33.050  17.564  25.606  1.00  0.00     0.066 A 
ATOM     13  C   UNL A   1      32.711  18.809  23.090  1.00  0.00     0.013 A 
ATOM     14  C   UNL A   1      32.975  16.817  24.435  1.00  0.00     0.125 A 
ATOM     15  C   UNL A   1      32.795  17.415  23.195  1.00  0.00     0.040 A 
ATOM     16  F   UNL A   1      33.081  15.484  24.509  1.00  0.00    -0.207 F 
BRANCH   7  17
ATOM     17  C   UNL A   1      33.122  22.328  26.773  1.00  0.00     0.227 C 
ATOM     18  O   UNL A   1      33.912  22.295  27.716  1.00  0.00    -0.285 OA
BRANCH  17  19
ATOM     19  C   UNL A   1      32.519  23.656  26.372  1.00  0.00     0.113 A 
ATOM     20  C   UNL A   1      33.475  27.319  26.052  1.00  0.00     0.044 C 
ATOM     21  C   UNL A   1      32.684  26.046  26.111  1.00  0.00    -0.047 A 
ATOM     22  C   UNL A   1      31.291  26.107  26.155  1.00  0.00     0.023 A 
ATOM     23  C   UNL A   1      33.309  24.794  26.202  1.00  0.00     0.036 A 
ATOM     24  C   UNL A   1      30.582  24.929  26.294  1.00  0.00     0.112 A 
ATOM     25  N   UNL A   1      31.158  23.717  26.406  1.00  0.00    -0.253 NA
ENDBRANCH  17  19
ENDBRANCH   7  17
ENDBRANCH   5   6
ENDBRANCH   3   5
ENDBRANCH   2   3
ENDBRANCH   1   2
BRANCH   1  26
ATOM     26  C   UNL A   1      37.278  21.414  24.286  1.00  0.00     0.275 C 
BRANCH  26  27
ATOM     27  O   UNL A   1      37.509  21.716  25.682  1.00  0.00    -0.458 OA
BRANCH  27  28
ATOM     28  C   UNL A   1      38.792  21.552  26.053  1.00  0.00     0.338 C 
ATOM     29  O   UNL A   1      39.517  20.606  25.764  1.00  0.00    -0.246 OA
BRANCH  28  30
ATOM     30  C   UNL A   1      39.367  22.697  26.750  1.00  0.00     0.060 A 
ATOM     31  C   UNL A   1      38.943  23.959  26.334  1.00  0.00     0.016 A 
ATOM     32  C   UNL A   1      40.491  22.558  27.564  1.00  0.00     0.016 A 
ATOM     33  C   UNL A   1      39.687  25.082  26.656  1.00  0.00     0.010 A 
ATOM     34  C   UNL A   1      41.197  23.703  27.957  1.00  0.00     0.010 A 
ATOM     35  C   UNL A   1      40.815  24.969  27.479  1.00  0.00    -0.014 A 
BRANCH  35  36
ATOM     36  C   UNL A   1      41.528  26.212  27.853  1.00  0.00     0.031 A 
ATOM     37  C   UNL A   1      42.931  26.481  27.396  1.00  0.00     0.074 A 
ATOM     38  C   UNL A   1      40.842  27.152  28.529  1.00  0.00     0.049 A 
ATOM     39  N   UNL A   1      43.652  27.564  27.542  1.00  0.00    -0.248 NA
ATOM     40  C   UNL A   1      43.614  25.402  26.669  1.00  0.00     0.031 C 
ATOM     41  C   UNL A   1      39.460  27.010  28.992  1.00  0.00     0.029 A 
ATOM     42  N   UNL A   1      41.196  28.417  28.917  1.00  0.00    -0.354 N 
ATOM     43  C   UNL A   1      44.860  27.308  26.908  1.00  0.00     0.074 A 
ATOM     44  C   UNL A   1      44.792  25.953  26.403  1.00  0.00     0.031 C 
ATOM     45  C   UNL A   1      39.071  28.154  29.572  1.00  0.00     0.029 A 
ATOM     46  C   UNL A   1      40.192  29.087  29.569  1.00  0.00     0.049 A 
ATOM     47  H   UNL A   1      42.083  28.807  28.745  1.00  0.00     0.167 HD
ATOM     48  C   UNL A   1      45.922  28.135  26.756  1.00  0.00     0.037 A 
ATOM     49  C   UNL A   1      40.181  30.311  30.124  1.00  0.00     0.037 A 
ATOM     50  C   UNL A   1      46.003  29.467  27.299  1.00  0.00     0.049 A 
ATOM     51  C   UNL A   1      41.414  31.160  30.036  1.00  0.00     0.074 A 
ATOM     52  C   UNL A   1      47.047  30.373  27.222  1.00  0.00     0.029 A 
ATOM     53  N   UNL A   1      45.000  30.078  28.039  1.00  0.00    -0.354 N 
ATOM     54  N   UNL A   1      42.545  30.912  29.421  1.00  0.00    -0.248 NA
ATOM     55  C   UNL A   1      41.373  32.453  30.729  1.00  0.00     0.031 C 
ATOM     56  C   UNL A   1      46.692  31.515  27.951  1.00  0.00     0.029 A 
ATOM     57  C   UNL A   1      45.413  31.336  28.449  1.00  0.00     0.049 A 
ATOM     58  H   UNL A   1      44.124  29.677  28.241  1.00  0.00     0.167 HD
ATOM     59  C   UNL A   1      43.349  32.017  29.647  1.00  0.00     0.074 A 
ATOM     60  C   UNL A   1      42.566  32.949  30.435  1.00  0.00     0.031 C 
ATOM     61  C   UNL A   1      44.625  32.239  29.247  1.00  0.00     0.037 A 
BRANCH  48  62
ATOM     62  C   UNL A   1      47.098  27.621  25.981  1.00  0.00     0.064 A 
ATOM     63  C   UNL A   1      47.147  27.722  24.583  1.00  0.00     0.173 A 
ATOM     64  C   UNL A   1      48.212  27.083  26.643  1.00  0.00     0.173 A 
ATOM     65  F   UNL A   1      46.099  28.211  23.905  1.00  0.00    -0.203 F 
ATOM     66  C   UNL A   1      48.270  27.301  23.875  1.00  0.00     0.198 A 
ATOM     67  C   UNL A   1      49.339  26.676  25.932  1.00  0.00     0.198 A 
ATOM     68  F   UNL A   1      48.212  26.964  27.978  1.00  0.00    -0.203 F 
ATOM     69  F   UNL A   1      48.288  27.389  22.538  1.00  0.00    -0.200 F 
ATOM     70  C   UNL A   1      49.367  26.786  24.550  1.00  0.00     0.200 A 
ATOM     71  F   UNL A   1      50.399  26.181  26.586  1.00  0.00    -0.200 F 
ATOM     72  F   UNL A   1      50.450  26.390  23.867  1.00  0.00    -0.200 F 
ENDBRANCH  48  62
BRANCH  49  73
ATOM     73  C   UNL A   1      38.969  30.782  30.837  1.00  0.00     0.064 A 
ATOM     74  C   UNL A   1      38.831  30.623  32.220  1.00  0.00     0.173 A 
ATOM     75  C   UNL A   1      37.928  31.417  30.141  1.00  0.00     0.173 A 
ATOM     76  F   UNL A   1      39.793  30.004  32.921  1.00  0.00    -0.203 F 
ATOM     77  C   UNL A   1      37.692  31.073  32.883  1.00  0.00     0.198 A 
ATOM     78  C   UNL A   1      36.803  31.891  30.809  1.00  0.00     0.198 A 
ATOM     79  F   UNL A   1      38.015  31.593  28.815  1.00  0.00    -0.203 F 
ATOM     80  F   UNL A   1      37.568  30.878  34.203  1.00  0.00    -0.200 F 
ATOM     81  C   UNL A   1      36.683  31.713  32.178  1.00  0.00     0.200 A 
ATOM     82  F   UNL A   1      35.836  32.519  30.126  1.00  0.00    -0.200 F 
ATOM     83  F   UNL A   1      35.590  32.151  32.819  1.00  0.00    -0.200 F 
ENDBRANCH  49  73
BRANCH  61  84
ATOM     84  C   UNL A   1      45.240  33.540  29.664  1.00  0.00     0.064 A 
ATOM     85  C   UNL A   1      45.984  33.645  30.849  1.00  0.00     0.173 A 
ATOM     86  C   UNL A   1      45.080  34.690  28.880  1.00  0.00     0.173 A 
ATOM     87  F   UNL A   1      46.146  32.574  31.641  1.00  0.00    -0.203 F 
ATOM     88  C   UNL A   1      46.520  34.865  31.249  1.00  0.00     0.198 A 
ATOM     89  C   UNL A   1      45.637  35.903  29.272  1.00  0.00     0.198 A 
ATOM     90  F   UNL A   1      44.379  34.638  27.737  1.00  0.00    -0.203 F 
ATOM     91  F   UNL A   1      47.181  34.956  32.411  1.00  0.00    -0.200 F 
ATOM     92  C   UNL A   1      46.349  35.992  30.459  1.00  0.00     0.200 A 
ATOM     93  F   UNL A   1      45.476  36.991  28.506  1.00  0.00    -0.200 F 
ATOM     94  F   UNL A   1      46.858  37.168  30.850  1.00  0.00    -0.200 F 
ENDBRANCH  61  84
ENDBRANCH  35  36
ENDBRANCH  28  30
ENDBRANCH  27  28
ENDBRANCH  26  27
ENDBRANCH   1  26
TORSDOF 14
ENDMDL
