MODEL 1
REMARK VINA RESULT:     -11.1      0.000      0.000
REMARK SMILES COc1ccc(C(=O)OCCOC(=O)c2ccc(-c3c4nc(c(-c5c(F)c(F)c(F)c(F)c5F)c5ccc([nH]5)c(-c5c(F)c(F)c(F)c(F)c5F)c5nc(c(-c6c(F)c(F)c(F)c(F)c6F)c6ccc3[nH]6)C=C5)C=C4)cc2)cc1C(F)(F)F
REMARK SMILES IDX 11 1 10 2 9 3 7 4 8 5 6 6 3 7 4 8 79 9 5 10 78 11 2 12 1 13
REMARK SMILES IDX 80 14 81 15 82 16 83 17 12 18 13 19 14 20 15 21 16 22 77 23
REMARK SMILES IDX 17 24 76 25 18 26 19 27 20 28 70 29 21 30 75 31 69 32 71 33
REMARK SMILES IDX 22 34 74 35 68 36 67 37 23 39 55 40 35 41 54 42 36 43 39 44
REMARK SMILES IDX 53 45 72 46 37 47 38 48 52 50 73 51 40 52 24 53 25 54 33 55
REMARK SMILES IDX 26 56 27 57 31 58 34 59 28 60 29 61 32 62 30 63 56 64 57 65
REMARK SMILES IDX 65 66 58 67 59 68 63 69 66 70 60 71 61 72 64 73 62 74 41 75
REMARK SMILES IDX 42 76 50 77 43 78 44 79 48 80 51 81 45 82 46 83 49 84 47 85
REMARK H PARENT 71 38 39 49
REMARK Flexibility Score: inf
ROOT
ATOM      1  C   UNL A   1      31.483  30.358  25.830  1.00  0.00     0.275 C 
ENDROOT
BRANCH   1   2
ATOM      2  C   UNL A   1      31.294  29.439  24.624  1.00  0.00     0.275 C 
BRANCH   2   3
ATOM      3  O   UNL A   1      32.539  28.815  24.252  1.00  0.00    -0.458 OA
BRANCH   3   4
ATOM      4  C   UNL A   1      32.435  27.739  23.435  1.00  0.00     0.338 C 
ATOM      5  O   UNL A   1      31.886  27.701  22.345  1.00  0.00    -0.246 OA
BRANCH   4   6
ATOM      6  C   UNL A   1      33.156  26.571  24.002  1.00  0.00     0.060 A 
ATOM      7  C   UNL A   1      34.607  24.467  25.130  1.00  0.00     0.131 A 
ATOM      8  C   UNL A   1      34.397  25.637  25.861  1.00  0.00     0.048 A 
ATOM      9  C   UNL A   1      34.062  24.307  23.851  1.00  0.00     0.098 A 
ATOM     10  C   UNL A   1      33.702  26.697  25.286  1.00  0.00     0.019 A 
ATOM     11  C   UNL A   1      33.331  25.377  23.293  1.00  0.00     0.032 A 
BRANCH   7  12
ATOM     12  O   UNL A   1      35.312  23.453  25.716  1.00  0.00    -0.496 OA
ATOM     13  C   UNL A   1      36.691  23.806  25.852  1.00  0.00     0.278 C 
ENDBRANCH   7  12
BRANCH   9  14
ATOM     14  C   UNL A   1      34.319  23.070  23.030  1.00  0.00     0.419 C 
ATOM     15  F   UNL A   1      33.738  23.131  21.797  1.00  0.00    -0.166 F 
ATOM     16  F   UNL A   1      35.651  22.893  22.795  1.00  0.00    -0.166 F 
ATOM     17  F   UNL A   1      33.877  21.909  23.582  1.00  0.00    -0.166 F 
ENDBRANCH   9  14
ENDBRANCH   4   6
ENDBRANCH   3   4
ENDBRANCH   2   3
ENDBRANCH   1   2
BRANCH   1  18
ATOM     18  O   UNL A   1      32.866  30.357  26.226  1.00  0.00    -0.458 OA
BRANCH  18  19
ATOM     19  C   UNL A   1      33.263  31.384  27.005  1.00  0.00     0.338 C 
ATOM     20  O   UNL A   1      32.671  32.431  27.227  1.00  0.00    -0.246 OA
BRANCH  19  21
ATOM     21  C   UNL A   1      34.572  31.067  27.594  1.00  0.00     0.060 A 
ATOM     22  C   UNL A   1      34.872  29.747  27.928  1.00  0.00     0.016 A 
ATOM     23  C   UNL A   1      35.459  32.093  27.917  1.00  0.00     0.016 A 
ATOM     24  C   UNL A   1      36.038  29.449  28.630  1.00  0.00     0.010 A 
ATOM     25  C   UNL A   1      36.659  31.786  28.569  1.00  0.00     0.010 A 
ATOM     26  C   UNL A   1      36.946  30.466  28.959  1.00  0.00    -0.014 A 
BRANCH  26  27
ATOM     27  C   UNL A   1      38.154  30.162  29.775  1.00  0.00     0.031 A 
ATOM     28  C   UNL A   1      39.251  29.307  29.197  1.00  0.00     0.074 A 
ATOM     29  C   UNL A   1      38.295  30.668  31.015  1.00  0.00     0.049 A 
ATOM     30  N   UNL A   1      40.301  28.793  29.786  1.00  0.00    -0.248 NA
ATOM     31  C   UNL A   1      39.147  28.982  27.765  1.00  0.00     0.031 C 
ATOM     32  C   UNL A   1      37.343  31.556  31.681  1.00  0.00     0.029 A 
ATOM     33  N   UNL A   1      39.303  30.511  31.935  1.00  0.00    -0.354 N 
ATOM     34  C   UNL A   1      40.955  28.048  28.812  1.00  0.00     0.074 A 
ATOM     35  C   UNL A   1      40.185  28.176  27.594  1.00  0.00     0.031 C 
ATOM     36  C   UNL A   1      37.824  31.890  32.890  1.00  0.00     0.029 A 
ATOM     37  C   UNL A   1      39.084  31.186  33.112  1.00  0.00     0.049 A 
ATOM     38  H   UNL A   1      40.107  29.968  31.768  1.00  0.00     0.167 HD
ATOM     39  C   UNL A   1      42.093  27.322  28.925  1.00  0.00     0.037 A 
ATOM     40  C   UNL A   1      39.798  31.207  34.253  1.00  0.00     0.037 A 
ATOM     41  C   UNL A   1      42.887  27.231  30.122  1.00  0.00     0.049 A 
ATOM     42  C   UNL A   1      41.049  30.378  34.361  1.00  0.00     0.074 A 
ATOM     43  C   UNL A   1      44.042  26.500  30.341  1.00  0.00     0.029 A 
ATOM     44  N   UNL A   1      42.619  27.916  31.298  1.00  0.00    -0.354 N 
ATOM     45  N   UNL A   1      41.612  29.610  33.461  1.00  0.00    -0.248 NA
ATOM     46  C   UNL A   1      41.752  30.401  35.652  1.00  0.00     0.031 C 
ATOM     47  C   UNL A   1      44.465  26.730  31.656  1.00  0.00     0.029 A 
ATOM     48  C   UNL A   1      43.589  27.627  32.244  1.00  0.00     0.049 A 
ATOM     49  H   UNL A   1      41.853  28.518  31.439  1.00  0.00     0.167 HD
ATOM     50  C   UNL A   1      42.732  29.065  34.071  1.00  0.00     0.074 A 
ATOM     51  C   UNL A   1      42.786  29.609  35.412  1.00  0.00     0.031 C 
ATOM     52  C   UNL A   1      43.630  28.183  33.570  1.00  0.00     0.037 A 
BRANCH  39  53
ATOM     53  C   UNL A   1      42.539  26.544  27.725  1.00  0.00     0.064 A 
ATOM     54  C   UNL A   1      43.471  27.060  26.815  1.00  0.00     0.173 A 
ATOM     55  C   UNL A   1      42.054  25.245  27.505  1.00  0.00     0.173 A 
ATOM     56  F   UNL A   1      43.951  28.303  26.974  1.00  0.00    -0.203 F 
ATOM     57  C   UNL A   1      43.891  26.311  25.718  1.00  0.00     0.198 A 
ATOM     58  C   UNL A   1      42.492  24.490  26.421  1.00  0.00     0.198 A 
ATOM     59  F   UNL A   1      41.163  24.705  28.350  1.00  0.00    -0.203 F 
ATOM     60  F   UNL A   1      44.757  26.837  24.841  1.00  0.00    -0.200 F 
ATOM     61  C   UNL A   1      43.406  25.025  25.526  1.00  0.00     0.200 A 
ATOM     62  F   UNL A   1      42.031  23.245  26.243  1.00  0.00    -0.200 F 
ATOM     63  F   UNL A   1      43.817  24.303  24.474  1.00  0.00    -0.200 F 
ENDBRANCH  39  53
BRANCH  40  64
ATOM     64  C   UNL A   1      39.329  32.018  35.407  1.00  0.00     0.064 A 
ATOM     65  C   UNL A   1      39.731  33.351  35.561  1.00  0.00     0.173 A 
ATOM     66  C   UNL A   1      38.479  31.473  36.381  1.00  0.00     0.173 A 
ATOM     67  F   UNL A   1      40.567  33.905  34.672  1.00  0.00    -0.203 F 
ATOM     68  C   UNL A   1      39.310  34.107  36.653  1.00  0.00     0.198 A 
ATOM     69  C   UNL A   1      38.036  32.239  37.457  1.00  0.00     0.198 A 
ATOM     70  F   UNL A   1      38.071  30.201  36.280  1.00  0.00    -0.203 F 
ATOM     71  F   UNL A   1      39.741  35.367  36.800  1.00  0.00    -0.200 F 
ATOM     72  C   UNL A   1      38.456  33.553  37.596  1.00  0.00     0.200 A 
ATOM     73  F   UNL A   1      37.205  31.702  38.360  1.00  0.00    -0.200 F 
ATOM     74  F   UNL A   1      38.047  34.282  38.643  1.00  0.00    -0.200 F 
ENDBRANCH  40  64
BRANCH  52  75
ATOM     75  C   UNL A   1      44.755  27.769  34.469  1.00  0.00     0.064 A 
ATOM     76  C   UNL A   1      44.650  26.644  35.299  1.00  0.00     0.173 A 
ATOM     77  C   UNL A   1      45.960  28.487  34.478  1.00  0.00     0.173 A 
ATOM     78  F   UNL A   1      43.511  25.936  35.334  1.00  0.00    -0.203 F 
ATOM     79  C   UNL A   1      45.705  26.263  36.122  1.00  0.00     0.198 A 
ATOM     80  C   UNL A   1      47.020  28.092  35.288  1.00  0.00     0.198 A 
ATOM     81  F   UNL A   1      46.108  29.569  33.699  1.00  0.00    -0.203 F 
ATOM     82  F   UNL A   1      45.571  25.207  36.935  1.00  0.00    -0.200 F 
ATOM     83  C   UNL A   1      46.891  26.984  36.113  1.00  0.00     0.200 A 
ATOM     84  F   UNL A   1      48.167  28.785  35.275  1.00  0.00    -0.200 F 
ATOM     85  F   UNL A   1      47.906  26.616  36.907  1.00  0.00    -0.200 F 
ENDBRANCH  52  75
ENDBRANCH  26  27
ENDBRANCH  19  21
ENDBRANCH  18  19
ENDBRANCH   1  18
TORSDOF 13
ENDMDL
MODEL 2
REMARK VINA RESULT:     -11.1      1.035      2.414
REMARK SMILES COc1ccc(C(=O)OCCOC(=O)c2ccc(-c3c4nc(c(-c5c(F)c(F)c(F)c(F)c5F)c5ccc([nH]5)c(-c5c(F)c(F)c(F)c(F)c5F)c5nc(c(-c6c(F)c(F)c(F)c(F)c6F)c6ccc3[nH]6)C=C5)C=C4)cc2)cc1C(F)(F)F
REMARK SMILES IDX 11 1 10 2 9 3 7 4 8 5 6 6 3 7 4 8 79 9 5 10 78 11 2 12 1 13
REMARK SMILES IDX 80 14 81 15 82 16 83 17 12 18 13 19 14 20 15 21 16 22 77 23
REMARK SMILES IDX 17 24 76 25 18 26 19 27 20 28 70 29 21 30 75 31 69 32 71 33
REMARK SMILES IDX 22 34 74 35 68 36 67 37 23 39 55 40 35 41 54 42 36 43 39 44
REMARK SMILES IDX 53 45 72 46 37 47 38 48 52 50 73 51 40 52 24 53 25 54 33 55
REMARK SMILES IDX 26 56 27 57 31 58 34 59 28 60 29 61 32 62 30 63 56 64 57 65
REMARK SMILES IDX 65 66 58 67 59 68 63 69 66 70 60 71 61 72 64 73 62 74 41 75
REMARK SMILES IDX 42 76 50 77 43 78 44 79 48 80 51 81 45 82 46 83 49 84 47 85
REMARK H PARENT 71 38 39 49
REMARK Flexibility Score: inf
ROOT
ATOM      1  C   UNL A   1      31.585  30.303  25.752  1.00  0.00     0.275 C 
ENDROOT
BRANCH   1   2
ATOM      2  C   UNL A   1      31.363  28.970  25.041  1.00  0.00     0.275 C 
BRANCH   2   3
ATOM      3  O   UNL A   1      32.377  28.014  25.412  1.00  0.00    -0.458 OA
BRANCH   3   4
ATOM      4  C   UNL A   1      31.966  27.005  26.218  1.00  0.00     0.338 C 
ATOM      5  O   UNL A   1      31.101  27.065  27.077  1.00  0.00    -0.246 OA
BRANCH   4   6
ATOM      6  C   UNL A   1      32.666  25.740  25.882  1.00  0.00     0.060 A 
ATOM      7  C   UNL A   1      34.058  23.431  25.148  1.00  0.00     0.131 A 
ATOM      8  C   UNL A   1      34.729  24.652  25.228  1.00  0.00     0.048 A 
ATOM      9  C   UNL A   1      32.700  23.330  25.474  1.00  0.00     0.098 A 
ATOM     10  C   UNL A   1      34.028  25.806  25.563  1.00  0.00     0.019 A 
ATOM     11  C   UNL A   1      32.009  24.503  25.843  1.00  0.00     0.032 A 
BRANCH   7  12
ATOM     12  O   UNL A   1      34.771  22.319  24.796  1.00  0.00    -0.496 OA
ATOM     13  C   UNL A   1      35.680  21.949  25.837  1.00  0.00     0.278 C 
ENDBRANCH   7  12
BRANCH   9  14
ATOM     14  C   UNL A   1      31.949  22.030  25.346  1.00  0.00     0.419 C 
ATOM     15  F   UNL A   1      32.477  21.043  26.126  1.00  0.00    -0.166 F 
ATOM     16  F   UNL A   1      30.653  22.159  25.752  1.00  0.00    -0.166 F 
ATOM     17  F   UNL A   1      31.901  21.513  24.090  1.00  0.00    -0.166 F 
ENDBRANCH   9  14
ENDBRANCH   4   6
ENDBRANCH   3   4
ENDBRANCH   2   3
ENDBRANCH   1   2
BRANCH   1  18
ATOM     18  O   UNL A   1      32.979  30.453  26.076  1.00  0.00    -0.458 OA
BRANCH  18  19
ATOM     19  C   UNL A   1      33.278  31.384  27.006  1.00  0.00     0.338 C 
ATOM     20  O   UNL A   1      32.620  32.362  27.327  1.00  0.00    -0.246 OA
BRANCH  19  21
ATOM     21  C   UNL A   1      34.569  31.051  27.625  1.00  0.00     0.060 A 
ATOM     22  C   UNL A   1      34.859  29.722  27.933  1.00  0.00     0.016 A 
ATOM     23  C   UNL A   1      35.444  32.068  28.002  1.00  0.00     0.016 A 
ATOM     24  C   UNL A   1      36.004  29.406  28.661  1.00  0.00     0.010 A 
ATOM     25  C   UNL A   1      36.624  31.744  28.682  1.00  0.00     0.010 A 
ATOM     26  C   UNL A   1      36.901  30.414  29.045  1.00  0.00    -0.014 A 
BRANCH  26  27
ATOM     27  C   UNL A   1      38.084  30.088  29.889  1.00  0.00     0.031 A 
ATOM     28  C   UNL A   1      39.180  29.217  29.336  1.00  0.00     0.074 A 
ATOM     29  C   UNL A   1      38.204  30.589  31.133  1.00  0.00     0.049 A 
ATOM     30  N   UNL A   1      40.207  28.684  29.948  1.00  0.00    -0.248 NA
ATOM     31  C   UNL A   1      39.105  28.896  27.901  1.00  0.00     0.031 C 
ATOM     32  C   UNL A   1      37.250  31.492  31.779  1.00  0.00     0.029 A 
ATOM     33  N   UNL A   1      39.187  30.414  32.077  1.00  0.00    -0.354 N 
ATOM     34  C   UNL A   1      40.871  27.930  28.989  1.00  0.00     0.074 A 
ATOM     35  C   UNL A   1      40.133  28.073  27.752  1.00  0.00     0.031 C 
ATOM     36  C   UNL A   1      37.708  31.815  32.999  1.00  0.00     0.029 A 
ATOM     37  C   UNL A   1      38.950  31.090  33.250  1.00  0.00     0.049 A 
ATOM     38  H   UNL A   1      39.985  29.858  31.927  1.00  0.00     0.167 HD
ATOM     39  C   UNL A   1      41.995  27.185  29.127  1.00  0.00     0.037 A 
ATOM     40  C   UNL A   1      39.637  31.097  34.408  1.00  0.00     0.037 A 
ATOM     41  C   UNL A   1      42.758  27.078  30.342  1.00  0.00     0.049 A 
ATOM     42  C   UNL A   1      40.871  30.248  34.543  1.00  0.00     0.074 A 
ATOM     43  C   UNL A   1      43.895  26.328  30.587  1.00  0.00     0.029 A 
ATOM     44  N   UNL A   1      42.473  27.765  31.513  1.00  0.00    -0.354 N 
ATOM     45  N   UNL A   1      41.443  29.472  33.655  1.00  0.00    -0.248 NA
ATOM     46  C   UNL A   1      41.544  30.257  35.851  1.00  0.00     0.031 C 
ATOM     47  C   UNL A   1      44.290  26.548  31.912  1.00  0.00     0.029 A 
ATOM     48  C   UNL A   1      43.416  27.459  32.481  1.00  0.00     0.049 A 
ATOM     49  H   UNL A   1      41.714  28.380  31.637  1.00  0.00     0.167 HD
ATOM     50  C   UNL A   1      42.539  28.908  34.290  1.00  0.00     0.074 A 
ATOM     51  C   UNL A   1      42.570  29.448  35.634  1.00  0.00     0.031 C 
ATOM     52  C   UNL A   1      43.434  28.012  33.810  1.00  0.00     0.037 A 
BRANCH  39  53
ATOM     53  C   UNL A   1      42.456  26.401  27.936  1.00  0.00     0.064 A 
ATOM     54  C   UNL A   1      41.994  25.103  27.682  1.00  0.00     0.173 A 
ATOM     55  C   UNL A   1      43.346  26.976  27.014  1.00  0.00     0.173 A 
ATOM     56  F   UNL A   1      41.154  24.507  28.543  1.00  0.00    -0.203 F 
ATOM     57  C   UNL A   1      42.416  24.401  26.557  1.00  0.00     0.198 A 
ATOM     58  C   UNL A   1      43.749  26.279  25.878  1.00  0.00     0.198 A 
ATOM     59  F   UNL A   1      43.814  28.217  27.210  1.00  0.00    -0.203 F 
ATOM     60  F   UNL A   1      41.988  23.148  26.351  1.00  0.00    -0.200 F 
ATOM     61  C   UNL A   1      43.288  24.991  25.653  1.00  0.00     0.200 A 
ATOM     62  F   UNL A   1      44.582  26.855  25.001  1.00  0.00    -0.200 F 
ATOM     63  F   UNL A   1      43.687  24.317  24.566  1.00  0.00    -0.200 F 
ENDBRANCH  39  53
BRANCH  40  64
ATOM     64  C   UNL A   1      39.154  31.914  35.552  1.00  0.00     0.064 A 
ATOM     65  C   UNL A   1      38.324  31.358  36.535  1.00  0.00     0.173 A 
ATOM     66  C   UNL A   1      39.505  33.266  35.679  1.00  0.00     0.173 A 
ATOM     67  F   UNL A   1      37.939  30.078  36.439  1.00  0.00    -0.203 F 
ATOM     68  C   UNL A   1      37.854  32.128  37.596  1.00  0.00     0.198 A 
ATOM     69  C   UNL A   1      39.056  34.026  36.756  1.00  0.00     0.198 A 
ATOM     70  F   UNL A   1      40.293  33.844  34.761  1.00  0.00    -0.203 F 
ATOM     71  F   UNL A   1      37.028  31.584  38.500  1.00  0.00    -0.200 F 
ATOM     72  C   UNL A   1      38.227  33.459  37.710  1.00  0.00     0.200 A 
ATOM     73  F   UNL A   1      39.427  35.309  36.867  1.00  0.00    -0.200 F 
ATOM     74  F   UNL A   1      37.778  34.198  38.735  1.00  0.00    -0.200 F 
ENDBRANCH  40  64
BRANCH  52  75
ATOM     75  C   UNL A   1      44.530  27.577  34.734  1.00  0.00     0.064 A 
ATOM     76  C   UNL A   1      45.737  28.285  34.817  1.00  0.00     0.173 A 
ATOM     77  C   UNL A   1      44.359  26.460  35.566  1.00  0.00     0.173 A 
ATOM     78  F   UNL A   1      45.950  29.350  34.030  1.00  0.00    -0.203 F 
ATOM     79  C   UNL A   1      46.745  27.877  35.686  1.00  0.00     0.198 A 
ATOM     80  C   UNL A   1      45.361  26.068  36.448  1.00  0.00     0.198 A 
ATOM     81  F   UNL A   1      43.220  25.754  35.523  1.00  0.00    -0.203 F 
ATOM     82  F   UNL A   1      47.906  28.545  35.723  1.00  0.00    -0.200 F 
ATOM     83  C   UNL A   1      46.555  26.773  36.504  1.00  0.00     0.200 A 
ATOM     84  F   UNL A   1      45.176  25.004  37.241  1.00  0.00    -0.200 F 
ATOM     85  F   UNL A   1      47.527  26.382  37.340  1.00  0.00    -0.200 F 
ENDBRANCH  52  75
ENDBRANCH  26  27
ENDBRANCH  19  21
ENDBRANCH  18  19
ENDBRANCH   1  18
TORSDOF 13
ENDMDL
MODEL 3
REMARK VINA RESULT:     -11.1      1.017      1.721
REMARK SMILES COc1ccc(C(=O)OCCOC(=O)c2ccc(-c3c4nc(c(-c5c(F)c(F)c(F)c(F)c5F)c5ccc([nH]5)c(-c5c(F)c(F)c(F)c(F)c5F)c5nc(c(-c6c(F)c(F)c(F)c(F)c6F)c6ccc3[nH]6)C=C5)C=C4)cc2)cc1C(F)(F)F
REMARK SMILES IDX 11 1 10 2 9 3 7 4 8 5 6 6 3 7 4 8 79 9 5 10 78 11 2 12 1 13
REMARK SMILES IDX 80 14 81 15 82 16 83 17 12 18 13 19 14 20 15 21 16 22 77 23
REMARK SMILES IDX 17 24 76 25 18 26 19 27 20 28 70 29 21 30 75 31 69 32 71 33
REMARK SMILES IDX 22 34 74 35 68 36 67 37 23 39 55 40 35 41 54 42 36 43 39 44
REMARK SMILES IDX 53 45 72 46 37 47 38 48 52 50 73 51 40 52 24 53 25 54 33 55
REMARK SMILES IDX 26 56 27 57 31 58 34 59 28 60 29 61 32 62 30 63 56 64 57 65
REMARK SMILES IDX 65 66 58 67 59 68 63 69 66 70 60 71 61 72 64 73 62 74 41 75
REMARK SMILES IDX 42 76 50 77 43 78 44 79 48 80 51 81 45 82 46 83 49 84 47 85
REMARK H PARENT 71 38 39 49
REMARK Flexibility Score: inf
ROOT
ATOM      1  C   UNL A   1      31.610  30.168  25.669  1.00  0.00     0.275 C 
ENDROOT
BRANCH   1   2
ATOM      2  C   UNL A   1      31.393  28.790  25.046  1.00  0.00     0.275 C 
BRANCH   2   3
ATOM      3  O   UNL A   1      32.433  27.875  25.446  1.00  0.00    -0.458 OA
BRANCH   3   4
ATOM      4  C   UNL A   1      32.048  26.875  26.276  1.00  0.00     0.338 C 
ATOM      5  O   UNL A   1      31.202  26.942  27.154  1.00  0.00    -0.246 OA
BRANCH   4   6
ATOM      6  C   UNL A   1      32.750  25.610  25.943  1.00  0.00     0.060 A 
ATOM      7  C   UNL A   1      34.144  23.301  25.213  1.00  0.00     0.131 A 
ATOM      8  C   UNL A   1      34.807  24.528  25.262  1.00  0.00     0.048 A 
ATOM      9  C   UNL A   1      32.794  23.196  25.568  1.00  0.00     0.098 A 
ATOM     10  C   UNL A   1      34.105  25.682  25.595  1.00  0.00     0.019 A 
ATOM     11  C   UNL A   1      32.101  24.369  25.935  1.00  0.00     0.032 A 
BRANCH   7  12
ATOM     12  O   UNL A   1      34.858  22.189  24.862  1.00  0.00    -0.496 OA
ATOM     13  C   UNL A   1      35.871  21.910  25.832  1.00  0.00     0.278 C 
ENDBRANCH   7  12
BRANCH   9  14
ATOM     14  C   UNL A   1      32.050  21.889  25.474  1.00  0.00     0.419 C 
ATOM     15  F   UNL A   1      32.005  21.403  24.200  1.00  0.00    -0.166 F 
ATOM     16  F   UNL A   1      32.656  20.914  26.212  1.00  0.00    -0.166 F 
ATOM     17  F   UNL A   1      30.758  21.929  25.893  1.00  0.00    -0.166 F 
ENDBRANCH   9  14
ENDBRANCH   4   6
ENDBRANCH   3   4
ENDBRANCH   2   3
ENDBRANCH   1   2
BRANCH   1  18
ATOM     18  O   UNL A   1      32.999  30.332  26.009  1.00  0.00    -0.458 OA
BRANCH  18  19
ATOM     19  C   UNL A   1      33.279  31.270  26.937  1.00  0.00     0.338 C 
ATOM     20  O   UNL A   1      32.596  32.230  27.263  1.00  0.00    -0.246 OA
BRANCH  19  21
ATOM     21  C   UNL A   1      34.582  30.972  27.549  1.00  0.00     0.060 A 
ATOM     22  C   UNL A   1      34.906  29.653  27.864  1.00  0.00     0.016 A 
ATOM     23  C   UNL A   1      35.436  32.012  27.910  1.00  0.00     0.016 A 
ATOM     24  C   UNL A   1      36.064  29.369  28.585  1.00  0.00     0.010 A 
ATOM     25  C   UNL A   1      36.629  31.721  28.583  1.00  0.00     0.010 A 
ATOM     26  C   UNL A   1      36.940  30.400  28.954  1.00  0.00    -0.014 A 
BRANCH  26  27
ATOM     27  C   UNL A   1      38.137  30.109  29.790  1.00  0.00     0.031 A 
ATOM     28  C   UNL A   1      39.244  29.251  29.238  1.00  0.00     0.074 A 
ATOM     29  C   UNL A   1      38.259  30.630  31.026  1.00  0.00     0.049 A 
ATOM     30  N   UNL A   1      40.287  28.746  29.847  1.00  0.00    -0.248 NA
ATOM     31  C   UNL A   1      39.161  28.909  27.808  1.00  0.00     0.031 C 
ATOM     32  C   UNL A   1      37.295  31.523  31.669  1.00  0.00     0.029 A 
ATOM     33  N   UNL A   1      39.255  30.487  31.962  1.00  0.00    -0.354 N 
ATOM     34  C   UNL A   1      40.956  27.992  28.891  1.00  0.00     0.074 A 
ATOM     35  C   UNL A   1      40.203  28.104  27.660  1.00  0.00     0.031 C 
ATOM     36  C   UNL A   1      37.759  31.872  32.879  1.00  0.00     0.029 A 
ATOM     37  C   UNL A   1      39.017  31.174  33.128  1.00  0.00     0.049 A 
ATOM     38  H   UNL A   1      40.062  29.944  31.812  1.00  0.00     0.167 HD
ATOM     39  C   UNL A   1      42.095  27.271  29.028  1.00  0.00     0.037 A 
ATOM     40  C   UNL A   1      39.715  31.210  34.278  1.00  0.00     0.037 A 
ATOM     41  C   UNL A   1      42.872  27.195  30.237  1.00  0.00     0.049 A 
ATOM     42  C   UNL A   1      40.966  30.386  34.413  1.00  0.00     0.074 A 
ATOM     43  C   UNL A   1      44.026  26.470  30.481  1.00  0.00     0.029 A 
ATOM     44  N   UNL A   1      42.586  27.893  31.401  1.00  0.00    -0.354 N 
ATOM     45  N   UNL A   1      41.544  29.610  33.530  1.00  0.00    -0.248 NA
ATOM     46  C   UNL A   1      41.651  30.426  35.714  1.00  0.00     0.031 C 
ATOM     47  C   UNL A   1      44.430  26.717  31.799  1.00  0.00     0.029 A 
ATOM     48  C   UNL A   1      43.543  27.618  32.364  1.00  0.00     0.049 A 
ATOM     49  H   UNL A   1      41.816  28.494  31.524  1.00  0.00     0.167 HD
ATOM     50  C   UNL A   1      42.657  29.075  34.162  1.00  0.00     0.074 A 
ATOM     51  C   UNL A   1      42.691  29.634  35.498  1.00  0.00     0.031 C 
ATOM     52  C   UNL A   1      43.564  28.189  33.685  1.00  0.00     0.037 A 
BRANCH  39  53
ATOM     53  C   UNL A   1      42.560  26.480  27.843  1.00  0.00     0.064 A 
ATOM     54  C   UNL A   1      42.094  25.182  27.594  1.00  0.00     0.173 A 
ATOM     55  C   UNL A   1      43.456  27.046  26.924  1.00  0.00     0.173 A 
ATOM     56  F   UNL A   1      41.248  24.592  28.453  1.00  0.00    -0.203 F 
ATOM     57  C   UNL A   1      42.519  24.473  26.474  1.00  0.00     0.198 A 
ATOM     58  C   UNL A   1      43.862  26.342  25.793  1.00  0.00     0.198 A 
ATOM     59  F   UNL A   1      43.928  28.287  27.116  1.00  0.00    -0.203 F 
ATOM     60  F   UNL A   1      42.088  23.220  26.272  1.00  0.00    -0.200 F 
ATOM     61  C   UNL A   1      43.398  25.055  25.571  1.00  0.00     0.200 A 
ATOM     62  F   UNL A   1      44.702  26.912  24.918  1.00  0.00    -0.200 F 
ATOM     63  F   UNL A   1      43.800  24.374  24.490  1.00  0.00    -0.200 F 
ENDBRANCH  39  53
BRANCH  40  64
ATOM     64  C   UNL A   1      39.228  32.033  35.416  1.00  0.00     0.064 A 
ATOM     65  C   UNL A   1      39.581  33.384  35.531  1.00  0.00     0.173 A 
ATOM     66  C   UNL A   1      38.409  31.483  36.413  1.00  0.00     0.173 A 
ATOM     67  F   UNL A   1      40.386  33.946  34.618  1.00  0.00    -0.203 F 
ATOM     68  C   UNL A   1      39.142  34.152  36.607  1.00  0.00     0.198 A 
ATOM     69  C   UNL A   1      37.949  32.260  37.474  1.00  0.00     0.198 A 
ATOM     70  F   UNL A   1      38.048  30.194  36.350  1.00  0.00    -0.203 F 
ATOM     71  F   UNL A   1      39.527  35.430  36.717  1.00  0.00    -0.200 F 
ATOM     72  C   UNL A   1      38.320  33.591  37.574  1.00  0.00     0.200 A 
ATOM     73  F   UNL A   1      37.147  31.716  38.400  1.00  0.00    -0.200 F 
ATOM     74  F   UNL A   1      37.894  34.332  38.607  1.00  0.00    -0.200 F 
ENDBRANCH  40  64
BRANCH  52  75
ATOM     75  C   UNL A   1      44.677  27.789  34.603  1.00  0.00     0.064 A 
ATOM     76  C   UNL A   1      44.548  26.697  35.473  1.00  0.00     0.173 A 
ATOM     77  C   UNL A   1      45.895  28.486  34.593  1.00  0.00     0.173 A 
ATOM     78  F   UNL A   1      43.397  26.011  35.528  1.00  0.00    -0.203 F 
ATOM     79  C   UNL A   1      45.593  26.328  36.316  1.00  0.00     0.198 A 
ATOM     80  C   UNL A   1      46.944  28.102  35.422  1.00  0.00     0.198 A 
ATOM     81  F   UNL A   1      46.065  29.535  33.775  1.00  0.00    -0.203 F 
ATOM     82  F   UNL A   1      45.436  25.305  37.166  1.00  0.00    -0.200 F 
ATOM     83  C   UNL A   1      46.791  27.027  36.286  1.00  0.00     0.200 A 
ATOM     84  F   UNL A   1      48.103  28.774  35.390  1.00  0.00    -0.200 F 
ATOM     85  F   UNL A   1      47.796  26.671  37.099  1.00  0.00    -0.200 F 
ENDBRANCH  52  75
ENDBRANCH  26  27
ENDBRANCH  19  21
ENDBRANCH  18  19
ENDBRANCH   1  18
TORSDOF 13
ENDMDL
