MODEL 1
REMARK VINA RESULT:     -12.4      0.000      0.000
REMARK SMILES O=C(OCCOC(=O)c1ccc(S(=O)(=O)N[C@@H]2CC[N@@H+]3CCC[C@H]23)cc1)c1ccc(-c2c3nc(c(-c4c(F)c(F)c(F)c(F)c4F)c4ccc([nH]4)c(-c4c(F)c(F)c(F)c(F)c4F)c4nc(c(-c5c(F)c(F)c(F)c(F)c5F)c5ccc2[nH]5)C=C4)C=C3)cc1
REMARK SMILES IDX 5 1 4 2 3 3 2 4 1 5 27 6 28 7 89 8 29 9 88 10 30 11 31 12
REMARK SMILES IDX 32 13 82 14 33 15 87 16 81 17 83 18 34 19 86 20 80 21 79 22
REMARK SMILES IDX 35 24 67 25 47 26 66 27 48 28 51 29 65 30 84 31 49 32 50 33
REMARK SMILES IDX 64 35 85 36 52 37 36 38 37 39 45 40 38 41 39 42 43 43 46 44
REMARK SMILES IDX 40 45 41 46 44 47 42 48 68 49 69 50 77 51 70 52 71 53 75 54
REMARK SMILES IDX 78 55 72 56 73 57 76 58 74 59 53 60 54 61 62 62 55 63 56 64
REMARK SMILES IDX 60 65 63 66 57 67 58 68 61 69 59 70 6 71 7 72 8 73 9 74
REMARK SMILES IDX 10 75 26 76 11 77 25 78 12 79 13 80 14 81 15 82 16 83 17 85
REMARK SMILES IDX 18 86 24 87 19 88 20 89 23 90 21 91 22 93
REMARK H PARENT 83 23 51 34 16 84 20 92
REMARK Flexibility Score: inf
ROOT
ATOM      1  C   UNL A   1      33.303  31.330  27.274  1.00  0.00     0.275 C 
ENDROOT
BRANCH   1   2
ATOM      2  C   UNL A   1      32.108  32.278  27.289  1.00  0.00     0.275 C 
BRANCH   2   3
ATOM      3  O   UNL A   1      32.469  33.668  27.392  1.00  0.00    -0.458 OA
BRANCH   3   4
ATOM      4  C   UNL A   1      33.018  34.373  28.408  1.00  0.00     0.338 C 
ATOM      5  O   UNL A   1      32.441  35.393  28.786  1.00  0.00    -0.246 OA
BRANCH   4   6
ATOM      6  C   UNL A   1      34.341  34.070  29.049  1.00  0.00     0.060 A 
ATOM      7  C   UNL A   1      35.609  34.264  28.493  1.00  0.00     0.016 A 
ATOM      8  C   UNL A   1      34.277  33.463  30.318  1.00  0.00     0.016 A 
ATOM      9  C   UNL A   1      36.779  33.890  29.185  1.00  0.00     0.010 A 
ATOM     10  C   UNL A   1      35.436  33.093  31.011  1.00  0.00     0.010 A 
ATOM     11  C   UNL A   1      36.705  33.292  30.445  1.00  0.00    -0.014 A 
BRANCH  11  12
ATOM     12  C   UNL A   1      37.888  32.676  31.104  1.00  0.00     0.031 A 
ATOM     13  C   UNL A   1      38.433  31.405  30.510  1.00  0.00     0.074 A 
ATOM     14  C   UNL A   1      38.485  33.192  32.198  1.00  0.00     0.049 A 
ATOM     15  N   UNL A   1      39.380  30.620  30.954  1.00  0.00    -0.248 NA
ATOM     16  C   UNL A   1      37.859  30.990  29.219  1.00  0.00     0.031 C 
ATOM     17  C   UNL A   1      38.196  34.486  32.809  1.00  0.00     0.029 A 
ATOM     18  N   UNL A   1      39.448  32.650  33.025  1.00  0.00    -0.354 N 
ATOM     19  C   UNL A   1      39.561  29.666  29.964  1.00  0.00     0.074 A 
ATOM     20  C   UNL A   1      38.551  29.894  28.956  1.00  0.00     0.031 C 
ATOM     21  C   UNL A   1      38.883  34.586  33.962  1.00  0.00     0.029 A 
ATOM     22  C   UNL A   1      39.619  33.352  34.197  1.00  0.00     0.049 A 
ATOM     23  H   UNL A   1      39.962  31.841  32.798  1.00  0.00     0.167 HD
ATOM     24  C   UNL A   1      40.532  28.730  29.866  1.00  0.00     0.037 A 
ATOM     25  C   UNL A   1      40.235  32.993  35.342  1.00  0.00     0.037 A 
ATOM     26  C   UNL A   1      41.511  28.475  30.882  1.00  0.00     0.049 A 
ATOM     27  C   UNL A   1      41.032  31.720  35.373  1.00  0.00     0.074 A 
ATOM     28  C   UNL A   1      42.594  27.614  30.858  1.00  0.00     0.029 A 
ATOM     29  N   UNL A   1      41.492  29.064  32.136  1.00  0.00    -0.354 N 
ATOM     30  N   UNL A   1      41.209  30.835  34.427  1.00  0.00    -0.248 NA
ATOM     31  C   UNL A   1      41.761  31.429  36.618  1.00  0.00     0.031 C 
ATOM     32  C   UNL A   1      43.200  27.644  32.120  1.00  0.00     0.029 A 
ATOM     33  C   UNL A   1      42.518  28.553  32.912  1.00  0.00     0.049 A 
ATOM     34  H   UNL A   1      40.845  29.743  32.431  1.00  0.00     0.167 HD
ATOM     35  C   UNL A   1      42.131  29.931  34.929  1.00  0.00     0.074 A 
ATOM     36  C   UNL A   1      42.405  30.317  36.296  1.00  0.00     0.031 C 
ATOM     37  C   UNL A   1      42.761  28.926  34.279  1.00  0.00     0.037 A 
BRANCH  24  38
ATOM     38  C   UNL A   1      40.576  27.953  28.588  1.00  0.00     0.064 A 
ATOM     39  C   UNL A   1      39.934  26.708  28.481  1.00  0.00     0.173 A 
ATOM     40  C   UNL A   1      41.301  28.421  27.485  1.00  0.00     0.173 A 
ATOM     41  F   UNL A   1      39.244  26.212  29.519  1.00  0.00    -0.203 F 
ATOM     42  C   UNL A   1      40.056  25.938  27.329  1.00  0.00     0.198 A 
ATOM     43  C   UNL A   1      41.401  27.657  26.326  1.00  0.00     0.198 A 
ATOM     44  F   UNL A   1      41.932  29.603  27.542  1.00  0.00    -0.203 F 
ATOM     45  F   UNL A   1      39.490  24.724  27.274  1.00  0.00    -0.200 F 
ATOM     46  C   UNL A   1      40.788  26.413  26.253  1.00  0.00     0.200 A 
ATOM     47  F   UNL A   1      42.107  28.114  25.283  1.00  0.00    -0.200 F 
ATOM     48  F   UNL A   1      40.921  25.662  25.150  1.00  0.00    -0.200 F 
ENDBRANCH  24  38
BRANCH  25  49
ATOM     49  C   UNL A   1      40.077  33.754  36.612  1.00  0.00     0.064 A 
ATOM     50  C   UNL A   1      39.055  33.504  37.531  1.00  0.00     0.173 A 
ATOM     51  C   UNL A   1      40.938  34.837  36.872  1.00  0.00     0.173 A 
ATOM     52  F   UNL A   1      38.195  32.499  37.322  1.00  0.00    -0.203 F 
ATOM     53  C   UNL A   1      38.904  34.304  38.667  1.00  0.00     0.198 A 
ATOM     54  C   UNL A   1      40.791  35.630  38.007  1.00  0.00     0.198 A 
ATOM     55  F   UNL A   1      41.943  35.107  36.024  1.00  0.00    -0.203 F 
ATOM     56  F   UNL A   1      37.916  34.049  39.535  1.00  0.00    -0.200 F 
ATOM     57  C   UNL A   1      39.769  35.365  38.902  1.00  0.00     0.200 A 
ATOM     58  F   UNL A   1      41.644  36.638  38.232  1.00  0.00    -0.200 F 
ATOM     59  F   UNL A   1      39.622  36.126  39.996  1.00  0.00    -0.200 F 
ENDBRANCH  25  49
BRANCH  37  60
ATOM     60  C   UNL A   1      43.881  28.259  35.007  1.00  0.00     0.064 A 
ATOM     61  C   UNL A   1      45.182  28.774  35.015  1.00  0.00     0.173 A 
ATOM     62  C   UNL A   1      43.635  27.062  35.699  1.00  0.00     0.173 A 
ATOM     63  F   UNL A   1      45.471  29.891  34.330  1.00  0.00    -0.203 F 
ATOM     64  C   UNL A   1      46.204  28.107  35.686  1.00  0.00     0.198 A 
ATOM     65  C   UNL A   1      44.651  26.412  36.385  1.00  0.00     0.198 A 
ATOM     66  F   UNL A   1      42.405  26.524  35.697  1.00  0.00    -0.203 F 
ATOM     67  F   UNL A   1      47.453  28.588  35.648  1.00  0.00    -0.200 F 
ATOM     68  C   UNL A   1      45.936  26.932  36.376  1.00  0.00     0.200 A 
ATOM     69  F   UNL A   1      44.391  25.274  37.045  1.00  0.00    -0.200 F 
ATOM     70  F   UNL A   1      46.921  26.291  37.019  1.00  0.00    -0.200 F 
ENDBRANCH  37  60
ENDBRANCH  11  12
ENDBRANCH   4   6
ENDBRANCH   3   4
ENDBRANCH   2   3
ENDBRANCH   1   2
BRANCH   1  71
ATOM     71  O   UNL A   1      32.967  30.081  26.661  1.00  0.00    -0.458 OA
BRANCH  71  72
ATOM     72  C   UNL A   1      33.866  29.079  26.853  1.00  0.00     0.338 C 
ATOM     73  O   UNL A   1      34.972  29.175  27.353  1.00  0.00    -0.246 OA
BRANCH  72  74
ATOM     74  C   UNL A   1      33.247  27.791  26.470  1.00  0.00     0.060 A 
ATOM     75  C   UNL A   1      34.023  26.855  25.768  1.00  0.00     0.017 A 
ATOM     76  C   UNL A   1      31.941  27.474  26.855  1.00  0.00     0.017 A 
ATOM     77  C   UNL A   1      33.496  25.600  25.450  1.00  0.00     0.022 A 
ATOM     78  C   UNL A   1      31.430  26.216  26.561  1.00  0.00     0.022 A 
ATOM     79  C   UNL A   1      32.197  25.292  25.849  1.00  0.00     0.082 A 
BRANCH  79  80
ATOM     80  S   UNL A   1      31.446  23.760  25.364  1.00  0.00     0.241 S 
ATOM     81  O   UNL A   1      30.797  23.166  26.508  1.00  0.00    -0.207 OA
ATOM     82  O   UNL A   1      30.747  24.025  24.126  1.00  0.00    -0.207 OA
BRANCH  80  83
ATOM     83  N   UNL A   1      32.776  22.820  24.967  1.00  0.00    -0.202 NA
ATOM     84  H   UNL A   1      33.516  23.477  24.721  1.00  0.00     0.141 HD
BRANCH  83  85
ATOM     85  C   UNL A   1      33.397  21.839  25.881  1.00  0.00     0.133 C 
ATOM     86  C   UNL A   1      34.921  21.755  25.889  1.00  0.00     0.087 C 
ATOM     87  C   UNL A   1      32.982  20.396  25.509  1.00  0.00     0.202 C 
ATOM     88  C   UNL A   1      35.267  20.527  25.062  1.00  0.00     0.264 C 
ATOM     89  N   UNL A   1      34.212  19.574  25.423  1.00  0.00    -0.331 N 
ATOM     90  C   UNL A   1      32.344  20.177  24.152  1.00  0.00     0.072 C 
ATOM     91  C   UNL A   1      34.012  18.540  24.389  1.00  0.00     0.262 C 
ATOM     92  H   UNL A   1      34.452  19.085  26.286  1.00  0.00     0.348 HD
ATOM     93  C   UNL A   1      32.577  18.704  23.916  1.00  0.00     0.068 C 
ENDBRANCH  83  85
ENDBRANCH  80  83
ENDBRANCH  79  80
ENDBRANCH  72  74
ENDBRANCH  71  72
ENDBRANCH   1  71
TORSDOF 14
ENDMDL
MODEL 2
REMARK VINA RESULT:     -12.3      0.994      2.468
REMARK SMILES O=C(OCCOC(=O)c1ccc(S(=O)(=O)N[C@@H]2CC[N@@H+]3CCC[C@H]23)cc1)c1ccc(-c2c3nc(c(-c4c(F)c(F)c(F)c(F)c4F)c4ccc([nH]4)c(-c4c(F)c(F)c(F)c(F)c4F)c4nc(c(-c5c(F)c(F)c(F)c(F)c5F)c5ccc2[nH]5)C=C4)C=C3)cc1
REMARK SMILES IDX 5 1 4 2 3 3 2 4 1 5 27 6 28 7 89 8 29 9 88 10 30 11 31 12
REMARK SMILES IDX 32 13 82 14 33 15 87 16 81 17 83 18 34 19 86 20 80 21 79 22
REMARK SMILES IDX 35 24 67 25 47 26 66 27 48 28 51 29 65 30 84 31 49 32 50 33
REMARK SMILES IDX 64 35 85 36 52 37 36 38 37 39 45 40 38 41 39 42 43 43 46 44
REMARK SMILES IDX 40 45 41 46 44 47 42 48 68 49 69 50 77 51 70 52 71 53 75 54
REMARK SMILES IDX 78 55 72 56 73 57 76 58 74 59 53 60 54 61 62 62 55 63 56 64
REMARK SMILES IDX 60 65 63 66 57 67 58 68 61 69 59 70 6 71 7 72 8 73 9 74
REMARK SMILES IDX 10 75 26 76 11 77 25 78 12 79 13 80 14 81 15 82 16 83 17 85
REMARK SMILES IDX 18 86 24 87 19 88 20 89 23 90 21 91 22 93
REMARK H PARENT 83 23 51 34 16 84 20 92
REMARK Flexibility Score: inf
ROOT
ATOM      1  C   UNL A   1      32.040  30.652  26.846  1.00  0.00     0.275 C 
ENDROOT
BRANCH   1   2
ATOM      2  C   UNL A   1      31.528  32.090  26.878  1.00  0.00     0.275 C 
BRANCH   2   3
ATOM      3  O   UNL A   1      32.573  33.077  26.954  1.00  0.00    -0.458 OA
BRANCH   3   4
ATOM      4  C   UNL A   1      33.016  33.828  27.989  1.00  0.00     0.338 C 
ATOM      5  O   UNL A   1      32.375  34.834  28.293  1.00  0.00    -0.246 OA
BRANCH   4   6
ATOM      6  C   UNL A   1      34.295  33.592  28.737  1.00  0.00     0.060 A 
ATOM      7  C   UNL A   1      35.571  34.045  28.384  1.00  0.00     0.016 A 
ATOM      8  C   UNL A   1      34.193  32.769  29.874  1.00  0.00     0.016 A 
ATOM      9  C   UNL A   1      36.706  33.711  29.151  1.00  0.00     0.010 A 
ATOM     10  C   UNL A   1      35.316  32.438  30.641  1.00  0.00     0.010 A 
ATOM     11  C   UNL A   1      36.592  32.897  30.280  1.00  0.00    -0.014 A 
BRANCH  11  12
ATOM     12  C   UNL A   1      37.780  32.335  30.979  1.00  0.00     0.031 A 
ATOM     13  C   UNL A   1      38.386  31.077  30.418  1.00  0.00     0.074 A 
ATOM     14  C   UNL A   1      38.329  32.889  32.080  1.00  0.00     0.049 A 
ATOM     15  N   UNL A   1      39.350  30.335  30.897  1.00  0.00    -0.248 NA
ATOM     16  C   UNL A   1      37.863  30.623  29.119  1.00  0.00     0.031 C 
ATOM     17  C   UNL A   1      37.976  34.179  32.664  1.00  0.00     0.029 A 
ATOM     18  N   UNL A   1      39.289  32.394  32.939  1.00  0.00    -0.354 N 
ATOM     19  C   UNL A   1      39.592  29.374  29.927  1.00  0.00     0.074 A 
ATOM     20  C   UNL A   1      38.601  29.551  28.890  1.00  0.00     0.031 C 
ATOM     21  C   UNL A   1      38.628  34.321  33.833  1.00  0.00     0.029 A 
ATOM     22  C   UNL A   1      39.404  33.118  34.104  1.00  0.00     0.049 A 
ATOM     23  H   UNL A   1      39.838  31.602  32.737  1.00  0.00     0.167 HD
ATOM     24  C   UNL A   1      40.600  28.474  29.867  1.00  0.00     0.037 A 
ATOM     25  C   UNL A   1      40.002  32.799  35.271  1.00  0.00     0.037 A 
ATOM     26  C   UNL A   1      41.560  28.269  30.912  1.00  0.00     0.049 A 
ATOM     27  C   UNL A   1      40.844  31.557  35.341  1.00  0.00     0.074 A 
ATOM     28  C   UNL A   1      42.675  27.450  30.928  1.00  0.00     0.029 A 
ATOM     29  N   UNL A   1      41.487  28.875  32.156  1.00  0.00    -0.354 N 
ATOM     30  N   UNL A   1      41.078  30.666  34.413  1.00  0.00    -0.248 NA
ATOM     31  C   UNL A   1      41.551  31.310  36.608  1.00  0.00     0.031 C 
ATOM     32  C   UNL A   1      43.246  27.520  32.205  1.00  0.00     0.029 A 
ATOM     33  C   UNL A   1      42.510  28.413  32.966  1.00  0.00     0.049 A 
ATOM     34  H   UNL A   1      40.807  29.534  32.425  1.00  0.00     0.167 HD
ATOM     35  C   UNL A   1      42.020  29.804  34.952  1.00  0.00     0.074 A 
ATOM     36  C   UNL A   1      42.244  30.219  36.319  1.00  0.00     0.031 C 
ATOM     37  C   UNL A   1      42.704  28.814  34.332  1.00  0.00     0.037 A 
BRANCH  24  38
ATOM     38  C   UNL A   1      40.706  27.681  28.603  1.00  0.00     0.064 A 
ATOM     39  C   UNL A   1      41.450  28.162  27.512  1.00  0.00     0.173 A 
ATOM     40  C   UNL A   1      40.024  26.467  28.455  1.00  0.00     0.173 A 
ATOM     41  F   UNL A   1      42.104  29.330  27.603  1.00  0.00    -0.203 F 
ATOM     42  C   UNL A   1      41.470  27.476  26.303  1.00  0.00     0.198 A 
ATOM     43  C   UNL A   1      40.066  25.772  27.250  1.00  0.00     0.198 A 
ATOM     44  F   UNL A   1      39.300  25.970  29.468  1.00  0.00    -0.203 F 
ATOM     45  F   UNL A   1      42.132  27.987  25.255  1.00  0.00    -0.200 F 
ATOM     46  C   UNL A   1      40.778  26.282  26.172  1.00  0.00     0.200 A 
ATOM     47  F   UNL A   1      39.399  24.617  27.122  1.00  0.00    -0.200 F 
ATOM     48  F   UNL A   1      40.781  25.631  25.001  1.00  0.00    -0.200 F 
ENDBRANCH  24  38
BRANCH  25  49
ATOM     49  C   UNL A   1      39.782  33.570  36.524  1.00  0.00     0.064 A 
ATOM     50  C   UNL A   1      40.618  34.609  36.940  1.00  0.00     0.173 A 
ATOM     51  C   UNL A   1      38.736  33.190  37.386  1.00  0.00     0.173 A 
ATOM     52  F   UNL A   1      41.641  34.997  36.166  1.00  0.00    -0.203 F 
ATOM     53  C   UNL A   1      40.413  35.245  38.167  1.00  0.00     0.198 A 
ATOM     54  C   UNL A   1      38.529  33.828  38.607  1.00  0.00     0.198 A 
ATOM     55  F   UNL A   1      37.899  32.207  37.024  1.00  0.00    -0.203 F 
ATOM     56  F   UNL A   1      41.229  36.238  38.548  1.00  0.00    -0.200 F 
ATOM     57  C   UNL A   1      39.372  34.853  38.999  1.00  0.00     0.200 A 
ATOM     58  F   UNL A   1      37.509  33.453  39.390  1.00  0.00    -0.200 F 
ATOM     59  F   UNL A   1      39.178  35.469  40.173  1.00  0.00    -0.200 F 
ENDBRANCH  25  49
BRANCH  37  60
ATOM     60  C   UNL A   1      43.828  28.199  35.099  1.00  0.00     0.064 A 
ATOM     61  C   UNL A   1      43.670  27.034  35.857  1.00  0.00     0.173 A 
ATOM     62  C   UNL A   1      45.090  28.815  35.080  1.00  0.00     0.173 A 
ATOM     63  F   UNL A   1      42.470  26.439  35.939  1.00  0.00    -0.203 F 
ATOM     64  C   UNL A   1      44.738  26.507  36.579  1.00  0.00     0.198 A 
ATOM     65  C   UNL A   1      46.158  28.275  35.783  1.00  0.00     0.198 A 
ATOM     66  F   UNL A   1      45.277  29.946  34.383  1.00  0.00    -0.203 F 
ATOM     67  F   UNL A   1      44.560  25.417  37.335  1.00  0.00    -0.200 F 
ATOM     68  C   UNL A   1      45.981  27.123  36.535  1.00  0.00     0.200 A 
ATOM     69  F   UNL A   1      47.356  28.876  35.744  1.00  0.00    -0.200 F 
ATOM     70  F   UNL A   1      47.007  26.617  37.231  1.00  0.00    -0.200 F 
ENDBRANCH  37  60
ENDBRANCH  11  12
ENDBRANCH   4   6
ENDBRANCH   3   4
ENDBRANCH   2   3
ENDBRANCH   1   2
BRANCH   1  71
ATOM     71  O   UNL A   1      33.420  30.601  26.468  1.00  0.00    -0.458 OA
BRANCH  71  72
ATOM     72  C   UNL A   1      34.085  29.479  26.851  1.00  0.00     0.338 C 
ATOM     73  O   UNL A   1      34.765  29.337  27.852  1.00  0.00    -0.246 OA
BRANCH  72  74
ATOM     74  C   UNL A   1      33.758  28.378  25.918  1.00  0.00     0.060 A 
ATOM     75  C   UNL A   1      33.128  27.230  26.425  1.00  0.00     0.017 A 
ATOM     76  C   UNL A   1      34.003  28.497  24.547  1.00  0.00     0.017 A 
ATOM     77  C   UNL A   1      32.741  26.200  25.565  1.00  0.00     0.022 A 
ATOM     78  C   UNL A   1      33.592  27.483  23.690  1.00  0.00     0.022 A 
ATOM     79  C   UNL A   1      32.980  26.335  24.198  1.00  0.00     0.082 A 
BRANCH  79  80
ATOM     80  S   UNL A   1      32.616  25.004  23.085  1.00  0.00     0.241 S 
ATOM     81  O   UNL A   1      31.212  25.034  22.752  1.00  0.00    -0.207 OA
ATOM     82  O   UNL A   1      33.653  25.023  22.077  1.00  0.00    -0.207 OA
BRANCH  80  83
ATOM     83  N   UNL A   1      32.902  23.654  24.035  1.00  0.00    -0.202 NA
ATOM     84  H   UNL A   1      31.983  23.273  24.261  1.00  0.00     0.141 HD
BRANCH  83  85
ATOM     85  C   UNL A   1      33.721  22.500  23.606  1.00  0.00     0.133 C 
ATOM     86  C   UNL A   1      33.381  21.138  24.206  1.00  0.00     0.087 C 
ATOM     87  C   UNL A   1      35.200  22.688  24.015  1.00  0.00     0.202 C 
ATOM     88  C   UNL A   1      34.421  20.898  25.289  1.00  0.00     0.264 C 
ATOM     89  N   UNL A   1      35.646  21.454  24.703  1.00  0.00    -0.331 N 
ATOM     90  C   UNL A   1      35.516  23.766  25.031  1.00  0.00     0.072 C 
ATOM     91  C   UNL A   1      36.640  21.825  25.730  1.00  0.00     0.262 C 
ATOM     92  H   UNL A   1      36.094  20.770  24.093  1.00  0.00     0.348 HD
ATOM     93  C   UNL A   1      36.854  23.322  25.574  1.00  0.00     0.068 C 
ENDBRANCH  83  85
ENDBRANCH  80  83
ENDBRANCH  79  80
ENDBRANCH  72  74
ENDBRANCH  71  72
ENDBRANCH   1  71
TORSDOF 14
ENDMDL
MODEL 3
REMARK VINA RESULT:     -12.3      5.817     11.007
REMARK SMILES O=C(OCCOC(=O)c1ccc(S(=O)(=O)N[C@@H]2CC[N@@H+]3CCC[C@H]23)cc1)c1ccc(-c2c3nc(c(-c4c(F)c(F)c(F)c(F)c4F)c4ccc([nH]4)c(-c4c(F)c(F)c(F)c(F)c4F)c4nc(c(-c5c(F)c(F)c(F)c(F)c5F)c5ccc2[nH]5)C=C4)C=C3)cc1
REMARK SMILES IDX 5 1 4 2 3 3 2 4 1 5 27 6 28 7 89 8 29 9 88 10 30 11 31 12
REMARK SMILES IDX 32 13 82 14 33 15 87 16 81 17 83 18 34 19 86 20 80 21 79 22
REMARK SMILES IDX 35 24 67 25 47 26 66 27 48 28 51 29 65 30 84 31 49 32 50 33
REMARK SMILES IDX 64 35 85 36 52 37 36 38 37 39 45 40 38 41 39 42 43 43 46 44
REMARK SMILES IDX 40 45 41 46 44 47 42 48 68 49 69 50 77 51 70 52 71 53 75 54
REMARK SMILES IDX 78 55 72 56 73 57 76 58 74 59 53 60 54 61 62 62 55 63 56 64
REMARK SMILES IDX 60 65 63 66 57 67 58 68 61 69 59 70 6 71 7 72 8 73 9 74
REMARK SMILES IDX 10 75 26 76 11 77 25 78 12 79 13 80 14 81 15 82 16 83 17 85
REMARK SMILES IDX 18 86 24 87 19 88 20 89 23 90 21 91 22 93
REMARK H PARENT 83 23 51 34 16 84 20 92
REMARK Flexibility Score: inf
ROOT
ATOM      1  C   UNL A   1      39.253  21.385  25.805  1.00  0.00     0.275 C 
ENDROOT
BRANCH   1   2
ATOM      2  C   UNL A   1      39.340  19.873  25.991  1.00  0.00     0.275 C 
BRANCH   2   3
ATOM      3  O   UNL A   1      40.571  19.299  25.516  1.00  0.00    -0.458 OA
BRANCH   3   4
ATOM      4  C   UNL A   1      41.839  19.401  25.976  1.00  0.00     0.338 C 
ATOM      5  O   UNL A   1      42.522  18.378  26.033  1.00  0.00    -0.246 OA
BRANCH   4   6
ATOM      6  C   UNL A   1      42.455  20.654  26.527  1.00  0.00     0.060 A 
ATOM      7  C   UNL A   1      42.375  21.122  27.843  1.00  0.00     0.016 A 
ATOM      8  C   UNL A   1      43.125  21.466  25.592  1.00  0.00     0.016 A 
ATOM      9  C   UNL A   1      42.961  22.346  28.223  1.00  0.00     0.010 A 
ATOM     10  C   UNL A   1      43.712  22.680  25.965  1.00  0.00     0.010 A 
ATOM     11  C   UNL A   1      43.626  23.142  27.288  1.00  0.00    -0.014 A 
BRANCH  11  12
ATOM     12  C   UNL A   1      44.054  24.535  27.590  1.00  0.00     0.031 A 
ATOM     13  C   UNL A   1      42.976  25.557  27.835  1.00  0.00     0.074 A 
ATOM     14  C   UNL A   1      45.345  24.923  27.648  1.00  0.00     0.049 A 
ATOM     15  N   UNL A   1      43.081  26.848  28.010  1.00  0.00    -0.248 NA
ATOM     16  C   UNL A   1      41.601  25.042  27.939  1.00  0.00     0.031 C 
ATOM     17  C   UNL A   1      46.511  24.048  27.594  1.00  0.00     0.029 A 
ATOM     18  N   UNL A   1      45.891  26.188  27.722  1.00  0.00    -0.354 N 
ATOM     19  C   UNL A   1      41.800  27.283  28.315  1.00  0.00     0.074 A 
ATOM     20  C   UNL A   1      40.917  26.147  28.183  1.00  0.00     0.031 C 
ATOM     21  C   UNL A   1      47.622  24.805  27.530  1.00  0.00     0.029 A 
ATOM     22  C   UNL A   1      47.247  26.212  27.489  1.00  0.00     0.049 A 
ATOM     23  H   UNL A   1      45.361  26.994  27.923  1.00  0.00     0.167 HD
ATOM     24  C   UNL A   1      41.406  28.504  28.743  1.00  0.00     0.037 A 
ATOM     25  C   UNL A   1      48.061  27.248  27.200  1.00  0.00     0.037 A 
ATOM     26  C   UNL A   1      42.271  29.643  28.836  1.00  0.00     0.049 A 
ATOM     27  C   UNL A   1      47.522  28.647  27.298  1.00  0.00     0.074 A 
ATOM     28  C   UNL A   1      42.006  30.905  29.337  1.00  0.00     0.029 A 
ATOM     29  N   UNL A   1      43.577  29.660  28.373  1.00  0.00    -0.354 N 
ATOM     30  N   UNL A   1      46.315  29.046  27.602  1.00  0.00    -0.248 NA
ATOM     31  C   UNL A   1      48.480  29.740  27.067  1.00  0.00     0.031 C 
ATOM     32  C   UNL A   1      43.138  31.703  29.126  1.00  0.00     0.029 A 
ATOM     33  C   UNL A   1      44.118  30.924  28.533  1.00  0.00     0.049 A 
ATOM     34  H   UNL A   1      44.048  28.888  27.986  1.00  0.00     0.167 HD
ATOM     35  C   UNL A   1      46.387  30.427  27.683  1.00  0.00     0.074 A 
ATOM     36  C   UNL A   1      47.730  30.806  27.302  1.00  0.00     0.031 C 
ATOM     37  C   UNL A   1      45.445  31.293  28.124  1.00  0.00     0.037 A 
BRANCH  24  38
ATOM     38  C   UNL A   1      39.976  28.628  29.167  1.00  0.00     0.064 A 
ATOM     39  C   UNL A   1      38.997  29.085  28.269  1.00  0.00     0.173 A 
ATOM     40  C   UNL A   1      39.587  28.342  30.481  1.00  0.00     0.173 A 
ATOM     41  F   UNL A   1      39.328  29.388  27.005  1.00  0.00    -0.203 F 
ATOM     42  C   UNL A   1      37.687  29.295  28.687  1.00  0.00     0.198 A 
ATOM     43  C   UNL A   1      38.270  28.531  30.889  1.00  0.00     0.198 A 
ATOM     44  F   UNL A   1      40.488  27.905  31.374  1.00  0.00    -0.203 F 
ATOM     45  F   UNL A   1      36.785  29.795  27.831  1.00  0.00    -0.200 F 
ATOM     46  C   UNL A   1      37.324  29.019  29.996  1.00  0.00     0.200 A 
ATOM     47  F   UNL A   1      37.916  28.263  32.153  1.00  0.00    -0.200 F 
ATOM     48  F   UNL A   1      36.067  29.239  30.403  1.00  0.00    -0.200 F 
ENDBRANCH  24  38
BRANCH  25  49
ATOM     49  C   UNL A   1      49.446  27.064  26.688  1.00  0.00     0.064 A 
ATOM     50  C   UNL A   1      49.754  26.966  25.329  1.00  0.00     0.173 A 
ATOM     51  C   UNL A   1      50.498  26.892  27.609  1.00  0.00     0.173 A 
ATOM     52  F   UNL A   1      48.787  27.101  24.411  1.00  0.00    -0.203 F 
ATOM     53  C   UNL A   1      51.061  26.709  24.908  1.00  0.00     0.198 A 
ATOM     54  C   UNL A   1      51.802  26.641  27.188  1.00  0.00     0.198 A 
ATOM     55  F   UNL A   1      50.254  26.991  28.924  1.00  0.00    -0.203 F 
ATOM     56  F   UNL A   1      51.334  26.616  23.599  1.00  0.00    -0.200 F 
ATOM     57  C   UNL A   1      52.082  26.545  25.836  1.00  0.00     0.200 A 
ATOM     58  F   UNL A   1      52.780  26.506  28.093  1.00  0.00    -0.200 F 
ATOM     59  F   UNL A   1      53.334  26.304  25.426  1.00  0.00    -0.200 F 
ENDBRANCH  25  49
BRANCH  37  60
ATOM     60  C   UNL A   1      45.880  32.708  28.321  1.00  0.00     0.064 A 
ATOM     61  C   UNL A   1      46.482  33.149  29.505  1.00  0.00     0.173 A 
ATOM     62  C   UNL A   1      45.667  33.642  27.295  1.00  0.00     0.173 A 
ATOM     63  F   UNL A   1      46.663  32.299  30.528  1.00  0.00    -0.203 F 
ATOM     64  C   UNL A   1      46.850  34.483  29.659  1.00  0.00     0.198 A 
ATOM     65  C   UNL A   1      46.055  34.966  27.443  1.00  0.00     0.198 A 
ATOM     66  F   UNL A   1      45.073  33.264  26.153  1.00  0.00    -0.203 F 
ATOM     67  F   UNL A   1      47.384  34.900  30.814  1.00  0.00    -0.200 F 
ATOM     68  C   UNL A   1      46.644  35.387  28.626  1.00  0.00     0.200 A 
ATOM     69  F   UNL A   1      45.849  35.839  26.446  1.00  0.00    -0.200 F 
ATOM     70  F   UNL A   1      46.996  36.671  28.776  1.00  0.00    -0.200 F 
ENDBRANCH  37  60
ENDBRANCH  11  12
ENDBRANCH   4   6
ENDBRANCH   3   4
ENDBRANCH   2   3
ENDBRANCH   1   2
BRANCH   1  71
ATOM     71  O   UNL A   1      37.893  21.833  25.825  1.00  0.00    -0.458 OA
BRANCH  71  72
ATOM     72  C   UNL A   1      37.727  23.181  25.863  1.00  0.00     0.338 C 
ATOM     73  O   UNL A   1      38.478  23.998  26.364  1.00  0.00    -0.246 OA
BRANCH  72  74
ATOM     74  C   UNL A   1      36.528  23.544  25.076  1.00  0.00     0.060 A 
ATOM     75  C   UNL A   1      36.349  22.956  23.813  1.00  0.00     0.017 A 
ATOM     76  C   UNL A   1      35.552  24.398  25.597  1.00  0.00     0.017 A 
ATOM     77  C   UNL A   1      35.195  23.219  23.070  1.00  0.00     0.022 A 
ATOM     78  C   UNL A   1      34.394  24.636  24.868  1.00  0.00     0.022 A 
ATOM     79  C   UNL A   1      34.224  24.064  23.606  1.00  0.00     0.082 A 
BRANCH  79  80
ATOM     80  S   UNL A   1      32.802  24.521  22.650  1.00  0.00     0.241 S 
ATOM     81  O   UNL A   1      33.211  24.805  21.296  1.00  0.00    -0.207 OA
ATOM     82  O   UNL A   1      31.774  23.554  22.965  1.00  0.00    -0.207 OA
BRANCH  80  83
ATOM     83  N   UNL A   1      32.335  25.961  23.371  1.00  0.00    -0.202 NA
ATOM     84  H   UNL A   1      32.807  25.984  24.275  1.00  0.00     0.141 HD
BRANCH  83  85
ATOM     85  C   UNL A   1      32.552  27.294  22.770  1.00  0.00     0.133 C 
ATOM     86  C   UNL A   1      33.280  28.335  23.618  1.00  0.00     0.087 C 
ATOM     87  C   UNL A   1      31.205  27.990  22.465  1.00  0.00     0.202 C 
ATOM     88  C   UNL A   1      32.193  29.253  24.157  1.00  0.00     0.264 C 
ATOM     89  N   UNL A   1      31.257  29.357  23.033  1.00  0.00    -0.331 N 
ATOM     90  C   UNL A   1      29.958  27.414  23.102  1.00  0.00     0.072 C 
ATOM     91  C   UNL A   1      29.898  29.734  23.469  1.00  0.00     0.262 C 
ATOM     92  H   UNL A   1      31.565  30.074  22.376  1.00  0.00     0.348 HD
ATOM     93  C   UNL A   1      28.999  28.580  23.055  1.00  0.00     0.068 C 
ENDBRANCH  83  85
ENDBRANCH  80  83
ENDBRANCH  79  80
ENDBRANCH  72  74
ENDBRANCH  71  72
ENDBRANCH   1  71
TORSDOF 14
ENDMDL
