MODEL 1
REMARK VINA RESULT:     -12.8      0.000      0.000
REMARK SMILES O=C(OCCOC(=O)c1ccc(-c2c3nc(c(-c4c(F)c(F)c(F)c(F)c4F)c4ccc([nH]4)c(-c4c(F)c(F)c(F)c(F)c4F)c4nc(c(-c5c(F)c(F)c(F)c(F)c5F)c5ccc2[nH]5)C=C4)C=C3)cc1)c1ccc(C[C@H]2SC(=O)N(c3ccccc3)C2=O)cc1
REMARK SMILES IDX 4 1 3 2 2 3 1 4 72 5 73 6 91 7 74 8 90 9 75 10 76 11 77 12
REMARK SMILES IDX 78 13 88 14 79 15 81 16 89 17 80 18 82 19 83 20 87 21 84 22
REMARK SMILES IDX 86 23 85 24 5 25 6 26 7 27 8 28 9 29 10 30 71 31 11 32 70 33
REMARK SMILES IDX 12 34 13 35 14 36 64 37 15 38 69 39 63 40 65 41 16 42 68 43
REMARK SMILES IDX 62 44 61 45 17 47 49 48 29 49 48 50 30 51 33 52 47 53 66 54
REMARK SMILES IDX 31 55 32 56 46 58 67 59 34 60 18 61 19 62 27 63 20 64 21 65
REMARK SMILES IDX 25 66 28 67 22 68 23 69 26 70 24 71 50 72 51 73 59 74 52 75
REMARK SMILES IDX 53 76 57 77 60 78 54 79 55 80 58 81 56 82 35 83 36 84 44 85
REMARK SMILES IDX 37 86 38 87 42 88 45 89 39 90 40 91 43 92 41 93
REMARK H PARENT 65 46 33 57
REMARK Flexibility Score: inf
ROOT
ATOM      1  C   UNL A   1      43.188  21.059  25.683  1.00  0.00     0.275 C 
ENDROOT
BRANCH   1   2
ATOM      2  O   UNL A   1      41.854  21.600  25.592  1.00  0.00    -0.458 OA
BRANCH   2   3
ATOM      3  C   UNL A   1      40.686  21.142  26.106  1.00  0.00     0.338 C 
ATOM      4  O   UNL A   1      40.637  19.975  26.494  1.00  0.00    -0.246 OA
BRANCH   3   5
ATOM      5  C   UNL A   1      39.407  21.931  26.132  1.00  0.00     0.060 A 
ATOM      6  C   UNL A   1      39.268  23.215  26.639  1.00  0.00     0.016 A 
ATOM      7  C   UNL A   1      38.278  21.373  25.500  1.00  0.00     0.016 A 
ATOM      8  C   UNL A   1      38.118  23.962  26.425  1.00  0.00     0.004 A 
ATOM      9  C   UNL A   1      37.069  22.085  25.391  1.00  0.00     0.004 A 
ATOM     10  C   UNL A   1      36.985  23.399  25.851  1.00  0.00    -0.046 A 
BRANCH  10  11
ATOM     11  C   UNL A   1      35.721  24.220  25.791  1.00  0.00     0.060 C 
BRANCH  11  12
ATOM     12  C   UNL A   1      34.515  23.447  25.215  1.00  0.00     0.151 C 
ATOM     13  S   UNL A   1      33.381  22.726  26.447  1.00  0.00    -0.050 SA
ATOM     14  C   UNL A   1      33.633  24.403  24.442  1.00  0.00     0.248 C 
ATOM     15  C   UNL A   1      32.283  24.082  26.345  1.00  0.00     0.293 C 
ATOM     16  N   UNL A   1      32.476  24.721  25.141  1.00  0.00    -0.240 N 
ATOM     17  O   UNL A   1      34.002  24.879  23.371  1.00  0.00    -0.273 OA
ATOM     18  O   UNL A   1      31.489  24.305  27.231  1.00  0.00    -0.261 OA
BRANCH  16  19
ATOM     19  C   UNL A   1      31.509  25.624  24.626  1.00  0.00     0.053 A 
ATOM     20  C   UNL A   1      30.361  25.123  23.998  1.00  0.00     0.027 A 
ATOM     21  C   UNL A   1      31.641  27.011  24.782  1.00  0.00     0.027 A 
ATOM     22  C   UNL A   1      29.361  25.984  23.546  1.00  0.00     0.002 A 
ATOM     23  C   UNL A   1      30.656  27.875  24.297  1.00  0.00     0.002 A 
ATOM     24  C   UNL A   1      29.514  27.361  23.687  1.00  0.00     0.000 A 
ENDBRANCH  16  19
ENDBRANCH  11  12
ENDBRANCH  10  11
ENDBRANCH   3   5
ENDBRANCH   2   3
ENDBRANCH   1   2
BRANCH   1  25
ATOM     25  C   UNL A   1      44.229  21.899  24.916  1.00  0.00     0.275 C 
BRANCH  25  26
ATOM     26  O   UNL A   1      43.758  23.224  24.584  1.00  0.00    -0.458 OA
BRANCH  26  27
ATOM     27  C   UNL A   1      44.516  24.254  25.043  1.00  0.00     0.338 C 
ATOM     28  O   UNL A   1      45.617  24.571  24.627  1.00  0.00    -0.246 OA
BRANCH  27  29
ATOM     29  C   UNL A   1      43.755  25.068  26.034  1.00  0.00     0.060 A 
ATOM     30  C   UNL A   1      44.059  26.433  26.128  1.00  0.00     0.016 A 
ATOM     31  C   UNL A   1      42.756  24.532  26.853  1.00  0.00     0.016 A 
ATOM     32  C   UNL A   1      43.401  27.250  27.058  1.00  0.00     0.010 A 
ATOM     33  C   UNL A   1      42.083  25.357  27.771  1.00  0.00     0.010 A 
ATOM     34  C   UNL A   1      42.423  26.718  27.910  1.00  0.00    -0.014 A 
BRANCH  34  35
ATOM     35  C   UNL A   1      41.879  27.524  29.045  1.00  0.00     0.031 A 
ATOM     36  C   UNL A   1      42.566  27.450  30.385  1.00  0.00     0.074 A 
ATOM     37  C   UNL A   1      40.806  28.330  28.919  1.00  0.00     0.049 A 
ATOM     38  N   UNL A   1      42.257  28.037  31.516  1.00  0.00    -0.248 NA
ATOM     39  C   UNL A   1      43.761  26.597  30.458  1.00  0.00     0.031 C 
ATOM     40  C   UNL A   1      40.055  28.554  27.690  1.00  0.00     0.029 A 
ATOM     41  N   UNL A   1      40.156  29.109  29.852  1.00  0.00    -0.354 N 
ATOM     42  C   UNL A   1      43.218  27.624  32.430  1.00  0.00     0.074 A 
ATOM     43  C   UNL A   1      44.084  26.694  31.738  1.00  0.00     0.031 C 
ATOM     44  C   UNL A   1      39.034  29.392  27.943  1.00  0.00     0.029 A 
ATOM     45  C   UNL A   1      39.049  29.760  29.360  1.00  0.00     0.049 A 
ATOM     46  H   UNL A   1      40.457  29.193  30.786  1.00  0.00     0.167 HD
ATOM     47  C   UNL A   1      43.387  27.998  33.722  1.00  0.00     0.037 A 
ATOM     48  C   UNL A   1      38.148  30.553  29.976  1.00  0.00     0.037 A 
ATOM     49  C   UNL A   1      42.546  28.927  34.430  1.00  0.00     0.049 A 
ATOM     50  C   UNL A   1      38.303  30.888  31.440  1.00  0.00     0.074 A 
ATOM     51  C   UNL A   1      42.670  29.380  35.732  1.00  0.00     0.029 A 
ATOM     52  N   UNL A   1      41.418  29.536  33.902  1.00  0.00    -0.354 N 
ATOM     53  N   UNL A   1      39.245  30.532  32.278  1.00  0.00    -0.248 NA
ATOM     54  C   UNL A   1      37.272  31.753  32.041  1.00  0.00     0.031 C 
ATOM     55  C   UNL A   1      41.585  30.215  36.012  1.00  0.00     0.029 A 
ATOM     56  C   UNL A   1      40.819  30.335  34.865  1.00  0.00     0.049 A 
ATOM     57  H   UNL A   1      41.090  29.419  32.981  1.00  0.00     0.167 HD
ATOM     58  C   UNL A   1      38.947  31.162  33.483  1.00  0.00     0.074 A 
ATOM     59  C   UNL A   1      37.738  31.925  33.270  1.00  0.00     0.031 C 
ATOM     60  C   UNL A   1      39.627  31.116  34.655  1.00  0.00     0.037 A 
BRANCH  47  61
ATOM     61  C   UNL A   1      44.533  27.378  34.466  1.00  0.00     0.064 A 
ATOM     62  C   UNL A   1      44.389  26.174  35.172  1.00  0.00     0.173 A 
ATOM     63  C   UNL A   1      45.796  27.991  34.462  1.00  0.00     0.173 A 
ATOM     64  F   UNL A   1      43.199  25.556  35.218  1.00  0.00    -0.203 F 
ATOM     65  C   UNL A   1      45.456  25.627  35.879  1.00  0.00     0.198 A 
ATOM     66  C   UNL A   1      46.869  27.422  35.141  1.00  0.00     0.198 A 
ATOM     67  F   UNL A   1      45.988  29.139  33.796  1.00  0.00    -0.203 F 
ATOM     68  F   UNL A   1      45.279  24.511  36.599  1.00  0.00    -0.200 F 
ATOM     69  C   UNL A   1      46.696  26.249  35.859  1.00  0.00     0.200 A 
ATOM     70  F   UNL A   1      48.070  28.017  35.108  1.00  0.00    -0.200 F 
ATOM     71  F   UNL A   1      47.722  25.721  36.539  1.00  0.00    -0.200 F 
ENDBRANCH  47  61
BRANCH  48  72
ATOM     72  C   UNL A   1      36.997  31.109  29.211  1.00  0.00     0.064 A 
ATOM     73  C   UNL A   1      36.948  32.466  28.860  1.00  0.00     0.173 A 
ATOM     74  C   UNL A   1      35.902  30.306  28.861  1.00  0.00     0.173 A 
ATOM     75  F   UNL A   1      37.954  33.283  29.202  1.00  0.00    -0.203 F 
ATOM     76  C   UNL A   1      35.836  33.003  28.211  1.00  0.00     0.198 A 
ATOM     77  C   UNL A   1      34.804  30.837  28.188  1.00  0.00     0.198 A 
ATOM     78  F   UNL A   1      35.897  29.004  29.180  1.00  0.00    -0.203 F 
ATOM     79  F   UNL A   1      35.791  34.314  27.941  1.00  0.00    -0.200 F 
ATOM     80  C   UNL A   1      34.768  32.187  27.872  1.00  0.00     0.200 A 
ATOM     81  F   UNL A   1      33.776  30.045  27.855  1.00  0.00    -0.200 F 
ATOM     82  F   UNL A   1      33.698  32.704  27.252  1.00  0.00    -0.200 F 
ENDBRANCH  48  72
BRANCH  60  83
ATOM     83  C   UNL A   1      39.128  31.955  35.800  1.00  0.00     0.064 A 
ATOM     84  C   UNL A   1      38.256  31.445  36.773  1.00  0.00     0.173 A 
ATOM     85  C   UNL A   1      39.585  33.273  35.962  1.00  0.00     0.173 A 
ATOM     86  F   UNL A   1      37.778  30.197  36.663  1.00  0.00    -0.203 F 
ATOM     87  C   UNL A   1      37.846  32.228  37.851  1.00  0.00     0.198 A 
ATOM     88  C   UNL A   1      39.199  34.042  37.056  1.00  0.00     0.198 A 
ATOM     89  F   UNL A   1      40.428  33.812  35.066  1.00  0.00    -0.203 F 
ATOM     90  F   UNL A   1      36.980  31.732  38.746  1.00  0.00    -0.200 F 
ATOM     91  C   UNL A   1      38.325  33.521  37.997  1.00  0.00     0.200 A 
ATOM     92  F   UNL A   1      39.677  35.285  37.204  1.00  0.00    -0.200 F 
ATOM     93  F   UNL A   1      37.941  34.266  39.043  1.00  0.00    -0.200 F 
ENDBRANCH  60  83
ENDBRANCH  34  35
ENDBRANCH  27  29
ENDBRANCH  26  27
ENDBRANCH  25  26
ENDBRANCH   1  25
TORSDOF 14
ENDMDL
MODEL 2
REMARK VINA RESULT:     -12.4      1.890      3.064
REMARK SMILES O=C(OCCOC(=O)c1ccc(-c2c3nc(c(-c4c(F)c(F)c(F)c(F)c4F)c4ccc([nH]4)c(-c4c(F)c(F)c(F)c(F)c4F)c4nc(c(-c5c(F)c(F)c(F)c(F)c5F)c5ccc2[nH]5)C=C4)C=C3)cc1)c1ccc(C[C@H]2SC(=O)N(c3ccccc3)C2=O)cc1
REMARK SMILES IDX 4 1 3 2 2 3 1 4 72 5 73 6 91 7 74 8 90 9 75 10 76 11 77 12
REMARK SMILES IDX 78 13 88 14 79 15 81 16 89 17 80 18 82 19 83 20 87 21 84 22
REMARK SMILES IDX 86 23 85 24 5 25 6 26 7 27 8 28 9 29 10 30 71 31 11 32 70 33
REMARK SMILES IDX 12 34 13 35 14 36 64 37 15 38 69 39 63 40 65 41 16 42 68 43
REMARK SMILES IDX 62 44 61 45 17 47 49 48 29 49 48 50 30 51 33 52 47 53 66 54
REMARK SMILES IDX 31 55 32 56 46 58 67 59 34 60 18 61 19 62 27 63 20 64 21 65
REMARK SMILES IDX 25 66 28 67 22 68 23 69 26 70 24 71 50 72 51 73 59 74 52 75
REMARK SMILES IDX 53 76 57 77 60 78 54 79 55 80 58 81 56 82 35 83 36 84 44 85
REMARK SMILES IDX 37 86 38 87 42 88 45 89 39 90 40 91 43 92 41 93
REMARK H PARENT 65 46 33 57
REMARK Flexibility Score: inf
ROOT
ATOM      1  C   UNL A   1      42.550  20.876  26.305  1.00  0.00     0.275 C 
ENDROOT
BRANCH   1   2
ATOM      2  O   UNL A   1      41.205  21.062  25.815  1.00  0.00    -0.458 OA
BRANCH   2   3
ATOM      3  C   UNL A   1      40.101  21.533  26.445  1.00  0.00     0.338 C 
ATOM      4  O   UNL A   1      40.080  21.518  27.675  1.00  0.00    -0.246 OA
BRANCH   3   5
ATOM      5  C   UNL A   1      38.848  21.971  25.740  1.00  0.00     0.060 A 
ATOM      6  C   UNL A   1      38.154  21.221  24.801  1.00  0.00     0.016 A 
ATOM      7  C   UNL A   1      38.267  23.193  26.131  1.00  0.00     0.016 A 
ATOM      8  C   UNL A   1      36.891  21.592  24.362  1.00  0.00     0.004 A 
ATOM      9  C   UNL A   1      37.042  23.630  25.593  1.00  0.00     0.004 A 
ATOM     10  C   UNL A   1      36.338  22.820  24.703  1.00  0.00    -0.046 A 
BRANCH  10  11
ATOM     11  C   UNL A   1      35.031  23.226  24.067  1.00  0.00     0.060 C 
BRANCH  11  12
ATOM     12  C   UNL A   1      33.792  22.701  24.824  1.00  0.00     0.151 C 
ATOM     13  S   UNL A   1      32.276  22.527  23.826  1.00  0.00    -0.050 SA
ATOM     14  C   UNL A   1      34.060  21.293  25.306  1.00  0.00     0.248 C 
ATOM     15  C   UNL A   1      32.558  20.824  23.553  1.00  0.00     0.293 C 
ATOM     16  N   UNL A   1      33.390  20.347  24.541  1.00  0.00    -0.240 N 
ATOM     17  O   UNL A   1      34.863  21.076  26.211  1.00  0.00    -0.273 OA
ATOM     18  O   UNL A   1      32.021  20.245  22.635  1.00  0.00    -0.261 OA
BRANCH  16  19
ATOM     19  C   UNL A   1      33.514  18.954  24.787  1.00  0.00     0.053 A 
ATOM     20  C   UNL A   1      32.528  18.295  25.536  1.00  0.00     0.027 A 
ATOM     21  C   UNL A   1      34.567  18.202  24.251  1.00  0.00     0.027 A 
ATOM     22  C   UNL A   1      32.586  16.916  25.734  1.00  0.00     0.002 A 
ATOM     23  C   UNL A   1      34.644  16.826  24.480  1.00  0.00     0.002 A 
ATOM     24  C   UNL A   1      33.649  16.184  25.214  1.00  0.00     0.000 A 
ENDBRANCH  16  19
ENDBRANCH  11  12
ENDBRANCH  10  11
ENDBRANCH   3   5
ENDBRANCH   2   3
ENDBRANCH   1   2
BRANCH   1  25
ATOM     25  C   UNL A   1      43.593  21.699  25.523  1.00  0.00     0.275 C 
BRANCH  25  26
ATOM     26  O   UNL A   1      43.021  22.831  24.832  1.00  0.00    -0.458 OA
BRANCH  26  27
ATOM     27  C   UNL A   1      43.707  23.999  24.940  1.00  0.00     0.338 C 
ATOM     28  O   UNL A   1      44.656  24.336  24.255  1.00  0.00    -0.246 OA
BRANCH  27  29
ATOM     29  C   UNL A   1      43.046  24.910  25.919  1.00  0.00     0.060 A 
ATOM     30  C   UNL A   1      43.646  26.153  26.161  1.00  0.00     0.016 A 
ATOM     31  C   UNL A   1      41.861  24.582  26.585  1.00  0.00     0.016 A 
ATOM     32  C   UNL A   1      43.092  27.047  27.090  1.00  0.00     0.010 A 
ATOM     33  C   UNL A   1      41.296  25.486  27.501  1.00  0.00     0.010 A 
ATOM     34  C   UNL A   1      41.925  26.714  27.790  1.00  0.00    -0.014 A 
BRANCH  34  35
ATOM     35  C   UNL A   1      41.455  27.557  28.932  1.00  0.00     0.031 A 
ATOM     36  C   UNL A   1      42.175  27.461  30.253  1.00  0.00     0.074 A 
ATOM     37  C   UNL A   1      40.420  28.415  28.828  1.00  0.00     0.049 A 
ATOM     38  N   UNL A   1      41.929  28.072  31.387  1.00  0.00    -0.248 NA
ATOM     39  C   UNL A   1      43.327  26.549  30.301  1.00  0.00     0.031 C 
ATOM     40  C   UNL A   1      39.646  28.665  27.619  1.00  0.00     0.029 A 
ATOM     41  N   UNL A   1      39.836  29.234  29.771  1.00  0.00    -0.354 N 
ATOM     42  C   UNL A   1      42.893  27.619  32.276  1.00  0.00     0.074 A 
ATOM     43  C   UNL A   1      43.692  26.641  31.570  1.00  0.00     0.031 C 
ATOM     44  C   UNL A   1      38.675  29.555  27.892  1.00  0.00     0.029 A 
ATOM     45  C   UNL A   1      38.750  29.934  29.304  1.00  0.00     0.049 A 
ATOM     46  H   UNL A   1      40.169  29.310  30.695  1.00  0.00     0.167 HD
ATOM     47  C   UNL A   1      43.119  27.996  33.559  1.00  0.00     0.037 A 
ATOM     48  C   UNL A   1      37.907  30.777  29.937  1.00  0.00     0.037 A 
ATOM     49  C   UNL A   1      42.345  28.972  34.281  1.00  0.00     0.049 A 
ATOM     50  C   UNL A   1      38.121  31.117  31.393  1.00  0.00     0.074 A 
ATOM     51  C   UNL A   1      42.529  29.430  35.574  1.00  0.00     0.029 A 
ATOM     52  N   UNL A   1      41.234  29.632  33.779  1.00  0.00    -0.354 N 
ATOM     53  N   UNL A   1      39.067  30.721  32.208  1.00  0.00    -0.248 NA
ATOM     54  C   UNL A   1      37.153  32.037  32.014  1.00  0.00     0.031 C 
ATOM     55  C   UNL A   1      41.496  30.321  35.877  1.00  0.00     0.029 A 
ATOM     56  C   UNL A   1      40.704  30.469  34.751  1.00  0.00     0.049 A 
ATOM     57  H   UNL A   1      40.875  29.523  32.869  1.00  0.00     0.167 HD
ATOM     58  C   UNL A   1      38.837  31.377  33.414  1.00  0.00     0.074 A 
ATOM     59  C   UNL A   1      37.661  32.197  33.227  1.00  0.00     0.031 C 
ATOM     60  C   UNL A   1      39.547  31.306  34.566  1.00  0.00     0.037 A 
BRANCH  47  61
ATOM     61  C   UNL A   1      44.253  27.326  34.277  1.00  0.00     0.064 A 
ATOM     62  C   UNL A   1      45.546  27.875  34.287  1.00  0.00     0.173 A 
ATOM     63  C   UNL A   1      44.041  26.127  34.975  1.00  0.00     0.173 A 
ATOM     64  F   UNL A   1      45.803  29.012  33.625  1.00  0.00    -0.203 F 
ATOM     65  C   UNL A   1      46.592  27.225  34.936  1.00  0.00     0.198 A 
ATOM     66  C   UNL A   1      45.083  25.500  35.651  1.00  0.00     0.198 A 
ATOM     67  F   UNL A   1      42.824  25.567  35.002  1.00  0.00    -0.203 F 
ATOM     68  F   UNL A   1      47.831  27.732  34.879  1.00  0.00    -0.200 F 
ATOM     69  C   UNL A   1      46.359  26.042  35.621  1.00  0.00     0.200 A 
ATOM     70  F   UNL A   1      44.853  24.365  36.325  1.00  0.00    -0.200 F 
ATOM     71  F   UNL A   1      47.367  25.418  36.246  1.00  0.00    -0.200 F 
ENDBRANCH  47  61
BRANCH  48  72
ATOM     72  C   UNL A   1      36.764  31.384  29.199  1.00  0.00     0.064 A 
ATOM     73  C   UNL A   1      36.760  32.744  28.862  1.00  0.00     0.173 A 
ATOM     74  C   UNL A   1      35.633  30.625  28.864  1.00  0.00     0.173 A 
ATOM     75  F   UNL A   1      37.803  33.520  29.190  1.00  0.00    -0.203 F 
ATOM     76  C   UNL A   1      35.657  33.329  28.239  1.00  0.00     0.198 A 
ATOM     77  C   UNL A   1      34.544  31.204  28.217  1.00  0.00     0.198 A 
ATOM     78  F   UNL A   1      35.585  29.321  29.172  1.00  0.00    -0.203 F 
ATOM     79  F   UNL A   1      35.657  34.643  27.980  1.00  0.00    -0.200 F 
ATOM     80  C   UNL A   1      34.553  32.558  27.913  1.00  0.00     0.200 A 
ATOM     81  F   UNL A   1      33.480  30.454  27.897  1.00  0.00    -0.200 F 
ATOM     82  F   UNL A   1      33.492  33.120  27.318  1.00  0.00    -0.200 F 
ENDBRANCH  48  72
BRANCH  60  83
ATOM     83  C   UNL A   1      39.124  32.180  35.717  1.00  0.00     0.064 A 
ATOM     84  C   UNL A   1      38.289  31.710  36.741  1.00  0.00     0.173 A 
ATOM     85  C   UNL A   1      39.618  33.490  35.828  1.00  0.00     0.173 A 
ATOM     86  F   UNL A   1      37.778  30.471  36.681  1.00  0.00    -0.203 F 
ATOM     87  C   UNL A   1      37.950  32.523  37.821  1.00  0.00     0.198 A 
ATOM     88  C   UNL A   1      39.302  34.289  36.924  1.00  0.00     0.198 A 
ATOM     89  F   UNL A   1      40.427  33.990  34.881  1.00  0.00    -0.203 F 
ATOM     90  F   UNL A   1      37.118  32.066  38.767  1.00  0.00    -0.200 F 
ATOM     91  C   UNL A   1      38.464  33.807  37.916  1.00  0.00     0.200 A 
ATOM     92  F   UNL A   1      39.816  35.524  37.022  1.00  0.00    -0.200 F 
ATOM     93  F   UNL A   1      38.149  34.581  38.964  1.00  0.00    -0.200 F 
ENDBRANCH  60  83
ENDBRANCH  34  35
ENDBRANCH  27  29
ENDBRANCH  26  27
ENDBRANCH  25  26
ENDBRANCH   1  25
TORSDOF 14
ENDMDL
MODEL 3
REMARK VINA RESULT:     -12.3      0.874      2.195
REMARK SMILES O=C(OCCOC(=O)c1ccc(-c2c3nc(c(-c4c(F)c(F)c(F)c(F)c4F)c4ccc([nH]4)c(-c4c(F)c(F)c(F)c(F)c4F)c4nc(c(-c5c(F)c(F)c(F)c(F)c5F)c5ccc2[nH]5)C=C4)C=C3)cc1)c1ccc(C[C@H]2SC(=O)N(c3ccccc3)C2=O)cc1
REMARK SMILES IDX 4 1 3 2 2 3 1 4 72 5 73 6 91 7 74 8 90 9 75 10 76 11 77 12
REMARK SMILES IDX 78 13 88 14 79 15 81 16 89 17 80 18 82 19 83 20 87 21 84 22
REMARK SMILES IDX 86 23 85 24 5 25 6 26 7 27 8 28 9 29 10 30 71 31 11 32 70 33
REMARK SMILES IDX 12 34 13 35 14 36 64 37 15 38 69 39 63 40 65 41 16 42 68 43
REMARK SMILES IDX 62 44 61 45 17 47 49 48 29 49 48 50 30 51 33 52 47 53 66 54
REMARK SMILES IDX 31 55 32 56 46 58 67 59 34 60 18 61 19 62 27 63 20 64 21 65
REMARK SMILES IDX 25 66 28 67 22 68 23 69 26 70 24 71 50 72 51 73 59 74 52 75
REMARK SMILES IDX 53 76 57 77 60 78 54 79 55 80 58 81 56 82 35 83 36 84 44 85
REMARK SMILES IDX 37 86 38 87 42 88 45 89 39 90 40 91 43 92 41 93
REMARK H PARENT 65 46 33 57
REMARK Flexibility Score: inf
ROOT
ATOM      1  C   UNL A   1      42.890  21.259  25.870  1.00  0.00     0.275 C 
ENDROOT
BRANCH   1   2
ATOM      2  O   UNL A   1      41.510  21.606  25.630  1.00  0.00    -0.458 OA
BRANCH   2   3
ATOM      3  C   UNL A   1      40.442  21.584  26.465  1.00  0.00     0.338 C 
ATOM      4  O   UNL A   1      40.557  21.000  27.542  1.00  0.00    -0.246 OA
BRANCH   3   5
ATOM      5  C   UNL A   1      39.086  22.129  26.118  1.00  0.00     0.060 A 
ATOM      6  C   UNL A   1      38.049  21.399  25.556  1.00  0.00     0.016 A 
ATOM      7  C   UNL A   1      38.800  23.460  26.482  1.00  0.00     0.016 A 
ATOM      8  C   UNL A   1      36.761  21.909  25.472  1.00  0.00     0.004 A 
ATOM      9  C   UNL A   1      37.524  24.018  26.284  1.00  0.00     0.004 A 
ATOM     10  C   UNL A   1      36.486  23.235  25.780  1.00  0.00    -0.046 A 
BRANCH  10  11
ATOM     11  C   UNL A   1      35.098  23.765  25.519  1.00  0.00     0.060 C 
BRANCH  11  12
ATOM     12  C   UNL A   1      34.889  24.248  24.067  1.00  0.00     0.151 C 
ATOM     13  S   UNL A   1      33.992  23.095  22.976  1.00  0.00    -0.050 SA
ATOM     14  C   UNL A   1      34.013  25.481  24.072  1.00  0.00     0.248 C 
ATOM     15  C   UNL A   1      32.469  23.911  23.234  1.00  0.00     0.293 C 
ATOM     16  N   UNL A   1      32.720  25.200  23.649  1.00  0.00    -0.240 N 
ATOM     17  O   UNL A   1      34.432  26.553  24.503  1.00  0.00    -0.273 OA
ATOM     18  O   UNL A   1      31.419  23.352  23.010  1.00  0.00    -0.261 OA
BRANCH  16  19
ATOM     19  C   UNL A   1      31.711  26.197  23.599  1.00  0.00     0.053 A 
ATOM     20  C   UNL A   1      31.423  26.828  22.381  1.00  0.00     0.027 A 
ATOM     21  C   UNL A   1      30.948  26.529  24.726  1.00  0.00     0.027 A 
ATOM     22  C   UNL A   1      30.390  27.760  22.287  1.00  0.00     0.002 A 
ATOM     23  C   UNL A   1      29.936  27.489  24.639  1.00  0.00     0.002 A 
ATOM     24  C   UNL A   1      29.653  28.097  23.418  1.00  0.00     0.000 A 
ENDBRANCH  16  19
ENDBRANCH  11  12
ENDBRANCH  10  11
ENDBRANCH   3   5
ENDBRANCH   2   3
ENDBRANCH   1   2
BRANCH   1  25
ATOM     25  C   UNL A   1      43.871  22.046  24.978  1.00  0.00     0.275 C 
BRANCH  25  26
ATOM     26  O   UNL A   1      43.389  23.362  24.627  1.00  0.00    -0.458 OA
BRANCH  26  27
ATOM     27  C   UNL A   1      44.165  24.403  25.029  1.00  0.00     0.338 C 
ATOM     28  O   UNL A   1      45.239  24.720  24.550  1.00  0.00    -0.246 OA
BRANCH  27  29
ATOM     29  C   UNL A   1      43.454  25.227  26.048  1.00  0.00     0.060 A 
ATOM     30  C   UNL A   1      43.888  26.546  26.240  1.00  0.00     0.016 A 
ATOM     31  C   UNL A   1      42.377  24.747  26.800  1.00  0.00     0.016 A 
ATOM     32  C   UNL A   1      43.282  27.367  27.201  1.00  0.00     0.010 A 
ATOM     33  C   UNL A   1      41.757  25.577  27.750  1.00  0.00     0.010 A 
ATOM     34  C   UNL A   1      42.226  26.885  27.986  1.00  0.00    -0.014 A 
BRANCH  34  35
ATOM     35  C   UNL A   1      41.725  27.671  29.155  1.00  0.00     0.031 A 
ATOM     36  C   UNL A   1      42.433  27.539  30.480  1.00  0.00     0.074 A 
ATOM     37  C   UNL A   1      40.671  28.509  29.073  1.00  0.00     0.049 A 
ATOM     38  N   UNL A   1      42.161  28.100  31.633  1.00  0.00    -0.248 NA
ATOM     39  C   UNL A   1      43.605  26.652  30.504  1.00  0.00     0.031 C 
ATOM     40  C   UNL A   1      39.905  28.790  27.866  1.00  0.00     0.029 A 
ATOM     41  N   UNL A   1      40.059  29.277  30.041  1.00  0.00    -0.354 N 
ATOM     42  C   UNL A   1      43.126  27.633  32.516  1.00  0.00     0.074 A 
ATOM     43  C   UNL A   1      43.954  26.702  31.780  1.00  0.00     0.031 C 
ATOM     44  C   UNL A   1      38.912  29.647  28.163  1.00  0.00     0.029 A 
ATOM     45  C   UNL A   1      38.962  29.971  29.589  1.00  0.00     0.049 A 
ATOM     46  H   UNL A   1      40.380  29.324  30.971  1.00  0.00     0.167 HD
ATOM     47  C   UNL A   1      43.329  27.964  33.815  1.00  0.00     0.037 A 
ATOM     48  C   UNL A   1      38.094  30.769  30.245  1.00  0.00     0.037 A 
ATOM     49  C   UNL A   1      42.526  28.893  34.566  1.00  0.00     0.049 A 
ATOM     50  C   UNL A   1      38.285  31.056  31.716  1.00  0.00     0.074 A 
ATOM     51  C   UNL A   1      42.686  29.303  35.878  1.00  0.00     0.029 A 
ATOM     52  N   UNL A   1      41.406  29.547  34.077  1.00  0.00    -0.354 N 
ATOM     53  N   UNL A   1      39.231  30.649  32.525  1.00  0.00    -0.248 NA
ATOM     54  C   UNL A   1      37.289  31.929  32.361  1.00  0.00     0.031 C 
ATOM     55  C   UNL A   1      41.629  30.158  36.203  1.00  0.00     0.029 A 
ATOM     56  C   UNL A   1      40.847  30.333  35.075  1.00  0.00     0.049 A 
ATOM     57  H   UNL A   1      41.058  29.467  33.160  1.00  0.00     0.167 HD
ATOM     58  C   UNL A   1      38.973  31.251  33.754  1.00  0.00     0.074 A 
ATOM     59  C   UNL A   1      37.781  32.051  33.586  1.00  0.00     0.031 C 
ATOM     60  C   UNL A   1      39.673  31.151  34.910  1.00  0.00     0.037 A 
BRANCH  47  61
ATOM     61  C   UNL A   1      44.471  27.292  34.519  1.00  0.00     0.064 A 
ATOM     62  C   UNL A   1      45.752  27.864  34.559  1.00  0.00     0.173 A 
ATOM     63  C   UNL A   1      44.277  26.066  35.173  1.00  0.00     0.173 A 
ATOM     64  F   UNL A   1      45.992  29.029  33.938  1.00  0.00    -0.203 F 
ATOM     65  C   UNL A   1      46.806  27.213  35.194  1.00  0.00     0.198 A 
ATOM     66  C   UNL A   1      45.326  25.436  35.836  1.00  0.00     0.198 A 
ATOM     67  F   UNL A   1      43.071  25.481  35.171  1.00  0.00    -0.203 F 
ATOM     68  F   UNL A   1      48.035  27.746  35.165  1.00  0.00    -0.200 F 
ATOM     69  C   UNL A   1      46.591  26.003  35.836  1.00  0.00     0.200 A 
ATOM     70  F   UNL A   1      45.113  24.273  36.469  1.00  0.00    -0.200 F 
ATOM     71  F   UNL A   1      47.606  25.378  36.447  1.00  0.00    -0.200 F 
ENDBRANCH  47  61
BRANCH  48  72
ATOM     72  C   UNL A   1      36.946  31.379  29.519  1.00  0.00     0.064 A 
ATOM     73  C   UNL A   1      35.862  30.599  29.092  1.00  0.00     0.173 A 
ATOM     74  C   UNL A   1      36.936  32.743  29.191  1.00  0.00     0.173 A 
ATOM     75  F   UNL A   1      35.841  29.283  29.351  1.00  0.00    -0.203 F 
ATOM     76  C   UNL A   1      34.823  31.153  28.346  1.00  0.00     0.198 A 
ATOM     77  C   UNL A   1      35.883  33.302  28.469  1.00  0.00     0.198 A 
ATOM     78  F   UNL A   1      37.952  33.530  29.569  1.00  0.00    -0.203 F 
ATOM     79  F   UNL A   1      33.829  30.373  27.902  1.00  0.00    -0.200 F 
ATOM     80  C   UNL A   1      34.833  32.505  28.039  1.00  0.00     0.200 A 
ATOM     81  F   UNL A   1      35.893  34.611  28.180  1.00  0.00    -0.200 F 
ATOM     82  F   UNL A   1      33.837  33.038  27.318  1.00  0.00    -0.200 F 
ENDBRANCH  48  72
BRANCH  60  83
ATOM     83  C   UNL A   1      39.217  31.969  36.089  1.00  0.00     0.064 A 
ATOM     84  C   UNL A   1      39.691  33.268  36.322  1.00  0.00     0.173 A 
ATOM     85  C   UNL A   1      38.239  31.466  36.962  1.00  0.00     0.173 A 
ATOM     86  F   UNL A   1      40.634  33.796  35.527  1.00  0.00    -0.203 F 
ATOM     87  C   UNL A   1      39.218  34.023  37.394  1.00  0.00     0.198 A 
ATOM     88  C   UNL A   1      37.746  32.234  38.013  1.00  0.00     0.198 A 
ATOM     89  F   UNL A   1      37.744  30.231  36.784  1.00  0.00    -0.203 F 
ATOM     90  F   UNL A   1      39.716  35.248  37.620  1.00  0.00    -0.200 F 
ATOM     91  C   UNL A   1      38.240  33.510  38.232  1.00  0.00     0.200 A 
ATOM     92  F   UNL A   1      36.787  31.742  38.811  1.00  0.00    -0.200 F 
ATOM     93  F   UNL A   1      37.775  34.246  39.252  1.00  0.00    -0.200 F 
ENDBRANCH  60  83
ENDBRANCH  34  35
ENDBRANCH  27  29
ENDBRANCH  26  27
ENDBRANCH  25  26
ENDBRANCH   1  25
TORSDOF 14
ENDMDL
