MODEL 1
REMARK VINA RESULT:     -14.4      0.000      0.000
REMARK SMILES Cc1cccc(CC(=O)N2CCC3(CCC(=O)N([C@H](C)C(=O)OCCOC(=O)c4ccc(-c5c6nc(c(-c7c(F)c(F)c(F)c(F)c7F)c7ccc([nH]7)c(-c7c(F)c(F)c(F)c(F)c7F)c7nc(c(-c8c(F)c(F)c(F)c(F)c8F)c8ccc5[nH]8)C=C7)C=C6)cc4)C3)CC2)c1
REMARK SMILES IDX 24 1 23 2 21 3 22 4 19 5 20 6 18 7 8 8 9 9 10 10 11 11 94 12
REMARK SMILES IDX 12 13 93 14 13 15 14 16 92 17 15 18 16 19 17 20 7 21 6 22
REMARK SMILES IDX 1 23 2 24 3 25 95 26 4 27 5 28 25 29 26 30 27 31 28 32 29 33
REMARK SMILES IDX 30 34 91 35 31 36 90 37 32 38 33 39 34 40 84 41 35 42 89 43
REMARK SMILES IDX 83 44 85 45 36 46 88 47 82 48 81 49 37 51 69 52 49 53 68 54
REMARK SMILES IDX 50 55 53 56 67 57 86 58 51 59 52 60 66 62 87 63 54 64 38 65
REMARK SMILES IDX 39 66 47 67 40 68 41 69 45 70 48 71 42 72 43 73 46 74 44 75
REMARK SMILES IDX 70 76 71 77 79 78 72 79 73 80 77 81 80 82 74 83 75 84 78 85
REMARK SMILES IDX 76 86 55 87 56 88 64 89 57 90 58 91 62 92 65 93 59 94 60 95
REMARK SMILES IDX 63 96 61 97
REMARK H PARENT 85 50 53 61
REMARK Flexibility Score: inf
ROOT
ATOM      1  C   UNL A   1      37.248  22.248  25.423  1.00  0.00     0.274 C 
ENDROOT
BRANCH   1   2
ATOM      2  O   UNL A   1      35.867  22.031  25.117  1.00  0.00    -0.461 OA
BRANCH   2   3
ATOM      3  C   UNL A   1      35.459  20.761  25.384  1.00  0.00     0.328 C 
ATOM      4  O   UNL A   1      36.068  19.767  25.000  1.00  0.00    -0.250 OA
BRANCH   3   5
ATOM      5  C   UNL A   1      34.029  20.743  25.968  1.00  0.00     0.192 C 
ATOM      6  C   UNL A   1      34.014  21.584  27.239  1.00  0.00     0.044 C 
BRANCH   5   7
ATOM      7  N   UNL A   1      32.871  21.034  25.090  1.00  0.00    -0.329 N 
ATOM      8  C   UNL A   1      33.017  27.026  22.358  1.00  0.00     0.226 C 
ATOM      9  O   UNL A   1      34.004  27.152  21.624  1.00  0.00    -0.275 OA
ATOM     10  N   UNL A   1      32.586  25.768  22.777  1.00  0.00    -0.342 N 
ATOM     11  C   UNL A   1      33.453  24.636  22.491  1.00  0.00     0.120 C 
ATOM     12  C   UNL A   1      31.215  25.421  23.151  1.00  0.00     0.120 C 
ATOM     13  C   UNL A   1      33.442  23.647  23.646  1.00  0.00     0.030 C 
ATOM     14  C   UNL A   1      31.144  24.385  24.278  1.00  0.00     0.030 C 
ATOM     15  C   UNL A   1      32.030  23.144  24.020  1.00  0.00    -0.008 C 
ATOM     16  C   UNL A   1      31.387  22.250  22.943  1.00  0.00     0.019 C 
ATOM     17  C   UNL A   1      32.114  22.273  25.290  1.00  0.00     0.127 C 
ATOM     18  C   UNL A   1      32.160  20.963  22.714  1.00  0.00     0.101 C 
ATOM     19  C   UNL A   1      32.713  20.272  23.947  1.00  0.00     0.223 C 
ATOM     20  O   UNL A   1      33.121  19.114  23.873  1.00  0.00    -0.275 OA
BRANCH   8  21
ATOM     21  C   UNL A   1      32.374  28.277  22.942  1.00  0.00     0.135 C 
BRANCH  21  22
ATOM     22  C   UNL A   1      32.707  28.604  24.372  1.00  0.00    -0.038 A 
ATOM     23  C   UNL A   1      31.802  31.324  26.882  1.00  0.00     0.044 C 
ATOM     24  C   UNL A   1      32.421  30.099  26.277  1.00  0.00    -0.051 A 
ATOM     25  C   UNL A   1      33.404  29.383  26.967  1.00  0.00     0.003 A 
ATOM     26  C   UNL A   1      32.054  29.680  24.997  1.00  0.00     0.007 A 
ATOM     27  C   UNL A   1      34.013  28.271  26.380  1.00  0.00     0.001 A 
ATOM     28  C   UNL A   1      33.670  27.882  25.085  1.00  0.00     0.004 A 
ENDBRANCH  21  22
ENDBRANCH   8  21
ENDBRANCH   5   7
ENDBRANCH   3   5
ENDBRANCH   2   3
ENDBRANCH   1   2
BRANCH   1  29
ATOM     29  C   UNL A   1      37.661  23.734  25.586  1.00  0.00     0.275 C 
BRANCH  29  30
ATOM     30  O   UNL A   1      38.386  24.161  26.788  1.00  0.00    -0.458 OA
BRANCH  30  31
ATOM     31  C   UNL A   1      39.680  24.530  26.998  1.00  0.00     0.338 C 
ATOM     32  O   UNL A   1      40.621  23.919  26.503  1.00  0.00    -0.246 OA
BRANCH  31  33
ATOM     33  C   UNL A   1      39.922  25.834  27.633  1.00  0.00     0.060 A 
ATOM     34  C   UNL A   1      40.200  26.969  26.846  1.00  0.00     0.016 A 
ATOM     35  C   UNL A   1      39.658  25.967  28.976  1.00  0.00     0.016 A 
ATOM     36  C   UNL A   1      39.992  28.244  27.380  1.00  0.00     0.010 A 
ATOM     37  C   UNL A   1      39.203  27.181  29.407  1.00  0.00     0.010 A 
ATOM     38  C   UNL A   1      39.402  28.334  28.640  1.00  0.00    -0.014 A 
BRANCH  38  39
ATOM     39  C   UNL A   1      39.180  29.553  29.404  1.00  0.00     0.031 A 
ATOM     40  C   UNL A   1      38.136  30.540  29.115  1.00  0.00     0.074 A 
ATOM     41  C   UNL A   1      39.940  29.640  30.516  1.00  0.00     0.049 A 
ATOM     42  N   UNL A   1      38.344  31.813  29.099  1.00  0.00    -0.248 NA
ATOM     43  C   UNL A   1      36.740  30.167  28.891  1.00  0.00     0.031 C 
ATOM     44  C   UNL A   1      39.913  30.583  31.612  1.00  0.00     0.029 A 
ATOM     45  N   UNL A   1      41.031  28.811  30.809  1.00  0.00    -0.354 N 
ATOM     46  C   UNL A   1      37.104  32.406  29.206  1.00  0.00     0.074 A 
ATOM     47  C   UNL A   1      36.139  31.366  28.914  1.00  0.00     0.031 C 
ATOM     48  C   UNL A   1      41.087  30.489  32.271  1.00  0.00     0.029 A 
ATOM     49  C   UNL A   1      41.943  29.542  31.563  1.00  0.00     0.049 A 
ATOM     50  H   UNL A   1      41.134  27.872  30.529  1.00  0.00     0.167 HD
ATOM     51  C   UNL A   1      36.970  33.636  29.785  1.00  0.00     0.037 A 
ATOM     52  C   UNL A   1      43.155  29.769  30.978  1.00  0.00     0.037 A 
ATOM     53  C   UNL A   1      38.224  34.053  30.407  1.00  0.00     0.049 A 
ATOM     54  C   UNL A   1      43.273  31.196  30.508  1.00  0.00     0.074 A 
ATOM     55  C   UNL A   1      38.661  33.939  31.718  1.00  0.00     0.029 A 
ATOM     56  N   UNL A   1      39.362  34.279  29.637  1.00  0.00    -0.354 N 
ATOM     57  N   UNL A   1      42.271  32.031  30.483  1.00  0.00    -0.248 NA
ATOM     58  C   UNL A   1      44.508  31.792  30.015  1.00  0.00     0.031 C 
ATOM     59  C   UNL A   1      40.075  33.989  31.720  1.00  0.00     0.029 A 
ATOM     60  C   UNL A   1      40.504  34.160  30.417  1.00  0.00     0.049 A 
ATOM     61  H   UNL A   1      39.358  34.491  28.677  1.00  0.00     0.167 HD
ATOM     62  C   UNL A   1      42.684  33.231  29.990  1.00  0.00     0.074 A 
ATOM     63  C   UNL A   1      44.101  33.043  29.730  1.00  0.00     0.031 C 
ATOM     64  C   UNL A   1      41.829  34.283  29.832  1.00  0.00     0.037 A 
BRANCH  51  65
ATOM     65  C   UNL A   1      35.620  34.240  30.093  1.00  0.00     0.064 A 
ATOM     66  C   UNL A   1      34.794  34.797  29.094  1.00  0.00     0.173 A 
ATOM     67  C   UNL A   1      35.092  34.276  31.399  1.00  0.00     0.173 A 
ATOM     68  F   UNL A   1      35.149  34.788  27.804  1.00  0.00    -0.203 F 
ATOM     69  C   UNL A   1      33.569  35.403  29.386  1.00  0.00     0.198 A 
ATOM     70  C   UNL A   1      33.874  34.901  31.693  1.00  0.00     0.198 A 
ATOM     71  F   UNL A   1      35.753  33.700  32.416  1.00  0.00    -0.203 F 
ATOM     72  F   UNL A   1      32.835  35.931  28.395  1.00  0.00    -0.200 F 
ATOM     73  C   UNL A   1      33.116  35.471  30.687  1.00  0.00     0.200 A 
ATOM     74  F   UNL A   1      33.441  34.955  32.962  1.00  0.00    -0.200 F 
ATOM     75  F   UNL A   1      31.953  36.074  30.968  1.00  0.00    -0.200 F 
ENDBRANCH  51  65
BRANCH  52  76
ATOM     76  C   UNL A   1      43.656  28.547  30.253  1.00  0.00     0.064 A 
ATOM     77  C   UNL A   1      44.001  27.429  31.047  1.00  0.00     0.173 A 
ATOM     78  C   UNL A   1      43.403  28.304  28.894  1.00  0.00     0.173 A 
ATOM     79  F   UNL A   1      44.257  27.595  32.355  1.00  0.00    -0.203 F 
ATOM     80  C   UNL A   1      43.938  26.128  30.551  1.00  0.00     0.198 A 
ATOM     81  C   UNL A   1      43.380  26.995  28.391  1.00  0.00     0.198 A 
ATOM     82  F   UNL A   1      43.073  29.309  28.073  1.00  0.00    -0.203 F 
ATOM     83  F   UNL A   1      44.113  25.087  31.379  1.00  0.00    -0.200 F 
ATOM     84  C   UNL A   1      43.597  25.909  29.229  1.00  0.00     0.200 A 
ATOM     85  F   UNL A   1      43.064  26.778  27.105  1.00  0.00    -0.200 F 
ATOM     86  F   UNL A   1      43.430  24.657  28.779  1.00  0.00    -0.200 F 
ENDBRANCH  52  76
BRANCH  64  87
ATOM     87  C   UNL A   1      42.221  35.582  29.207  1.00  0.00     0.064 A 
ATOM     88  C   UNL A   1      41.697  36.039  27.992  1.00  0.00     0.173 A 
ATOM     89  C   UNL A   1      43.078  36.465  29.900  1.00  0.00     0.173 A 
ATOM     90  F   UNL A   1      40.785  35.322  27.319  1.00  0.00    -0.203 F 
ATOM     91  C   UNL A   1      42.072  37.271  27.459  1.00  0.00     0.198 A 
ATOM     92  C   UNL A   1      43.403  37.717  29.393  1.00  0.00     0.198 A 
ATOM     93  F   UNL A   1      43.602  36.138  31.091  1.00  0.00    -0.203 F 
ATOM     94  F   UNL A   1      41.593  37.649  26.266  1.00  0.00    -0.200 F 
ATOM     95  C   UNL A   1      42.919  38.111  28.162  1.00  0.00     0.200 A 
ATOM     96  F   UNL A   1      44.178  38.543  30.109  1.00  0.00    -0.200 F 
ATOM     97  F   UNL A   1      43.253  39.306  27.659  1.00  0.00    -0.200 F 
ENDBRANCH  64  87
ENDBRANCH  38  39
ENDBRANCH  31  33
ENDBRANCH  30  31
ENDBRANCH  29  30
ENDBRANCH   1  29
TORSDOF 14
ENDMDL
MODEL 2
REMARK VINA RESULT:     -14.3      3.423     10.251
REMARK SMILES Cc1cccc(CC(=O)N2CCC3(CCC(=O)N([C@H](C)C(=O)OCCOC(=O)c4ccc(-c5c6nc(c(-c7c(F)c(F)c(F)c(F)c7F)c7ccc([nH]7)c(-c7c(F)c(F)c(F)c(F)c7F)c7nc(c(-c8c(F)c(F)c(F)c(F)c8F)c8ccc5[nH]8)C=C7)C=C6)cc4)C3)CC2)c1
REMARK SMILES IDX 24 1 23 2 21 3 22 4 19 5 20 6 18 7 8 8 9 9 10 10 11 11 94 12
REMARK SMILES IDX 12 13 93 14 13 15 14 16 92 17 15 18 16 19 17 20 7 21 6 22
REMARK SMILES IDX 1 23 2 24 3 25 95 26 4 27 5 28 25 29 26 30 27 31 28 32 29 33
REMARK SMILES IDX 30 34 91 35 31 36 90 37 32 38 33 39 34 40 84 41 35 42 89 43
REMARK SMILES IDX 83 44 85 45 36 46 88 47 82 48 81 49 37 51 69 52 49 53 68 54
REMARK SMILES IDX 50 55 53 56 67 57 86 58 51 59 52 60 66 62 87 63 54 64 38 65
REMARK SMILES IDX 39 66 47 67 40 68 41 69 45 70 48 71 42 72 43 73 46 74 44 75
REMARK SMILES IDX 70 76 71 77 79 78 72 79 73 80 77 81 80 82 74 83 75 84 78 85
REMARK SMILES IDX 76 86 55 87 56 88 64 89 57 90 58 91 62 92 65 93 59 94 60 95
REMARK SMILES IDX 63 96 61 97
REMARK H PARENT 85 50 53 61
REMARK Flexibility Score: inf
ROOT
ATOM      1  C   UNL A   1      32.979  29.069  27.247  1.00  0.00     0.274 C 
ENDROOT
BRANCH   1   2
ATOM      2  O   UNL A   1      32.127  28.665  26.171  1.00  0.00    -0.461 OA
BRANCH   2   3
ATOM      3  C   UNL A   1      31.944  29.643  25.244  1.00  0.00     0.328 C 
ATOM      4  O   UNL A   1      31.516  30.759  25.524  1.00  0.00    -0.250 OA
BRANCH   3   5
ATOM      5  C   UNL A   1      32.073  29.087  23.810  1.00  0.00     0.192 C 
ATOM      6  C   UNL A   1      33.553  28.930  23.482  1.00  0.00     0.044 C 
BRANCH   5   7
ATOM      7  N   UNL A   1      31.280  27.902  23.405  1.00  0.00    -0.329 N 
ATOM      8  C   UNL A   1      32.552  22.491  26.939  1.00  0.00     0.226 C 
ATOM      9  O   UNL A   1      32.267  22.664  28.129  1.00  0.00    -0.275 OA
ATOM     10  N   UNL A   1      32.072  23.349  25.950  1.00  0.00    -0.342 N 
ATOM     11  C   UNL A   1      31.400  24.562  26.387  1.00  0.00     0.120 C 
ATOM     12  C   UNL A   1      31.859  22.993  24.547  1.00  0.00     0.120 C 
ATOM     13  C   UNL A   1      31.750  25.727  25.475  1.00  0.00     0.030 C 
ATOM     14  C   UNL A   1      32.146  24.149  23.584  1.00  0.00     0.030 C 
ATOM     15  C   UNL A   1      31.440  25.464  23.984  1.00  0.00    -0.008 C 
ATOM     16  C   UNL A   1      29.934  25.371  23.673  1.00  0.00     0.019 C 
ATOM     17  C   UNL A   1      31.970  26.637  23.134  1.00  0.00     0.127 C 
ATOM     18  C   UNL A   1      29.198  26.669  23.954  1.00  0.00     0.101 C 
ATOM     19  C   UNL A   1      29.907  27.952  23.561  1.00  0.00     0.223 C 
ATOM     20  O   UNL A   1      29.284  29.012  23.518  1.00  0.00    -0.275 OA
BRANCH   8  21
ATOM     21  C   UNL A   1      33.578  21.425  26.580  1.00  0.00     0.135 C 
BRANCH  21  22
ATOM     22  C   UNL A   1      34.929  21.910  26.128  1.00  0.00    -0.038 A 
ATOM     23  C   UNL A   1      38.149  20.345  24.828  1.00  0.00     0.044 C 
ATOM     24  C   UNL A   1      37.149  21.366  25.280  1.00  0.00    -0.051 A 
ATOM     25  C   UNL A   1      37.519  22.706  25.435  1.00  0.00     0.003 A 
ATOM     26  C   UNL A   1      35.843  20.986  25.594  1.00  0.00     0.007 A 
ATOM     27  C   UNL A   1      36.597  23.645  25.904  1.00  0.00     0.001 A 
ATOM     28  C   UNL A   1      35.306  23.251  26.253  1.00  0.00     0.004 A 
ENDBRANCH  21  22
ENDBRANCH   8  21
ENDBRANCH   5   7
ENDBRANCH   3   5
ENDBRANCH   2   3
ENDBRANCH   1   2
BRANCH   1  29
ATOM     29  C   UNL A   1      34.479  28.716  27.067  1.00  0.00     0.275 C 
BRANCH  29  30
ATOM     30  O   UNL A   1      35.504  29.730  27.339  1.00  0.00    -0.458 OA
BRANCH  30  31
ATOM     31  C   UNL A   1      36.133  30.117  28.484  1.00  0.00     0.338 C 
ATOM     32  O   UNL A   1      35.552  30.733  29.371  1.00  0.00    -0.246 OA
BRANCH  31  33
ATOM     33  C   UNL A   1      37.468  29.560  28.749  1.00  0.00     0.060 A 
ATOM     34  C   UNL A   1      37.659  28.630  29.789  1.00  0.00     0.016 A 
ATOM     35  C   UNL A   1      38.467  29.795  27.833  1.00  0.00     0.016 A 
ATOM     36  C   UNL A   1      38.775  27.789  29.763  1.00  0.00     0.010 A 
ATOM     37  C   UNL A   1      39.400  28.812  27.660  1.00  0.00     0.010 A 
ATOM     38  C   UNL A   1      39.595  27.829  28.636  1.00  0.00    -0.014 A 
BRANCH  38  39
ATOM     39  C   UNL A   1      40.842  27.102  28.451  1.00  0.00     0.031 A 
ATOM     40  C   UNL A   1      40.937  25.673  28.140  1.00  0.00     0.074 A 
ATOM     41  C   UNL A   1      41.934  27.896  28.447  1.00  0.00     0.049 A 
ATOM     42  N   UNL A   1      41.753  24.868  28.732  1.00  0.00    -0.248 NA
ATOM     43  C   UNL A   1      40.160  25.045  27.073  1.00  0.00     0.031 C 
ATOM     44  C   UNL A   1      43.317  27.606  28.135  1.00  0.00     0.029 A 
ATOM     45  N   UNL A   1      41.951  29.240  28.843  1.00  0.00    -0.354 N 
ATOM     46  C   UNL A   1      41.852  23.757  27.923  1.00  0.00     0.074 A 
ATOM     47  C   UNL A   1      40.738  23.837  27.000  1.00  0.00     0.031 C 
ATOM     48  C   UNL A   1      44.074  28.602  28.638  1.00  0.00     0.029 A 
ATOM     49  C   UNL A   1      43.208  29.523  29.368  1.00  0.00     0.049 A 
ATOM     50  H   UNL A   1      41.202  29.874  28.764  1.00  0.00     0.167 HD
ATOM     51  C   UNL A   1      42.992  23.005  27.909  1.00  0.00     0.037 A 
ATOM     52  C   UNL A   1      43.242  29.848  30.693  1.00  0.00     0.037 A 
ATOM     53  C   UNL A   1      44.054  23.666  28.664  1.00  0.00     0.049 A 
ATOM     54  C   UNL A   1      43.788  28.710  31.518  1.00  0.00     0.074 A 
ATOM     55  C   UNL A   1      45.084  24.490  28.237  1.00  0.00     0.029 A 
ATOM     56  N   UNL A   1      43.929  23.880  30.034  1.00  0.00    -0.354 N 
ATOM     57  N   UNL A   1      44.000  27.514  31.043  1.00  0.00    -0.248 NA
ATOM     58  C   UNL A   1      44.121  28.816  32.932  1.00  0.00     0.031 C 
ATOM     59  C   UNL A   1      45.505  25.279  29.333  1.00  0.00     0.029 A 
ATOM     60  C   UNL A   1      44.754  24.921  30.437  1.00  0.00     0.049 A 
ATOM     61  H   UNL A   1      43.340  23.367  30.632  1.00  0.00     0.167 HD
ATOM     62  C   UNL A   1      44.472  26.704  32.031  1.00  0.00     0.074 A 
ATOM     63  C   UNL A   1      44.554  27.569  33.194  1.00  0.00     0.031 C 
ATOM     64  C   UNL A   1      44.756  25.387  31.814  1.00  0.00     0.037 A 
BRANCH  51  65
ATOM     65  C   UNL A   1      43.216  21.896  26.909  1.00  0.00     0.064 A 
ATOM     66  C   UNL A   1      42.519  20.671  26.966  1.00  0.00     0.173 A 
ATOM     67  C   UNL A   1      44.130  22.018  25.843  1.00  0.00     0.173 A 
ATOM     68  F   UNL A   1      41.587  20.438  27.898  1.00  0.00    -0.203 F 
ATOM     69  C   UNL A   1      42.764  19.626  26.072  1.00  0.00     0.198 A 
ATOM     70  C   UNL A   1      44.390  20.963  24.960  1.00  0.00     0.198 A 
ATOM     71  F   UNL A   1      44.789  23.171  25.640  1.00  0.00    -0.203 F 
ATOM     72  F   UNL A   1      42.081  18.478  26.188  1.00  0.00    -0.200 F 
ATOM     73  C   UNL A   1      43.712  19.764  25.079  1.00  0.00     0.200 A 
ATOM     74  F   UNL A   1      45.309  21.112  23.994  1.00  0.00    -0.200 F 
ATOM     75  F   UNL A   1      43.963  18.752  24.238  1.00  0.00    -0.200 F 
ENDBRANCH  51  65
BRANCH  52  76
ATOM     76  C   UNL A   1      42.098  30.753  31.070  1.00  0.00     0.064 A 
ATOM     77  C   UNL A   1      42.103  32.054  30.513  1.00  0.00     0.173 A 
ATOM     78  C   UNL A   1      40.871  30.277  31.556  1.00  0.00     0.173 A 
ATOM     79  F   UNL A   1      43.246  32.568  30.032  1.00  0.00    -0.203 F 
ATOM     80  C   UNL A   1      40.923  32.768  30.307  1.00  0.00     0.198 A 
ATOM     81  C   UNL A   1      39.693  31.019  31.382  1.00  0.00     0.198 A 
ATOM     82  F   UNL A   1      40.782  29.057  32.100  1.00  0.00    -0.203 F 
ATOM     83  F   UNL A   1      40.953  33.925  29.629  1.00  0.00    -0.200 F 
ATOM     84  C   UNL A   1      39.715  32.237  30.715  1.00  0.00     0.200 A 
ATOM     85  F   UNL A   1      38.519  30.514  31.788  1.00  0.00    -0.200 F 
ATOM     86  F   UNL A   1      38.571  32.872  30.420  1.00  0.00    -0.200 F 
ENDBRANCH  52  76
BRANCH  64  87
ATOM     87  C   UNL A   1      45.185  24.445  32.891  1.00  0.00     0.064 A 
ATOM     88  C   UNL A   1      44.409  23.360  33.316  1.00  0.00     0.173 A 
ATOM     89  C   UNL A   1      46.474  24.561  33.454  1.00  0.00     0.173 A 
ATOM     90  F   UNL A   1      43.219  23.098  32.754  1.00  0.00    -0.203 F 
ATOM     91  C   UNL A   1      44.860  22.490  34.307  1.00  0.00     0.198 A 
ATOM     92  C   UNL A   1      46.944  23.656  34.400  1.00  0.00     0.198 A 
ATOM     93  F   UNL A   1      47.311  25.542  33.086  1.00  0.00    -0.203 F 
ATOM     94  F   UNL A   1      44.065  21.496  34.728  1.00  0.00    -0.200 F 
ATOM     95  C   UNL A   1      46.128  22.635  34.843  1.00  0.00     0.200 A 
ATOM     96  F   UNL A   1      48.193  23.775  34.869  1.00  0.00    -0.200 F 
ATOM     97  F   UNL A   1      46.568  21.779  35.773  1.00  0.00    -0.200 F 
ENDBRANCH  64  87
ENDBRANCH  38  39
ENDBRANCH  31  33
ENDBRANCH  30  31
ENDBRANCH  29  30
ENDBRANCH   1  29
TORSDOF 14
ENDMDL
MODEL 3
REMARK VINA RESULT:     -13.9      3.731     10.238
REMARK SMILES Cc1cccc(CC(=O)N2CCC3(CCC(=O)N([C@H](C)C(=O)OCCOC(=O)c4ccc(-c5c6nc(c(-c7c(F)c(F)c(F)c(F)c7F)c7ccc([nH]7)c(-c7c(F)c(F)c(F)c(F)c7F)c7nc(c(-c8c(F)c(F)c(F)c(F)c8F)c8ccc5[nH]8)C=C7)C=C6)cc4)C3)CC2)c1
REMARK SMILES IDX 24 1 23 2 21 3 22 4 19 5 20 6 18 7 8 8 9 9 10 10 11 11 94 12
REMARK SMILES IDX 12 13 93 14 13 15 14 16 92 17 15 18 16 19 17 20 7 21 6 22
REMARK SMILES IDX 1 23 2 24 3 25 95 26 4 27 5 28 25 29 26 30 27 31 28 32 29 33
REMARK SMILES IDX 30 34 91 35 31 36 90 37 32 38 33 39 34 40 84 41 35 42 89 43
REMARK SMILES IDX 83 44 85 45 36 46 88 47 82 48 81 49 37 51 69 52 49 53 68 54
REMARK SMILES IDX 50 55 53 56 67 57 86 58 51 59 52 60 66 62 87 63 54 64 38 65
REMARK SMILES IDX 39 66 47 67 40 68 41 69 45 70 48 71 42 72 43 73 46 74 44 75
REMARK SMILES IDX 70 76 71 77 79 78 72 79 73 80 77 81 80 82 74 83 75 84 78 85
REMARK SMILES IDX 76 86 55 87 56 88 64 89 57 90 58 91 62 92 65 93 59 94 60 95
REMARK SMILES IDX 63 96 61 97
REMARK H PARENT 85 50 53 61
REMARK Flexibility Score: inf
ROOT
ATOM      1  C   UNL A   1      32.909  28.932  27.023  1.00  0.00     0.274 C 
ENDROOT
BRANCH   1   2
ATOM      2  O   UNL A   1      32.579  28.401  25.736  1.00  0.00    -0.461 OA
BRANCH   2   3
ATOM      3  C   UNL A   1      31.999  29.319  24.917  1.00  0.00     0.328 C 
ATOM      4  O   UNL A   1      31.401  30.306  25.335  1.00  0.00    -0.250 OA
BRANCH   3   5
ATOM      5  C   UNL A   1      31.952  28.818  23.457  1.00  0.00     0.192 C 
ATOM      6  C   UNL A   1      33.374  28.798  22.906  1.00  0.00     0.044 C 
BRANCH   5   7
ATOM      7  N   UNL A   1      31.206  27.581  23.126  1.00  0.00    -0.329 N 
ATOM      8  C   UNL A   1      32.597  22.476  27.048  1.00  0.00     0.226 C 
ATOM      9  O   UNL A   1      32.287  22.722  28.220  1.00  0.00    -0.275 OA
ATOM     10  N   UNL A   1      32.105  23.246  25.995  1.00  0.00    -0.342 N 
ATOM     11  C   UNL A   1      31.387  24.464  26.337  1.00  0.00     0.120 C 
ATOM     12  C   UNL A   1      31.926  22.786  24.618  1.00  0.00     0.120 C 
ATOM     13  C   UNL A   1      31.713  25.573  25.350  1.00  0.00     0.030 C 
ATOM     14  C   UNL A   1      32.191  23.881  23.580  1.00  0.00     0.030 C 
ATOM     15  C   UNL A   1      31.435  25.197  23.877  1.00  0.00    -0.008 C 
ATOM     16  C   UNL A   1      29.939  25.031  23.554  1.00  0.00     0.019 C 
ATOM     17  C   UNL A   1      31.940  26.325  22.954  1.00  0.00     0.127 C 
ATOM     18  C   UNL A   1      29.156  26.321  23.732  1.00  0.00     0.101 C 
ATOM     19  C   UNL A   1      29.830  27.596  23.260  1.00  0.00     0.223 C 
ATOM     20  O   UNL A   1      29.173  28.629  23.134  1.00  0.00    -0.275 OA
BRANCH   8  21
ATOM     21  C   UNL A   1      33.663  21.422  26.779  1.00  0.00     0.135 C 
BRANCH  21  22
ATOM     22  C   UNL A   1      34.982  21.914  26.250  1.00  0.00    -0.038 A 
ATOM     23  C   UNL A   1      38.122  20.367  24.745  1.00  0.00     0.044 C 
ATOM     24  C   UNL A   1      37.148  21.382  25.265  1.00  0.00    -0.051 A 
ATOM     25  C   UNL A   1      37.524  22.722  25.406  1.00  0.00     0.003 A 
ATOM     26  C   UNL A   1      35.864  20.997  25.654  1.00  0.00     0.007 A 
ATOM     27  C   UNL A   1      36.630  23.656  25.937  1.00  0.00     0.001 A 
ATOM     28  C   UNL A   1      35.363  23.255  26.361  1.00  0.00     0.004 A 
ENDBRANCH  21  22
ENDBRANCH   8  21
ENDBRANCH   5   7
ENDBRANCH   3   5
ENDBRANCH   2   3
ENDBRANCH   1   2
BRANCH   1  29
ATOM     29  C   UNL A   1      34.222  29.756  27.078  1.00  0.00     0.275 C 
BRANCH  29  30
ATOM     30  O   UNL A   1      35.283  29.374  28.016  1.00  0.00    -0.458 OA
BRANCH  30  31
ATOM     31  C   UNL A   1      36.126  30.104  28.798  1.00  0.00     0.338 C 
ATOM     32  O   UNL A   1      35.732  31.044  29.481  1.00  0.00    -0.246 OA
BRANCH  31  33
ATOM     33  C   UNL A   1      37.486  29.585  29.004  1.00  0.00     0.060 A 
ATOM     34  C   UNL A   1      37.765  28.725  30.084  1.00  0.00     0.016 A 
ATOM     35  C   UNL A   1      38.416  29.776  28.009  1.00  0.00     0.016 A 
ATOM     36  C   UNL A   1      38.892  27.901  30.033  1.00  0.00     0.010 A 
ATOM     37  C   UNL A   1      39.353  28.799  27.833  1.00  0.00     0.010 A 
ATOM     38  C   UNL A   1      39.633  27.881  28.852  1.00  0.00    -0.014 A 
BRANCH  38  39
ATOM     39  C   UNL A   1      40.878  27.163  28.626  1.00  0.00     0.031 A 
ATOM     40  C   UNL A   1      40.971  25.738  28.299  1.00  0.00     0.074 A 
ATOM     41  C   UNL A   1      41.966  27.962  28.601  1.00  0.00     0.049 A 
ATOM     42  N   UNL A   1      41.808  24.931  28.861  1.00  0.00    -0.248 NA
ATOM     43  C   UNL A   1      40.169  25.116  27.247  1.00  0.00     0.031 C 
ATOM     44  C   UNL A   1      43.341  27.682  28.249  1.00  0.00     0.029 A 
ATOM     45  N   UNL A   1      41.987  29.302  29.010  1.00  0.00    -0.354 N 
ATOM     46  C   UNL A   1      41.889  23.828  28.038  1.00  0.00     0.074 A 
ATOM     47  C   UNL A   1      40.751  23.912  27.146  1.00  0.00     0.031 C 
ATOM     48  C   UNL A   1      44.107  28.678  28.741  1.00  0.00     0.029 A 
ATOM     49  C   UNL A   1      43.256  29.587  29.503  1.00  0.00     0.049 A 
ATOM     50  H   UNL A   1      41.233  29.933  28.957  1.00  0.00     0.167 HD
ATOM     51  C   UNL A   1      43.032  23.083  27.987  1.00  0.00     0.037 A 
ATOM     52  C   UNL A   1      43.324  29.899  30.830  1.00  0.00     0.037 A 
ATOM     53  C   UNL A   1      44.111  23.741  28.719  1.00  0.00     0.049 A 
ATOM     54  C   UNL A   1      43.898  28.757  31.628  1.00  0.00     0.074 A 
ATOM     55  C   UNL A   1      45.125  24.575  28.272  1.00  0.00     0.029 A 
ATOM     56  N   UNL A   1      44.023  23.942  30.094  1.00  0.00    -0.354 N 
ATOM     57  N   UNL A   1      44.102  27.566  31.136  1.00  0.00    -0.248 NA
ATOM     58  C   UNL A   1      44.269  28.851  33.034  1.00  0.00     0.031 C 
ATOM     59  C   UNL A   1      45.572  25.356  29.364  1.00  0.00     0.029 A 
ATOM     60  C   UNL A   1      44.853  24.983  30.485  1.00  0.00     0.049 A 
ATOM     61  H   UNL A   1      43.452  23.420  30.702  1.00  0.00     0.167 HD
ATOM     62  C   UNL A   1      44.605  26.749  32.103  1.00  0.00     0.074 A 
ATOM     63  C   UNL A   1      44.714  27.603  33.272  1.00  0.00     0.031 C 
ATOM     64  C   UNL A   1      44.890  25.436  31.866  1.00  0.00     0.037 A 
BRANCH  51  65
ATOM     65  C   UNL A   1      43.235  21.985  26.970  1.00  0.00     0.064 A 
ATOM     66  C   UNL A   1      42.524  20.767  27.017  1.00  0.00     0.173 A 
ATOM     67  C   UNL A   1      44.142  22.110  25.899  1.00  0.00     0.173 A 
ATOM     68  F   UNL A   1      41.597  20.533  27.953  1.00  0.00    -0.203 F 
ATOM     69  C   UNL A   1      42.749  19.731  26.107  1.00  0.00     0.198 A 
ATOM     70  C   UNL A   1      44.382  21.064  24.999  1.00  0.00     0.198 A 
ATOM     71  F   UNL A   1      44.813  23.257  25.705  1.00  0.00    -0.203 F 
ATOM     72  F   UNL A   1      42.053  18.590  26.213  1.00  0.00    -0.200 F 
ATOM     73  C   UNL A   1      43.690  19.871  25.108  1.00  0.00     0.200 A 
ATOM     74  F   UNL A   1      45.295  21.214  24.027  1.00  0.00    -0.200 F 
ATOM     75  F   UNL A   1      43.922  18.867  24.251  1.00  0.00    -0.200 F 
ENDBRANCH  51  65
BRANCH  52  76
ATOM     76  C   UNL A   1      42.187  30.795  31.246  1.00  0.00     0.064 A 
ATOM     77  C   UNL A   1      41.175  30.214  32.046  1.00  0.00     0.173 A 
ATOM     78  C   UNL A   1      42.277  32.194  31.259  1.00  0.00     0.173 A 
ATOM     79  F   UNL A   1      41.034  28.879  32.076  1.00  0.00    -0.203 F 
ATOM     80  C   UNL A   1      40.410  30.974  32.930  1.00  0.00     0.198 A 
ATOM     81  C   UNL A   1      41.477  32.959  32.122  1.00  0.00     0.198 A 
ATOM     82  F   UNL A   1      43.206  32.823  30.527  1.00  0.00    -0.203 F 
ATOM     83  F   UNL A   1      39.578  30.365  33.788  1.00  0.00    -0.200 F 
ATOM     84  C   UNL A   1      40.583  32.344  32.989  1.00  0.00     0.200 A 
ATOM     85  F   UNL A   1      41.631  34.290  32.173  1.00  0.00    -0.200 F 
ATOM     86  F   UNL A   1      39.928  33.062  33.913  1.00  0.00    -0.200 F 
ENDBRANCH  52  76
BRANCH  64  87
ATOM     87  C   UNL A   1      45.352  24.485  32.922  1.00  0.00     0.064 A 
ATOM     88  C   UNL A   1      46.632  24.530  33.488  1.00  0.00     0.173 A 
ATOM     89  C   UNL A   1      44.447  23.553  33.474  1.00  0.00     0.173 A 
ATOM     90  F   UNL A   1      47.523  25.460  33.111  1.00  0.00    -0.203 F 
ATOM     91  C   UNL A   1      47.013  23.639  34.489  1.00  0.00     0.198 A 
ATOM     92  C   UNL A   1      44.813  22.706  34.514  1.00  0.00     0.198 A 
ATOM     93  F   UNL A   1      43.186  23.457  33.029  1.00  0.00    -0.203 F 
ATOM     94  F   UNL A   1      48.265  23.676  34.967  1.00  0.00    -0.200 F 
ATOM     95  C   UNL A   1      46.102  22.733  35.005  1.00  0.00     0.200 A 
ATOM     96  F   UNL A   1      43.906  21.873  35.042  1.00  0.00    -0.200 F 
ATOM     97  F   UNL A   1      46.465  21.900  35.988  1.00  0.00    -0.200 F 
ENDBRANCH  64  87
ENDBRANCH  38  39
ENDBRANCH  31  33
ENDBRANCH  30  31
ENDBRANCH  29  30
ENDBRANCH   1  29
TORSDOF 14
ENDMDL
