MODEL 1
REMARK VINA RESULT:     -12.2      0.000      0.000
REMARK SMILES O=C(OCCOC(=O)[C@@H]1C[N@@H+](CC(=O)c2ccc[nH]2)CC[NH2+]1)c1ccc(-c2c3nc(c(-c4c(F)c(F)c(F)c(F)c4F)c4ccc([nH]4)c(-c4c(F)c(F)c(F)c(F)c4F)c4nc(c(-c5c(F)c(F)c(F)c(F)c5F)c5ccc2[nH]5)C=C4)C=C3)cc1
REMARK SMILES IDX 5 1 4 2 3 3 2 4 1 5 23 6 24 7 85 8 25 9 84 10 26 11 27 12
REMARK SMILES IDX 28 13 78 14 29 15 83 16 77 17 79 18 30 19 82 20 76 21 75 22
REMARK SMILES IDX 31 24 63 25 43 26 62 27 44 28 47 29 61 30 80 31 45 32 46 33
REMARK SMILES IDX 60 35 81 36 48 37 32 38 33 39 41 40 34 41 35 42 39 43 42 44
REMARK SMILES IDX 36 45 37 46 40 47 38 48 64 49 65 50 73 51 66 52 67 53 71 54
REMARK SMILES IDX 74 55 68 56 69 57 72 58 70 59 49 60 50 61 58 62 51 63 52 64
REMARK SMILES IDX 56 65 59 66 53 67 54 68 57 69 55 70 6 71 7 72 8 73 9 74
REMARK SMILES IDX 10 75 22 76 11 77 21 78 20 81 12 83 13 84 14 85 15 86 16 87
REMARK SMILES IDX 19 88 17 89 18 90
REMARK H PARENT 79 23 47 34 22 79 22 80 11 82 19 91
REMARK Flexibility Score: inf
ROOT
ATOM      1  C   UNL A   1      39.425  21.362  25.960  1.00  0.00     0.274 C 
ENDROOT
BRANCH   1   2
ATOM      2  C   UNL A   1      39.910  22.318  27.046  1.00  0.00     0.275 C 
BRANCH   2   3
ATOM      3  O   UNL A   1      40.045  23.712  26.709  1.00  0.00    -0.458 OA
BRANCH   3   4
ATOM      4  C   UNL A   1      39.049  24.620  26.882  1.00  0.00     0.338 C 
ATOM      5  O   UNL A   1      37.898  24.376  26.639  1.00  0.00    -0.246 OA
BRANCH   4   6
ATOM      6  C   UNL A   1      39.422  25.832  27.677  1.00  0.00     0.060 A 
ATOM      7  C   UNL A   1      39.091  26.011  29.022  1.00  0.00     0.016 A 
ATOM      8  C   UNL A   1      40.083  26.864  26.985  1.00  0.00     0.016 A 
ATOM      9  C   UNL A   1      39.341  27.216  29.651  1.00  0.00     0.010 A 
ATOM     10  C   UNL A   1      40.314  28.088  27.603  1.00  0.00     0.010 A 
ATOM     11  C   UNL A   1      39.904  28.264  28.926  1.00  0.00    -0.014 A 
BRANCH  11  12
ATOM     12  C   UNL A   1      40.026  29.555  29.621  1.00  0.00     0.031 A 
ATOM     13  C   UNL A   1      38.773  30.418  29.436  1.00  0.00     0.074 A 
ATOM     14  C   UNL A   1      41.252  29.777  30.191  1.00  0.00     0.049 A 
ATOM     15  N   UNL A   1      38.649  31.707  29.354  1.00  0.00    -0.248 NA
ATOM     16  C   UNL A   1      37.463  29.746  29.224  1.00  0.00     0.031 C 
ATOM     17  C   UNL A   1      42.342  28.775  30.248  1.00  0.00     0.029 A 
ATOM     18  N   UNL A   1      41.853  30.856  30.807  1.00  0.00    -0.354 N 
ATOM     19  C   UNL A   1      37.265  32.001  29.319  1.00  0.00     0.074 A 
ATOM     20  C   UNL A   1      36.600  30.756  29.089  1.00  0.00     0.031 C 
ATOM     21  C   UNL A   1      43.466  29.304  30.774  1.00  0.00     0.029 A 
ATOM     22  C   UNL A   1      43.232  30.687  31.125  1.00  0.00     0.049 A 
ATOM     23  H   UNL A   1      41.363  31.684  31.012  1.00  0.00     0.167 HD
ATOM     24  C   UNL A   1      36.761  33.227  29.660  1.00  0.00     0.037 A 
ATOM     25  C   UNL A   1      44.129  31.614  31.593  1.00  0.00     0.037 A 
ATOM     26  C   UNL A   1      37.836  34.111  29.968  1.00  0.00     0.049 A 
ATOM     27  C   UNL A   1      43.319  32.809  31.864  1.00  0.00     0.074 A 
ATOM     28  C   UNL A   1      38.782  34.723  29.191  1.00  0.00     0.029 A 
ATOM     29  N   UNL A   1      38.235  34.155  31.282  1.00  0.00    -0.354 N 
ATOM     30  N   UNL A   1      42.473  32.915  32.844  1.00  0.00    -0.248 NA
ATOM     31  C   UNL A   1      43.370  33.928  30.917  1.00  0.00     0.031 C 
ATOM     32  C   UNL A   1      39.939  34.673  29.995  1.00  0.00     0.029 A 
ATOM     33  C   UNL A   1      39.600  34.259  31.290  1.00  0.00     0.049 A 
ATOM     34  H   UNL A   1      37.647  34.118  32.072  1.00  0.00     0.167 HD
ATOM     35  C   UNL A   1      41.667  33.943  32.421  1.00  0.00     0.074 A 
ATOM     36  C   UNL A   1      42.431  34.702  31.455  1.00  0.00     0.031 C 
ATOM     37  C   UNL A   1      40.320  33.777  32.446  1.00  0.00     0.037 A 
BRANCH  24  38
ATOM     38  C   UNL A   1      35.379  33.701  30.038  1.00  0.00     0.064 A 
ATOM     39  C   UNL A   1      34.660  34.474  29.087  1.00  0.00     0.173 A 
ATOM     40  C   UNL A   1      34.909  33.762  31.355  1.00  0.00     0.173 A 
ATOM     41  F   UNL A   1      34.984  34.438  27.784  1.00  0.00    -0.203 F 
ATOM     42  C   UNL A   1      33.662  35.372  29.461  1.00  0.00     0.198 A 
ATOM     43  C   UNL A   1      33.867  34.625  31.717  1.00  0.00     0.198 A 
ATOM     44  F   UNL A   1      35.499  33.074  32.339  1.00  0.00    -0.203 F 
ATOM     45  F   UNL A   1      33.130  36.198  28.548  1.00  0.00    -0.200 F 
ATOM     46  C   UNL A   1      33.282  35.463  30.784  1.00  0.00     0.200 A 
ATOM     47  F   UNL A   1      33.488  34.698  33.001  1.00  0.00    -0.200 F 
ATOM     48  F   UNL A   1      32.381  36.378  31.164  1.00  0.00    -0.200 F 
ENDBRANCH  24  38
BRANCH  25  49
ATOM     49  C   UNL A   1      45.625  31.756  31.800  1.00  0.00     0.064 A 
ATOM     50  C   UNL A   1      46.283  31.940  33.021  1.00  0.00     0.173 A 
ATOM     51  C   UNL A   1      46.508  31.593  30.689  1.00  0.00     0.173 A 
ATOM     52  F   UNL A   1      45.608  32.233  34.136  1.00  0.00    -0.203 F 
ATOM     53  C   UNL A   1      47.683  31.835  33.141  1.00  0.00     0.198 A 
ATOM     54  C   UNL A   1      47.888  31.434  30.813  1.00  0.00     0.198 A 
ATOM     55  F   UNL A   1      46.058  31.570  29.428  1.00  0.00    -0.203 F 
ATOM     56  F   UNL A   1      48.263  32.004  34.338  1.00  0.00    -0.200 F 
ATOM     57  C   UNL A   1      48.478  31.536  32.047  1.00  0.00     0.200 A 
ATOM     58  F   UNL A   1      48.624  31.156  29.728  1.00  0.00    -0.200 F 
ATOM     59  F   UNL A   1      49.799  31.359  32.180  1.00  0.00    -0.200 F 
ENDBRANCH  25  49
BRANCH  37  60
ATOM     60  C   UNL A   1      39.842  32.741  33.457  1.00  0.00     0.064 A 
ATOM     61  C   UNL A   1      39.118  31.616  33.027  1.00  0.00     0.173 A 
ATOM     62  C   UNL A   1      39.957  32.885  34.849  1.00  0.00     0.173 A 
ATOM     63  F   UNL A   1      38.992  31.365  31.716  1.00  0.00    -0.203 F 
ATOM     64  C   UNL A   1      38.511  30.735  33.931  1.00  0.00     0.198 A 
ATOM     65  C   UNL A   1      39.352  32.011  35.757  1.00  0.00     0.198 A 
ATOM     66  F   UNL A   1      40.679  33.871  35.370  1.00  0.00    -0.203 F 
ATOM     67  F   UNL A   1      37.822  29.681  33.472  1.00  0.00    -0.200 F 
ATOM     68  C   UNL A   1      38.619  30.939  35.295  1.00  0.00     0.200 A 
ATOM     69  F   UNL A   1      39.494  32.212  37.077  1.00  0.00    -0.200 F 
ATOM     70  F   UNL A   1      38.042  30.093  36.161  1.00  0.00    -0.200 F 
ENDBRANCH  37  60
ENDBRANCH  11  12
ENDBRANCH   4   6
ENDBRANCH   3   4
ENDBRANCH   2   3
ENDBRANCH   1   2
BRANCH   1  71
ATOM     71  O   UNL A   1      38.172  21.756  25.375  1.00  0.00    -0.457 OA
BRANCH  71  72
ATOM     72  C   UNL A   1      37.231  20.766  25.274  1.00  0.00     0.371 C 
ATOM     73  O   UNL A   1      37.454  19.662  24.793  1.00  0.00    -0.245 OA
BRANCH  72  74
ATOM     74  C   UNL A   1      35.839  21.243  25.695  1.00  0.00     0.348 C 
ATOM     75  C   UNL A   1      34.850  21.490  24.534  1.00  0.00     0.341 C 
ATOM     76  N   UNL A   1      35.862  22.414  26.607  1.00  0.00    -0.325 N 
ATOM     77  N   UNL A   1      33.457  21.697  24.966  1.00  0.00    -0.318 N 
ATOM     78  C   UNL A   1      34.502  22.580  27.158  1.00  0.00     0.323 C 
ATOM     79  H   UNL A   1      36.132  23.251  26.090  1.00  0.00     0.347 HD
ATOM     80  H   UNL A   1      36.537  22.270  27.358  1.00  0.00     0.347 HD
ATOM     81  C   UNL A   1      33.374  22.645  26.093  1.00  0.00     0.324 C 
ATOM     82  H   UNL A   1      32.979  22.152  24.190  1.00  0.00     0.348 HD
BRANCH  77  83
ATOM     83  C   UNL A   1      32.659  20.455  25.113  1.00  0.00     0.346 C 
BRANCH  83  84
ATOM     84  C   UNL A   1      32.679  19.469  23.940  1.00  0.00     0.232 C 
ATOM     85  O   UNL A   1      32.172  19.782  22.860  1.00  0.00    -0.286 OA
BRANCH  84  86
ATOM     86  C   UNL A   1      33.241  18.135  24.138  1.00  0.00     0.088 A 
ATOM     87  C   UNL A   1      34.544  17.677  24.266  1.00  0.00     0.031 A 
ATOM     88  N   UNL A   1      32.426  17.038  24.345  1.00  0.00    -0.359 N 
ATOM     89  C   UNL A   1      34.494  16.339  24.731  1.00  0.00     0.020 A 
ATOM     90  C   UNL A   1      33.171  15.973  24.775  1.00  0.00     0.083 A 
ATOM     91  H   UNL A   1      31.451  17.024  24.204  1.00  0.00     0.166 HD
ENDBRANCH  84  86
ENDBRANCH  83  84
ENDBRANCH  77  83
ENDBRANCH  72  74
ENDBRANCH  71  72
ENDBRANCH   1  71
TORSDOF 14
ENDMDL
MODEL 2
REMARK VINA RESULT:     -12.2      5.702     11.737
REMARK SMILES O=C(OCCOC(=O)[C@@H]1C[N@@H+](CC(=O)c2ccc[nH]2)CC[NH2+]1)c1ccc(-c2c3nc(c(-c4c(F)c(F)c(F)c(F)c4F)c4ccc([nH]4)c(-c4c(F)c(F)c(F)c(F)c4F)c4nc(c(-c5c(F)c(F)c(F)c(F)c5F)c5ccc2[nH]5)C=C4)C=C3)cc1
REMARK SMILES IDX 5 1 4 2 3 3 2 4 1 5 23 6 24 7 85 8 25 9 84 10 26 11 27 12
REMARK SMILES IDX 28 13 78 14 29 15 83 16 77 17 79 18 30 19 82 20 76 21 75 22
REMARK SMILES IDX 31 24 63 25 43 26 62 27 44 28 47 29 61 30 80 31 45 32 46 33
REMARK SMILES IDX 60 35 81 36 48 37 32 38 33 39 41 40 34 41 35 42 39 43 42 44
REMARK SMILES IDX 36 45 37 46 40 47 38 48 64 49 65 50 73 51 66 52 67 53 71 54
REMARK SMILES IDX 74 55 68 56 69 57 72 58 70 59 49 60 50 61 58 62 51 63 52 64
REMARK SMILES IDX 56 65 59 66 53 67 54 68 57 69 55 70 6 71 7 72 8 73 9 74
REMARK SMILES IDX 10 75 22 76 11 77 21 78 20 81 12 83 13 84 14 85 15 86 16 87
REMARK SMILES IDX 19 88 17 89 18 90
REMARK H PARENT 79 23 47 34 22 79 22 80 11 82 19 91
REMARK Flexibility Score: inf
ROOT
ATOM      1  C   UNL A   1      34.199  33.336  28.306  1.00  0.00     0.274 C 
ENDROOT
BRANCH   1   2
ATOM      2  C   UNL A   1      34.880  32.055  28.777  1.00  0.00     0.275 C 
BRANCH   2   3
ATOM      3  O   UNL A   1      35.707  31.344  27.836  1.00  0.00    -0.458 OA
BRANCH   3   4
ATOM      4  C   UNL A   1      35.912  30.001  27.889  1.00  0.00     0.338 C 
ATOM      5  O   UNL A   1      35.129  29.207  27.445  1.00  0.00    -0.246 OA
BRANCH   4   6
ATOM      6  C   UNL A   1      37.302  29.583  28.256  1.00  0.00     0.060 A 
ATOM      7  C   UNL A   1      38.409  29.758  27.423  1.00  0.00     0.016 A 
ATOM      8  C   UNL A   1      37.460  28.917  29.484  1.00  0.00     0.016 A 
ATOM      9  C   UNL A   1      39.636  29.217  27.765  1.00  0.00     0.010 A 
ATOM     10  C   UNL A   1      38.683  28.347  29.823  1.00  0.00     0.010 A 
ATOM     11  C   UNL A   1      39.753  28.473  28.936  1.00  0.00    -0.014 A 
BRANCH  11  12
ATOM     12  C   UNL A   1      41.050  27.821  29.175  1.00  0.00     0.031 A 
ATOM     13  C   UNL A   1      41.172  26.503  28.402  1.00  0.00     0.074 A 
ATOM     14  C   UNL A   1      41.835  28.447  30.108  1.00  0.00     0.049 A 
ATOM     15  N   UNL A   1      41.792  25.405  28.712  1.00  0.00    -0.248 NA
ATOM     16  C   UNL A   1      40.423  26.346  27.128  1.00  0.00     0.031 C 
ATOM     17  C   UNL A   1      41.506  29.745  30.743  1.00  0.00     0.029 A 
ATOM     18  N   UNL A   1      43.028  28.143  30.732  1.00  0.00    -0.354 N 
ATOM     19  C   UNL A   1      41.705  24.537  27.597  1.00  0.00     0.074 A 
ATOM     20  C   UNL A   1      40.728  25.110  26.724  1.00  0.00     0.031 C 
ATOM     21  C   UNL A   1      42.406  30.066  31.695  1.00  0.00     0.029 A 
ATOM     22  C   UNL A   1      43.415  29.033  31.775  1.00  0.00     0.049 A 
ATOM     23  H   UNL A   1      43.572  27.365  30.476  1.00  0.00     0.167 HD
ATOM     24  C   UNL A   1      42.576  23.501  27.398  1.00  0.00     0.037 A 
ATOM     25  C   UNL A   1      44.449  28.917  32.669  1.00  0.00     0.037 A 
ATOM     26  C   UNL A   1      43.484  23.429  28.494  1.00  0.00     0.049 A 
ATOM     27  C   UNL A   1      45.198  27.737  32.217  1.00  0.00     0.074 A 
ATOM     28  C   UNL A   1      43.331  23.041  29.798  1.00  0.00     0.029 A 
ATOM     29  N   UNL A   1      44.651  24.144  28.371  1.00  0.00    -0.354 N 
ATOM     30  N   UNL A   1      45.927  27.698  31.143  1.00  0.00    -0.248 NA
ATOM     31  C   UNL A   1      45.041  26.476  32.951  1.00  0.00     0.031 C 
ATOM     32  C   UNL A   1      44.148  23.949  30.501  1.00  0.00     0.029 A 
ATOM     33  C   UNL A   1      44.931  24.681  29.600  1.00  0.00     0.049 A 
ATOM     34  H   UNL A   1      45.186  24.250  27.551  1.00  0.00     0.167 HD
ATOM     35  C   UNL A   1      46.015  26.349  30.902  1.00  0.00     0.074 A 
ATOM     36  C   UNL A   1      45.758  25.682  32.159  1.00  0.00     0.031 C 
ATOM     37  C   UNL A   1      45.731  25.883  29.658  1.00  0.00     0.037 A 
BRANCH  24  38
ATOM     38  C   UNL A   1      42.928  22.673  26.186  1.00  0.00     0.064 A 
ATOM     39  C   UNL A   1      42.870  21.259  26.311  1.00  0.00     0.173 A 
ATOM     40  C   UNL A   1      43.650  23.160  25.091  1.00  0.00     0.173 A 
ATOM     41  F   UNL A   1      42.149  20.682  27.286  1.00  0.00    -0.203 F 
ATOM     42  C   UNL A   1      43.625  20.410  25.504  1.00  0.00     0.198 A 
ATOM     43  C   UNL A   1      44.363  22.299  24.248  1.00  0.00     0.198 A 
ATOM     44  F   UNL A   1      43.772  24.473  24.864  1.00  0.00    -0.203 F 
ATOM     45  F   UNL A   1      43.666  19.096  25.769  1.00  0.00    -0.200 F 
ATOM     46  C   UNL A   1      44.392  20.936  24.485  1.00  0.00     0.200 A 
ATOM     47  F   UNL A   1      45.093  22.811  23.247  1.00  0.00    -0.200 F 
ATOM     48  F   UNL A   1      45.182  20.136  23.756  1.00  0.00    -0.200 F 
ENDBRANCH  24  38
BRANCH  25  49
ATOM     49  C   UNL A   1      44.934  29.569  33.950  1.00  0.00     0.064 A 
ATOM     50  C   UNL A   1      44.370  29.426  35.223  1.00  0.00     0.173 A 
ATOM     51  C   UNL A   1      46.141  30.333  33.939  1.00  0.00     0.173 A 
ATOM     52  F   UNL A   1      43.176  28.850  35.392  1.00  0.00    -0.203 F 
ATOM     53  C   UNL A   1      45.018  29.886  36.387  1.00  0.00     0.198 A 
ATOM     54  C   UNL A   1      46.812  30.738  35.092  1.00  0.00     0.198 A 
ATOM     55  F   UNL A   1      46.728  30.706  32.794  1.00  0.00    -0.203 F 
ATOM     56  F   UNL A   1      44.441  29.709  37.583  1.00  0.00    -0.200 F 
ATOM     57  C   UNL A   1      46.259  30.498  36.324  1.00  0.00     0.200 A 
ATOM     58  F   UNL A   1      48.007  31.338  34.989  1.00  0.00    -0.200 F 
ATOM     59  F   UNL A   1      46.907  30.861  37.438  1.00  0.00    -0.200 F 
ENDBRANCH  25  49
BRANCH  37  60
ATOM     60  C   UNL A   1      45.918  26.915  28.552  1.00  0.00     0.064 A 
ATOM     61  C   UNL A   1      47.188  27.465  28.308  1.00  0.00     0.173 A 
ATOM     62  C   UNL A   1      44.866  27.480  27.813  1.00  0.00     0.173 A 
ATOM     63  F   UNL A   1      48.265  26.962  28.930  1.00  0.00    -0.203 F 
ATOM     64  C   UNL A   1      47.375  28.539  27.427  1.00  0.00     0.198 A 
ATOM     65  C   UNL A   1      45.044  28.552  26.934  1.00  0.00     0.198 A 
ATOM     66  F   UNL A   1      43.635  26.993  27.908  1.00  0.00    -0.203 F 
ATOM     67  F   UNL A   1      48.603  29.036  27.235  1.00  0.00    -0.200 F 
ATOM     68  C   UNL A   1      46.300  29.089  26.749  1.00  0.00     0.200 A 
ATOM     69  F   UNL A   1      43.993  29.052  26.265  1.00  0.00    -0.200 F 
ATOM     70  F   UNL A   1      46.479  30.113  25.903  1.00  0.00    -0.200 F 
ENDBRANCH  37  60
ENDBRANCH  11  12
ENDBRANCH   4   6
ENDBRANCH   3   4
ENDBRANCH   2   3
ENDBRANCH   1   2
BRANCH   1  71
ATOM     71  O   UNL A   1      33.275  33.875  29.267  1.00  0.00    -0.457 OA
BRANCH  71  72
ATOM     72  C   UNL A   1      33.225  35.243  29.336  1.00  0.00     0.371 C 
ATOM     73  O   UNL A   1      32.938  35.961  28.387  1.00  0.00    -0.245 OA
BRANCH  72  74
ATOM     74  C   UNL A   1      33.709  35.774  30.687  1.00  0.00     0.348 C 
ATOM     75  C   UNL A   1      33.767  34.727  31.822  1.00  0.00     0.341 C 
ATOM     76  N   UNL A   1      32.984  36.986  31.144  1.00  0.00    -0.325 N 
ATOM     77  N   UNL A   1      34.470  35.190  33.030  1.00  0.00    -0.318 N 
ATOM     78  C   UNL A   1      33.731  37.551  32.286  1.00  0.00     0.323 C 
ATOM     79  H   UNL A   1      32.039  36.735  31.436  1.00  0.00     0.347 HD
ATOM     80  H   UNL A   1      32.914  37.667  30.388  1.00  0.00     0.347 HD
ATOM     81  C   UNL A   1      34.034  36.542  33.427  1.00  0.00     0.324 C 
ATOM     82  H   UNL A   1      34.176  34.576  33.788  1.00  0.00     0.348 HD
BRANCH  77  83
ATOM     83  C   UNL A   1      35.936  34.966  33.023  1.00  0.00     0.346 C 
BRANCH  83  84
ATOM     84  C   UNL A   1      36.426  33.558  32.666  1.00  0.00     0.232 C 
ATOM     85  O   UNL A   1      36.113  32.597  33.371  1.00  0.00    -0.286 OA
BRANCH  84  86
ATOM     86  C   UNL A   1      37.321  33.383  31.524  1.00  0.00     0.088 A 
ATOM     87  C   UNL A   1      38.178  32.356  31.155  1.00  0.00     0.031 A 
ATOM     88  N   UNL A   1      37.354  34.301  30.491  1.00  0.00    -0.359 N 
ATOM     89  C   UNL A   1      38.578  32.582  29.814  1.00  0.00     0.020 A 
ATOM     90  C   UNL A   1      38.049  33.789  29.429  1.00  0.00     0.083 A 
ATOM     91  H   UNL A   1      36.937  35.193  30.516  1.00  0.00     0.166 HD
ENDBRANCH  84  86
ENDBRANCH  83  84
ENDBRANCH  77  83
ENDBRANCH  72  74
ENDBRANCH  71  72
ENDBRANCH   1  71
TORSDOF 14
ENDMDL
MODEL 3
REMARK VINA RESULT:     -12.1      3.958      6.562
REMARK SMILES O=C(OCCOC(=O)[C@@H]1C[N@@H+](CC(=O)c2ccc[nH]2)CC[NH2+]1)c1ccc(-c2c3nc(c(-c4c(F)c(F)c(F)c(F)c4F)c4ccc([nH]4)c(-c4c(F)c(F)c(F)c(F)c4F)c4nc(c(-c5c(F)c(F)c(F)c(F)c5F)c5ccc2[nH]5)C=C4)C=C3)cc1
REMARK SMILES IDX 5 1 4 2 3 3 2 4 1 5 23 6 24 7 85 8 25 9 84 10 26 11 27 12
REMARK SMILES IDX 28 13 78 14 29 15 83 16 77 17 79 18 30 19 82 20 76 21 75 22
REMARK SMILES IDX 31 24 63 25 43 26 62 27 44 28 47 29 61 30 80 31 45 32 46 33
REMARK SMILES IDX 60 35 81 36 48 37 32 38 33 39 41 40 34 41 35 42 39 43 42 44
REMARK SMILES IDX 36 45 37 46 40 47 38 48 64 49 65 50 73 51 66 52 67 53 71 54
REMARK SMILES IDX 74 55 68 56 69 57 72 58 70 59 49 60 50 61 58 62 51 63 52 64
REMARK SMILES IDX 56 65 59 66 53 67 54 68 57 69 55 70 6 71 7 72 8 73 9 74
REMARK SMILES IDX 10 75 22 76 11 77 21 78 20 81 12 83 13 84 14 85 15 86 16 87
REMARK SMILES IDX 19 88 17 89 18 90
REMARK H PARENT 79 23 47 34 22 79 22 80 11 82 19 91
REMARK Flexibility Score: inf
ROOT
ATOM      1  C   UNL A   1      38.187  19.811  25.193  1.00  0.00     0.274 C 
ENDROOT
BRANCH   1   2
ATOM      2  C   UNL A   1      39.596  19.942  25.763  1.00  0.00     0.275 C 
BRANCH   2   3
ATOM      3  O   UNL A   1      40.462  18.793  25.696  1.00  0.00    -0.458 OA
BRANCH   3   4
ATOM      4  C   UNL A   1      41.772  18.824  26.057  1.00  0.00     0.338 C 
ATOM      5  O   UNL A   1      42.523  17.910  25.855  1.00  0.00    -0.246 OA
BRANCH   4   6
ATOM      6  C   UNL A   1      42.294  20.173  26.443  1.00  0.00     0.060 A 
ATOM      7  C   UNL A   1      42.208  20.699  27.734  1.00  0.00     0.016 A 
ATOM      8  C   UNL A   1      42.834  20.962  25.410  1.00  0.00     0.016 A 
ATOM      9  C   UNL A   1      42.580  22.007  27.985  1.00  0.00     0.010 A 
ATOM     10  C   UNL A   1      43.185  22.286  25.648  1.00  0.00     0.010 A 
ATOM     11  C   UNL A   1      43.019  22.808  26.932  1.00  0.00    -0.014 A 
BRANCH  11  12
ATOM     12  C   UNL A   1      43.277  24.222  27.245  1.00  0.00     0.031 A 
ATOM     13  C   UNL A   1      41.974  25.013  27.404  1.00  0.00     0.074 A 
ATOM     14  C   UNL A   1      44.601  24.575  27.221  1.00  0.00     0.049 A 
ATOM     15  N   UNL A   1      41.707  26.251  27.120  1.00  0.00    -0.248 NA
ATOM     16  C   UNL A   1      40.755  24.302  27.873  1.00  0.00     0.031 C 
ATOM     17  C   UNL A   1      45.718  23.617  27.040  1.00  0.00     0.029 A 
ATOM     18  N   UNL A   1      45.288  25.767  27.316  1.00  0.00    -0.354 N 
ATOM     19  C   UNL A   1      40.395  26.521  27.581  1.00  0.00     0.074 A 
ATOM     20  C   UNL A   1      39.815  25.251  27.892  1.00  0.00     0.031 C 
ATOM     21  C   UNL A   1      46.902  24.258  26.956  1.00  0.00     0.029 A 
ATOM     22  C   UNL A   1      46.692  25.683  27.085  1.00  0.00     0.049 A 
ATOM     23  H   UNL A   1      44.840  26.617  27.527  1.00  0.00     0.167 HD
ATOM     24  C   UNL A   1      39.949  27.788  27.840  1.00  0.00     0.037 A 
ATOM     25  C   UNL A   1      47.607  26.697  26.958  1.00  0.00     0.037 A 
ATOM     26  C   UNL A   1      40.970  28.726  27.509  1.00  0.00     0.049 A 
ATOM     27  C   UNL A   1      46.856  27.916  27.283  1.00  0.00     0.074 A 
ATOM     28  C   UNL A   1      41.479  29.155  26.313  1.00  0.00     0.029 A 
ATOM     29  N   UNL A   1      41.840  29.065  28.517  1.00  0.00    -0.354 N 
ATOM     30  N   UNL A   1      46.450  28.233  28.475  1.00  0.00    -0.248 NA
ATOM     31  C   UNL A   1      46.430  28.797  26.189  1.00  0.00     0.031 C 
ATOM     32  C   UNL A   1      42.856  29.295  26.581  1.00  0.00     0.029 A 
ATOM     33  C   UNL A   1      43.086  29.177  27.958  1.00  0.00     0.049 A 
ATOM     34  H   UNL A   1      41.611  29.201  29.465  1.00  0.00     0.167 HD
ATOM     35  C   UNL A   1      45.450  29.135  28.210  1.00  0.00     0.074 A 
ATOM     36  C   UNL A   1      45.704  29.664  26.888  1.00  0.00     0.031 C 
ATOM     37  C   UNL A   1      44.239  28.970  28.803  1.00  0.00     0.037 A 
BRANCH  24  38
ATOM     38  C   UNL A   1      38.783  28.326  28.634  1.00  0.00     0.064 A 
ATOM     39  C   UNL A   1      38.109  29.471  28.130  1.00  0.00     0.173 A 
ATOM     40  C   UNL A   1      38.553  28.026  29.981  1.00  0.00     0.173 A 
ATOM     41  F   UNL A   1      38.207  29.812  26.834  1.00  0.00    -0.203 F 
ATOM     42  C   UNL A   1      37.406  30.343  28.957  1.00  0.00     0.198 A 
ATOM     43  C   UNL A   1      37.797  28.876  30.797  1.00  0.00     0.198 A 
ATOM     44  F   UNL A   1      39.125  26.969  30.569  1.00  0.00    -0.203 F 
ATOM     45  F   UNL A   1      36.931  31.496  28.463  1.00  0.00    -0.200 F 
ATOM     46  C   UNL A   1      37.270  30.056  30.299  1.00  0.00     0.200 A 
ATOM     47  F   UNL A   1      37.652  28.585  32.097  1.00  0.00    -0.200 F 
ATOM     48  F   UNL A   1      36.665  30.927  31.117  1.00  0.00    -0.200 F 
ENDBRANCH  24  38
BRANCH  25  49
ATOM     49  C   UNL A   1      49.046  26.892  26.518  1.00  0.00     0.064 A 
ATOM     50  C   UNL A   1      49.578  26.602  25.256  1.00  0.00     0.173 A 
ATOM     51  C   UNL A   1      49.974  27.526  27.400  1.00  0.00     0.173 A 
ATOM     52  F   UNL A   1      48.885  25.897  24.357  1.00  0.00    -0.203 F 
ATOM     53  C   UNL A   1      50.865  27.025  24.870  1.00  0.00     0.198 A 
ATOM     54  C   UNL A   1      51.225  27.994  27.003  1.00  0.00     0.198 A 
ATOM     55  F   UNL A   1      49.690  27.728  28.694  1.00  0.00    -0.203 F 
ATOM     56  F   UNL A   1      51.320  26.734  23.643  1.00  0.00    -0.200 F 
ATOM     57  C   UNL A   1      51.667  27.760  25.726  1.00  0.00     0.200 A 
ATOM     58  F   UNL A   1      51.977  28.694  27.865  1.00  0.00    -0.200 F 
ATOM     59  F   UNL A   1      52.857  28.229  25.327  1.00  0.00    -0.200 F 
ENDBRANCH  25  49
BRANCH  37  60
ATOM     60  C   UNL A   1      44.291  28.182  30.107  1.00  0.00     0.064 A 
ATOM     61  C   UNL A   1      44.894  28.741  31.247  1.00  0.00     0.173 A 
ATOM     62  C   UNL A   1      43.888  26.843  30.237  1.00  0.00     0.173 A 
ATOM     63  F   UNL A   1      45.272  30.029  31.238  1.00  0.00    -0.203 F 
ATOM     64  C   UNL A   1      45.122  27.993  32.409  1.00  0.00     0.198 A 
ATOM     65  C   UNL A   1      44.114  26.089  31.393  1.00  0.00     0.198 A 
ATOM     66  F   UNL A   1      43.243  26.232  29.250  1.00  0.00    -0.203 F 
ATOM     67  F   UNL A   1      45.709  28.568  33.466  1.00  0.00    -0.200 F 
ATOM     68  C   UNL A   1      44.741  26.664  32.477  1.00  0.00     0.200 A 
ATOM     69  F   UNL A   1      43.711  24.810  31.447  1.00  0.00    -0.200 F 
ATOM     70  F   UNL A   1      44.955  25.949  33.591  1.00  0.00    -0.200 F 
ENDBRANCH  37  60
ENDBRANCH  11  12
ENDBRANCH   4   6
ENDBRANCH   3   4
ENDBRANCH   2   3
ENDBRANCH   1   2
BRANCH   1  71
ATOM     71  O   UNL A   1      37.706  21.021  24.583  1.00  0.00    -0.457 OA
BRANCH  71  72
ATOM     72  C   UNL A   1      37.374  22.028  25.451  1.00  0.00     0.371 C 
ATOM     73  O   UNL A   1      38.182  22.827  25.906  1.00  0.00    -0.245 OA
BRANCH  72  74
ATOM     74  C   UNL A   1      35.912  21.951  25.897  1.00  0.00     0.348 C 
ATOM     75  C   UNL A   1      34.900  21.613  24.779  1.00  0.00     0.341 C 
ATOM     76  N   UNL A   1      35.458  23.144  26.655  1.00  0.00    -0.325 N 
ATOM     77  N   UNL A   1      33.549  21.293  25.270  1.00  0.00    -0.318 N 
ATOM     78  C   UNL A   1      34.154  22.817  27.266  1.00  0.00     0.323 C 
ATOM     79  H   UNL A   1      35.357  23.939  26.024  1.00  0.00     0.347 HD
ATOM     80  H   UNL A   1      36.138  23.391  27.374  1.00  0.00     0.347 HD
ATOM     81  C   UNL A   1      33.091  22.271  26.274  1.00  0.00     0.324 C 
ATOM     82  H   UNL A   1      32.921  21.404  24.475  1.00  0.00     0.348 HD
BRANCH  77  83
ATOM     83  C   UNL A   1      33.333  19.868  25.617  1.00  0.00     0.346 C 
BRANCH  83  84
ATOM     84  C   UNL A   1      32.988  18.913  24.469  1.00  0.00     0.232 C 
ATOM     85  O   UNL A   1      32.449  19.344  23.447  1.00  0.00    -0.286 OA
BRANCH  84  86
ATOM     86  C   UNL A   1      33.241  17.483  24.630  1.00  0.00     0.088 A 
ATOM     87  C   UNL A   1      34.403  16.726  24.582  1.00  0.00     0.031 A 
ATOM     88  N   UNL A   1      32.230  16.613  24.990  1.00  0.00    -0.359 N 
ATOM     89  C   UNL A   1      34.107  15.438  25.095  1.00  0.00     0.020 A 
ATOM     90  C   UNL A   1      32.757  15.400  25.344  1.00  0.00     0.083 A 
ATOM     91  H   UNL A   1      31.270  16.833  24.992  1.00  0.00     0.166 HD
ENDBRANCH  84  86
ENDBRANCH  83  84
ENDBRANCH  77  83
ENDBRANCH  72  74
ENDBRANCH  71  72
ENDBRANCH   1  71
TORSDOF 14
ENDMDL
