MODEL 1
REMARK VINA RESULT:     -13.2      0.000      0.000
REMARK SMILES O=C(OCCOC(=O)c1ccc(-c2c3nc(c(-c4c(F)c(F)c(F)c(F)c4F)c4ccc([nH]4)c(-c4c(F)c(F)c(F)c(F)c4F)c4nc(c(-c5c(F)c(F)c(F)c(F)c5F)c5ccc2[nH]5)C=C4)C=C3)cc1)C1=Cc2c(cc(Cl)c(Cl)c2Cl)O[C@H]1C(F)(F)F
REMARK SMILES IDX 5 1 4 2 3 3 2 4 1 5 72 6 73 7 84 8 74 9 83 10 75 11 81 12
REMARK SMILES IDX 76 13 79 14 82 15 77 16 80 17 78 18 85 19 86 20 87 21 88 22
REMARK SMILES IDX 6 23 7 24 8 25 9 26 10 27 71 28 11 29 70 30 12 31 13 32
REMARK SMILES IDX 14 33 64 34 15 35 69 36 63 37 65 38 16 39 68 40 62 41 61 42
REMARK SMILES IDX 17 44 49 45 29 46 48 47 30 48 33 49 47 50 66 51 31 52 32 53
REMARK SMILES IDX 46 55 67 56 34 57 18 58 19 59 27 60 20 61 21 62 25 63 28 64
REMARK SMILES IDX 22 65 23 66 26 67 24 68 50 69 51 70 59 71 52 72 53 73 57 74
REMARK SMILES IDX 60 75 54 76 55 77 58 78 56 79 35 80 36 81 44 82 37 83 38 84
REMARK SMILES IDX 42 85 45 86 39 87 40 88 43 89 41 90
REMARK H PARENT 65 43 33 54
REMARK Flexibility Score: inf
ROOT
ATOM      1  C   UNL A   1      31.771  32.683  26.860  1.00  0.00     0.275 C 
ENDROOT
BRANCH   1   2
ATOM      2  C   UNL A   1      31.038  31.582  26.079  1.00  0.00     0.275 C 
BRANCH   2   3
ATOM      3  O   UNL A   1      31.706  30.301  26.093  1.00  0.00    -0.459 OA
BRANCH   3   4
ATOM      4  C   UNL A   1      32.048  29.507  25.057  1.00  0.00     0.338 C 
ATOM      5  O   UNL A   1      33.182  29.592  24.588  1.00  0.00    -0.246 OA
BRANCH   4   6
ATOM      6  C   UNL A   1      31.121  28.516  24.456  1.00  0.00     0.087 C 
ATOM      7  C   UNL A   1      30.750  27.350  25.012  1.00  0.00     0.029 C 
ATOM      8  C   UNL A   1      30.927  28.722  22.960  1.00  0.00     0.316 C 
ATOM      9  C   UNL A   1      31.258  26.197  24.231  1.00  0.00     0.038 A 
ATOM     10  O   UNL A   1      30.924  27.476  22.198  1.00  0.00    -0.475 OA
ATOM     11  C   UNL A   1      31.391  26.365  22.849  1.00  0.00     0.131 A 
ATOM     12  C   UNL A   1      31.675  24.992  24.832  1.00  0.00     0.072 A 
ATOM     13  C   UNL A   1      31.983  25.373  22.076  1.00  0.00     0.069 A 
ATOM     14  C   UNL A   1      32.335  24.018  24.065  1.00  0.00     0.079 A 
ATOM     15  Cl  UNL A   1      31.350  24.713  26.515  1.00  0.00    -0.082 Cl
ATOM     16  C   UNL A   1      32.489  24.222  22.687  1.00  0.00     0.064 A 
ATOM     17  Cl  UNL A   1      32.985  22.595  24.824  1.00  0.00    -0.081 Cl
ATOM     18  Cl  UNL A   1      33.305  23.084  21.672  1.00  0.00    -0.083 Cl
BRANCH   8  19
ATOM     19  C   UNL A   1      29.638  29.517  22.692  1.00  0.00     0.430 C 
ATOM     20  F   UNL A   1      29.754  30.347  21.632  1.00  0.00    -0.167 F 
ATOM     21  F   UNL A   1      28.592  28.696  22.440  1.00  0.00    -0.167 F 
ATOM     22  F   UNL A   1      29.302  30.284  23.760  1.00  0.00    -0.167 F 
ENDBRANCH   8  19
ENDBRANCH   4   6
ENDBRANCH   3   4
ENDBRANCH   2   3
ENDBRANCH   1   2
BRANCH   1  23
ATOM     23  O   UNL A   1      32.905  32.176  27.566  1.00  0.00    -0.458 OA
BRANCH  23  24
ATOM     24  C   UNL A   1      33.760  33.149  27.958  1.00  0.00     0.338 C 
ATOM     25  O   UNL A   1      33.476  34.310  28.211  1.00  0.00    -0.246 OA
BRANCH  24  26
ATOM     26  C   UNL A   1      35.083  32.554  28.213  1.00  0.00     0.060 A 
ATOM     27  C   UNL A   1      35.134  31.167  28.387  1.00  0.00     0.016 A 
ATOM     28  C   UNL A   1      36.246  33.328  28.302  1.00  0.00     0.016 A 
ATOM     29  C   UNL A   1      36.327  30.562  28.755  1.00  0.00     0.010 A 
ATOM     30  C   UNL A   1      37.451  32.716  28.647  1.00  0.00     0.010 A 
ATOM     31  C   UNL A   1      37.476  31.342  28.941  1.00  0.00    -0.014 A 
BRANCH  31  32
ATOM     32  C   UNL A   1      38.625  30.743  29.657  1.00  0.00     0.031 A 
ATOM     33  C   UNL A   1      38.831  31.107  31.102  1.00  0.00     0.074 A 
ATOM     34  C   UNL A   1      39.402  29.825  29.058  1.00  0.00     0.049 A 
ATOM     35  N   UNL A   1      39.698  30.641  31.964  1.00  0.00    -0.248 NA
ATOM     36  C   UNL A   1      37.937  32.139  31.654  1.00  0.00     0.031 C 
ATOM     37  C   UNL A   1      39.271  29.384  27.671  1.00  0.00     0.029 A 
ATOM     38  N   UNL A   1      40.447  29.087  29.551  1.00  0.00    -0.354 N 
ATOM     39  C   UNL A   1      39.444  31.314  33.152  1.00  0.00     0.074 A 
ATOM     40  C   UNL A   1      38.393  32.269  32.889  1.00  0.00     0.031 C 
ATOM     41  C   UNL A   1      40.195  28.438  27.427  1.00  0.00     0.029 A 
ATOM     42  C   UNL A   1      40.990  28.224  28.634  1.00  0.00     0.049 A 
ATOM     43  H   UNL A   1      40.775  29.169  30.477  1.00  0.00     0.167 HD
ATOM     44  C   UNL A   1      40.017  31.130  34.364  1.00  0.00     0.037 A 
ATOM     45  C   UNL A   1      42.013  27.359  28.765  1.00  0.00     0.037 A 
ATOM     46  C   UNL A   1      41.063  30.178  34.616  1.00  0.00     0.049 A 
ATOM     47  C   UNL A   1      42.684  27.225  30.110  1.00  0.00     0.074 A 
ATOM     48  C   UNL A   1      41.713  29.900  35.804  1.00  0.00     0.029 A 
ATOM     49  N   UNL A   1      41.619  29.352  33.649  1.00  0.00    -0.354 N 
ATOM     50  N   UNL A   1      42.406  27.826  31.241  1.00  0.00    -0.248 NA
ATOM     51  C   UNL A   1      43.806  26.280  30.196  1.00  0.00     0.031 C 
ATOM     52  C   UNL A   1      42.703  28.947  35.544  1.00  0.00     0.029 A 
ATOM     53  C   UNL A   1      42.625  28.582  34.208  1.00  0.00     0.049 A 
ATOM     54  H   UNL A   1      41.339  29.317  32.706  1.00  0.00     0.167 HD
ATOM     55  C   UNL A   1      43.286  27.306  32.180  1.00  0.00     0.074 A 
ATOM     56  C   UNL A   1      44.102  26.330  31.487  1.00  0.00     0.031 C 
ATOM     57  C   UNL A   1      43.412  27.606  33.498  1.00  0.00     0.037 A 
BRANCH  44  58
ATOM     58  C   UNL A   1      39.532  31.993  35.494  1.00  0.00     0.064 A 
ATOM     59  C   UNL A   1      40.051  33.279  35.716  1.00  0.00     0.173 A 
ATOM     60  C   UNL A   1      38.538  31.530  36.368  1.00  0.00     0.173 A 
ATOM     61  F   UNL A   1      41.016  33.765  34.921  1.00  0.00    -0.203 F 
ATOM     62  C   UNL A   1      39.620  34.050  36.793  1.00  0.00     0.198 A 
ATOM     63  C   UNL A   1      38.085  32.317  37.423  1.00  0.00     0.198 A 
ATOM     64  F   UNL A   1      38.004  30.309  36.201  1.00  0.00    -0.203 F 
ATOM     65  F   UNL A   1      40.178  35.248  37.023  1.00  0.00    -0.200 F 
ATOM     66  C   UNL A   1      38.634  33.572  37.641  1.00  0.00     0.200 A 
ATOM     67  F   UNL A   1      37.124  31.859  38.235  1.00  0.00    -0.200 F 
ATOM     68  F   UNL A   1      38.221  34.315  38.678  1.00  0.00    -0.200 F 
ENDBRANCH  44  58
BRANCH  45  69
ATOM     69  C   UNL A   1      42.459  26.544  27.604  1.00  0.00     0.064 A 
ATOM     70  C   UNL A   1      41.905  25.282  27.346  1.00  0.00     0.173 A 
ATOM     71  C   UNL A   1      43.471  26.997  26.744  1.00  0.00     0.173 A 
ATOM     72  F   UNL A   1      40.950  24.792  28.149  1.00  0.00    -0.203 F 
ATOM     73  C   UNL A   1      42.368  24.493  26.294  1.00  0.00     0.198 A 
ATOM     74  C   UNL A   1      43.910  26.222  25.674  1.00  0.00     0.198 A 
ATOM     75  F   UNL A   1      44.034  28.198  26.944  1.00  0.00    -0.203 F 
ATOM     76  F   UNL A   1      41.863  23.265  26.107  1.00  0.00    -0.200 F 
ATOM     77  C   UNL A   1      43.367  24.965  25.456  1.00  0.00     0.200 A 
ATOM     78  F   UNL A   1      44.868  26.686  24.860  1.00  0.00    -0.200 F 
ATOM     79  F   UNL A   1      43.815  24.203  24.449  1.00  0.00    -0.200 F 
ENDBRANCH  45  69
BRANCH  57  80
ATOM     80  C   UNL A   1      44.434  26.840  34.288  1.00  0.00     0.064 A 
ATOM     81  C   UNL A   1      45.738  27.322  34.474  1.00  0.00     0.173 A 
ATOM     82  C   UNL A   1      44.084  25.634  34.914  1.00  0.00     0.173 A 
ATOM     83  F   UNL A   1      46.127  28.463  33.886  1.00  0.00    -0.203 F 
ATOM     84  C   UNL A   1      46.661  26.611  35.237  1.00  0.00     0.198 A 
ATOM     85  C   UNL A   1      44.998  24.945  35.707  1.00  0.00     0.198 A 
ATOM     86  F   UNL A   1      42.847  25.134  34.777  1.00  0.00    -0.203 F 
ATOM     87  F   UNL A   1      47.916  27.064  35.360  1.00  0.00    -0.200 F 
ATOM     88  C   UNL A   1      46.287  25.429  35.860  1.00  0.00     0.200 A 
ATOM     89  F   UNL A   1      44.628  23.814  36.324  1.00  0.00    -0.200 F 
ATOM     90  F   UNL A   1      47.173  24.755  36.606  1.00  0.00    -0.200 F 
ENDBRANCH  57  80
ENDBRANCH  31  32
ENDBRANCH  24  26
ENDBRANCH  23  24
ENDBRANCH   1  23
TORSDOF 12
ENDMDL
MODEL 2
REMARK VINA RESULT:     -13.1      1.145      2.133
REMARK SMILES O=C(OCCOC(=O)c1ccc(-c2c3nc(c(-c4c(F)c(F)c(F)c(F)c4F)c4ccc([nH]4)c(-c4c(F)c(F)c(F)c(F)c4F)c4nc(c(-c5c(F)c(F)c(F)c(F)c5F)c5ccc2[nH]5)C=C4)C=C3)cc1)C1=Cc2c(cc(Cl)c(Cl)c2Cl)O[C@H]1C(F)(F)F
REMARK SMILES IDX 5 1 4 2 3 3 2 4 1 5 72 6 73 7 84 8 74 9 83 10 75 11 81 12
REMARK SMILES IDX 76 13 79 14 82 15 77 16 80 17 78 18 85 19 86 20 87 21 88 22
REMARK SMILES IDX 6 23 7 24 8 25 9 26 10 27 71 28 11 29 70 30 12 31 13 32
REMARK SMILES IDX 14 33 64 34 15 35 69 36 63 37 65 38 16 39 68 40 62 41 61 42
REMARK SMILES IDX 17 44 49 45 29 46 48 47 30 48 33 49 47 50 66 51 31 52 32 53
REMARK SMILES IDX 46 55 67 56 34 57 18 58 19 59 27 60 20 61 21 62 25 63 28 64
REMARK SMILES IDX 22 65 23 66 26 67 24 68 50 69 51 70 59 71 52 72 53 73 57 74
REMARK SMILES IDX 60 75 54 76 55 77 58 78 56 79 35 80 36 81 44 82 37 83 38 84
REMARK SMILES IDX 42 85 45 86 39 87 40 88 43 89 41 90
REMARK H PARENT 65 43 33 54
REMARK Flexibility Score: inf
ROOT
ATOM      1  C   UNL A   1      31.847  31.214  26.571  1.00  0.00     0.275 C 
ENDROOT
BRANCH   1   2
ATOM      2  C   UNL A   1      31.779  30.092  25.524  1.00  0.00     0.275 C 
BRANCH   2   3
ATOM      3  O   UNL A   1      32.358  28.841  25.958  1.00  0.00    -0.459 OA
BRANCH   3   4
ATOM      4  C   UNL A   1      31.740  27.708  26.352  1.00  0.00     0.338 C 
ATOM      5  O   UNL A   1      31.331  27.622  27.508  1.00  0.00    -0.246 OA
BRANCH   4   6
ATOM      6  C   UNL A   1      31.515  26.552  25.448  1.00  0.00     0.087 C 
ATOM      7  C   UNL A   1      31.536  25.258  25.809  1.00  0.00     0.029 C 
ATOM      8  C   UNL A   1      31.659  26.918  23.977  1.00  0.00     0.316 C 
ATOM      9  C   UNL A   1      32.672  24.543  25.177  1.00  0.00     0.038 A 
ATOM     10  O   UNL A   1      32.386  25.917  23.199  1.00  0.00    -0.475 OA
ATOM     11  C   UNL A   1      33.085  24.981  23.915  1.00  0.00     0.131 A 
ATOM     12  C   UNL A   1      33.381  23.513  25.826  1.00  0.00     0.072 A 
ATOM     13  C   UNL A   1      34.223  24.444  23.325  1.00  0.00     0.069 A 
ATOM     14  C   UNL A   1      34.567  23.016  25.264  1.00  0.00     0.079 A 
ATOM     15  Cl  UNL A   1      32.767  22.847  27.309  1.00  0.00    -0.082 Cl
ATOM     16  C   UNL A   1      34.983  23.495  24.014  1.00  0.00     0.064 A 
ATOM     17  Cl  UNL A   1      35.529  21.852  26.125  1.00  0.00    -0.081 Cl
ATOM     18  Cl  UNL A   1      36.441  22.953  23.257  1.00  0.00    -0.083 Cl
BRANCH   8  19
ATOM     19  C   UNL A   1      30.279  27.182  23.353  1.00  0.00     0.430 C 
ATOM     20  F   UNL A   1      29.651  28.239  23.916  1.00  0.00    -0.167 F 
ATOM     21  F   UNL A   1      30.373  27.437  22.028  1.00  0.00    -0.167 F 
ATOM     22  F   UNL A   1      29.458  26.111  23.502  1.00  0.00    -0.167 F 
ENDBRANCH   8  19
ENDBRANCH   4   6
ENDBRANCH   3   4
ENDBRANCH   2   3
ENDBRANCH   1   2
BRANCH   1  23
ATOM     23  O   UNL A   1      32.890  30.996  27.523  1.00  0.00    -0.458 OA
BRANCH  23  24
ATOM     24  C   UNL A   1      33.670  32.087  27.709  1.00  0.00     0.338 C 
ATOM     25  O   UNL A   1      33.296  33.247  27.778  1.00  0.00    -0.246 OA
BRANCH  24  26
ATOM     26  C   UNL A   1      35.047  31.650  27.998  1.00  0.00     0.060 A 
ATOM     27  C   UNL A   1      35.282  30.272  28.041  1.00  0.00     0.016 A 
ATOM     28  C   UNL A   1      36.083  32.559  28.242  1.00  0.00     0.016 A 
ATOM     29  C   UNL A   1      36.525  29.797  28.432  1.00  0.00     0.010 A 
ATOM     30  C   UNL A   1      37.341  32.080  28.610  1.00  0.00     0.010 A 
ATOM     31  C   UNL A   1      37.542  30.699  28.773  1.00  0.00    -0.014 A 
BRANCH  31  32
ATOM     32  C   UNL A   1      38.720  30.187  29.506  1.00  0.00     0.031 A 
ATOM     33  C   UNL A   1      38.920  30.631  30.930  1.00  0.00     0.074 A 
ATOM     34  C   UNL A   1      39.534  29.276  28.946  1.00  0.00     0.049 A 
ATOM     35  N   UNL A   1      39.813  30.246  31.806  1.00  0.00    -0.248 NA
ATOM     36  C   UNL A   1      37.985  31.649  31.439  1.00  0.00     0.031 C 
ATOM     37  C   UNL A   1      39.413  28.761  27.584  1.00  0.00     0.029 A 
ATOM     38  N   UNL A   1      40.613  28.609  29.466  1.00  0.00    -0.354 N 
ATOM     39  C   UNL A   1      39.537  30.966  32.962  1.00  0.00     0.074 A 
ATOM     40  C   UNL A   1      38.444  31.859  32.662  1.00  0.00     0.031 C 
ATOM     41  C   UNL A   1      40.376  27.846  27.378  1.00  0.00     0.029 A 
ATOM     42  C   UNL A   1      41.187  27.727  28.587  1.00  0.00     0.049 A 
ATOM     43  H   UNL A   1      40.944  28.751  30.383  1.00  0.00     0.167 HD
ATOM     44  C   UNL A   1      40.126  30.867  34.176  1.00  0.00     0.037 A 
ATOM     45  C   UNL A   1      42.249  26.915  28.751  1.00  0.00     0.037 A 
ATOM     46  C   UNL A   1      41.215  29.976  34.465  1.00  0.00     0.049 A 
ATOM     47  C   UNL A   1      42.935  26.878  30.095  1.00  0.00     0.074 A 
ATOM     48  C   UNL A   1      41.884  29.785  35.659  1.00  0.00     0.029 A 
ATOM     49  N   UNL A   1      41.800  29.128  33.535  1.00  0.00    -0.354 N 
ATOM     50  N   UNL A   1      42.637  27.521  31.198  1.00  0.00    -0.248 NA
ATOM     51  C   UNL A   1      44.098  25.988  30.218  1.00  0.00     0.031 C 
ATOM     52  C   UNL A   1      42.914  28.865  35.438  1.00  0.00     0.029 A 
ATOM     53  C   UNL A   1      42.844  28.432  34.122  1.00  0.00     0.049 A 
ATOM     54  H   UNL A   1      41.516  29.034  32.597  1.00  0.00     0.167 HD
ATOM     55  C   UNL A   1      43.547  27.087  32.153  1.00  0.00     0.074 A 
ATOM     56  C   UNL A   1      44.400  26.114  31.502  1.00  0.00     0.031 C 
ATOM     57  C   UNL A   1      43.668  27.456  33.454  1.00  0.00     0.037 A 
BRANCH  44  58
ATOM     58  C   UNL A   1      39.611  31.763  35.267  1.00  0.00     0.064 A 
ATOM     59  C   UNL A   1      38.650  31.322  36.192  1.00  0.00     0.173 A 
ATOM     60  C   UNL A   1      40.080  33.078  35.390  1.00  0.00     0.173 A 
ATOM     61  F   UNL A   1      38.154  30.078  36.110  1.00  0.00    -0.203 F 
ATOM     62  C   UNL A   1      38.152  32.177  37.172  1.00  0.00     0.198 A 
ATOM     63  C   UNL A   1      39.605  33.920  36.391  1.00  0.00     0.198 A 
ATOM     64  F   UNL A   1      41.000  33.551  34.534  1.00  0.00    -0.203 F 
ATOM     65  F   UNL A   1      37.188  31.754  38.001  1.00  0.00    -0.200 F 
ATOM     66  C   UNL A   1      38.634  33.473  37.274  1.00  0.00     0.200 A 
ATOM     67  F   UNL A   1      40.080  35.168  36.497  1.00  0.00    -0.200 F 
ATOM     68  F   UNL A   1      38.153  34.296  38.217  1.00  0.00    -0.200 F 
ENDBRANCH  44  58
BRANCH  45  69
ATOM     69  C   UNL A   1      42.722  26.064  27.627  1.00  0.00     0.064 A 
ATOM     70  C   UNL A   1      43.731  26.502  26.758  1.00  0.00     0.173 A 
ATOM     71  C   UNL A   1      42.154  24.805  27.380  1.00  0.00     0.173 A 
ATOM     72  F   UNL A   1      44.292  27.707  26.936  1.00  0.00    -0.203 F 
ATOM     73  C   UNL A   1      44.130  25.730  25.668  1.00  0.00     0.198 A 
ATOM     74  C   UNL A   1      42.576  24.019  26.310  1.00  0.00     0.198 A 
ATOM     75  F   UNL A   1      41.186  24.336  28.182  1.00  0.00    -0.203 F 
ATOM     76  F   UNL A   1      45.054  26.201  24.818  1.00  0.00    -0.200 F 
ATOM     77  C   UNL A   1      43.555  24.488  25.447  1.00  0.00     0.200 A 
ATOM     78  F   UNL A   1      42.026  22.815  26.107  1.00  0.00    -0.200 F 
ATOM     79  F   UNL A   1      43.936  23.748  24.397  1.00  0.00    -0.200 F 
ENDBRANCH  45  69
BRANCH  57  80
ATOM     80  C   UNL A   1      44.728  26.776  34.271  1.00  0.00     0.064 A 
ATOM     81  C   UNL A   1      46.012  27.322  34.419  1.00  0.00     0.173 A 
ATOM     82  C   UNL A   1      44.435  25.590  34.961  1.00  0.00     0.173 A 
ATOM     83  F   UNL A   1      46.346  28.447  33.770  1.00  0.00    -0.203 F 
ATOM     84  C   UNL A   1      46.970  26.691  35.207  1.00  0.00     0.198 A 
ATOM     85  C   UNL A   1      45.384  24.982  35.778  1.00  0.00     0.198 A 
ATOM     86  F   UNL A   1      43.220  25.031  34.863  1.00  0.00    -0.203 F 
ATOM     87  F   UNL A   1      48.206  27.203  35.294  1.00  0.00    -0.200 F 
ATOM     88  C   UNL A   1      46.653  25.528  35.894  1.00  0.00     0.200 A 
ATOM     89  F   UNL A   1      45.068  23.870  36.456  1.00  0.00    -0.200 F 
ATOM     90  F   UNL A   1      47.573  24.931  36.664  1.00  0.00    -0.200 F 
ENDBRANCH  57  80
ENDBRANCH  31  32
ENDBRANCH  24  26
ENDBRANCH  23  24
ENDBRANCH   1  23
TORSDOF 12
ENDMDL
MODEL 3
REMARK VINA RESULT:     -13.1      0.089      1.655
REMARK SMILES O=C(OCCOC(=O)c1ccc(-c2c3nc(c(-c4c(F)c(F)c(F)c(F)c4F)c4ccc([nH]4)c(-c4c(F)c(F)c(F)c(F)c4F)c4nc(c(-c5c(F)c(F)c(F)c(F)c5F)c5ccc2[nH]5)C=C4)C=C3)cc1)C1=Cc2c(cc(Cl)c(Cl)c2Cl)O[C@H]1C(F)(F)F
REMARK SMILES IDX 5 1 4 2 3 3 2 4 1 5 72 6 73 7 84 8 74 9 83 10 75 11 81 12
REMARK SMILES IDX 76 13 79 14 82 15 77 16 80 17 78 18 85 19 86 20 87 21 88 22
REMARK SMILES IDX 6 23 7 24 8 25 9 26 10 27 71 28 11 29 70 30 12 31 13 32
REMARK SMILES IDX 14 33 64 34 15 35 69 36 63 37 65 38 16 39 68 40 62 41 61 42
REMARK SMILES IDX 17 44 49 45 29 46 48 47 30 48 33 49 47 50 66 51 31 52 32 53
REMARK SMILES IDX 46 55 67 56 34 57 18 58 19 59 27 60 20 61 21 62 25 63 28 64
REMARK SMILES IDX 22 65 23 66 26 67 24 68 50 69 51 70 59 71 52 72 53 73 57 74
REMARK SMILES IDX 60 75 54 76 55 77 58 78 56 79 35 80 36 81 44 82 37 83 38 84
REMARK SMILES IDX 42 85 45 86 39 87 40 88 43 89 41 90
REMARK H PARENT 65 43 33 54
REMARK Flexibility Score: inf
ROOT
ATOM      1  C   UNL A   1      31.785  32.658  26.932  1.00  0.00     0.275 C 
ENDROOT
BRANCH   1   2
ATOM      2  C   UNL A   1      31.084  31.559  26.118  1.00  0.00     0.275 C 
BRANCH   2   3
ATOM      3  O   UNL A   1      31.778  30.292  26.113  1.00  0.00    -0.459 OA
BRANCH   3   4
ATOM      4  C   UNL A   1      32.100  29.502  25.067  1.00  0.00     0.338 C 
ATOM      5  O   UNL A   1      33.222  29.595  24.573  1.00  0.00    -0.246 OA
BRANCH   4   6
ATOM      6  C   UNL A   1      31.165  28.507  24.486  1.00  0.00     0.087 C 
ATOM      7  C   UNL A   1      30.806  27.342  25.053  1.00  0.00     0.029 C 
ATOM      8  C   UNL A   1      30.945  28.707  22.993  1.00  0.00     0.316 C 
ATOM      9  C   UNL A   1      31.304  26.187  24.267  1.00  0.00     0.038 A 
ATOM     10  O   UNL A   1      30.932  27.458  22.235  1.00  0.00    -0.475 OA
ATOM     11  C   UNL A   1      31.412  26.350  22.882  1.00  0.00     0.131 A 
ATOM     12  C   UNL A   1      31.734  24.986  24.865  1.00  0.00     0.072 A 
ATOM     13  C   UNL A   1      31.993  25.357  22.103  1.00  0.00     0.069 A 
ATOM     14  C   UNL A   1      32.382  24.010  24.091  1.00  0.00     0.079 A 
ATOM     15  Cl  UNL A   1      31.438  24.711  26.554  1.00  0.00    -0.082 Cl
ATOM     16  C   UNL A   1      32.512  24.210  22.709  1.00  0.00     0.064 A 
ATOM     17  Cl  UNL A   1      33.049  22.591  24.843  1.00  0.00    -0.081 Cl
ATOM     18  Cl  UNL A   1      33.313  23.069  21.684  1.00  0.00    -0.083 Cl
BRANCH   8  19
ATOM     19  C   UNL A   1      29.649  29.498  22.744  1.00  0.00     0.430 C 
ATOM     20  F   UNL A   1      28.583  28.691  22.544  1.00  0.00    -0.167 F 
ATOM     21  F   UNL A   1      29.348  30.300  23.792  1.00  0.00    -0.167 F 
ATOM     22  F   UNL A   1      29.758  30.289  21.647  1.00  0.00    -0.167 F 
ENDBRANCH   8  19
ENDBRANCH   4   6
ENDBRANCH   3   4
ENDBRANCH   2   3
ENDBRANCH   1   2
BRANCH   1  23
ATOM     23  O   UNL A   1      32.945  32.167  27.607  1.00  0.00    -0.458 OA
BRANCH  23  24
ATOM     24  C   UNL A   1      33.810  33.150  27.950  1.00  0.00     0.338 C 
ATOM     25  O   UNL A   1      33.537  34.324  28.152  1.00  0.00    -0.246 OA
BRANCH  24  26
ATOM     26  C   UNL A   1      35.130  32.556  28.223  1.00  0.00     0.060 A 
ATOM     27  C   UNL A   1      35.180  31.170  28.398  1.00  0.00     0.016 A 
ATOM     28  C   UNL A   1      36.291  33.332  28.327  1.00  0.00     0.016 A 
ATOM     29  C   UNL A   1      36.369  30.567  28.781  1.00  0.00     0.010 A 
ATOM     30  C   UNL A   1      37.492  32.721  28.688  1.00  0.00     0.010 A 
ATOM     31  C   UNL A   1      37.515  31.348  28.983  1.00  0.00    -0.014 A 
BRANCH  31  32
ATOM     32  C   UNL A   1      38.654  30.750  29.714  1.00  0.00     0.031 A 
ATOM     33  C   UNL A   1      38.845  31.120  31.159  1.00  0.00     0.074 A 
ATOM     34  C   UNL A   1      39.437  29.828  29.128  1.00  0.00     0.049 A 
ATOM     35  N   UNL A   1      39.702  30.656  32.033  1.00  0.00    -0.248 NA
ATOM     36  C   UNL A   1      37.947  32.156  31.697  1.00  0.00     0.031 C 
ATOM     37  C   UNL A   1      39.321  29.381  27.741  1.00  0.00     0.029 A 
ATOM     38  N   UNL A   1      40.475  29.091  29.636  1.00  0.00    -0.354 N 
ATOM     39  C   UNL A   1      39.436  31.336  33.215  1.00  0.00     0.074 A 
ATOM     40  C   UNL A   1      38.390  32.290  32.936  1.00  0.00     0.031 C 
ATOM     41  C   UNL A   1      40.245  28.433  27.512  1.00  0.00     0.029 A 
ATOM     42  C   UNL A   1      41.027  28.223  28.728  1.00  0.00     0.049 A 
ATOM     43  H   UNL A   1      40.793  29.176  30.564  1.00  0.00     0.167 HD
ATOM     44  C   UNL A   1      39.995  31.156  34.435  1.00  0.00     0.037 A 
ATOM     45  C   UNL A   1      42.047  27.357  28.875  1.00  0.00     0.037 A 
ATOM     46  C   UNL A   1      41.037  30.204  34.702  1.00  0.00     0.049 A 
ATOM     47  C   UNL A   1      42.703  27.228  30.227  1.00  0.00     0.074 A 
ATOM     48  C   UNL A   1      41.673  29.930  35.898  1.00  0.00     0.029 A 
ATOM     49  N   UNL A   1      41.602  29.372  33.746  1.00  0.00    -0.354 N 
ATOM     50  N   UNL A   1      42.413  27.835  31.353  1.00  0.00    -0.248 NA
ATOM     51  C   UNL A   1      43.823  26.282  30.331  1.00  0.00     0.031 C 
ATOM     52  C   UNL A   1      42.664  28.974  35.654  1.00  0.00     0.029 A 
ATOM     53  C   UNL A   1      42.601  28.604  34.319  1.00  0.00     0.049 A 
ATOM     54  H   UNL A   1      41.333  29.334  32.799  1.00  0.00     0.167 HD
ATOM     55  C   UNL A   1      43.282  27.317  32.304  1.00  0.00     0.074 A 
ATOM     56  C   UNL A   1      44.104  26.337  31.624  1.00  0.00     0.031 C 
ATOM     57  C   UNL A   1      43.394  27.622  33.622  1.00  0.00     0.037 A 
BRANCH  44  58
ATOM     58  C   UNL A   1      39.498  32.025  35.555  1.00  0.00     0.064 A 
ATOM     59  C   UNL A   1      40.004  33.318  35.765  1.00  0.00     0.173 A 
ATOM     60  C   UNL A   1      38.508  31.560  36.432  1.00  0.00     0.173 A 
ATOM     61  F   UNL A   1      40.965  33.806  34.967  1.00  0.00    -0.203 F 
ATOM     62  C   UNL A   1      39.563  34.095  36.834  1.00  0.00     0.198 A 
ATOM     63  C   UNL A   1      38.045  32.352  37.478  1.00  0.00     0.198 A 
ATOM     64  F   UNL A   1      37.988  30.331  36.276  1.00  0.00    -0.203 F 
ATOM     65  F   UNL A   1      40.107  35.301  37.053  1.00  0.00    -0.200 F 
ATOM     66  C   UNL A   1      38.580  33.614  37.685  1.00  0.00     0.200 A 
ATOM     67  F   UNL A   1      37.087  31.891  38.294  1.00  0.00    -0.200 F 
ATOM     68  F   UNL A   1      38.158  34.363  38.714  1.00  0.00    -0.200 F 
ENDBRANCH  44  58
BRANCH  45  69
ATOM     69  C   UNL A   1      42.504  26.536  27.722  1.00  0.00     0.064 A 
ATOM     70  C   UNL A   1      43.506  26.994  26.855  1.00  0.00     0.173 A 
ATOM     71  C   UNL A   1      41.927  25.287  27.445  1.00  0.00     0.173 A 
ATOM     72  F   UNL A   1      44.075  28.191  27.062  1.00  0.00    -0.203 F 
ATOM     73  C   UNL A   1      43.890  26.251  25.740  1.00  0.00     0.198 A 
ATOM     74  C   UNL A   1      42.334  24.531  26.348  1.00  0.00     0.198 A 
ATOM     75  F   UNL A   1      40.965  24.800  28.243  1.00  0.00    -0.203 F 
ATOM     76  F   UNL A   1      44.807  26.742  24.894  1.00  0.00    -0.200 F 
ATOM     77  C   UNL A   1      43.306  25.019  25.489  1.00  0.00     0.200 A 
ATOM     78  F   UNL A   1      41.776  23.335  26.117  1.00  0.00    -0.200 F 
ATOM     79  F   UNL A   1      43.672  24.308  24.414  1.00  0.00    -0.200 F 
ENDBRANCH  45  69
BRANCH  57  80
ATOM     80  C   UNL A   1      44.406  26.859  34.426  1.00  0.00     0.064 A 
ATOM     81  C   UNL A   1      44.097  25.633  35.033  1.00  0.00     0.173 A 
ATOM     82  C   UNL A   1      45.722  27.335  34.541  1.00  0.00     0.173 A 
ATOM     83  F   UNL A   1      42.851  25.140  34.963  1.00  0.00    -0.203 F 
ATOM     84  C   UNL A   1      45.060  24.926  35.747  1.00  0.00     0.198 A 
ATOM     85  C   UNL A   1      46.691  26.607  35.224  1.00  0.00     0.198 A 
ATOM     86  F   UNL A   1      46.074  28.497  33.970  1.00  0.00    -0.203 F 
ATOM     87  F   UNL A   1      44.730  23.782  36.362  1.00  0.00    -0.200 F 
ATOM     88  C   UNL A   1      46.358  25.408  35.834  1.00  0.00     0.200 A 
ATOM     89  F   UNL A   1      47.949  27.066  35.289  1.00  0.00    -0.200 F 
ATOM     90  F   UNL A   1      47.287  24.718  36.510  1.00  0.00    -0.200 F 
ENDBRANCH  57  80
ENDBRANCH  31  32
ENDBRANCH  24  26
ENDBRANCH  23  24
ENDBRANCH   1  23
TORSDOF 12
ENDMDL
