MODEL 1
REMARK VINA RESULT:     -12.8      0.000      0.000
REMARK SMILES Cc1cc(C)n(C)c(=O)c1C(=O)[NH+]1CCC2(CC1)C[NH2+][C@@H](C(=O)OCCOC(=O)c1ccc(-c3c4nc(c(-c5c(F)c(F)c(F)c(F)c5F)c5ccc([nH]5)c(-c5c(F)c(F)c(F)c(F)c5F)c5nc(c(-c6c(F)c(F)c(F)c(F)c6F)c6ccc3[nH]6)C=C5)C=C4)cc1)C2
REMARK SMILES IDX 25 1 24 2 22 3 23 4 21 5 13 6 14 7 18 8 15 10 17 11 16 12
REMARK SMILES IDX 19 13 93 14 20 15 11 18 12 19 10 20 1 21 2 22 3 23 4 24 8 25
REMARK SMILES IDX 5 26 6 27 9 28 7 29 26 30 27 31 28 32 29 33 30 34 31 35
REMARK SMILES IDX 92 36 32 37 91 38 33 39 34 40 35 41 85 42 36 43 90 44 84 45
REMARK SMILES IDX 86 46 37 47 89 48 83 49 82 50 38 52 70 53 50 54 69 55 51 56
REMARK SMILES IDX 54 57 68 58 87 59 52 60 53 61 67 63 88 64 55 65 39 66 40 67
REMARK SMILES IDX 48 68 41 69 42 70 46 71 49 72 43 73 44 74 47 75 45 76 71 77
REMARK SMILES IDX 72 78 80 79 73 80 74 81 78 82 81 83 75 84 76 85 79 86 77 87
REMARK SMILES IDX 56 88 57 89 65 90 58 91 59 92 63 93 66 94 60 95 61 96 64 97
REMARK SMILES IDX 62 98
REMARK H PARENT 13 9 20 16 20 17 86 51 54 62
REMARK Flexibility Score: inf
ROOT
ATOM      1  C   UNL A   1      34.594  33.818  30.170  1.00  0.00     0.274 C 
ENDROOT
BRANCH   1   2
ATOM      2  O   UNL A   1      34.006  32.711  29.465  1.00  0.00    -0.458 OA
BRANCH   2   3
ATOM      3  C   UNL A   1      34.627  32.326  28.322  1.00  0.00     0.364 C 
ATOM      4  O   UNL A   1      35.340  33.048  27.631  1.00  0.00    -0.245 OA
BRANCH   3   5
ATOM      5  C   UNL A   1      34.377  30.865  27.971  1.00  0.00     0.294 C 
ATOM      6  N   UNL A   1      31.120  27.648  25.425  1.00  0.00    -0.267 N 
ATOM      7  C   UNL A   1      31.128  27.843  26.867  1.00  0.00     0.271 C 
ATOM      8  C   UNL A   1      31.504  28.838  24.680  1.00  0.00     0.271 C 
ATOM      9  H   UNL A   1      31.373  27.703  24.475  1.00  0.00     0.357 HD
ATOM     10  C   UNL A   1      32.582  27.984  27.295  1.00  0.00     0.075 C 
ATOM     11  C   UNL A   1      32.890  29.354  25.097  1.00  0.00     0.075 C 
ATOM     12  C   UNL A   1      33.284  29.178  26.599  1.00  0.00     0.036 C 
ATOM     13  C   UNL A   1      34.821  29.005  26.720  1.00  0.00     0.268 C 
ATOM     14  C   UNL A   1      33.016  30.487  27.391  1.00  0.00     0.090 C 
ATOM     15  N   UNL A   1      35.323  30.356  26.962  1.00  0.00    -0.334 N 
ATOM     16  H   UNL A   1      35.294  30.919  26.112  1.00  0.00     0.347 HD
ATOM     17  H   UNL A   1      36.296  30.383  27.265  1.00  0.00     0.347 HD
BRANCH   6  18
ATOM     18  C   UNL A   1      30.862  26.372  24.942  1.00  0.00     0.350 C 
ATOM     19  O   UNL A   1      29.711  25.938  24.840  1.00  0.00    -0.225 OA
BRANCH  18  20
ATOM     20  C   UNL A   1      31.977  25.423  24.652  1.00  0.00     0.147 A 
ATOM     21  C   UNL A   1      32.544  26.540  22.428  1.00  0.00     0.045 C 
ATOM     22  C   UNL A   1      32.741  25.561  23.546  1.00  0.00    -0.027 A 
ATOM     23  C   UNL A   1      33.982  24.823  23.424  1.00  0.00     0.026 A 
ATOM     24  C   UNL A   1      34.526  24.185  24.470  1.00  0.00     0.018 A 
ATOM     25  C   UNL A   1      32.490  24.564  25.775  1.00  0.00     0.267 A 
ATOM     26  C   UNL A   1      35.904  23.597  24.318  1.00  0.00     0.064 C 
ATOM     27  N   UNL A   1      33.812  24.093  25.662  1.00  0.00    -0.315 N 
ATOM     28  O   UNL A   1      31.770  24.315  26.742  1.00  0.00    -0.268 OA
ATOM     29  C   UNL A   1      34.414  23.488  26.843  1.00  0.00     0.153 C 
ENDBRANCH  18  20
ENDBRANCH   6  18
ENDBRANCH   3   5
ENDBRANCH   2   3
ENDBRANCH   1   2
BRANCH   1  30
ATOM     30  C   UNL A   1      34.651  33.511  31.668  1.00  0.00     0.275 C 
BRANCH  30  31
ATOM     31  O   UNL A   1      35.014  32.136  31.909  1.00  0.00    -0.458 OA
BRANCH  31  32
ATOM     32  C   UNL A   1      36.108  31.953  32.683  1.00  0.00     0.338 C 
ATOM     33  O   UNL A   1      36.212  32.131  33.883  1.00  0.00    -0.246 OA
BRANCH  32  34
ATOM     34  C   UNL A   1      37.187  31.357  31.880  1.00  0.00     0.060 A 
ATOM     35  C   UNL A   1      38.296  30.842  32.552  1.00  0.00     0.016 A 
ATOM     36  C   UNL A   1      37.161  31.398  30.486  1.00  0.00     0.016 A 
ATOM     37  C   UNL A   1      39.395  30.375  31.840  1.00  0.00     0.010 A 
ATOM     38  C   UNL A   1      38.261  30.913  29.767  1.00  0.00     0.010 A 
ATOM     39  C   UNL A   1      39.389  30.410  30.442  1.00  0.00    -0.014 A 
BRANCH  39  40
ATOM     40  C   UNL A   1      40.591  29.952  29.705  1.00  0.00     0.031 A 
ATOM     41  C   UNL A   1      41.758  30.877  29.522  1.00  0.00     0.074 A 
ATOM     42  C   UNL A   1      40.658  28.683  29.264  1.00  0.00     0.049 A 
ATOM     43  N   UNL A   1      42.885  30.672  28.888  1.00  0.00    -0.248 NA
ATOM     44  C   UNL A   1      41.649  32.208  30.140  1.00  0.00     0.031 C 
ATOM     45  C   UNL A   1      39.612  27.674  29.442  1.00  0.00     0.029 A 
ATOM     46  N   UNL A   1      41.653  28.019  28.591  1.00  0.00    -0.354 N 
ATOM     47  C   UNL A   1      43.613  31.846  29.022  1.00  0.00     0.074 A 
ATOM     48  C   UNL A   1      42.794  32.769  29.779  1.00  0.00     0.031 C 
ATOM     49  C   UNL A   1      40.031  26.513  28.916  1.00  0.00     0.029 A 
ATOM     50  C   UNL A   1      41.351  26.708  28.319  1.00  0.00     0.049 A 
ATOM     51  H   UNL A   1      42.502  28.442  28.329  1.00  0.00     0.167 HD
ATOM     52  C   UNL A   1      44.856  32.121  28.562  1.00  0.00     0.037 A 
ATOM     53  C   UNL A   1      42.053  25.773  27.650  1.00  0.00     0.037 A 
ATOM     54  C   UNL A   1      45.673  31.196  27.822  1.00  0.00     0.049 A 
ATOM     55  C   UNL A   1      43.394  26.134  27.074  1.00  0.00     0.074 A 
ATOM     56  C   UNL A   1      46.942  31.387  27.306  1.00  0.00     0.029 A 
ATOM     57  N   UNL A   1      45.300  29.899  27.498  1.00  0.00    -0.354 N 
ATOM     58  N   UNL A   1      44.061  27.257  27.177  1.00  0.00    -0.248 NA
ATOM     59  C   UNL A   1      44.073  25.103  26.275  1.00  0.00     0.031 C 
ATOM     60  C   UNL A   1      47.323  30.219  26.638  1.00  0.00     0.029 A 
ATOM     61  C   UNL A   1      46.307  29.286  26.772  1.00  0.00     0.049 A 
ATOM     62  H   UNL A   1      44.447  29.477  27.748  1.00  0.00     0.167 HD
ATOM     63  C   UNL A   1      45.241  27.067  26.471  1.00  0.00     0.074 A 
ATOM     64  C   UNL A   1      45.206  25.714  25.955  1.00  0.00     0.031 C 
ATOM     65  C   UNL A   1      46.257  27.938  26.266  1.00  0.00     0.037 A 
BRANCH  52  66
ATOM     66  C   UNL A   1      45.408  33.489  28.829  1.00  0.00     0.064 A 
ATOM     67  C   UNL A   1      45.164  34.561  27.959  1.00  0.00     0.173 A 
ATOM     68  C   UNL A   1      46.143  33.742  29.996  1.00  0.00     0.173 A 
ATOM     69  F   UNL A   1      44.476  34.365  26.824  1.00  0.00    -0.203 F 
ATOM     70  C   UNL A   1      45.646  35.836  28.243  1.00  0.00     0.198 A 
ATOM     71  C   UNL A   1      46.605  35.023  30.288  1.00  0.00     0.198 A 
ATOM     72  F   UNL A   1      46.400  32.750  30.863  1.00  0.00    -0.203 F 
ATOM     73  F   UNL A   1      45.426  36.840  27.383  1.00  0.00    -0.200 F 
ATOM     74  C   UNL A   1      46.360  36.067  29.409  1.00  0.00     0.200 A 
ATOM     75  F   UNL A   1      47.284  35.247  31.421  1.00  0.00    -0.200 F 
ATOM     76  F   UNL A   1      46.815  37.297  29.686  1.00  0.00    -0.200 F 
ENDBRANCH  52  66
BRANCH  53  77
ATOM     77  C   UNL A   1      41.491  24.408  27.485  1.00  0.00     0.064 A 
ATOM     78  C   UNL A   1      40.382  24.183  26.659  1.00  0.00     0.173 A 
ATOM     79  C   UNL A   1      42.062  23.302  28.131  1.00  0.00     0.173 A 
ATOM     80  F   UNL A   1      39.788  25.213  26.040  1.00  0.00    -0.203 F 
ATOM     81  C   UNL A   1      39.863  22.902  26.487  1.00  0.00     0.198 A 
ATOM     82  C   UNL A   1      41.557  22.018  27.939  1.00  0.00     0.198 A 
ATOM     83  F   UNL A   1      43.123  23.467  28.934  1.00  0.00    -0.203 F 
ATOM     84  F   UNL A   1      38.784  22.716  25.714  1.00  0.00    -0.200 F 
ATOM     85  C   UNL A   1      40.456  21.819  27.120  1.00  0.00     0.200 A 
ATOM     86  F   UNL A   1      42.140  20.973  28.543  1.00  0.00    -0.200 F 
ATOM     87  F   UNL A   1      39.964  20.585  26.944  1.00  0.00    -0.200 F 
ENDBRANCH  53  77
BRANCH  65  88
ATOM     88  C   UNL A   1      47.425  27.462  25.458  1.00  0.00     0.064 A 
ATOM     89  C   UNL A   1      47.471  27.644  24.069  1.00  0.00     0.173 A 
ATOM     90  C   UNL A   1      48.543  26.893  26.087  1.00  0.00     0.173 A 
ATOM     91  F   UNL A   1      46.421  28.171  23.421  1.00  0.00    -0.203 F 
ATOM     92  C   UNL A   1      48.593  27.266  23.335  1.00  0.00     0.198 A 
ATOM     93  C   UNL A   1      49.671  26.537  25.354  1.00  0.00     0.198 A 
ATOM     94  F   UNL A   1      48.548  26.705  27.415  1.00  0.00    -0.203 F 
ATOM     95  F   UNL A   1      48.607  27.425  22.005  1.00  0.00    -0.200 F 
ATOM     96  C   UNL A   1      49.695  26.723  23.979  1.00  0.00     0.200 A 
ATOM     97  F   UNL A   1      50.739  26.023  25.979  1.00  0.00    -0.200 F 
ATOM     98  F   UNL A   1      50.781  26.374  23.275  1.00  0.00    -0.200 F 
ENDBRANCH  65  88
ENDBRANCH  39  40
ENDBRANCH  32  34
ENDBRANCH  31  32
ENDBRANCH  30  31
ENDBRANCH   1  30
TORSDOF 13
ENDMDL
MODEL 2
REMARK VINA RESULT:     -12.8      5.136      7.796
REMARK SMILES Cc1cc(C)n(C)c(=O)c1C(=O)[NH+]1CCC2(CC1)C[NH2+][C@@H](C(=O)OCCOC(=O)c1ccc(-c3c4nc(c(-c5c(F)c(F)c(F)c(F)c5F)c5ccc([nH]5)c(-c5c(F)c(F)c(F)c(F)c5F)c5nc(c(-c6c(F)c(F)c(F)c(F)c6F)c6ccc3[nH]6)C=C5)C=C4)cc1)C2
REMARK SMILES IDX 25 1 24 2 22 3 23 4 21 5 13 6 14 7 18 8 15 10 17 11 16 12
REMARK SMILES IDX 19 13 93 14 20 15 11 18 12 19 10 20 1 21 2 22 3 23 4 24 8 25
REMARK SMILES IDX 5 26 6 27 9 28 7 29 26 30 27 31 28 32 29 33 30 34 31 35
REMARK SMILES IDX 92 36 32 37 91 38 33 39 34 40 35 41 85 42 36 43 90 44 84 45
REMARK SMILES IDX 86 46 37 47 89 48 83 49 82 50 38 52 70 53 50 54 69 55 51 56
REMARK SMILES IDX 54 57 68 58 87 59 52 60 53 61 67 63 88 64 55 65 39 66 40 67
REMARK SMILES IDX 48 68 41 69 42 70 46 71 49 72 43 73 44 74 47 75 45 76 71 77
REMARK SMILES IDX 72 78 80 79 73 80 74 81 78 82 81 83 75 84 76 85 79 86 77 87
REMARK SMILES IDX 56 88 57 89 65 90 58 91 59 92 63 93 66 94 60 95 61 96 64 97
REMARK SMILES IDX 62 98
REMARK H PARENT 13 9 20 16 20 17 86 51 54 62
REMARK Flexibility Score: inf
ROOT
ATOM      1  C   UNL A   1      33.193  34.495  28.441  1.00  0.00     0.274 C 
ENDROOT
BRANCH   1   2
ATOM      2  O   UNL A   1      33.843  33.324  28.965  1.00  0.00    -0.458 OA
BRANCH   2   3
ATOM      3  C   UNL A   1      34.753  32.728  28.156  1.00  0.00     0.364 C 
ATOM      4  O   UNL A   1      35.678  33.305  27.591  1.00  0.00    -0.245 OA
BRANCH   3   5
ATOM      5  C   UNL A   1      34.540  31.225  28.025  1.00  0.00     0.294 C 
ATOM      6  N   UNL A   1      31.742  27.576  25.516  1.00  0.00    -0.267 N 
ATOM      7  C   UNL A   1      31.486  28.021  26.877  1.00  0.00     0.271 C 
ATOM      8  C   UNL A   1      32.284  28.621  24.660  1.00  0.00     0.271 C 
ATOM      9  H   UNL A   1      32.168  27.466  24.636  1.00  0.00     0.357 HD
ATOM     10  C   UNL A   1      32.838  28.251  27.538  1.00  0.00     0.075 C 
ATOM     11  C   UNL A   1      33.580  29.217  25.232  1.00  0.00     0.075 C 
ATOM     12  C   UNL A   1      33.684  29.311  26.789  1.00  0.00     0.036 C 
ATOM     13  C   UNL A   1      35.167  29.179  27.223  1.00  0.00     0.268 C 
ATOM     14  C   UNL A   1      33.303  30.737  27.276  1.00  0.00     0.090 C 
ATOM     15  N   UNL A   1      35.645  30.557  27.315  1.00  0.00    -0.334 N 
ATOM     16  H   UNL A   1      35.788  30.961  26.389  1.00  0.00     0.347 HD
ATOM     17  H   UNL A   1      36.546  30.647  27.785  1.00  0.00     0.347 HD
BRANCH   6  18
ATOM     18  C   UNL A   1      31.550  26.232  25.224  1.00  0.00     0.350 C 
ATOM     19  O   UNL A   1      30.732  25.864  24.376  1.00  0.00    -0.225 OA
BRANCH  18  20
ATOM     20  C   UNL A   1      32.233  25.170  26.020  1.00  0.00     0.147 A 
ATOM     21  C   UNL A   1      30.036  24.055  26.690  1.00  0.00     0.045 C 
ATOM     22  C   UNL A   1      31.529  24.183  26.616  1.00  0.00    -0.027 A 
ATOM     23  C   UNL A   1      32.211  23.015  27.134  1.00  0.00     0.026 A 
ATOM     24  C   UNL A   1      33.493  22.759  26.835  1.00  0.00     0.018 A 
ATOM     25  C   UNL A   1      33.713  24.980  25.830  1.00  0.00     0.267 A 
ATOM     26  C   UNL A   1      34.080  21.437  27.253  1.00  0.00     0.064 C 
ATOM     27  N   UNL A   1      34.236  23.711  26.142  1.00  0.00    -0.315 N 
ATOM     28  O   UNL A   1      34.406  25.906  25.406  1.00  0.00    -0.268 OA
ATOM     29  C   UNL A   1      35.601  23.424  25.722  1.00  0.00     0.153 C 
ENDBRANCH  18  20
ENDBRANCH   6  18
ENDBRANCH   3   5
ENDBRANCH   2   3
ENDBRANCH   1   2
BRANCH   1  30
ATOM     30  C   UNL A   1      33.156  35.592  29.508  1.00  0.00     0.275 C 
BRANCH  30  31
ATOM     31  O   UNL A   1      32.314  35.217  30.617  1.00  0.00    -0.458 OA
BRANCH  31  32
ATOM     32  C   UNL A   1      32.666  35.743  31.814  1.00  0.00     0.338 C 
ATOM     33  O   UNL A   1      32.082  36.597  32.455  1.00  0.00    -0.246 OA
BRANCH  32  34
ATOM     34  C   UNL A   1      33.838  35.027  32.341  1.00  0.00     0.060 A 
ATOM     35  C   UNL A   1      35.075  35.671  32.292  1.00  0.00     0.016 A 
ATOM     36  C   UNL A   1      33.745  33.706  32.779  1.00  0.00     0.016 A 
ATOM     37  C   UNL A   1      36.232  34.999  32.667  1.00  0.00     0.010 A 
ATOM     38  C   UNL A   1      34.909  33.032  33.171  1.00  0.00     0.010 A 
ATOM     39  C   UNL A   1      36.160  33.672  33.107  1.00  0.00    -0.014 A 
BRANCH  39  40
ATOM     40  C   UNL A   1      37.413  32.959  33.455  1.00  0.00     0.031 A 
ATOM     41  C   UNL A   1      38.074  33.207  34.779  1.00  0.00     0.074 A 
ATOM     42  C   UNL A   1      37.913  32.040  32.609  1.00  0.00     0.049 A 
ATOM     43  N   UNL A   1      39.184  32.702  35.256  1.00  0.00    -0.248 NA
ATOM     44  C   UNL A   1      37.395  34.139  35.693  1.00  0.00     0.031 C 
ATOM     45  C   UNL A   1      37.319  31.668  31.324  1.00  0.00     0.029 A 
ATOM     46  N   UNL A   1      39.023  31.240  32.710  1.00  0.00    -0.354 N 
ATOM     47  C   UNL A   1      39.341  33.261  36.517  1.00  0.00     0.074 A 
ATOM     48  C   UNL A   1      38.226  34.159  36.725  1.00  0.00     0.031 C 
ATOM     49  C   UNL A   1      38.056  30.694  30.769  1.00  0.00     0.029 A 
ATOM     50  C   UNL A   1      39.200  30.409  31.632  1.00  0.00     0.049 A 
ATOM     51  H   UNL A   1      39.633  31.259  33.482  1.00  0.00     0.167 HD
ATOM     52  C   UNL A   1      40.325  33.034  37.419  1.00  0.00     0.037 A 
ATOM     53  C   UNL A   1      40.184  29.529  31.362  1.00  0.00     0.037 A 
ATOM     54  C   UNL A   1      41.424  32.129  37.214  1.00  0.00     0.049 A 
ATOM     55  C   UNL A   1      41.309  29.362  32.345  1.00  0.00     0.074 A 
ATOM     56  C   UNL A   1      42.475  31.839  38.067  1.00  0.00     0.029 A 
ATOM     57  N   UNL A   1      41.612  31.361  36.073  1.00  0.00    -0.354 N 
ATOM     58  N   UNL A   1      41.468  29.918  33.521  1.00  0.00    -0.248 NA
ATOM     59  C   UNL A   1      42.401  28.457  31.956  1.00  0.00     0.031 C 
ATOM     60  C   UNL A   1      43.318  30.924  37.429  1.00  0.00     0.029 A 
ATOM     61  C   UNL A   1      42.772  30.614  36.194  1.00  0.00     0.049 A 
ATOM     62  H   UNL A   1      41.010  31.349  35.295  1.00  0.00     0.167 HD
ATOM     63  C   UNL A   1      42.665  29.425  34.019  1.00  0.00     0.074 A 
ATOM     64  C   UNL A   1      43.187  28.510  33.024  1.00  0.00     0.031 C 
ATOM     65  C   UNL A   1      43.277  29.708  35.194  1.00  0.00     0.037 A 
BRANCH  52  66
ATOM     66  C   UNL A   1      40.269  33.791  38.711  1.00  0.00     0.064 A 
ATOM     67  C   UNL A   1      39.518  33.328  39.802  1.00  0.00     0.173 A 
ATOM     68  C   UNL A   1      41.019  34.964  38.880  1.00  0.00     0.173 A 
ATOM     69  F   UNL A   1      38.775  32.217  39.684  1.00  0.00    -0.203 F 
ATOM     70  C   UNL A   1      39.511  34.019  41.010  1.00  0.00     0.198 A 
ATOM     71  C   UNL A   1      41.027  35.641  40.096  1.00  0.00     0.198 A 
ATOM     72  F   UNL A   1      41.758  35.446  37.868  1.00  0.00    -0.203 F 
ATOM     73  F   UNL A   1      38.763  33.575  42.030  1.00  0.00    -0.200 F 
ATOM     74  C   UNL A   1      40.271  35.170  41.159  1.00  0.00     0.200 A 
ATOM     75  F   UNL A   1      41.771  36.746  40.242  1.00  0.00    -0.200 F 
ATOM     76  F   UNL A   1      40.271  35.829  42.326  1.00  0.00    -0.200 F 
ENDBRANCH  52  66
BRANCH  53  77
ATOM     77  C   UNL A   1      40.146  28.746  30.101  1.00  0.00     0.064 A 
ATOM     78  C   UNL A   1      39.512  27.498  30.050  1.00  0.00     0.173 A 
ATOM     79  C   UNL A   1      40.723  29.237  28.920  1.00  0.00     0.173 A 
ATOM     80  F   UNL A   1      38.968  26.977  31.159  1.00  0.00    -0.203 F 
ATOM     81  C   UNL A   1      39.458  26.768  28.864  1.00  0.00     0.198 A 
ATOM     82  C   UNL A   1      40.647  28.518  27.730  1.00  0.00     0.198 A 
ATOM     83  F   UNL A   1      41.343  30.426  28.919  1.00  0.00    -0.203 F 
ATOM     84  F   UNL A   1      38.871  25.563  28.847  1.00  0.00    -0.200 F 
ATOM     85  C   UNL A   1      40.018  27.281  27.703  1.00  0.00     0.200 A 
ATOM     86  F   UNL A   1      41.179  29.022  26.608  1.00  0.00    -0.200 F 
ATOM     87  F   UNL A   1      39.955  26.584  26.561  1.00  0.00    -0.200 F 
ENDBRANCH  53  77
BRANCH  65  88
ATOM     88  C   UNL A   1      44.576  29.020  35.481  1.00  0.00     0.064 A 
ATOM     89  C   UNL A   1      45.802  29.610  35.142  1.00  0.00     0.173 A 
ATOM     90  C   UNL A   1      44.600  27.800  36.173  1.00  0.00     0.173 A 
ATOM     91  F   UNL A   1      45.830  30.769  34.467  1.00  0.00    -0.203 F 
ATOM     92  C   UNL A   1      47.007  28.999  35.479  1.00  0.00     0.198 A 
ATOM     93  C   UNL A   1      45.806  27.204  36.529  1.00  0.00     0.198 A 
ATOM     94  F   UNL A   1      43.453  27.201  36.525  1.00  0.00    -0.203 F 
ATOM     95  F   UNL A   1      48.168  29.567  35.124  1.00  0.00    -0.200 F 
ATOM     96  C   UNL A   1      47.007  27.802  36.181  1.00  0.00     0.200 A 
ATOM     97  F   UNL A   1      45.805  26.053  37.217  1.00  0.00    -0.200 F 
ATOM     98  F   UNL A   1      48.168  27.223  36.520  1.00  0.00    -0.200 F 
ENDBRANCH  65  88
ENDBRANCH  39  40
ENDBRANCH  32  34
ENDBRANCH  31  32
ENDBRANCH  30  31
ENDBRANCH   1  30
TORSDOF 13
ENDMDL
MODEL 3
REMARK VINA RESULT:     -12.7      5.271      9.578
REMARK SMILES Cc1cc(C)n(C)c(=O)c1C(=O)[NH+]1CCC2(CC1)C[NH2+][C@@H](C(=O)OCCOC(=O)c1ccc(-c3c4nc(c(-c5c(F)c(F)c(F)c(F)c5F)c5ccc([nH]5)c(-c5c(F)c(F)c(F)c(F)c5F)c5nc(c(-c6c(F)c(F)c(F)c(F)c6F)c6ccc3[nH]6)C=C5)C=C4)cc1)C2
REMARK SMILES IDX 25 1 24 2 22 3 23 4 21 5 13 6 14 7 18 8 15 10 17 11 16 12
REMARK SMILES IDX 19 13 93 14 20 15 11 18 12 19 10 20 1 21 2 22 3 23 4 24 8 25
REMARK SMILES IDX 5 26 6 27 9 28 7 29 26 30 27 31 28 32 29 33 30 34 31 35
REMARK SMILES IDX 92 36 32 37 91 38 33 39 34 40 35 41 85 42 36 43 90 44 84 45
REMARK SMILES IDX 86 46 37 47 89 48 83 49 82 50 38 52 70 53 50 54 69 55 51 56
REMARK SMILES IDX 54 57 68 58 87 59 52 60 53 61 67 63 88 64 55 65 39 66 40 67
REMARK SMILES IDX 48 68 41 69 42 70 46 71 49 72 43 73 44 74 47 75 45 76 71 77
REMARK SMILES IDX 72 78 80 79 73 80 74 81 78 82 81 83 75 84 76 85 79 86 77 87
REMARK SMILES IDX 56 88 57 89 65 90 58 91 59 92 63 93 66 94 60 95 61 96 64 97
REMARK SMILES IDX 62 98
REMARK H PARENT 13 9 20 16 20 17 86 51 54 62
REMARK Flexibility Score: inf
ROOT
ATOM      1  C   UNL A   1      33.179  34.571  28.557  1.00  0.00     0.274 C 
ENDROOT
BRANCH   1   2
ATOM      2  O   UNL A   1      33.813  33.358  28.999  1.00  0.00    -0.458 OA
BRANCH   2   3
ATOM      3  C   UNL A   1      34.689  32.788  28.135  1.00  0.00     0.364 C 
ATOM      4  O   UNL A   1      35.572  33.388  27.528  1.00  0.00    -0.245 OA
BRANCH   3   5
ATOM      5  C   UNL A   1      34.496  31.283  27.997  1.00  0.00     0.294 C 
ATOM      6  N   UNL A   1      31.728  27.609  25.491  1.00  0.00    -0.267 N 
ATOM      7  C   UNL A   1      31.477  28.043  26.857  1.00  0.00     0.271 C 
ATOM      8  C   UNL A   1      32.248  28.666  24.636  1.00  0.00     0.271 C 
ATOM      9  H   UNL A   1      32.147  27.510  24.607  1.00  0.00     0.357 HD
ATOM     10  C   UNL A   1      32.831  28.288  27.508  1.00  0.00     0.075 C 
ATOM     11  C   UNL A   1      33.540  29.277  25.201  1.00  0.00     0.075 C 
ATOM     12  C   UNL A   1      33.656  29.364  26.757  1.00  0.00     0.036 C 
ATOM     13  C   UNL A   1      35.144  29.250  27.178  1.00  0.00     0.268 C 
ATOM     14  C   UNL A   1      33.260  30.782  27.255  1.00  0.00     0.090 C 
ATOM     15  N   UNL A   1      35.604  30.635  27.274  1.00  0.00    -0.334 N 
ATOM     16  H   UNL A   1      35.733  31.045  26.349  1.00  0.00     0.347 HD
ATOM     17  H   UNL A   1      36.508  30.734  27.736  1.00  0.00     0.347 HD
BRANCH   6  18
ATOM     18  C   UNL A   1      31.552  26.264  25.193  1.00  0.00     0.350 C 
ATOM     19  O   UNL A   1      30.752  25.891  24.331  1.00  0.00    -0.225 OA
BRANCH  18  20
ATOM     20  C   UNL A   1      32.229  25.207  25.998  1.00  0.00     0.147 A 
ATOM     21  C   UNL A   1      30.028  24.109  26.679  1.00  0.00     0.045 C 
ATOM     22  C   UNL A   1      31.521  24.228  26.604  1.00  0.00    -0.027 A 
ATOM     23  C   UNL A   1      32.197  23.062  27.132  1.00  0.00     0.026 A 
ATOM     24  C   UNL A   1      33.477  22.796  26.836  1.00  0.00     0.018 A 
ATOM     25  C   UNL A   1      33.708  25.007  25.810  1.00  0.00     0.267 A 
ATOM     26  C   UNL A   1      34.059  21.476  27.266  1.00  0.00     0.064 C 
ATOM     27  N   UNL A   1      34.225  23.739  26.134  1.00  0.00    -0.315 N 
ATOM     28  O   UNL A   1      34.406  25.925  25.377  1.00  0.00    -0.268 OA
ATOM     29  C   UNL A   1      35.589  23.441  25.716  1.00  0.00     0.153 C 
ENDBRANCH  18  20
ENDBRANCH   6  18
ENDBRANCH   3   5
ENDBRANCH   2   3
ENDBRANCH   1   2
BRANCH   1  30
ATOM     30  C   UNL A   1      33.171  35.597  29.692  1.00  0.00     0.275 C 
BRANCH  30  31
ATOM     31  O   UNL A   1      32.516  35.076  30.867  1.00  0.00    -0.458 OA
BRANCH  31  32
ATOM     32  C   UNL A   1      32.872  35.660  32.035  1.00  0.00     0.338 C 
ATOM     33  O   UNL A   1      32.290  36.548  32.633  1.00  0.00    -0.246 OA
BRANCH  32  34
ATOM     34  C   UNL A   1      34.042  34.969  32.596  1.00  0.00     0.060 A 
ATOM     35  C   UNL A   1      35.290  35.582  32.465  1.00  0.00     0.016 A 
ATOM     36  C   UNL A   1      33.937  33.692  33.146  1.00  0.00     0.016 A 
ATOM     37  C   UNL A   1      36.443  34.921  32.870  1.00  0.00     0.010 A 
ATOM     38  C   UNL A   1      35.097  33.031  33.569  1.00  0.00     0.010 A 
ATOM     39  C   UNL A   1      36.358  33.638  33.423  1.00  0.00    -0.014 A 
BRANCH  39  40
ATOM     40  C   UNL A   1      37.605  32.933  33.803  1.00  0.00     0.031 A 
ATOM     41  C   UNL A   1      38.212  31.925  32.873  1.00  0.00     0.074 A 
ATOM     42  C   UNL A   1      38.227  33.254  34.953  1.00  0.00     0.049 A 
ATOM     43  N   UNL A   1      39.281  31.187  33.035  1.00  0.00    -0.248 NA
ATOM     44  C   UNL A   1      37.531  31.722  31.583  1.00  0.00     0.031 C 
ATOM     45  C   UNL A   1      37.766  34.266  35.904  1.00  0.00     0.029 A 
ATOM     46  N   UNL A   1      39.387  32.775  35.508  1.00  0.00    -0.354 N 
ATOM     47  C   UNL A   1      39.396  30.429  31.878  1.00  0.00     0.074 A 
ATOM     48  C   UNL A   1      38.277  30.778  31.029  1.00  0.00     0.031 C 
ATOM     49  C   UNL A   1      38.649  34.351  36.912  1.00  0.00     0.029 A 
ATOM     50  C   UNL A   1      39.707  33.366  36.704  1.00  0.00     0.049 A 
ATOM     51  H   UNL A   1      39.937  32.075  35.087  1.00  0.00     0.167 HD
ATOM     52  C   UNL A   1      40.356  29.530  31.554  1.00  0.00     0.037 A 
ATOM     53  C   UNL A   1      40.731  33.128  37.547  1.00  0.00     0.037 A 
ATOM     54  C   UNL A   1      41.474  29.196  32.396  1.00  0.00     0.049 A 
ATOM     55  C   UNL A   1      41.735  32.063  37.201  1.00  0.00     0.074 A 
ATOM     56  C   UNL A   1      42.493  28.291  32.157  1.00  0.00     0.029 A 
ATOM     57  N   UNL A   1      41.723  29.762  33.639  1.00  0.00    -0.354 N 
ATOM     58  N   UNL A   1      41.818  31.327  36.120  1.00  0.00    -0.248 NA
ATOM     59  C   UNL A   1      42.776  31.783  38.200  1.00  0.00     0.031 C 
ATOM     60  C   UNL A   1      43.339  28.281  33.271  1.00  0.00     0.029 A 
ATOM     61  C   UNL A   1      42.869  29.209  34.187  1.00  0.00     0.049 A 
ATOM     62  H   UNL A   1      41.168  30.452  34.067  1.00  0.00     0.167 HD
ATOM     63  C   UNL A   1      42.923  30.508  36.299  1.00  0.00     0.074 A 
ATOM     64  C   UNL A   1      43.491  30.847  37.589  1.00  0.00     0.031 C 
ATOM     65  C   UNL A   1      43.420  29.558  35.471  1.00  0.00     0.037 A 
BRANCH  52  66
ATOM     66  C   UNL A   1      40.231  28.826  30.237  1.00  0.00     0.064 A 
ATOM     67  C   UNL A   1      40.810  29.346  29.070  1.00  0.00     0.173 A 
ATOM     68  C   UNL A   1      39.574  27.590  30.153  1.00  0.00     0.173 A 
ATOM     69  F   UNL A   1      41.438  30.530  29.100  1.00  0.00    -0.203 F 
ATOM     70  C   UNL A   1      40.724  28.658  27.863  1.00  0.00     0.198 A 
ATOM     71  C   UNL A   1      39.509  26.895  28.948  1.00  0.00     0.198 A 
ATOM     72  F   UNL A   1      39.008  27.048  31.242  1.00  0.00    -0.203 F 
ATOM     73  F   UNL A   1      41.258  29.187  26.753  1.00  0.00    -0.200 F 
ATOM     74  C   UNL A   1      40.080  27.431  27.804  1.00  0.00     0.200 A 
ATOM     75  F   UNL A   1      38.897  25.703  28.895  1.00  0.00    -0.200 F 
ATOM     76  F   UNL A   1      40.007  26.766  26.643  1.00  0.00    -0.200 F 
ENDBRANCH  52  66
BRANCH  53  77
ATOM     77  C   UNL A   1      40.849  33.913  38.802  1.00  0.00     0.064 A 
ATOM     78  C   UNL A   1      41.641  35.067  38.855  1.00  0.00     0.173 A 
ATOM     79  C   UNL A   1      40.160  33.537  39.965  1.00  0.00     0.173 A 
ATOM     80  F   UNL A   1      42.337  35.452  37.776  1.00  0.00    -0.203 F 
ATOM     81  C   UNL A   1      41.740  35.817  40.025  1.00  0.00     0.198 A 
ATOM     82  C   UNL A   1      40.240  34.301  41.126  1.00  0.00     0.198 A 
ATOM     83  F   UNL A   1      39.392  32.438  39.965  1.00  0.00    -0.203 F 
ATOM     84  F   UNL A   1      42.526  36.902  40.059  1.00  0.00    -0.200 F 
ATOM     85  C   UNL A   1      41.033  35.438  41.158  1.00  0.00     0.200 A 
ATOM     86  F   UNL A   1      39.547  33.937  42.215  1.00  0.00    -0.200 F 
ATOM     87  F   UNL A   1      41.120  36.166  42.279  1.00  0.00    -0.200 F 
ENDBRANCH  53  77
BRANCH  65  88
ATOM     88  C   UNL A   1      44.643  28.818  35.920  1.00  0.00     0.064 A 
ATOM     89  C   UNL A   1      45.929  29.304  35.647  1.00  0.00     0.173 A 
ATOM     90  C   UNL A   1      44.527  27.657  36.699  1.00  0.00     0.173 A 
ATOM     91  F   UNL A   1      46.090  30.403  34.894  1.00  0.00    -0.203 F 
ATOM     92  C   UNL A   1      47.058  28.650  36.133  1.00  0.00     0.198 A 
ATOM     93  C   UNL A   1      45.657  27.019  37.202  1.00  0.00     0.198 A 
ATOM     94  F   UNL A   1      43.318  27.158  36.992  1.00  0.00    -0.203 F 
ATOM     95  F   UNL A   1      48.280  29.117  35.839  1.00  0.00    -0.200 F 
ATOM     96  C   UNL A   1      46.921  27.515  36.917  1.00  0.00     0.200 A 
ATOM     97  F   UNL A   1      45.523  25.928  37.969  1.00  0.00    -0.200 F 
ATOM     98  F   UNL A   1      48.008  26.895  37.398  1.00  0.00    -0.200 F 
ENDBRANCH  65  88
ENDBRANCH  39  40
ENDBRANCH  32  34
ENDBRANCH  31  32
ENDBRANCH  30  31
ENDBRANCH   1  30
TORSDOF 13
ENDMDL
