MODEL 1
REMARK VINA RESULT:     -13.2      0.000      0.000
REMARK SMILES CS(=O)(=O)c1ccc(/C=C(/C(=O)OCCOC(=O)c2ccc(-c3c4nc(c(-c5c(F)c(F)c(F)c(F)c5F)c5ccc([nH]5)c(-c5c(F)c(F)c(F)c(F)c5F)c5nc(c(-c6c(F)c(F)c(F)c(F)c6F)c6ccc3[nH]6)C=C5)C=C4)cc2)c2ccc(-c3ccc(F)cc3F)cc2)cc1
REMARK SMILES IDX 14 1 13 2 11 3 12 4 10 5 9 6 8 7 5 8 6 9 97 10 7 11 96 12
REMARK SMILES IDX 2 13 1 14 3 15 4 16 82 17 83 18 95 19 84 20 94 21 85 22
REMARK SMILES IDX 86 23 87 24 92 25 88 26 91 27 93 28 89 29 90 30 15 31 16 32
REMARK SMILES IDX 17 33 18 34 19 35 20 36 81 37 21 38 80 39 22 40 23 41 24 42
REMARK SMILES IDX 74 43 25 44 79 45 73 46 75 47 26 48 78 49 72 50 71 51 27 53
REMARK SMILES IDX 59 54 39 55 58 56 40 57 43 58 57 59 76 60 41 61 42 62 56 64
REMARK SMILES IDX 77 65 44 66 28 67 29 68 37 69 30 70 31 71 35 72 38 73 32 74
REMARK SMILES IDX 33 75 36 76 34 77 60 78 61 79 69 80 62 81 63 82 67 83 70 84
REMARK SMILES IDX 64 85 65 86 68 87 66 88 45 89 46 90 54 91 47 92 48 93 52 94
REMARK SMILES IDX 55 95 49 96 50 97 53 98 51 99
REMARK H PARENT 75 52 43 63
REMARK Flexibility Score: inf
ROOT
ATOM      1  C   UNL A   1      34.924  23.159  26.117  1.00  0.00     0.275 C 
ENDROOT
BRANCH   1   2
ATOM      2  O   UNL A   1      33.733  23.213  25.303  1.00  0.00    -0.458 OA
BRANCH   2   3
ATOM      3  C   UNL A   1      32.633  23.721  25.916  1.00  0.00     0.338 C 
ATOM      4  O   UNL A   1      32.094  23.258  26.912  1.00  0.00    -0.246 OA
BRANCH   3   5
ATOM      5  C   UNL A   1      32.161  24.979  25.261  1.00  0.00     0.067 C 
ATOM      6  C   UNL A   1      31.204  24.901  24.310  1.00  0.00     0.024 C 
BRANCH   6   7
ATOM      7  C   UNL A   1      30.428  26.018  23.727  1.00  0.00    -0.025 A 
ATOM      8  C   UNL A   1      28.944  28.268  22.942  1.00  0.00     0.067 A 
ATOM      9  C   UNL A   1      30.232  28.085  22.448  1.00  0.00     0.021 A 
ATOM     10  C   UNL A   1      28.351  27.297  23.749  1.00  0.00     0.021 A 
ATOM     11  C   UNL A   1      30.953  26.950  22.821  1.00  0.00     0.009 A 
ATOM     12  C   UNL A   1      29.096  26.178  24.139  1.00  0.00     0.009 A 
BRANCH   8  13
ATOM     13  S   UNL A   1      28.069  29.764  22.557  1.00  0.00     0.175 S 
ATOM     14  C   UNL A   1      28.996  31.038  23.377  1.00  0.00     0.163 C 
ATOM     15  O   UNL A   1      26.774  29.691  23.198  1.00  0.00    -0.224 OA
ATOM     16  O   UNL A   1      28.189  29.962  21.122  1.00  0.00    -0.224 OA
ENDBRANCH   8  13
ENDBRANCH   6   7
BRANCH   5  17
ATOM     17  C   UNL A   1      32.664  26.257  25.795  1.00  0.00    -0.011 A 
ATOM     18  C   UNL A   1      33.769  26.866  25.190  1.00  0.00     0.009 A 
ATOM     19  C   UNL A   1      32.041  26.905  26.862  1.00  0.00     0.009 A 
ATOM     20  C   UNL A   1      34.235  28.105  25.643  1.00  0.00     0.009 A 
ATOM     21  C   UNL A   1      32.518  28.145  27.313  1.00  0.00     0.009 A 
ATOM     22  C   UNL A   1      33.635  28.773  26.727  1.00  0.00    -0.015 A 
BRANCH  22  23
ATOM     23  C   UNL A   1      34.182  30.059  27.234  1.00  0.00     0.018 A 
ATOM     24  C   UNL A   1      35.541  30.180  27.595  1.00  0.00     0.015 A 
ATOM     25  C   UNL A   1      33.383  31.209  27.404  1.00  0.00     0.133 A 
ATOM     26  C   UNL A   1      36.061  31.376  28.104  1.00  0.00     0.040 A 
ATOM     27  C   UNL A   1      33.897  32.411  27.889  1.00  0.00     0.079 A 
ATOM     28  F   UNL A   1      32.073  31.181  27.112  1.00  0.00    -0.206 F 
ATOM     29  C   UNL A   1      35.234  32.481  28.240  1.00  0.00     0.126 A 
ATOM     30  F   UNL A   1      35.737  33.632  28.704  1.00  0.00    -0.207 F 
ENDBRANCH  22  23
ENDBRANCH   5  17
ENDBRANCH   3   5
ENDBRANCH   2   3
ENDBRANCH   1   2
BRANCH   1  31
ATOM     31  C   UNL A   1      35.798  21.971  25.718  1.00  0.00     0.275 C 
BRANCH  31  32
ATOM     32  O   UNL A   1      37.031  22.443  25.144  1.00  0.00    -0.458 OA
BRANCH  32  33
ATOM     33  C   UNL A   1      38.166  21.977  25.708  1.00  0.00     0.338 C 
ATOM     34  O   UNL A   1      38.654  20.863  25.579  1.00  0.00    -0.246 OA
BRANCH  33  35
ATOM     35  C   UNL A   1      38.814  23.029  26.515  1.00  0.00     0.060 A 
ATOM     36  C   UNL A   1      38.370  24.343  26.437  1.00  0.00     0.016 A 
ATOM     37  C   UNL A   1      39.983  22.737  27.221  1.00  0.00     0.016 A 
ATOM     38  C   UNL A   1      39.171  25.373  26.933  1.00  0.00     0.010 A 
ATOM     39  C   UNL A   1      40.722  23.770  27.816  1.00  0.00     0.010 A 
ATOM     40  C   UNL A   1      40.368  25.116  27.620  1.00  0.00    -0.014 A 
BRANCH  40  41
ATOM     41  C   UNL A   1      41.268  26.236  28.055  1.00  0.00     0.031 A 
ATOM     42  C   UNL A   1      40.804  27.256  29.073  1.00  0.00     0.074 A 
ATOM     43  C   UNL A   1      42.528  26.346  27.583  1.00  0.00     0.049 A 
ATOM     44  N   UNL A   1      41.340  28.409  29.401  1.00  0.00    -0.248 NA
ATOM     45  C   UNL A   1      39.567  26.954  29.810  1.00  0.00     0.031 C 
ATOM     46  C   UNL A   1      43.169  25.429  26.641  1.00  0.00     0.029 A 
ATOM     47  N   UNL A   1      43.510  27.274  27.851  1.00  0.00    -0.354 N 
ATOM     48  C   UNL A   1      40.458  29.005  30.296  1.00  0.00     0.074 A 
ATOM     49  C   UNL A   1      39.364  28.077  30.485  1.00  0.00     0.031 C 
ATOM     50  C   UNL A   1      44.448  25.787  26.472  1.00  0.00     0.029 A 
ATOM     51  C   UNL A   1      44.687  27.035  27.185  1.00  0.00     0.049 A 
ATOM     52  H   UNL A   1      43.380  28.036  28.461  1.00  0.00     0.167 HD
ATOM     53  C   UNL A   1      40.546  30.219  30.894  1.00  0.00     0.037 A 
ATOM     54  C   UNL A   1      45.820  27.759  27.097  1.00  0.00     0.037 A 
ATOM     55  C   UNL A   1      41.678  31.105  30.790  1.00  0.00     0.049 A 
ATOM     56  C   UNL A   1      45.903  29.095  27.774  1.00  0.00     0.074 A 
ATOM     57  C   UNL A   1      41.863  32.343  31.383  1.00  0.00     0.029 A 
ATOM     58  N   UNL A   1      42.831  30.834  30.071  1.00  0.00    -0.354 N 
ATOM     59  N   UNL A   1      45.014  29.697  28.523  1.00  0.00    -0.248 NA
ATOM     60  C   UNL A   1      47.134  29.869  27.560  1.00  0.00     0.031 C 
ATOM     61  C   UNL A   1      43.115  32.835  30.999  1.00  0.00     0.029 A 
ATOM     62  C   UNL A   1      43.726  31.884  30.200  1.00  0.00     0.049 A 
ATOM     63  H   UNL A   1      42.992  30.015  29.547  1.00  0.00     0.167 HD
ATOM     64  C   UNL A   1      45.572  30.921  28.863  1.00  0.00     0.074 A 
ATOM     65  C   UNL A   1      46.890  30.963  28.266  1.00  0.00     0.031 C 
ATOM     66  C   UNL A   1      45.032  31.925  29.595  1.00  0.00     0.037 A 
BRANCH  53  67
ATOM     67  C   UNL A   1      39.369  30.697  31.696  1.00  0.00     0.064 A 
ATOM     68  C   UNL A   1      39.177  30.331  33.034  1.00  0.00     0.173 A 
ATOM     69  C   UNL A   1      38.457  31.602  31.126  1.00  0.00     0.173 A 
ATOM     70  F   UNL A   1      40.013  29.462  33.622  1.00  0.00    -0.203 F 
ATOM     71  C   UNL A   1      38.106  30.838  33.769  1.00  0.00     0.198 A 
ATOM     72  C   UNL A   1      37.404  32.128  31.870  1.00  0.00     0.198 A 
ATOM     73  F   UNL A   1      38.600  31.994  29.851  1.00  0.00    -0.203 F 
ATOM     74  F   UNL A   1      37.920  30.447  35.036  1.00  0.00    -0.200 F 
ATOM     75  C   UNL A   1      37.226  31.742  33.189  1.00  0.00     0.200 A 
ATOM     76  F   UNL A   1      36.566  33.013  31.313  1.00  0.00    -0.200 F 
ATOM     77  F   UNL A   1      36.206  32.238  33.902  1.00  0.00    -0.200 F 
ENDBRANCH  53  67
BRANCH  54  78
ATOM     78  C   UNL A   1      46.949  27.253  26.274  1.00  0.00     0.064 A 
ATOM     79  C   UNL A   1      47.045  27.568  24.914  1.00  0.00     0.173 A 
ATOM     80  C   UNL A   1      47.964  26.464  26.838  1.00  0.00     0.173 A 
ATOM     81  F   UNL A   1      46.083  28.297  24.326  1.00  0.00    -0.203 F 
ATOM     82  C   UNL A   1      48.114  27.114  24.146  1.00  0.00     0.198 A 
ATOM     83  C   UNL A   1      49.051  26.041  26.078  1.00  0.00     0.198 A 
ATOM     84  F   UNL A   1      47.915  26.133  28.137  1.00  0.00    -0.203 F 
ATOM     85  F   UNL A   1      48.166  27.399  22.837  1.00  0.00    -0.200 F 
ATOM     86  C   UNL A   1      49.123  26.361  24.731  1.00  0.00     0.200 A 
ATOM     87  F   UNL A   1      50.031  25.330  26.652  1.00  0.00    -0.200 F 
ATOM     88  F   UNL A   1      50.161  25.940  23.996  1.00  0.00    -0.200 F 
ENDBRANCH  54  78
BRANCH  66  89
ATOM     89  C   UNL A   1      45.869  33.151  29.796  1.00  0.00     0.064 A 
ATOM     90  C   UNL A   1      46.761  33.259  30.873  1.00  0.00     0.173 A 
ATOM     91  C   UNL A   1      45.793  34.223  28.894  1.00  0.00     0.173 A 
ATOM     92  F   UNL A   1      46.858  32.266  31.770  1.00  0.00    -0.203 F 
ATOM     93  C   UNL A   1      47.529  34.406  31.053  1.00  0.00     0.198 A 
ATOM     94  C   UNL A   1      46.578  35.359  29.065  1.00  0.00     0.198 A 
ATOM     95  F   UNL A   1      44.958  34.166  27.846  1.00  0.00    -0.203 F 
ATOM     96  F   UNL A   1      48.343  34.505  32.113  1.00  0.00    -0.200 F 
ATOM     97  C   UNL A   1      47.441  35.452  30.147  1.00  0.00     0.200 A 
ATOM     98  F   UNL A   1      46.498  36.366  28.185  1.00  0.00    -0.200 F 
ATOM     99  F   UNL A   1      48.180  36.556  30.324  1.00  0.00    -0.200 F 
ENDBRANCH  66  89
ENDBRANCH  40  41
ENDBRANCH  33  35
ENDBRANCH  32  33
ENDBRANCH  31  32
ENDBRANCH   1  31
TORSDOF 15
ENDMDL
MODEL 2
REMARK VINA RESULT:     -12.1      5.336     10.552
REMARK SMILES CS(=O)(=O)c1ccc(/C=C(/C(=O)OCCOC(=O)c2ccc(-c3c4nc(c(-c5c(F)c(F)c(F)c(F)c5F)c5ccc([nH]5)c(-c5c(F)c(F)c(F)c(F)c5F)c5nc(c(-c6c(F)c(F)c(F)c(F)c6F)c6ccc3[nH]6)C=C5)C=C4)cc2)c2ccc(-c3ccc(F)cc3F)cc2)cc1
REMARK SMILES IDX 14 1 13 2 11 3 12 4 10 5 9 6 8 7 5 8 6 9 97 10 7 11 96 12
REMARK SMILES IDX 2 13 1 14 3 15 4 16 82 17 83 18 95 19 84 20 94 21 85 22
REMARK SMILES IDX 86 23 87 24 92 25 88 26 91 27 93 28 89 29 90 30 15 31 16 32
REMARK SMILES IDX 17 33 18 34 19 35 20 36 81 37 21 38 80 39 22 40 23 41 24 42
REMARK SMILES IDX 74 43 25 44 79 45 73 46 75 47 26 48 78 49 72 50 71 51 27 53
REMARK SMILES IDX 59 54 39 55 58 56 40 57 43 58 57 59 76 60 41 61 42 62 56 64
REMARK SMILES IDX 77 65 44 66 28 67 29 68 37 69 30 70 31 71 35 72 38 73 32 74
REMARK SMILES IDX 33 75 36 76 34 77 60 78 61 79 69 80 62 81 63 82 67 83 70 84
REMARK SMILES IDX 64 85 65 86 68 87 66 88 45 89 46 90 54 91 47 92 48 93 52 94
REMARK SMILES IDX 55 95 49 96 50 97 53 98 51 99
REMARK H PARENT 75 52 43 63
REMARK Flexibility Score: inf
ROOT
ATOM      1  C   UNL A   1      38.595  33.029  38.632  1.00  0.00     0.275 C 
ENDROOT
BRANCH   1   2
ATOM      2  O   UNL A   1      38.239  33.253  37.251  1.00  0.00    -0.458 OA
BRANCH   2   3
ATOM      3  C   UNL A   1      38.469  32.207  36.415  1.00  0.00     0.338 C 
ATOM      4  O   UNL A   1      39.202  31.255  36.648  1.00  0.00    -0.246 OA
BRANCH   3   5
ATOM      5  C   UNL A   1      37.667  32.312  35.159  1.00  0.00     0.067 C 
ATOM      6  C   UNL A   1      36.692  33.246  35.083  1.00  0.00     0.024 C 
BRANCH   6   7
ATOM      7  C   UNL A   1      35.964  33.683  33.870  1.00  0.00    -0.025 A 
ATOM      8  C   UNL A   1      34.778  34.283  31.399  1.00  0.00     0.067 A 
ATOM      9  C   UNL A   1      34.008  33.723  32.414  1.00  0.00     0.021 A 
ATOM     10  C   UNL A   1      36.108  34.633  31.630  1.00  0.00     0.021 A 
ATOM     11  C   UNL A   1      34.598  33.453  33.649  1.00  0.00     0.009 A 
ATOM     12  C   UNL A   1      36.695  34.330  32.863  1.00  0.00     0.009 A 
BRANCH   8  13
ATOM     13  S   UNL A   1      34.057  34.524  29.794  1.00  0.00     0.175 S 
ATOM     14  C   UNL A   1      34.028  32.899  29.077  1.00  0.00     0.163 C 
ATOM     15  O   UNL A   1      34.978  35.323  29.016  1.00  0.00    -0.224 OA
ATOM     16  O   UNL A   1      32.685  34.953  30.011  1.00  0.00    -0.224 OA
ENDBRANCH   8  13
ENDBRANCH   6   7
BRANCH   5  17
ATOM     17  C   UNL A   1      38.080  31.484  34.012  1.00  0.00    -0.011 A 
ATOM     18  C   UNL A   1      37.403  30.289  33.749  1.00  0.00     0.009 A 
ATOM     19  C   UNL A   1      39.103  31.881  33.149  1.00  0.00     0.009 A 
ATOM     20  C   UNL A   1      37.741  29.509  32.638  1.00  0.00     0.009 A 
ATOM     21  C   UNL A   1      39.438  31.091  32.039  1.00  0.00     0.009 A 
ATOM     22  C   UNL A   1      38.777  29.878  31.760  1.00  0.00    -0.015 A 
BRANCH  22  23
ATOM     23  C   UNL A   1      39.164  29.007  30.619  1.00  0.00     0.018 A 
ATOM     24  C   UNL A   1      40.358  28.255  30.648  1.00  0.00     0.015 A 
ATOM     25  C   UNL A   1      38.383  28.898  29.449  1.00  0.00     0.133 A 
ATOM     26  C   UNL A   1      40.748  27.456  29.567  1.00  0.00     0.040 A 
ATOM     27  C   UNL A   1      38.753  28.087  28.377  1.00  0.00     0.079 A 
ATOM     28  F   UNL A   1      37.244  29.596  29.320  1.00  0.00    -0.206 F 
ATOM     29  C   UNL A   1      39.938  27.376  28.445  1.00  0.00     0.126 A 
ATOM     30  F   UNL A   1      40.300  26.592  27.421  1.00  0.00    -0.207 F 
ENDBRANCH  22  23
ENDBRANCH   5  17
ENDBRANCH   3   5
ENDBRANCH   2   3
ENDBRANCH   1   2
BRANCH   1  31
ATOM     31  C   UNL A   1      39.038  34.332  39.294  1.00  0.00     0.275 C 
BRANCH  31  32
ATOM     32  O   UNL A   1      38.647  35.452  38.477  1.00  0.00    -0.458 OA
BRANCH  32  33
ATOM     33  C   UNL A   1      39.625  36.329  38.163  1.00  0.00     0.338 C 
ATOM     34  O   UNL A   1      39.915  37.359  38.755  1.00  0.00    -0.246 OA
BRANCH  33  35
ATOM     35  C   UNL A   1      40.377  35.866  36.981  1.00  0.00     0.060 A 
ATOM     36  C   UNL A   1      39.731  35.698  35.763  1.00  0.00     0.016 A 
ATOM     37  C   UNL A   1      41.695  35.428  37.128  1.00  0.00     0.016 A 
ATOM     38  C   UNL A   1      40.347  34.962  34.749  1.00  0.00     0.010 A 
ATOM     39  C   UNL A   1      42.348  34.791  36.063  1.00  0.00     0.010 A 
ATOM     40  C   UNL A   1      41.660  34.481  34.877  1.00  0.00    -0.014 A 
BRANCH  40  41
ATOM     41  C   UNL A   1      42.270  33.605  33.822  1.00  0.00     0.031 A 
ATOM     42  C   UNL A   1      42.750  34.187  32.509  1.00  0.00     0.074 A 
ATOM     43  C   UNL A   1      42.446  32.281  34.025  1.00  0.00     0.049 A 
ATOM     44  N   UNL A   1      43.089  33.572  31.399  1.00  0.00    -0.248 NA
ATOM     45  C   UNL A   1      42.847  35.653  32.421  1.00  0.00     0.031 C 
ATOM     46  C   UNL A   1      42.098  31.553  35.243  1.00  0.00     0.029 A 
ATOM     47  N   UNL A   1      42.984  31.311  33.209  1.00  0.00    -0.354 N 
ATOM     48  C   UNL A   1      43.336  34.571  30.464  1.00  0.00     0.074 A 
ATOM     49  C   UNL A   1      43.138  35.835  31.140  1.00  0.00     0.031 C 
ATOM     50  C   UNL A   1      42.501  30.281  35.131  1.00  0.00     0.029 A 
ATOM     51  C   UNL A   1      43.013  30.064  33.784  1.00  0.00     0.049 A 
ATOM     52  H   UNL A   1      43.316  31.494  32.300  1.00  0.00     0.167 HD
ATOM     53  C   UNL A   1      43.683  34.446  29.159  1.00  0.00     0.037 A 
ATOM     54  C   UNL A   1      43.353  28.862  33.281  1.00  0.00     0.037 A 
ATOM     55  C   UNL A   1      43.981  33.196  28.505  1.00  0.00     0.049 A 
ATOM     56  C   UNL A   1      43.745  28.744  31.838  1.00  0.00     0.074 A 
ATOM     57  C   UNL A   1      44.366  32.978  27.193  1.00  0.00     0.029 A 
ATOM     58  N   UNL A   1      43.958  31.956  29.123  1.00  0.00    -0.354 N 
ATOM     59  N   UNL A   1      43.862  29.685  30.935  1.00  0.00    -0.248 NA
ATOM     60  C   UNL A   1      44.013  27.389  31.335  1.00  0.00     0.031 C 
ATOM     61  C   UNL A   1      44.546  31.604  27.007  1.00  0.00     0.029 A 
ATOM     62  C   UNL A   1      44.314  30.970  28.215  1.00  0.00     0.049 A 
ATOM     63  H   UNL A   1      43.724  31.798  30.066  1.00  0.00     0.167 HD
ATOM     64  C   UNL A   1      44.209  29.038  29.758  1.00  0.00     0.074 A 
ATOM     65  C   UNL A   1      44.316  27.628  30.067  1.00  0.00     0.031 C 
ATOM     66  C   UNL A   1      44.408  29.568  28.527  1.00  0.00     0.037 A 
BRANCH  53  67
ATOM     67  C   UNL A   1      43.730  35.691  28.318  1.00  0.00     0.064 A 
ATOM     68  C   UNL A   1      42.576  36.268  27.772  1.00  0.00     0.173 A 
ATOM     69  C   UNL A   1      44.953  36.355  28.122  1.00  0.00     0.173 A 
ATOM     70  F   UNL A   1      41.386  35.668  27.921  1.00  0.00    -0.203 F 
ATOM     71  C   UNL A   1      42.647  37.456  27.045  1.00  0.00     0.198 A 
ATOM     72  C   UNL A   1      45.015  37.555  27.418  1.00  0.00     0.198 A 
ATOM     73  F   UNL A   1      46.086  35.850  28.633  1.00  0.00    -0.203 F 
ATOM     74  F   UNL A   1      41.536  37.972  26.501  1.00  0.00    -0.200 F 
ATOM     75  C   UNL A   1      43.863  38.102  26.876  1.00  0.00     0.200 A 
ATOM     76  F   UNL A   1      46.189  38.185  27.271  1.00  0.00    -0.200 F 
ATOM     77  F   UNL A   1      43.925  39.250  26.188  1.00  0.00    -0.200 F 
ENDBRANCH  53  67
BRANCH  54  78
ATOM     78  C   UNL A   1      43.270  27.657  34.147  1.00  0.00     0.064 A 
ATOM     79  C   UNL A   1      42.044  27.019  34.374  1.00  0.00     0.173 A 
ATOM     80  C   UNL A   1      44.416  27.108  34.743  1.00  0.00     0.173 A 
ATOM     81  F   UNL A   1      40.919  27.523  33.847  1.00  0.00    -0.203 F 
ATOM     82  C   UNL A   1      41.968  25.876  35.167  1.00  0.00     0.198 A 
ATOM     83  C   UNL A   1      44.343  25.946  35.505  1.00  0.00     0.198 A 
ATOM     84  F   UNL A   1      45.612  27.686  34.556  1.00  0.00    -0.203 F 
ATOM     85  F   UNL A   1      40.779  25.303  35.400  1.00  0.00    -0.200 F 
ATOM     86  C   UNL A   1      43.119  25.334  35.721  1.00  0.00     0.200 A 
ATOM     87  F   UNL A   1      45.460  25.417  36.022  1.00  0.00    -0.200 F 
ATOM     88  F   UNL A   1      43.047  24.223  36.468  1.00  0.00    -0.200 F 
ENDBRANCH  54  78
BRANCH  66  89
ATOM     89  C   UNL A   1      44.769  28.619  27.424  1.00  0.00     0.064 A 
ATOM     90  C   UNL A   1      46.093  28.201  27.223  1.00  0.00     0.173 A 
ATOM     91  C   UNL A   1      43.780  28.108  26.571  1.00  0.00     0.173 A 
ATOM     92  F   UNL A   1      47.075  28.675  28.004  1.00  0.00    -0.203 F 
ATOM     93  C   UNL A   1      46.416  27.325  26.192  1.00  0.00     0.198 A 
ATOM     94  C   UNL A   1      44.104  27.214  25.555  1.00  0.00     0.198 A 
ATOM     95  F   UNL A   1      42.498  28.474  26.726  1.00  0.00    -0.203 F 
ATOM     96  F   UNL A   1      47.694  26.973  25.990  1.00  0.00    -0.200 F 
ATOM     97  C   UNL A   1      45.422  26.828  25.362  1.00  0.00     0.200 A 
ATOM     98  F   UNL A   1      43.142  26.728  24.759  1.00  0.00    -0.200 F 
ATOM     99  F   UNL A   1      45.737  25.985  24.369  1.00  0.00    -0.200 F 
ENDBRANCH  66  89
ENDBRANCH  40  41
ENDBRANCH  33  35
ENDBRANCH  32  33
ENDBRANCH  31  32
ENDBRANCH   1  31
TORSDOF 15
ENDMDL
MODEL 3
REMARK VINA RESULT:     -12.1      0.992      7.173
REMARK SMILES CS(=O)(=O)c1ccc(/C=C(/C(=O)OCCOC(=O)c2ccc(-c3c4nc(c(-c5c(F)c(F)c(F)c(F)c5F)c5ccc([nH]5)c(-c5c(F)c(F)c(F)c(F)c5F)c5nc(c(-c6c(F)c(F)c(F)c(F)c6F)c6ccc3[nH]6)C=C5)C=C4)cc2)c2ccc(-c3ccc(F)cc3F)cc2)cc1
REMARK SMILES IDX 14 1 13 2 11 3 12 4 10 5 9 6 8 7 5 8 6 9 97 10 7 11 96 12
REMARK SMILES IDX 2 13 1 14 3 15 4 16 82 17 83 18 95 19 84 20 94 21 85 22
REMARK SMILES IDX 86 23 87 24 92 25 88 26 91 27 93 28 89 29 90 30 15 31 16 32
REMARK SMILES IDX 17 33 18 34 19 35 20 36 81 37 21 38 80 39 22 40 23 41 24 42
REMARK SMILES IDX 74 43 25 44 79 45 73 46 75 47 26 48 78 49 72 50 71 51 27 53
REMARK SMILES IDX 59 54 39 55 58 56 40 57 43 58 57 59 76 60 41 61 42 62 56 64
REMARK SMILES IDX 77 65 44 66 28 67 29 68 37 69 30 70 31 71 35 72 38 73 32 74
REMARK SMILES IDX 33 75 36 76 34 77 60 78 61 79 69 80 62 81 63 82 67 83 70 84
REMARK SMILES IDX 64 85 65 86 68 87 66 88 45 89 46 90 54 91 47 92 48 93 52 94
REMARK SMILES IDX 55 95 49 96 50 97 53 98 51 99
REMARK H PARENT 75 52 43 63
REMARK Flexibility Score: inf
ROOT
ATOM      1  C   UNL A   1      35.029  22.875  25.030  1.00  0.00     0.275 C 
ENDROOT
BRANCH   1   2
ATOM      2  O   UNL A   1      34.393  23.813  25.923  1.00  0.00    -0.458 OA
BRANCH   2   3
ATOM      3  C   UNL A   1      33.038  23.868  25.840  1.00  0.00     0.338 C 
ATOM      4  O   UNL A   1      32.261  23.033  26.283  1.00  0.00    -0.246 OA
BRANCH   3   5
ATOM      5  C   UNL A   1      32.572  25.123  25.176  1.00  0.00     0.067 C 
ATOM      6  C   UNL A   1      31.632  25.040  24.207  1.00  0.00     0.024 C 
BRANCH   6   7
ATOM      7  C   UNL A   1      30.861  26.153  23.610  1.00  0.00    -0.025 A 
ATOM      8  C   UNL A   1      29.396  28.404  22.794  1.00  0.00     0.067 A 
ATOM      9  C   UNL A   1      30.670  28.187  22.277  1.00  0.00     0.021 A 
ATOM     10  C   UNL A   1      28.806  27.466  23.641  1.00  0.00     0.021 A 
ATOM     11  C   UNL A   1      31.381  27.051  22.667  1.00  0.00     0.009 A 
ATOM     12  C   UNL A   1      29.541  26.346  24.046  1.00  0.00     0.009 A 
BRANCH   8  13
ATOM     13  S   UNL A   1      28.537  29.903  22.386  1.00  0.00     0.175 S 
ATOM     14  C   UNL A   1      27.018  29.802  23.302  1.00  0.00     0.163 C 
ATOM     15  O   UNL A   1      28.198  29.845  20.981  1.00  0.00    -0.224 OA
ATOM     16  O   UNL A   1      29.325  30.998  22.926  1.00  0.00    -0.224 OA
ENDBRANCH   8  13
ENDBRANCH   6   7
BRANCH   5  17
ATOM     17  C   UNL A   1      33.060  26.405  25.717  1.00  0.00    -0.011 A 
ATOM     18  C   UNL A   1      32.453  26.944  26.856  1.00  0.00     0.009 A 
ATOM     19  C   UNL A   1      34.145  27.076  25.152  1.00  0.00     0.009 A 
ATOM     20  C   UNL A   1      32.930  28.132  27.421  1.00  0.00     0.009 A 
ATOM     21  C   UNL A   1      34.614  28.269  25.723  1.00  0.00     0.009 A 
ATOM     22  C   UNL A   1      34.013  28.837  26.863  1.00  0.00    -0.015 A 
BRANCH  22  23
ATOM     23  C   UNL A   1      34.466  30.129  27.440  1.00  0.00     0.018 A 
ATOM     24  C   UNL A   1      35.773  30.280  27.952  1.00  0.00     0.015 A 
ATOM     25  C   UNL A   1      33.625  31.258  27.530  1.00  0.00     0.133 A 
ATOM     26  C   UNL A   1      36.202  31.482  28.528  1.00  0.00     0.040 A 
ATOM     27  C   UNL A   1      34.050  32.466  28.080  1.00  0.00     0.079 A 
ATOM     28  F   UNL A   1      32.357  31.202  27.092  1.00  0.00    -0.206 F 
ATOM     29  C   UNL A   1      35.337  32.564  28.581  1.00  0.00     0.126 A 
ATOM     30  F   UNL A   1      35.756  33.721  29.108  1.00  0.00    -0.207 F 
ENDBRANCH  22  23
ENDBRANCH   5  17
ENDBRANCH   3   5
ENDBRANCH   2   3
ENDBRANCH   1   2
BRANCH   1  31
ATOM     31  C   UNL A   1      36.151  22.123  25.744  1.00  0.00     0.275 C 
BRANCH  31  32
ATOM     32  O   UNL A   1      37.423  22.493  25.180  1.00  0.00    -0.458 OA
BRANCH  32  33
ATOM     33  C   UNL A   1      38.516  22.069  25.849  1.00  0.00     0.338 C 
ATOM     34  O   UNL A   1      39.044  20.968  25.784  1.00  0.00    -0.246 OA
BRANCH  33  35
ATOM     35  C   UNL A   1      39.062  23.152  26.689  1.00  0.00     0.060 A 
ATOM     36  C   UNL A   1      38.525  24.431  26.618  1.00  0.00     0.016 A 
ATOM     37  C   UNL A   1      40.230  22.935  27.424  1.00  0.00     0.016 A 
ATOM     38  C   UNL A   1      39.235  25.510  27.150  1.00  0.00     0.010 A 
ATOM     39  C   UNL A   1      40.874  24.010  28.055  1.00  0.00     0.010 A 
ATOM     40  C   UNL A   1      40.427  25.330  27.868  1.00  0.00    -0.014 A 
BRANCH  40  41
ATOM     41  C   UNL A   1      41.230  26.505  28.344  1.00  0.00     0.031 A 
ATOM     42  C   UNL A   1      42.647  26.726  27.858  1.00  0.00     0.074 A 
ATOM     43  C   UNL A   1      40.704  27.419  29.187  1.00  0.00     0.049 A 
ATOM     44  N   UNL A   1      43.569  27.540  28.320  1.00  0.00    -0.248 NA
ATOM     45  C   UNL A   1      43.098  25.918  26.715  1.00  0.00     0.031 C 
ATOM     46  C   UNL A   1      39.342  27.404  29.717  1.00  0.00     0.029 A 
ATOM     47  N   UNL A   1      41.252  28.559  29.732  1.00  0.00    -0.354 N 
ATOM     48  C   UNL A   1      44.724  27.267  27.596  1.00  0.00     0.074 A 
ATOM     49  C   UNL A   1      44.384  26.234  26.642  1.00  0.00     0.031 C 
ATOM     50  C   UNL A   1      39.133  28.513  30.438  1.00  0.00     0.029 A 
ATOM     51  C   UNL A   1      40.383  29.254  30.537  1.00  0.00     0.049 A 
ATOM     52  H   UNL A   1      42.178  28.847  29.561  1.00  0.00     0.167 HD
ATOM     53  C   UNL A   1      45.956  27.818  27.723  1.00  0.00     0.037 A 
ATOM     54  C   UNL A   1      40.571  30.333  31.322  1.00  0.00     0.037 A 
ATOM     55  C   UNL A   1      46.277  28.917  28.599  1.00  0.00     0.049 A 
ATOM     56  C   UNL A   1      41.939  30.936  31.442  1.00  0.00     0.074 A 
ATOM     57  C   UNL A   1      47.494  29.555  28.773  1.00  0.00     0.029 A 
ATOM     58  N   UNL A   1      45.370  29.562  29.424  1.00  0.00    -0.354 N 
ATOM     59  N   UNL A   1      43.048  30.593  30.838  1.00  0.00    -0.248 NA
ATOM     60  C   UNL A   1      42.088  32.053  32.386  1.00  0.00     0.031 C 
ATOM     61  C   UNL A   1      47.331  30.566  29.726  1.00  0.00     0.029 A 
ATOM     62  C   UNL A   1      46.003  30.584  30.114  1.00  0.00     0.049 A 
ATOM     63  H   UNL A   1      44.417  29.329  29.508  1.00  0.00     0.167 HD
ATOM     64  C   UNL A   1      44.027  31.443  31.330  1.00  0.00     0.074 A 
ATOM     65  C   UNL A   1      43.375  32.341  32.261  1.00  0.00     0.031 C 
ATOM     66  C   UNL A   1      45.351  31.467  31.046  1.00  0.00     0.037 A 
BRANCH  53  67
ATOM     67  C   UNL A   1      47.081  27.225  26.922  1.00  0.00     0.064 A 
ATOM     68  C   UNL A   1      47.438  27.712  25.658  1.00  0.00     0.173 A 
ATOM     69  C   UNL A   1      47.861  26.193  27.472  1.00  0.00     0.173 A 
ATOM     70  F   UNL A   1      46.719  28.689  25.084  1.00  0.00    -0.203 F 
ATOM     71  C   UNL A   1      48.523  27.178  24.966  1.00  0.00     0.198 A 
ATOM     72  C   UNL A   1      48.961  25.680  26.789  1.00  0.00     0.198 A 
ATOM     73  F   UNL A   1      47.569  25.697  28.684  1.00  0.00    -0.203 F 
ATOM     74  F   UNL A   1      48.826  27.634  23.743  1.00  0.00    -0.200 F 
ATOM     75  C   UNL A   1      49.288  26.169  25.535  1.00  0.00     0.200 A 
ATOM     76  F   UNL A   1      49.708  24.718  27.349  1.00  0.00    -0.200 F 
ATOM     77  F   UNL A   1      50.340  25.667  24.872  1.00  0.00    -0.200 F 
ENDBRANCH  53  67
BRANCH  54  78
ATOM     78  C   UNL A   1      39.432  30.870  32.111  1.00  0.00     0.064 A 
ATOM     79  C   UNL A   1      39.206  30.448  33.427  1.00  0.00     0.173 A 
ATOM     80  C   UNL A   1      38.562  31.832  31.572  1.00  0.00     0.173 A 
ATOM     81  F   UNL A   1      39.995  29.511  33.973  1.00  0.00    -0.203 F 
ATOM     82  C   UNL A   1      38.153  30.968  34.175  1.00  0.00     0.198 A 
ATOM     83  C   UNL A   1      37.532  32.376  32.333  1.00  0.00     0.198 A 
ATOM     84  F   UNL A   1      38.736  32.265  30.314  1.00  0.00    -0.203 F 
ATOM     85  F   UNL A   1      37.935  30.522  35.420  1.00  0.00    -0.200 F 
ATOM     86  C   UNL A   1      37.324  31.940  33.632  1.00  0.00     0.200 A 
ATOM     87  F   UNL A   1      36.747  33.327  31.811  1.00  0.00    -0.200 F 
ATOM     88  F   UNL A   1      36.323  32.452  34.360  1.00  0.00    -0.200 F 
ENDBRANCH  54  78
BRANCH  66  89
ATOM     89  C   UNL A   1      46.182  32.501  31.743  1.00  0.00     0.064 A 
ATOM     90  C   UNL A   1      46.822  32.224  32.961  1.00  0.00     0.173 A 
ATOM     91  C   UNL A   1      46.355  33.775  31.183  1.00  0.00     0.173 A 
ATOM     92  F   UNL A   1      46.673  31.026  33.544  1.00  0.00    -0.203 F 
ATOM     93  C   UNL A   1      47.585  33.195  33.604  1.00  0.00     0.198 A 
ATOM     94  C   UNL A   1      47.137  34.735  31.816  1.00  0.00     0.198 A 
ATOM     95  F   UNL A   1      45.767  34.085  30.018  1.00  0.00    -0.203 F 
ATOM     96  F   UNL A   1      48.152  32.924  34.788  1.00  0.00    -0.200 F 
ATOM     97  C   UNL A   1      47.746  34.447  33.029  1.00  0.00     0.200 A 
ATOM     98  F   UNL A   1      47.299  35.942  31.257  1.00  0.00    -0.200 F 
ATOM     99  F   UNL A   1      48.481  35.380  33.650  1.00  0.00    -0.200 F 
ENDBRANCH  66  89
ENDBRANCH  40  41
ENDBRANCH  33  35
ENDBRANCH  32  33
ENDBRANCH  31  32
ENDBRANCH   1  31
TORSDOF 15
ENDMDL
