MODEL 1
REMARK VINA RESULT:     -10.6      0.000      0.000
REMARK SMILES O=C(OCCOC(=O)[C@H]1[C@H]2C[C@@H]3[C@@H](OC(=O)[C@@H]31)[C@@H]2Sc1ccccc1)c1ccc(-c2c3nc(c(-c4c(F)c(F)c(F)c(F)c4F)c4ccc([nH]4)c(-c4c(F)c(F)c(F)c(F)c4F)c4nc(c(-c5c(F)c(F)c(F)c(F)c5F)c5ccc2[nH]5)C=C4)C=C3)cc1
REMARK SMILES IDX 4 1 3 2 2 3 1 4 26 5 27 6 88 7 28 8 87 9 29 10 30 11 31 12
REMARK SMILES IDX 81 13 32 14 86 15 80 16 82 17 33 18 85 19 79 20 78 21 34 23
REMARK SMILES IDX 66 24 46 25 65 26 47 27 50 28 64 29 83 30 48 31 49 32 63 34
REMARK SMILES IDX 84 35 51 36 35 37 36 38 44 39 37 40 38 41 42 42 45 43 39 44
REMARK SMILES IDX 40 45 43 46 41 47 67 48 68 49 76 50 69 51 70 52 74 53 77 54
REMARK SMILES IDX 71 55 72 56 75 57 73 58 52 59 53 60 61 61 54 62 55 63 59 64
REMARK SMILES IDX 62 65 56 66 57 67 60 68 58 69 5 70 6 71 7 72 8 73 9 74 10 75
REMARK SMILES IDX 17 76 11 77 18 78 12 79 15 80 13 81 14 82 16 83 19 84 20 85
REMARK SMILES IDX 21 86 25 87 22 88 24 89 23 90
REMARK H PARENT 82 22 50 33
REMARK Flexibility Score: inf
ROOT
ATOM      1  C   UNL A   1      33.685  32.915  28.496  1.00  0.00     0.275 C 
ENDROOT
BRANCH   1   2
ATOM      2  O   UNL A   1      33.844  31.865  27.528  1.00  0.00    -0.458 OA
BRANCH   2   3
ATOM      3  C   UNL A   1      34.252  30.585  27.691  1.00  0.00     0.338 C 
ATOM      4  O   UNL A   1      33.412  29.690  27.627  1.00  0.00    -0.246 OA
BRANCH   3   5
ATOM      5  C   UNL A   1      35.639  30.212  28.119  1.00  0.00     0.060 A 
ATOM      6  C   UNL A   1      36.042  29.805  29.393  1.00  0.00     0.016 A 
ATOM      7  C   UNL A   1      36.614  30.220  27.109  1.00  0.00     0.016 A 
ATOM      8  C   UNL A   1      37.325  29.302  29.624  1.00  0.00     0.010 A 
ATOM      9  C   UNL A   1      37.896  29.703  27.323  1.00  0.00     0.010 A 
ATOM     10  C   UNL A   1      38.255  29.231  28.589  1.00  0.00    -0.014 A 
BRANCH  10  11
ATOM     11  C   UNL A   1      39.653  28.866  28.896  1.00  0.00     0.031 A 
ATOM     12  C   UNL A   1      40.467  29.860  29.667  1.00  0.00     0.074 A 
ATOM     13  C   UNL A   1      40.156  27.663  28.566  1.00  0.00     0.049 A 
ATOM     14  N   UNL A   1      41.683  29.753  30.132  1.00  0.00    -0.248 NA
ATOM     15  C   UNL A   1      39.810  31.141  29.981  1.00  0.00     0.031 C 
ATOM     16  C   UNL A   1      39.429  26.597  27.878  1.00  0.00     0.029 A 
ATOM     17  N   UNL A   1      41.408  27.133  28.763  1.00  0.00    -0.354 N 
ATOM     18  C   UNL A   1      41.919  30.937  30.814  1.00  0.00     0.074 A 
ATOM     19  C   UNL A   1      40.759  31.779  30.642  1.00  0.00     0.031 C 
ATOM     20  C   UNL A   1      40.259  25.561  27.665  1.00  0.00     0.029 A 
ATOM     21  C   UNL A   1      41.573  25.885  28.211  1.00  0.00     0.049 A 
ATOM     22  H   UNL A   1      42.120  27.603  29.253  1.00  0.00     0.167 HD
ATOM     23  C   UNL A   1      42.998  31.276  31.554  1.00  0.00     0.037 A 
ATOM     24  C   UNL A   1      42.666  25.100  28.158  1.00  0.00     0.037 A 
ATOM     25  C   UNL A   1      44.157  30.442  31.693  1.00  0.00     0.049 A 
ATOM     26  C   UNL A   1      43.907  25.554  28.884  1.00  0.00     0.074 A 
ATOM     27  C   UNL A   1      45.313  30.681  32.409  1.00  0.00     0.029 A 
ATOM     28  N   UNL A   1      44.307  29.205  31.078  1.00  0.00    -0.354 N 
ATOM     29  N   UNL A   1      44.102  26.647  29.582  1.00  0.00    -0.248 NA
ATOM     30  C   UNL A   1      45.066  24.651  28.847  1.00  0.00     0.031 C 
ATOM     31  C   UNL A   1      46.191  29.619  32.174  1.00  0.00     0.029 A 
ATOM     32  C   UNL A   1      45.555  28.684  31.369  1.00  0.00     0.049 A 
ATOM     33  H   UNL A   1      43.628  28.766  30.517  1.00  0.00     0.167 HD
ATOM     34  C   UNL A   1      45.383  26.546  30.104  1.00  0.00     0.074 A 
ATOM     35  C   UNL A   1      45.918  25.280  29.644  1.00  0.00     0.031 C 
ATOM     36  C   UNL A   1      46.053  27.414  30.903  1.00  0.00     0.037 A 
BRANCH  23  37
ATOM     37  C   UNL A   1      42.958  32.614  32.228  1.00  0.00     0.064 A 
ATOM     38  C   UNL A   1      42.580  32.749  33.575  1.00  0.00     0.173 A 
ATOM     39  C   UNL A   1      43.255  33.779  31.509  1.00  0.00     0.173 A 
ATOM     40  F   UNL A   1      42.257  31.666  34.299  1.00  0.00    -0.203 F 
ATOM     41  C   UNL A   1      42.463  34.005  34.163  1.00  0.00     0.198 A 
ATOM     42  C   UNL A   1      43.166  35.032  32.109  1.00  0.00     0.198 A 
ATOM     43  F   UNL A   1      43.612  33.705  30.218  1.00  0.00    -0.203 F 
ATOM     44  F   UNL A   1      42.031  34.114  35.427  1.00  0.00    -0.200 F 
ATOM     45  C   UNL A   1      42.759  35.145  33.431  1.00  0.00     0.200 A 
ATOM     46  F   UNL A   1      43.457  36.132  31.402  1.00  0.00    -0.200 F 
ATOM     47  F   UNL A   1      42.638  36.354  33.994  1.00  0.00    -0.200 F 
ENDBRANCH  23  37
BRANCH  24  48
ATOM     48  C   UNL A   1      42.638  23.809  27.418  1.00  0.00     0.064 A 
ATOM     49  C   UNL A   1      42.258  22.613  28.044  1.00  0.00     0.173 A 
ATOM     50  C   UNL A   1      43.027  23.739  26.071  1.00  0.00     0.173 A 
ATOM     51  F   UNL A   1      41.901  22.619  29.338  1.00  0.00    -0.203 F 
ATOM     52  C   UNL A   1      42.290  21.398  27.361  1.00  0.00     0.198 A 
ATOM     53  C   UNL A   1      43.033  22.528  25.381  1.00  0.00     0.198 A 
ATOM     54  F   UNL A   1      43.415  24.850  25.428  1.00  0.00    -0.203 F 
ATOM     55  F   UNL A   1      41.971  20.264  28.001  1.00  0.00    -0.200 F 
ATOM     56  C   UNL A   1      42.673  21.356  26.029  1.00  0.00     0.200 A 
ATOM     57  F   UNL A   1      43.403  22.491  24.093  1.00  0.00    -0.200 F 
ATOM     58  F   UNL A   1      42.708  20.186  25.376  1.00  0.00    -0.200 F 
ENDBRANCH  24  48
BRANCH  36  59
ATOM     59  C   UNL A   1      47.421  27.007  31.367  1.00  0.00     0.064 A 
ATOM     60  C   UNL A   1      47.606  26.160  32.469  1.00  0.00     0.173 A 
ATOM     61  C   UNL A   1      48.557  27.420  30.654  1.00  0.00     0.173 A 
ATOM     62  F   UNL A   1      46.552  25.748  33.190  1.00  0.00    -0.203 F 
ATOM     63  C   UNL A   1      48.882  25.758  32.852  1.00  0.00     0.198 A 
ATOM     64  C   UNL A   1      49.827  26.987  31.019  1.00  0.00     0.198 A 
ATOM     65  F   UNL A   1      48.431  28.225  29.587  1.00  0.00    -0.203 F 
ATOM     66  F   UNL A   1      49.041  24.985  33.936  1.00  0.00    -0.200 F 
ATOM     67  C   UNL A   1      49.989  26.163  32.121  1.00  0.00     0.200 A 
ATOM     68  F   UNL A   1      50.893  27.363  30.299  1.00  0.00    -0.200 F 
ATOM     69  F   UNL A   1      51.216  25.760  32.482  1.00  0.00    -0.200 F 
ENDBRANCH  36  59
ENDBRANCH  10  11
ENDBRANCH   3   5
ENDBRANCH   2   3
ENDBRANCH   1   2
BRANCH   1  70
ATOM     70  C   UNL A   1      34.629  34.108  28.306  1.00  0.00     0.274 C 
BRANCH  70  71
ATOM     71  O   UNL A   1      35.397  34.438  29.480  1.00  0.00    -0.462 OA
BRANCH  71  72
ATOM     72  C   UNL A   1      36.378  33.548  29.804  1.00  0.00     0.310 C 
ATOM     73  O   UNL A   1      37.250  33.171  29.035  1.00  0.00    -0.252 OA
BRANCH  72  74
ATOM     74  C   UNL A   1      36.245  33.076  31.248  1.00  0.00     0.118 C 
ATOM     75  C   UNL A   1      37.619  33.029  31.980  1.00  0.00     0.022 C 
ATOM     76  C   UNL A   1      35.444  34.100  32.100  1.00  0.00     0.120 C 
ATOM     77  C   UNL A   1      37.801  34.515  32.299  1.00  0.00     0.014 C 
ATOM     78  C   UNL A   1      37.355  32.384  33.374  1.00  0.00     0.097 C 
ATOM     79  C   UNL A   1      36.502  34.627  33.066  1.00  0.00     0.047 C 
ATOM     80  C   UNL A   1      34.488  33.490  33.087  1.00  0.00     0.310 C 
ATOM     81  C   UNL A   1      36.527  33.481  34.079  1.00  0.00     0.194 C 
ATOM     82  O   UNL A   1      35.162  33.078  34.199  1.00  0.00    -0.461 OA
ATOM     83  O   UNL A   1      33.278  33.379  32.957  1.00  0.00    -0.252 OA
BRANCH  78  84
ATOM     84  S   UNL A   1      38.786  31.732  34.334  1.00  0.00    -0.119 SA
BRANCH  84  85
ATOM     85  C   UNL A   1      39.008  30.097  33.688  1.00  0.00     0.008 A 
ATOM     86  C   UNL A   1      37.911  29.435  33.130  1.00  0.00     0.015 A 
ATOM     87  C   UNL A   1      40.261  29.473  33.691  1.00  0.00     0.015 A 
ATOM     88  C   UNL A   1      38.083  28.202  32.499  1.00  0.00     0.001 A 
ATOM     89  C   UNL A   1      40.438  28.254  33.033  1.00  0.00     0.001 A 
ATOM     90  C   UNL A   1      39.352  27.627  32.427  1.00  0.00     0.000 A 
ENDBRANCH  84  85
ENDBRANCH  78  84
ENDBRANCH  72  74
ENDBRANCH  71  72
ENDBRANCH  70  71
ENDBRANCH   1  70
TORSDOF 13
ENDMDL
MODEL 2
REMARK VINA RESULT:     -10.5      4.246     10.468
REMARK SMILES O=C(OCCOC(=O)[C@H]1[C@H]2C[C@@H]3[C@@H](OC(=O)[C@@H]31)[C@@H]2Sc1ccccc1)c1ccc(-c2c3nc(c(-c4c(F)c(F)c(F)c(F)c4F)c4ccc([nH]4)c(-c4c(F)c(F)c(F)c(F)c4F)c4nc(c(-c5c(F)c(F)c(F)c(F)c5F)c5ccc2[nH]5)C=C4)C=C3)cc1
REMARK SMILES IDX 4 1 3 2 2 3 1 4 26 5 27 6 88 7 28 8 87 9 29 10 30 11 31 12
REMARK SMILES IDX 81 13 32 14 86 15 80 16 82 17 33 18 85 19 79 20 78 21 34 23
REMARK SMILES IDX 66 24 46 25 65 26 47 27 50 28 64 29 83 30 48 31 49 32 63 34
REMARK SMILES IDX 84 35 51 36 35 37 36 38 44 39 37 40 38 41 42 42 45 43 39 44
REMARK SMILES IDX 40 45 43 46 41 47 67 48 68 49 76 50 69 51 70 52 74 53 77 54
REMARK SMILES IDX 71 55 72 56 75 57 73 58 52 59 53 60 61 61 54 62 55 63 59 64
REMARK SMILES IDX 62 65 56 66 57 67 60 68 58 69 5 70 6 71 7 72 8 73 9 74 10 75
REMARK SMILES IDX 17 76 11 77 18 78 12 79 15 80 13 81 14 82 16 83 19 84 20 85
REMARK SMILES IDX 21 86 25 87 22 88 24 89 23 90
REMARK H PARENT 82 22 50 33
REMARK Flexibility Score: inf
ROOT
ATOM      1  C   UNL A   1      40.031  20.504  26.368  1.00  0.00     0.275 C 
ENDROOT
BRANCH   1   2
ATOM      2  O   UNL A   1      39.691  21.724  25.690  1.00  0.00    -0.458 OA
BRANCH   2   3
ATOM      3  C   UNL A   1      38.897  22.747  26.084  1.00  0.00     0.338 C 
ATOM      4  O   UNL A   1      37.715  22.735  25.745  1.00  0.00    -0.246 OA
BRANCH   3   5
ATOM      5  C   UNL A   1      39.417  23.979  26.761  1.00  0.00     0.060 A 
ATOM      6  C   UNL A   1      40.173  24.998  26.179  1.00  0.00     0.016 A 
ATOM      7  C   UNL A   1      39.048  24.139  28.106  1.00  0.00     0.016 A 
ATOM      8  C   UNL A   1      40.439  26.188  26.863  1.00  0.00     0.010 A 
ATOM      9  C   UNL A   1      39.292  25.331  28.796  1.00  0.00     0.010 A 
ATOM     10  C   UNL A   1      39.987  26.369  28.169  1.00  0.00    -0.014 A 
BRANCH  10  11
ATOM     11  C   UNL A   1      40.433  27.555  28.930  1.00  0.00     0.031 A 
ATOM     12  C   UNL A   1      41.845  27.557  29.430  1.00  0.00     0.074 A 
ATOM     13  C   UNL A   1      39.632  28.622  29.106  1.00  0.00     0.049 A 
ATOM     14  N   UNL A   1      42.505  28.500  30.047  1.00  0.00    -0.248 NA
ATOM     15  C   UNL A   1      42.632  26.338  29.172  1.00  0.00     0.031 C 
ATOM     16  C   UNL A   1      38.266  28.751  28.601  1.00  0.00     0.029 A 
ATOM     17  N   UNL A   1      39.853  29.806  29.765  1.00  0.00    -0.354 N 
ATOM     18  C   UNL A   1      43.785  27.997  30.223  1.00  0.00     0.074 A 
ATOM     19  C   UNL A   1      43.795  26.644  29.721  1.00  0.00     0.031 C 
ATOM     20  C   UNL A   1      37.752  29.924  29.010  1.00  0.00     0.029 A 
ATOM     21  C   UNL A   1      38.756  30.634  29.796  1.00  0.00     0.049 A 
ATOM     22  H   UNL A   1      40.716  30.039  30.176  1.00  0.00     0.167 HD
ATOM     23  C   UNL A   1      44.870  28.626  30.726  1.00  0.00     0.037 A 
ATOM     24  C   UNL A   1      38.591  31.829  30.396  1.00  0.00     0.037 A 
ATOM     25  C   UNL A   1      44.840  29.961  31.249  1.00  0.00     0.049 A 
ATOM     26  C   UNL A   1      39.783  32.462  31.067  1.00  0.00     0.074 A 
ATOM     27  C   UNL A   1      45.871  30.700  31.793  1.00  0.00     0.029 A 
ATOM     28  N   UNL A   1      43.698  30.750  31.310  1.00  0.00    -0.354 N 
ATOM     29  N   UNL A   1      41.009  32.007  31.173  1.00  0.00    -0.248 NA
ATOM     30  C   UNL A   1      39.581  33.787  31.668  1.00  0.00     0.031 C 
ATOM     31  C   UNL A   1      45.341  31.913  32.242  1.00  0.00     0.029 A 
ATOM     32  C   UNL A   1      43.993  31.958  31.916  1.00  0.00     0.049 A 
ATOM     33  H   UNL A   1      42.810  30.489  30.974  1.00  0.00     0.167 HD
ATOM     34  C   UNL A   1      41.735  33.004  31.809  1.00  0.00     0.074 A 
ATOM     35  C   UNL A   1      40.811  34.090  32.062  1.00  0.00     0.031 C 
ATOM     36  C   UNL A   1      43.050  33.025  32.143  1.00  0.00     0.037 A 
BRANCH  23  37
ATOM     37  C   UNL A   1      46.149  27.847  30.749  1.00  0.00     0.064 A 
ATOM     38  C   UNL A   1      47.116  27.989  29.739  1.00  0.00     0.173 A 
ATOM     39  C   UNL A   1      46.392  26.911  31.764  1.00  0.00     0.173 A 
ATOM     40  F   UNL A   1      46.917  28.849  28.729  1.00  0.00    -0.203 F 
ATOM     41  C   UNL A   1      48.259  27.195  29.726  1.00  0.00     0.198 A 
ATOM     42  C   UNL A   1      47.551  26.141  31.763  1.00  0.00     0.198 A 
ATOM     43  F   UNL A   1      45.496  26.731  32.746  1.00  0.00    -0.203 F 
ATOM     44  F   UNL A   1      49.133  27.297  28.714  1.00  0.00    -0.200 F 
ATOM     45  C   UNL A   1      48.478  26.274  30.739  1.00  0.00     0.200 A 
ATOM     46  F   UNL A   1      47.764  25.255  32.747  1.00  0.00    -0.200 F 
ATOM     47  F   UNL A   1      49.574  25.505  30.722  1.00  0.00    -0.200 F 
ENDBRANCH  23  37
BRANCH  24  48
ATOM     48  C   UNL A   1      37.269  32.512  30.374  1.00  0.00     0.064 A 
ATOM     49  C   UNL A   1      36.303  32.271  31.361  1.00  0.00     0.173 A 
ATOM     50  C   UNL A   1      36.930  33.398  29.339  1.00  0.00     0.173 A 
ATOM     51  F   UNL A   1      36.565  31.414  32.359  1.00  0.00    -0.203 F 
ATOM     52  C   UNL A   1      35.044  32.869  31.302  1.00  0.00     0.198 A 
ATOM     53  C   UNL A   1      35.682  34.016  29.295  1.00  0.00     0.198 A 
ATOM     54  F   UNL A   1      37.811  33.651  28.360  1.00  0.00    -0.203 F 
ATOM     55  F   UNL A   1      34.123  32.579  32.231  1.00  0.00    -0.200 F 
ATOM     56  C   UNL A   1      34.736  33.745  30.272  1.00  0.00     0.200 A 
ATOM     57  F   UNL A   1      35.387  34.862  28.298  1.00  0.00    -0.200 F 
ATOM     58  F   UNL A   1      33.524  34.315  30.214  1.00  0.00    -0.200 F 
ENDBRANCH  24  48
BRANCH  36  59
ATOM     59  C   UNL A   1      43.578  34.278  32.778  1.00  0.00     0.064 A 
ATOM     60  C   UNL A   1      43.980  35.382  32.013  1.00  0.00     0.173 A 
ATOM     61  C   UNL A   1      43.618  34.394  34.176  1.00  0.00     0.173 A 
ATOM     62  F   UNL A   1      43.972  35.315  30.673  1.00  0.00    -0.203 F 
ATOM     63  C   UNL A   1      44.423  36.550  32.626  1.00  0.00     0.198 A 
ATOM     64  C   UNL A   1      44.027  35.576  34.784  1.00  0.00     0.198 A 
ATOM     65  F   UNL A   1      43.236  33.368  34.952  1.00  0.00    -0.203 F 
ATOM     66  F   UNL A   1      44.846  37.578  31.876  1.00  0.00    -0.200 F 
ATOM     67  C   UNL A   1      44.435  36.650  34.009  1.00  0.00     0.200 A 
ATOM     68  F   UNL A   1      44.018  35.677  36.120  1.00  0.00    -0.200 F 
ATOM     69  F   UNL A   1      44.845  37.782  34.597  1.00  0.00    -0.200 F 
ENDBRANCH  36  59
ENDBRANCH  10  11
ENDBRANCH   3   5
ENDBRANCH   2   3
ENDBRANCH   1   2
BRANCH   1  70
ATOM     70  C   UNL A   1      41.227  20.615  27.322  1.00  0.00     0.274 C 
BRANCH  70  71
ATOM     71  O   UNL A   1      42.392  21.223  26.729  1.00  0.00    -0.462 OA
BRANCH  71  72
ATOM     72  C   UNL A   1      42.713  22.458  27.209  1.00  0.00     0.310 C 
ATOM     73  O   UNL A   1      42.371  22.884  28.302  1.00  0.00    -0.252 OA
BRANCH  72  74
ATOM     74  C   UNL A   1      43.549  23.244  26.205  1.00  0.00     0.118 C 
ATOM     75  C   UNL A   1      44.443  24.317  26.895  1.00  0.00     0.022 C 
ATOM     76  C   UNL A   1      44.597  22.329  25.511  1.00  0.00     0.120 C 
ATOM     77  C   UNL A   1      45.578  23.428  27.408  1.00  0.00     0.014 C 
ATOM     78  C   UNL A   1      45.108  25.139  25.751  1.00  0.00     0.097 C 
ATOM     79  C   UNL A   1      45.919  22.878  26.040  1.00  0.00     0.047 C 
ATOM     80  C   UNL A   1      44.790  22.589  24.043  1.00  0.00     0.310 C 
ATOM     81  C   UNL A   1      46.075  24.103  25.136  1.00  0.00     0.194 C 
ATOM     82  O   UNL A   1      45.600  23.670  23.861  1.00  0.00    -0.461 OA
ATOM     83  O   UNL A   1      44.321  21.939  23.119  1.00  0.00    -0.252 OA
BRANCH  78  84
ATOM     84  S   UNL A   1      45.854  26.776  26.155  1.00  0.00    -0.119 SA
BRANCH  84  85
ATOM     85  C   UNL A   1      44.471  27.883  26.112  1.00  0.00     0.008 A 
ATOM     86  C   UNL A   1      43.350  27.538  25.352  1.00  0.00     0.015 A 
ATOM     87  C   UNL A   1      44.462  29.072  26.851  1.00  0.00     0.015 A 
ATOM     88  C   UNL A   1      42.199  28.325  25.403  1.00  0.00     0.001 A 
ATOM     89  C   UNL A   1      43.301  29.843  26.924  1.00  0.00     0.001 A 
ATOM     90  C   UNL A   1      42.167  29.461  26.211  1.00  0.00     0.000 A 
ENDBRANCH  84  85
ENDBRANCH  78  84
ENDBRANCH  72  74
ENDBRANCH  71  72
ENDBRANCH  70  71
ENDBRANCH   1  70
TORSDOF 13
ENDMDL
MODEL 3
REMARK VINA RESULT:     -10.2      4.098      7.280
REMARK SMILES O=C(OCCOC(=O)[C@H]1[C@H]2C[C@@H]3[C@@H](OC(=O)[C@@H]31)[C@@H]2Sc1ccccc1)c1ccc(-c2c3nc(c(-c4c(F)c(F)c(F)c(F)c4F)c4ccc([nH]4)c(-c4c(F)c(F)c(F)c(F)c4F)c4nc(c(-c5c(F)c(F)c(F)c(F)c5F)c5ccc2[nH]5)C=C4)C=C3)cc1
REMARK SMILES IDX 4 1 3 2 2 3 1 4 26 5 27 6 88 7 28 8 87 9 29 10 30 11 31 12
REMARK SMILES IDX 81 13 32 14 86 15 80 16 82 17 33 18 85 19 79 20 78 21 34 23
REMARK SMILES IDX 66 24 46 25 65 26 47 27 50 28 64 29 83 30 48 31 49 32 63 34
REMARK SMILES IDX 84 35 51 36 35 37 36 38 44 39 37 40 38 41 42 42 45 43 39 44
REMARK SMILES IDX 40 45 43 46 41 47 67 48 68 49 76 50 69 51 70 52 74 53 77 54
REMARK SMILES IDX 71 55 72 56 75 57 73 58 52 59 53 60 61 61 54 62 55 63 59 64
REMARK SMILES IDX 62 65 56 66 57 67 60 68 58 69 5 70 6 71 7 72 8 73 9 74 10 75
REMARK SMILES IDX 17 76 11 77 18 78 12 79 15 80 13 81 14 82 16 83 19 84 20 85
REMARK SMILES IDX 21 86 25 87 22 88 24 89 23 90
REMARK H PARENT 82 22 50 33
REMARK Flexibility Score: inf
ROOT
ATOM      1  C   UNL A   1      31.606  32.330  27.198  1.00  0.00     0.275 C 
ENDROOT
BRANCH   1   2
ATOM      2  O   UNL A   1      32.341  33.564  27.220  1.00  0.00    -0.458 OA
BRANCH   2   3
ATOM      3  C   UNL A   1      33.099  34.108  28.201  1.00  0.00     0.338 C 
ATOM      4  O   UNL A   1      32.804  35.228  28.614  1.00  0.00    -0.246 OA
BRANCH   3   5
ATOM      5  C   UNL A   1      34.377  33.497  28.688  1.00  0.00     0.060 A 
ATOM      6  C   UNL A   1      35.673  33.848  28.303  1.00  0.00     0.016 A 
ATOM      7  C   UNL A   1      34.245  32.509  29.677  1.00  0.00     0.016 A 
ATOM      8  C   UNL A   1      36.792  33.337  28.966  1.00  0.00     0.010 A 
ATOM      9  C   UNL A   1      35.356  32.003  30.360  1.00  0.00     0.010 A 
ATOM     10  C   UNL A   1      36.642  32.425  30.009  1.00  0.00    -0.014 A 
BRANCH  10  11
ATOM     11  C   UNL A   1      37.839  31.765  30.571  1.00  0.00     0.031 A 
ATOM     12  C   UNL A   1      38.278  32.192  31.938  1.00  0.00     0.074 A 
ATOM     13  C   UNL A   1      38.467  30.770  29.918  1.00  0.00     0.049 A 
ATOM     14  N   UNL A   1      39.239  31.719  32.686  1.00  0.00    -0.248 NA
ATOM     15  C   UNL A   1      37.510  33.284  32.561  1.00  0.00     0.031 C 
ATOM     16  C   UNL A   1      38.080  30.231  28.615  1.00  0.00     0.029 A 
ATOM     17  N   UNL A   1      39.573  30.034  30.263  1.00  0.00    -0.354 N 
ATOM     18  C   UNL A   1      39.168  32.435  33.870  1.00  0.00     0.074 A 
ATOM     19  C   UNL A   1      38.127  33.425  33.721  1.00  0.00     0.031 C 
ATOM     20  C   UNL A   1      38.962  29.286  28.248  1.00  0.00     0.029 A 
ATOM     21  C   UNL A   1      39.970  29.145  29.293  1.00  0.00     0.049 A 
ATOM     22  H   UNL A   1      40.038  30.134  31.125  1.00  0.00     0.167 HD
ATOM     23  C   UNL A   1      39.886  32.256  35.002  1.00  0.00     0.037 A 
ATOM     24  C   UNL A   1      41.031  28.315  29.262  1.00  0.00     0.037 A 
ATOM     25  C   UNL A   1      40.937  31.289  35.128  1.00  0.00     0.049 A 
ATOM     26  C   UNL A   1      41.901  28.221  30.489  1.00  0.00     0.074 A 
ATOM     27  C   UNL A   1      41.739  31.021  36.219  1.00  0.00     0.029 A 
ATOM     28  N   UNL A   1      41.344  30.440  34.105  1.00  0.00    -0.354 N 
ATOM     29  N   UNL A   1      41.789  28.856  31.631  1.00  0.00    -0.248 NA
ATOM     30  C   UNL A   1      43.020  27.270  30.440  1.00  0.00     0.031 C 
ATOM     31  C   UNL A   1      42.675  30.055  35.838  1.00  0.00     0.029 A 
ATOM     32  C   UNL A   1      42.412  29.671  34.530  1.00  0.00     0.049 A 
ATOM     33  H   UNL A   1      40.935  30.394  33.211  1.00  0.00     0.167 HD
ATOM     34  C   UNL A   1      42.789  28.354  32.451  1.00  0.00     0.074 A 
ATOM     35  C   UNL A   1      43.496  27.356  31.674  1.00  0.00     0.031 C 
ATOM     36  C   UNL A   1      43.088  28.676  33.734  1.00  0.00     0.037 A 
BRANCH  23  37
ATOM     37  C   UNL A   1      39.557  33.153  36.156  1.00  0.00     0.064 A 
ATOM     38  C   UNL A   1      40.244  34.360  36.370  1.00  0.00     0.173 A 
ATOM     39  C   UNL A   1      38.578  32.779  37.087  1.00  0.00     0.173 A 
ATOM     40  F   UNL A   1      41.211  34.747  35.525  1.00  0.00    -0.203 F 
ATOM     41  C   UNL A   1      39.988  35.138  37.496  1.00  0.00     0.198 A 
ATOM     42  C   UNL A   1      38.304  33.577  38.195  1.00  0.00     0.198 A 
ATOM     43  F   UNL A   1      37.900  31.632  36.933  1.00  0.00    -0.203 F 
ATOM     44  F   UNL A   1      40.706  36.249  37.717  1.00  0.00    -0.200 F 
ATOM     45  C   UNL A   1      39.017  34.749  38.405  1.00  0.00     0.200 A 
ATOM     46  F   UNL A   1      37.361  33.201  39.069  1.00  0.00    -0.200 F 
ATOM     47  F   UNL A   1      38.777  35.494  39.491  1.00  0.00    -0.200 F 
ENDBRANCH  23  37
BRANCH  24  48
ATOM     48  C   UNL A   1      41.319  27.499  28.052  1.00  0.00     0.064 A 
ATOM     49  C   UNL A   1      40.823  26.195  27.911  1.00  0.00     0.173 A 
ATOM     50  C   UNL A   1      42.132  27.996  27.020  1.00  0.00     0.173 A 
ATOM     51  F   UNL A   1      40.062  25.661  28.879  1.00  0.00    -0.203 F 
ATOM     52  C   UNL A   1      41.145  25.414  26.802  1.00  0.00     0.198 A 
ATOM     53  C   UNL A   1      42.431  27.225  25.898  1.00  0.00     0.198 A 
ATOM     54  F   UNL A   1      42.646  29.231  27.111  1.00  0.00    -0.203 F 
ATOM     55  F   UNL A   1      40.699  24.153  26.720  1.00  0.00    -0.200 F 
ATOM     56  C   UNL A   1      41.945  25.931  25.794  1.00  0.00     0.200 A 
ATOM     57  F   UNL A   1      43.205  27.727  24.926  1.00  0.00    -0.200 F 
ATOM     58  F   UNL A   1      42.259  25.177  24.731  1.00  0.00    -0.200 F 
ENDBRANCH  24  48
BRANCH  36  59
ATOM     59  C   UNL A   1      44.199  27.916  34.394  1.00  0.00     0.064 A 
ATOM     60  C   UNL A   1      45.514  28.402  34.422  1.00  0.00     0.173 A 
ATOM     61  C   UNL A   1      43.926  26.714  35.067  1.00  0.00     0.173 A 
ATOM     62  F   UNL A   1      45.827  29.539  33.782  1.00  0.00    -0.203 F 
ATOM     63  C   UNL A   1      46.519  27.702  35.081  1.00  0.00     0.198 A 
ATOM     64  C   UNL A   1      44.926  26.037  35.756  1.00  0.00     0.198 A 
ATOM     65  F   UNL A   1      42.682  26.212  35.077  1.00  0.00    -0.203 F 
ATOM     66  F   UNL A   1      47.779  28.161  35.056  1.00  0.00    -0.200 F 
ATOM     67  C   UNL A   1      46.223  26.527  35.756  1.00  0.00     0.200 A 
ATOM     68  F   UNL A   1      44.633  24.913  36.424  1.00  0.00    -0.200 F 
ATOM     69  F   UNL A   1      47.190  25.863  36.406  1.00  0.00    -0.200 F 
ENDBRANCH  36  59
ENDBRANCH  10  11
ENDBRANCH   3   5
ENDBRANCH   2   3
ENDBRANCH   1   2
BRANCH   1  70
ATOM     70  C   UNL A   1      32.445  31.091  26.865  1.00  0.00     0.274 C 
BRANCH  70  71
ATOM     71  O   UNL A   1      31.839  29.848  27.270  1.00  0.00    -0.462 OA
BRANCH  71  72
ATOM     72  C   UNL A   1      32.641  28.749  27.172  1.00  0.00     0.310 C 
ATOM     73  O   UNL A   1      33.723  28.632  27.726  1.00  0.00    -0.252 OA
BRANCH  72  74
ATOM     74  C   UNL A   1      32.017  27.685  26.276  1.00  0.00     0.118 C 
ATOM     75  C   UNL A   1      32.101  28.063  24.767  1.00  0.00     0.022 C 
ATOM     76  C   UNL A   1      32.823  26.358  26.335  1.00  0.00     0.120 C 
ATOM     77  C   UNL A   1      33.559  27.697  24.482  1.00  0.00     0.014 C 
ATOM     78  C   UNL A   1      31.291  26.980  23.994  1.00  0.00     0.097 C 
ATOM     79  C   UNL A   1      33.404  26.259  24.928  1.00  0.00     0.047 C 
ATOM     80  C   UNL A   1      31.987  25.109  26.348  1.00  0.00     0.310 C 
ATOM     81  C   UNL A   1      32.180  25.730  24.176  1.00  0.00     0.194 C 
ATOM     82  O   UNL A   1      31.572  24.811  25.084  1.00  0.00    -0.461 OA
ATOM     83  O   UNL A   1      31.712  24.425  27.323  1.00  0.00    -0.252 OA
BRANCH  78  84
ATOM     84  S   UNL A   1      30.766  27.332  22.263  1.00  0.00    -0.119 SA
BRANCH  84  85
ATOM     85  C   UNL A   1      29.625  28.676  22.441  1.00  0.00     0.008 A 
ATOM     86  C   UNL A   1      29.977  29.934  21.942  1.00  0.00     0.015 A 
ATOM     87  C   UNL A   1      28.370  28.497  23.034  1.00  0.00     0.015 A 
ATOM     88  C   UNL A   1      29.049  30.976  21.952  1.00  0.00     0.001 A 
ATOM     89  C   UNL A   1      27.433  29.531  23.017  1.00  0.00     0.001 A 
ATOM     90  C   UNL A   1      27.769  30.765  22.465  1.00  0.00     0.000 A 
ENDBRANCH  84  85
ENDBRANCH  78  84
ENDBRANCH  72  74
ENDBRANCH  71  72
ENDBRANCH  70  71
ENDBRANCH   1  70
TORSDOF 13
ENDMDL
