MODEL 1
REMARK VINA RESULT:     -11.1      0.000      0.000
REMARK SMILES CSc1ncccc1C(=O)N1CSC[C@H]1C(=O)OCCOC(=O)c1ccc(-c2c3nc(c(-c4c(F)c(F)c(F)c(F)c4F)c4ccc([nH]4)c(-c4c(F)c(F)c(F)c(F)c4F)c4nc(c(-c5c(F)c(F)c(F)c(F)c5F)c5ccc2[nH]5)C=C4)C=C3)cc1
REMARK SMILES IDX 19 1 18 2 16 3 17 4 15 5 11 6 12 7 13 8 14 9 9 10 10 11 8 12
REMARK SMILES IDX 3 13 4 14 5 15 7 16 6 17 2 18 1 19 20 20 21 21 22 22 23 23
REMARK SMILES IDX 24 24 25 25 86 26 26 27 85 28 27 29 28 30 29 31 79 32 30 33
REMARK SMILES IDX 84 34 78 35 80 36 31 37 83 38 77 39 76 40 32 42 64 43 44 44
REMARK SMILES IDX 63 45 45 46 48 47 62 48 81 49 46 50 47 51 61 53 82 54 49 55
REMARK SMILES IDX 33 56 34 57 42 58 35 59 36 60 40 61 43 62 37 63 38 64 41 65
REMARK SMILES IDX 39 66 65 67 66 68 74 69 67 70 68 71 72 72 75 73 69 74 70 75
REMARK SMILES IDX 73 76 71 77 50 78 51 79 59 80 52 81 53 82 57 83 60 84 54 85
REMARK SMILES IDX 55 86 58 87 56 88
REMARK H PARENT 80 41 48 52
REMARK Flexibility Score: inf
ROOT
ATOM      1  C   UNL A   1      31.404  29.200  25.617  1.00  0.00     0.274 C 
ENDROOT
BRANCH   1   2
ATOM      2  O   UNL A   1      31.562  29.135  24.185  1.00  0.00    -0.461 OA
BRANCH   2   3
ATOM      3  C   UNL A   1      32.431  28.206  23.712  1.00  0.00     0.329 C 
ATOM      4  O   UNL A   1      33.623  28.158  24.004  1.00  0.00    -0.250 OA
BRANCH   3   5
ATOM      5  C   UNL A   1      31.788  27.195  22.735  1.00  0.00     0.206 C 
ATOM      6  N   UNL A   1      31.964  25.778  23.047  1.00  0.00    -0.315 N 
ATOM      7  C   UNL A   1      31.119  25.317  24.117  1.00  0.00     0.191 C 
ATOM      8  S   UNL A   1      29.605  26.311  23.988  1.00  0.00    -0.138 SA
ATOM      9  C   UNL A   1      30.283  27.457  22.742  1.00  0.00     0.108 C 
BRANCH   6  10
ATOM     10  C   UNL A   1      33.046  25.003  22.666  1.00  0.00     0.258 C 
ATOM     11  O   UNL A   1      33.648  25.212  21.619  1.00  0.00    -0.269 OA
BRANCH  10  12
ATOM     12  C   UNL A   1      33.696  24.187  23.735  1.00  0.00     0.072 A 
ATOM     13  C   UNL A   1      33.617  22.792  23.806  1.00  0.00     0.108 A 
ATOM     14  N   UNL A   1      34.428  22.066  24.629  1.00  0.00    -0.249 NA
ATOM     15  C   UNL A   1      35.354  22.717  25.363  1.00  0.00     0.112 A 
ATOM     16  C   UNL A   1      34.645  24.830  24.551  1.00  0.00     0.018 A 
ATOM     17  C   UNL A   1      35.489  24.089  25.370  1.00  0.00     0.021 A 
BRANCH  13  18
ATOM     18  S   UNL A   1      32.392  21.821  22.944  1.00  0.00    -0.109 SA
ATOM     19  C   UNL A   1      32.528  20.252  23.843  1.00  0.00     0.092 C 
ENDBRANCH  13  18
ENDBRANCH  10  12
ENDBRANCH   6  10
ENDBRANCH   3   5
ENDBRANCH   2   3
ENDBRANCH   1   2
BRANCH   1  20
ATOM     20  C   UNL A   1      31.810  30.564  26.173  1.00  0.00     0.275 C 
BRANCH  20  21
ATOM     21  O   UNL A   1      33.232  30.631  26.386  1.00  0.00    -0.458 OA
BRANCH  21  22
ATOM     22  C   UNL A   1      33.626  31.600  27.241  1.00  0.00     0.338 C 
ATOM     23  O   UNL A   1      33.040  32.627  27.524  1.00  0.00    -0.246 OA
BRANCH  22  24
ATOM     24  C   UNL A   1      34.897  31.223  27.867  1.00  0.00     0.060 A 
ATOM     25  C   UNL A   1      35.048  29.930  28.371  1.00  0.00     0.016 A 
ATOM     26  C   UNL A   1      35.885  32.186  28.068  1.00  0.00     0.016 A 
ATOM     27  C   UNL A   1      36.183  29.595  29.099  1.00  0.00     0.010 A 
ATOM     28  C   UNL A   1      37.042  31.839  28.767  1.00  0.00     0.010 A 
ATOM     29  C   UNL A   1      37.192  30.546  29.298  1.00  0.00    -0.014 A 
BRANCH  29  30
ATOM     30  C   UNL A   1      38.401  30.187  30.071  1.00  0.00     0.031 A 
ATOM     31  C   UNL A   1      39.420  29.255  29.487  1.00  0.00     0.074 A 
ATOM     32  C   UNL A   1      38.578  30.708  31.299  1.00  0.00     0.049 A 
ATOM     33  N   UNL A   1      40.475  28.725  30.052  1.00  0.00    -0.248 NA
ATOM     34  C   UNL A   1      39.227  28.864  28.082  1.00  0.00     0.031 C 
ATOM     35  C   UNL A   1      37.676  31.659  31.949  1.00  0.00     0.029 A 
ATOM     36  N   UNL A   1      39.573  30.506  32.221  1.00  0.00    -0.354 N 
ATOM     37  C   UNL A   1      41.055  27.917  29.084  1.00  0.00     0.074 A 
ATOM     38  C   UNL A   1      40.234  28.022  27.896  1.00  0.00     0.031 C 
ATOM     39  C   UNL A   1      38.159  31.961  33.163  1.00  0.00     0.029 A 
ATOM     40  C   UNL A   1      39.371  31.182  33.398  1.00  0.00     0.049 A 
ATOM     41  H   UNL A   1      40.356  29.932  32.054  1.00  0.00     0.167 HD
ATOM     42  C   UNL A   1      42.171  27.157  29.186  1.00  0.00     0.037 A 
ATOM     43  C   UNL A   1      40.065  31.147  34.550  1.00  0.00     0.037 A 
ATOM     44  C   UNL A   1      42.993  27.076  30.365  1.00  0.00     0.049 A 
ATOM     45  C   UNL A   1      41.269  30.255  34.652  1.00  0.00     0.074 A 
ATOM     46  C   UNL A   1      44.155  26.350  30.561  1.00  0.00     0.029 A 
ATOM     47  N   UNL A   1      42.738  27.750  31.551  1.00  0.00    -0.354 N 
ATOM     48  N   UNL A   1      41.799  29.477  33.741  1.00  0.00    -0.248 NA
ATOM     49  C   UNL A   1      41.961  30.226  35.948  1.00  0.00     0.031 C 
ATOM     50  C   UNL A   1      44.585  26.559  31.877  1.00  0.00     0.029 A 
ATOM     51  C   UNL A   1      43.711  27.442  32.489  1.00  0.00     0.049 A 
ATOM     52  H   UNL A   1      41.979  28.357  31.703  1.00  0.00     0.167 HD
ATOM     53  C   UNL A   1      42.889  28.869  34.347  1.00  0.00     0.074 A 
ATOM     54  C   UNL A   1      42.957  29.385  35.700  1.00  0.00     0.031 C 
ATOM     55  C   UNL A   1      43.754  27.961  33.831  1.00  0.00     0.037 A 
BRANCH  42  56
ATOM     56  C   UNL A   1      42.554  26.328  27.998  1.00  0.00     0.064 A 
ATOM     57  C   UNL A   1      42.006  25.056  27.779  1.00  0.00     0.173 A 
ATOM     58  C   UNL A   1      43.452  26.832  27.044  1.00  0.00     0.173 A 
ATOM     59  F   UNL A   1      41.152  24.527  28.668  1.00  0.00    -0.203 F 
ATOM     60  C   UNL A   1      42.355  24.312  26.654  1.00  0.00     0.198 A 
ATOM     61  C   UNL A   1      43.782  26.093  25.911  1.00  0.00     0.198 A 
ATOM     62  F   UNL A   1      44.001  28.045  27.207  1.00  0.00    -0.203 F 
ATOM     63  F   UNL A   1      41.843  23.086  26.479  1.00  0.00    -0.200 F 
ATOM     64  C   UNL A   1      43.237  24.832  25.720  1.00  0.00     0.200 A 
ATOM     65  F   UNL A   1      44.628  26.602  25.004  1.00  0.00    -0.200 F 
ATOM     66  F   UNL A   1      43.567  24.117  24.635  1.00  0.00    -0.200 F 
ENDBRANCH  42  56
BRANCH  43  67
ATOM     67  C   UNL A   1      39.610  31.960  35.705  1.00  0.00     0.064 A 
ATOM     68  C   UNL A   1      40.164  33.221  35.961  1.00  0.00     0.173 A 
ATOM     69  C   UNL A   1      38.600  31.501  36.564  1.00  0.00     0.173 A 
ATOM     70  F   UNL A   1      41.149  33.689  35.180  1.00  0.00    -0.203 F 
ATOM     71  C   UNL A   1      39.727  33.992  37.035  1.00  0.00     0.198 A 
ATOM     72  C   UNL A   1      38.146  32.284  37.623  1.00  0.00     0.198 A 
ATOM     73  F   UNL A   1      38.039  30.300  36.359  1.00  0.00    -0.203 F 
ATOM     74  F   UNL A   1      40.293  35.182  37.277  1.00  0.00    -0.200 F 
ATOM     75  C   UNL A   1      38.713  33.526  37.860  1.00  0.00     0.200 A 
ATOM     76  F   UNL A   1      37.158  31.835  38.409  1.00  0.00    -0.200 F 
ATOM     77  F   UNL A   1      38.286  34.273  38.886  1.00  0.00    -0.200 F 
ENDBRANCH  43  67
BRANCH  55  78
ATOM     78  C   UNL A   1      44.850  27.482  34.733  1.00  0.00     0.064 A 
ATOM     79  C   UNL A   1      44.709  26.310  35.489  1.00  0.00     0.173 A 
ATOM     80  C   UNL A   1      46.060  28.185  34.817  1.00  0.00     0.173 A 
ATOM     81  F   UNL A   1      43.563  25.616  35.453  1.00  0.00    -0.203 F 
ATOM     82  C   UNL A   1      45.739  25.869  36.316  1.00  0.00     0.198 A 
ATOM     83  C   UNL A   1      47.094  27.728  35.629  1.00  0.00     0.198 A 
ATOM     84  F   UNL A   1      46.240  29.309  34.109  1.00  0.00    -0.203 F 
ATOM     85  F   UNL A   1      45.570  24.768  37.062  1.00  0.00    -0.200 F 
ATOM     86  C   UNL A   1      46.931  26.574  36.382  1.00  0.00     0.200 A 
ATOM     87  F   UNL A   1      48.248  28.407  35.686  1.00  0.00    -0.200 F 
ATOM     88  F   UNL A   1      47.922  26.147  37.177  1.00  0.00    -0.200 F 
ENDBRANCH  55  78
ENDBRANCH  29  30
ENDBRANCH  22  24
ENDBRANCH  21  22
ENDBRANCH  20  21
ENDBRANCH   1  20
TORSDOF 14
ENDMDL
MODEL 2
REMARK VINA RESULT:     -11.1      4.558      9.856
REMARK SMILES CSc1ncccc1C(=O)N1CSC[C@H]1C(=O)OCCOC(=O)c1ccc(-c2c3nc(c(-c4c(F)c(F)c(F)c(F)c4F)c4ccc([nH]4)c(-c4c(F)c(F)c(F)c(F)c4F)c4nc(c(-c5c(F)c(F)c(F)c(F)c5F)c5ccc2[nH]5)C=C4)C=C3)cc1
REMARK SMILES IDX 19 1 18 2 16 3 17 4 15 5 11 6 12 7 13 8 14 9 9 10 10 11 8 12
REMARK SMILES IDX 3 13 4 14 5 15 7 16 6 17 2 18 1 19 20 20 21 21 22 22 23 23
REMARK SMILES IDX 24 24 25 25 86 26 26 27 85 28 27 29 28 30 29 31 79 32 30 33
REMARK SMILES IDX 84 34 78 35 80 36 31 37 83 38 77 39 76 40 32 42 64 43 44 44
REMARK SMILES IDX 63 45 45 46 48 47 62 48 81 49 46 50 47 51 61 53 82 54 49 55
REMARK SMILES IDX 33 56 34 57 42 58 35 59 36 60 40 61 43 62 37 63 38 64 41 65
REMARK SMILES IDX 39 66 65 67 66 68 74 69 67 70 68 71 72 72 75 73 69 74 70 75
REMARK SMILES IDX 73 76 71 77 50 78 51 79 59 80 52 81 53 82 57 83 60 84 54 85
REMARK SMILES IDX 55 86 58 87 56 88
REMARK H PARENT 80 41 48 52
REMARK Flexibility Score: inf
ROOT
ATOM      1  C   UNL A   1      36.145  21.806  24.337  1.00  0.00     0.274 C 
ENDROOT
BRANCH   1   2
ATOM      2  O   UNL A   1      34.978  21.341  25.044  1.00  0.00    -0.461 OA
BRANCH   2   3
ATOM      3  C   UNL A   1      34.321  22.257  25.801  1.00  0.00     0.329 C 
ATOM      4  O   UNL A   1      34.872  23.099  26.505  1.00  0.00    -0.250 OA
BRANCH   3   5
ATOM      5  C   UNL A   1      32.782  22.143  25.717  1.00  0.00     0.206 C 
ATOM      6  N   UNL A   1      32.059  23.332  25.269  1.00  0.00    -0.315 N 
ATOM      7  C   UNL A   1      32.143  23.554  23.850  1.00  0.00     0.191 C 
ATOM      8  S   UNL A   1      32.245  21.896  23.115  1.00  0.00    -0.138 SA
ATOM      9  C   UNL A   1      32.466  21.039  24.710  1.00  0.00     0.108 C 
BRANCH   6  10
ATOM     10  C   UNL A   1      31.639  24.368  26.085  1.00  0.00     0.258 C 
ATOM     11  O   UNL A   1      31.245  24.165  27.229  1.00  0.00    -0.269 OA
BRANCH  10  12
ATOM     12  C   UNL A   1      32.054  25.746  25.687  1.00  0.00     0.072 A 
ATOM     13  C   UNL A   1      31.183  26.694  25.141  1.00  0.00     0.108 A 
ATOM     14  N   UNL A   1      31.526  28.011  25.035  1.00  0.00    -0.249 NA
ATOM     15  C   UNL A   1      32.726  28.406  25.507  1.00  0.00     0.112 A 
ATOM     16  C   UNL A   1      33.314  26.193  26.127  1.00  0.00     0.018 A 
ATOM     17  C   UNL A   1      33.654  27.538  26.042  1.00  0.00     0.021 A 
BRANCH  13  18
ATOM     18  S   UNL A   1      29.602  26.290  24.418  1.00  0.00    -0.109 SA
ATOM     19  C   UNL A   1      29.437  27.641  23.219  1.00  0.00     0.092 C 
ENDBRANCH  13  18
ENDBRANCH  10  12
ENDBRANCH   6  10
ENDBRANCH   3   5
ENDBRANCH   2   3
ENDBRANCH   1   2
BRANCH   1  20
ATOM     20  C   UNL A   1      37.407  21.066  24.773  1.00  0.00     0.275 C 
BRANCH  20  21
ATOM     21  O   UNL A   1      37.861  21.535  26.057  1.00  0.00    -0.458 OA
BRANCH  21  22
ATOM     22  C   UNL A   1      39.183  21.368  26.279  1.00  0.00     0.338 C 
ATOM     23  O   UNL A   1      39.845  20.361  26.114  1.00  0.00    -0.246 OA
BRANCH  22  24
ATOM     24  C   UNL A   1      39.776  22.634  26.720  1.00  0.00     0.060 A 
ATOM     25  C   UNL A   1      39.411  23.816  26.074  1.00  0.00     0.016 A 
ATOM     26  C   UNL A   1      40.785  22.630  27.683  1.00  0.00     0.016 A 
ATOM     27  C   UNL A   1      40.068  25.003  26.373  1.00  0.00     0.010 A 
ATOM     28  C   UNL A   1      41.419  23.830  28.010  1.00  0.00     0.010 A 
ATOM     29  C   UNL A   1      41.073  25.021  27.347  1.00  0.00    -0.014 A 
BRANCH  29  30
ATOM     30  C   UNL A   1      41.769  26.287  27.666  1.00  0.00     0.031 A 
ATOM     31  C   UNL A   1      41.075  27.348  28.466  1.00  0.00     0.074 A 
ATOM     32  C   UNL A   1      43.031  26.473  27.235  1.00  0.00     0.049 A 
ATOM     33  N   UNL A   1      41.468  28.566  28.739  1.00  0.00    -0.248 NA
ATOM     34  C   UNL A   1      39.764  26.994  29.033  1.00  0.00     0.031 C 
ATOM     35  C   UNL A   1      43.819  25.493  26.487  1.00  0.00     0.029 A 
ATOM     36  N   UNL A   1      43.866  27.553  27.357  1.00  0.00    -0.354 N 
ATOM     37  C   UNL A   1      40.443  29.134  29.483  1.00  0.00     0.074 A 
ATOM     38  C   UNL A   1      39.409  28.131  29.617  1.00  0.00     0.031 C 
ATOM     39  C   UNL A   1      45.025  26.014  26.220  1.00  0.00     0.029 A 
ATOM     40  C   UNL A   1      45.072  27.383  26.726  1.00  0.00     0.049 A 
ATOM     41  H   UNL A   1      43.624  28.371  27.849  1.00  0.00     0.167 HD
ATOM     42  C   UNL A   1      40.379  30.383  30.003  1.00  0.00     0.037 A 
ATOM     43  C   UNL A   1      46.087  28.248  26.542  1.00  0.00     0.037 A 
ATOM     44  C   UNL A   1      41.423  31.367  29.884  1.00  0.00     0.049 A 
ATOM     45  C   UNL A   1      45.967  29.643  27.085  1.00  0.00     0.074 A 
ATOM     46  C   UNL A   1      41.460  32.654  30.393  1.00  0.00     0.029 A 
ATOM     47  N   UNL A   1      42.618  31.169  29.208  1.00  0.00    -0.354 N 
ATOM     48  N   UNL A   1      44.986  30.181  27.767  1.00  0.00    -0.248 NA
ATOM     49  C   UNL A   1      47.087  30.555  26.817  1.00  0.00     0.031 C 
ATOM     50  C   UNL A   1      42.665  33.247  29.996  1.00  0.00     0.029 A 
ATOM     51  C   UNL A   1      43.392  32.317  29.270  1.00  0.00     0.049 A 
ATOM     52  H   UNL A   1      42.877  30.336  28.752  1.00  0.00     0.167 HD
ATOM     53  C   UNL A   1      45.370  31.490  28.017  1.00  0.00     0.074 A 
ATOM     54  C   UNL A   1      46.684  31.660  27.430  1.00  0.00     0.031 C 
ATOM     55  C   UNL A   1      44.693  32.465  28.671  1.00  0.00     0.037 A 
BRANCH  42  56
ATOM     56  C   UNL A   1      39.123  30.767  30.726  1.00  0.00     0.064 A 
ATOM     57  C   UNL A   1      38.030  31.333  30.054  1.00  0.00     0.173 A 
ATOM     58  C   UNL A   1      38.998  30.526  32.103  1.00  0.00     0.173 A 
ATOM     59  F   UNL A   1      38.106  31.592  28.741  1.00  0.00    -0.203 F 
ATOM     60  C   UNL A   1      36.862  31.659  30.739  1.00  0.00     0.198 A 
ATOM     61  C   UNL A   1      37.821  30.834  32.780  1.00  0.00     0.198 A 
ATOM     62  F   UNL A   1      40.014  29.983  32.789  1.00  0.00    -0.203 F 
ATOM     63  F   UNL A   1      35.840  32.228  30.085  1.00  0.00    -0.200 F 
ATOM     64  C   UNL A   1      36.756  31.405  32.099  1.00  0.00     0.200 A 
ATOM     65  F   UNL A   1      37.718  30.579  34.092  1.00  0.00    -0.200 F 
ATOM     66  F   UNL A   1      35.628  31.713  32.755  1.00  0.00    -0.200 F 
ENDBRANCH  42  56
BRANCH  43  67
ATOM     67  C   UNL A   1      47.287  27.819  25.782  1.00  0.00     0.064 A 
ATOM     68  C   UNL A   1      48.442  27.382  26.443  1.00  0.00     0.173 A 
ATOM     69  C   UNL A   1      47.297  27.821  24.379  1.00  0.00     0.173 A 
ATOM     70  F   UNL A   1      48.486  27.387  27.784  1.00  0.00    -0.203 F 
ATOM     71  C   UNL A   1      49.563  26.965  25.730  1.00  0.00     0.198 A 
ATOM     72  C   UNL A   1      48.409  27.380  23.667  1.00  0.00     0.198 A 
ATOM     73  F   UNL A   1      46.214  28.231  23.701  1.00  0.00    -0.203 F 
ATOM     74  F   UNL A   1      50.666  26.580  26.386  1.00  0.00    -0.200 F 
ATOM     75  C   UNL A   1      49.543  26.957  24.343  1.00  0.00     0.200 A 
ATOM     76  F   UNL A   1      48.380  27.362  22.327  1.00  0.00    -0.200 F 
ATOM     77  F   UNL A   1      50.618  26.545  23.658  1.00  0.00    -0.200 F 
ENDBRANCH  43  67
BRANCH  55  78
ATOM     78  C   UNL A   1      45.371  33.796  28.792  1.00  0.00     0.064 A 
ATOM     79  C   UNL A   1      46.232  34.080  29.862  1.00  0.00     0.173 A 
ATOM     80  C   UNL A   1      45.182  34.782  27.814  1.00  0.00     0.173 A 
ATOM     81  F   UNL A   1      46.428  33.173  30.830  1.00  0.00    -0.203 F 
ATOM     82  C   UNL A   1      46.864  35.316  29.958  1.00  0.00     0.198 A 
ATOM     83  C   UNL A   1      45.834  36.008  27.902  1.00  0.00     0.198 A 
ATOM     84  F   UNL A   1      44.371  34.554  26.771  1.00  0.00    -0.203 F 
ATOM     85  F   UNL A   1      47.652  35.583  31.010  1.00  0.00    -0.200 F 
ATOM     86  C   UNL A   1      46.670  36.277  28.977  1.00  0.00     0.200 A 
ATOM     87  F   UNL A   1      45.650  36.933  26.950  1.00  0.00    -0.200 F 
ATOM     88  F   UNL A   1      47.281  37.466  29.069  1.00  0.00    -0.200 F 
ENDBRANCH  55  78
ENDBRANCH  29  30
ENDBRANCH  22  24
ENDBRANCH  21  22
ENDBRANCH  20  21
ENDBRANCH   1  20
TORSDOF 14
ENDMDL
MODEL 3
REMARK VINA RESULT:     -11.0      1.218      2.311
REMARK SMILES CSc1ncccc1C(=O)N1CSC[C@H]1C(=O)OCCOC(=O)c1ccc(-c2c3nc(c(-c4c(F)c(F)c(F)c(F)c4F)c4ccc([nH]4)c(-c4c(F)c(F)c(F)c(F)c4F)c4nc(c(-c5c(F)c(F)c(F)c(F)c5F)c5ccc2[nH]5)C=C4)C=C3)cc1
REMARK SMILES IDX 19 1 18 2 16 3 17 4 15 5 11 6 12 7 13 8 14 9 9 10 10 11 8 12
REMARK SMILES IDX 3 13 4 14 5 15 7 16 6 17 2 18 1 19 20 20 21 21 22 22 23 23
REMARK SMILES IDX 24 24 25 25 86 26 26 27 85 28 27 29 28 30 29 31 79 32 30 33
REMARK SMILES IDX 84 34 78 35 80 36 31 37 83 38 77 39 76 40 32 42 64 43 44 44
REMARK SMILES IDX 63 45 45 46 48 47 62 48 81 49 46 50 47 51 61 53 82 54 49 55
REMARK SMILES IDX 33 56 34 57 42 58 35 59 36 60 40 61 43 62 37 63 38 64 41 65
REMARK SMILES IDX 39 66 65 67 66 68 74 69 67 70 68 71 72 72 75 73 69 74 70 75
REMARK SMILES IDX 73 76 71 77 50 78 51 79 59 80 52 81 53 82 57 83 60 84 54 85
REMARK SMILES IDX 55 86 58 87 56 88
REMARK H PARENT 80 41 48 52
REMARK Flexibility Score: inf
ROOT
ATOM      1  C   UNL A   1      31.406  28.849  24.992  1.00  0.00     0.274 C 
ENDROOT
BRANCH   1   2
ATOM      2  O   UNL A   1      32.516  27.940  25.139  1.00  0.00    -0.461 OA
BRANCH   2   3
ATOM      3  C   UNL A   1      32.226  26.699  25.607  1.00  0.00     0.329 C 
ATOM      4  O   UNL A   1      31.466  26.470  26.544  1.00  0.00    -0.250 OA
BRANCH   3   5
ATOM      5  C   UNL A   1      32.962  25.565  24.856  1.00  0.00     0.206 C 
ATOM      6  N   UNL A   1      32.136  24.473  24.344  1.00  0.00    -0.315 N 
ATOM      7  C   UNL A   1      31.405  24.818  23.153  1.00  0.00     0.191 C 
ATOM      8  S   UNL A   1      32.462  26.003  22.273  1.00  0.00    -0.138 SA
ATOM      9  C   UNL A   1      33.646  26.196  23.646  1.00  0.00     0.108 C 
BRANCH   6  10
ATOM     10  C   UNL A   1      31.760  23.349  25.059  1.00  0.00     0.258 C 
ATOM     11  O   UNL A   1      30.658  23.266  25.591  1.00  0.00    -0.269 OA
BRANCH  10  12
ATOM     12  C   UNL A   1      32.558  22.108  24.827  1.00  0.00     0.072 A 
ATOM     13  C   UNL A   1      33.512  21.617  25.724  1.00  0.00     0.108 A 
ATOM     14  N   UNL A   1      34.026  20.358  25.610  1.00  0.00    -0.249 NA
ATOM     15  C   UNL A   1      33.569  19.559  24.624  1.00  0.00     0.112 A 
ATOM     16  C   UNL A   1      32.140  21.259  23.786  1.00  0.00     0.018 A 
ATOM     17  C   UNL A   1      32.646  19.967  23.684  1.00  0.00     0.021 A 
BRANCH  13  18
ATOM     18  S   UNL A   1      34.249  22.593  27.024  1.00  0.00    -0.109 SA
ATOM     19  C   UNL A   1      35.645  23.326  26.128  1.00  0.00     0.092 C 
ENDBRANCH  13  18
ENDBRANCH  10  12
ENDBRANCH   6  10
ENDBRANCH   3   5
ENDBRANCH   2   3
ENDBRANCH   1   2
BRANCH   1  20
ATOM     20  C   UNL A   1      31.601  30.122  25.811  1.00  0.00     0.275 C 
BRANCH  20  21
ATOM     21  O   UNL A   1      33.000  30.406  25.997  1.00  0.00    -0.458 OA
BRANCH  21  22
ATOM     22  C   UNL A   1      33.265  31.325  26.951  1.00  0.00     0.338 C 
ATOM     23  O   UNL A   1      32.571  32.263  27.294  1.00  0.00    -0.246 OA
BRANCH  22  24
ATOM     24  C   UNL A   1      34.540  31.013  27.603  1.00  0.00     0.060 A 
ATOM     25  C   UNL A   1      34.800  29.696  27.988  1.00  0.00     0.016 A 
ATOM     26  C   UNL A   1      35.415  32.043  27.946  1.00  0.00     0.016 A 
ATOM     27  C   UNL A   1      35.933  29.403  28.738  1.00  0.00     0.010 A 
ATOM     28  C   UNL A   1      36.572  31.741  28.667  1.00  0.00     0.010 A 
ATOM     29  C   UNL A   1      36.830  30.422  29.079  1.00  0.00    -0.014 A 
BRANCH  29  30
ATOM     30  C   UNL A   1      38.037  30.107  29.875  1.00  0.00     0.031 A 
ATOM     31  C   UNL A   1      39.094  29.204  29.315  1.00  0.00     0.074 A 
ATOM     32  C   UNL A   1      38.176  30.641  31.102  1.00  0.00     0.049 A 
ATOM     33  N   UNL A   1      40.156  28.711  29.901  1.00  0.00    -0.248 NA
ATOM     34  C   UNL A   1      38.939  28.798  27.909  1.00  0.00     0.031 C 
ATOM     35  C   UNL A   1      37.232  31.566  31.730  1.00  0.00     0.029 A 
ATOM     36  N   UNL A   1      39.160  30.476  32.042  1.00  0.00    -0.354 N 
ATOM     37  C   UNL A   1      40.778  27.916  28.949  1.00  0.00     0.074 A 
ATOM     38  C   UNL A   1      39.976  27.988  27.747  1.00  0.00     0.031 C 
ATOM     39  C   UNL A   1      37.684  31.891  32.950  1.00  0.00     0.029 A 
ATOM     40  C   UNL A   1      38.916  31.152  33.211  1.00  0.00     0.049 A 
ATOM     41  H   UNL A   1      39.963  29.926  31.893  1.00  0.00     0.167 HD
ATOM     42  C   UNL A   1      41.916  27.193  29.075  1.00  0.00     0.037 A 
ATOM     43  C   UNL A   1      39.591  31.146  34.376  1.00  0.00     0.037 A 
ATOM     44  C   UNL A   1      42.719  27.145  30.269  1.00  0.00     0.049 A 
ATOM     45  C   UNL A   1      40.820  30.294  34.504  1.00  0.00     0.074 A 
ATOM     46  C   UNL A   1      43.900  26.458  30.490  1.00  0.00     0.029 A 
ATOM     47  N   UNL A   1      42.423  27.818  31.446  1.00  0.00    -0.354 N 
ATOM     48  N   UNL A   1      41.390  29.527  33.608  1.00  0.00    -0.248 NA
ATOM     49  C   UNL A   1      41.490  30.295  35.812  1.00  0.00     0.031 C 
ATOM     50  C   UNL A   1      44.300  26.688  31.812  1.00  0.00     0.029 A 
ATOM     51  C   UNL A   1      43.387  27.547  32.403  1.00  0.00     0.049 A 
ATOM     52  H   UNL A   1      41.641  28.402  31.580  1.00  0.00     0.167 HD
ATOM     53  C   UNL A   1      42.488  28.958  34.237  1.00  0.00     0.074 A 
ATOM     54  C   UNL A   1      42.516  29.485  35.587  1.00  0.00     0.031 C 
ATOM     55  C   UNL A   1      43.390  28.076  33.741  1.00  0.00     0.037 A 
BRANCH  42  56
ATOM     56  C   UNL A   1      42.346  26.369  27.900  1.00  0.00     0.064 A 
ATOM     57  C   UNL A   1      43.264  26.852  26.957  1.00  0.00     0.173 A 
ATOM     58  C   UNL A   1      41.862  25.061  27.739  1.00  0.00     0.173 A 
ATOM     59  F   UNL A   1      43.746  28.099  27.062  1.00  0.00    -0.203 F 
ATOM     60  C   UNL A   1      43.671  26.060  25.885  1.00  0.00     0.198 A 
ATOM     61  C   UNL A   1      42.287  24.266  26.679  1.00  0.00     0.198 A 
ATOM     62  F   UNL A   1      40.985  24.552  28.616  1.00  0.00    -0.203 F 
ATOM     63  F   UNL A   1      44.526  26.551  24.978  1.00  0.00    -0.200 F 
ATOM     64  C   UNL A   1      43.188  24.767  25.750  1.00  0.00     0.200 A 
ATOM     65  F   UNL A   1      41.826  23.013  26.555  1.00  0.00    -0.200 F 
ATOM     66  F   UNL A   1      43.586  24.005  24.722  1.00  0.00    -0.200 F 
ENDBRANCH  42  56
BRANCH  43  67
ATOM     67  C   UNL A   1      39.090  31.952  35.517  1.00  0.00     0.064 A 
ATOM     68  C   UNL A   1      38.296  31.373  36.514  1.00  0.00     0.173 A 
ATOM     69  C   UNL A   1      39.410  33.312  35.641  1.00  0.00     0.173 A 
ATOM     70  F   UNL A   1      37.945  30.081  36.423  1.00  0.00    -0.203 F 
ATOM     71  C   UNL A   1      37.839  32.124  37.594  1.00  0.00     0.198 A 
ATOM     72  C   UNL A   1      38.973  34.057  36.734  1.00  0.00     0.198 A 
ATOM     73  F   UNL A   1      40.167  33.912  34.710  1.00  0.00    -0.203 F 
ATOM     74  F   UNL A   1      37.056  31.554  38.521  1.00  0.00    -0.200 F 
ATOM     75  C   UNL A   1      38.184  33.463  37.707  1.00  0.00     0.200 A 
ATOM     76  F   UNL A   1      39.319  35.347  36.845  1.00  0.00    -0.200 F 
ATOM     77  F   UNL A   1      37.752  34.182  38.751  1.00  0.00    -0.200 F 
ENDBRANCH  43  67
BRANCH  55  78
ATOM     78  C   UNL A   1      44.485  27.637  34.665  1.00  0.00     0.064 A 
ATOM     79  C   UNL A   1      44.350  26.491  35.462  1.00  0.00     0.173 A 
ATOM     80  C   UNL A   1      45.689  28.352  34.732  1.00  0.00     0.173 A 
ATOM     81  F   UNL A   1      43.209  25.787  35.444  1.00  0.00    -0.203 F 
ATOM     82  C   UNL A   1      45.378  26.088  36.309  1.00  0.00     0.198 A 
ATOM     83  C   UNL A   1      46.722  27.933  35.564  1.00  0.00     0.198 A 
ATOM     84  F   UNL A   1      45.865  29.453  33.985  1.00  0.00    -0.203 F 
ATOM     85  F   UNL A   1      45.214  25.013  37.093  1.00  0.00    -0.200 F 
ATOM     86  C   UNL A   1      46.564  26.805  36.356  1.00  0.00     0.200 A 
ATOM     87  F   UNL A   1      47.871  28.622  35.603  1.00  0.00    -0.200 F 
ATOM     88  F   UNL A   1      47.554  26.414  37.171  1.00  0.00    -0.200 F 
ENDBRANCH  55  78
ENDBRANCH  29  30
ENDBRANCH  22  24
ENDBRANCH  21  22
ENDBRANCH  20  21
ENDBRANCH   1  20
TORSDOF 14
ENDMDL
