MODEL 1
REMARK VINA RESULT:     -12.7      0.000      0.000
REMARK SMILES Cc1ccc(S(=O)(=O)Nc2cc3c(cc2C(=O)OCCOC(=O)c2ccc(-c4c5nc(c(-c6c(F)c(F)c(F)c(F)c6F)c6ccc([nH]6)c(-c6c(F)c(F)c(F)c(F)c6F)c6nc(c(-c7c(F)c(F)c(F)c(F)c7F)c7ccc4[nH]7)C=C6)C=C5)cc2)OCCO3)s1
REMARK SMILES IDX 19 1 18 2 16 3 17 4 15 5 10 6 11 7 12 8 14 9 13 10 90 11
REMARK SMILES IDX 87 12 89 13 88 14 9 15 6 17 7 18 8 19 5 20 1 21 2 22 3 23
REMARK SMILES IDX 91 24 4 25 20 26 21 27 22 28 23 29 24 30 25 31 86 32 26 33
REMARK SMILES IDX 85 34 27 35 28 36 29 37 79 38 30 39 84 40 78 41 80 42 31 43
REMARK SMILES IDX 83 44 77 45 76 46 32 48 64 49 44 50 63 51 45 52 48 53 62 54
REMARK SMILES IDX 81 55 46 56 47 57 61 59 82 60 49 61 33 62 34 63 42 64 35 65
REMARK SMILES IDX 36 66 40 67 43 68 37 69 38 70 41 71 39 72 65 73 66 74 74 75
REMARK SMILES IDX 67 76 68 77 72 78 75 79 69 80 70 81 73 82 71 83 50 84 51 85
REMARK SMILES IDX 59 86 52 87 53 88 57 89 60 90 54 91 55 92 58 93 56 94
REMARK H PARENT 9 16 80 47 48 58
REMARK Flexibility Score: inf
ROOT
ATOM      1  C   UNL A   1      31.595  28.619  26.214  1.00  0.00     0.275 C 
ENDROOT
BRANCH   1   2
ATOM      2  O   UNL A   1      32.626  27.676  26.591  1.00  0.00    -0.458 OA
BRANCH   2   3
ATOM      3  C   UNL A   1      32.370  26.387  26.268  1.00  0.00     0.340 C 
ATOM      4  O   UNL A   1      31.481  25.682  26.723  1.00  0.00    -0.246 OA
BRANCH   3   5
ATOM      5  C   UNL A   1      33.410  25.818  25.394  1.00  0.00     0.088 A 
ATOM      6  C   UNL A   1      33.321  25.885  23.992  1.00  0.00     0.067 A 
ATOM      7  C   UNL A   1      34.052  24.991  23.210  1.00  0.00     0.078 A 
ATOM      8  C   UNL A   1      34.978  24.148  23.808  1.00  0.00     0.163 A 
ATOM      9  C   UNL A   1      34.360  24.983  25.995  1.00  0.00     0.068 A 
ATOM     10  C   UNL A   1      35.183  24.199  25.191  1.00  0.00     0.162 A 
ATOM     11  O   UNL A   1      35.686  23.335  22.963  1.00  0.00    -0.486 OA
ATOM     12  O   UNL A   1      36.177  23.490  25.813  1.00  0.00    -0.486 OA
ATOM     13  C   UNL A   1      36.497  22.399  23.679  1.00  0.00     0.271 C 
ATOM     14  C   UNL A   1      37.170  23.080  24.859  1.00  0.00     0.271 C 
BRANCH   6  15
ATOM     15  N   UNL A   1      32.610  26.936  23.321  1.00  0.00    -0.278 N 
ATOM     16  H   UNL A   1      32.950  27.859  23.287  1.00  0.00     0.180 HD
BRANCH  15  17
ATOM     17  S   UNL A   1      31.119  26.479  22.578  1.00  0.00     0.271 S 
ATOM     18  O   UNL A   1      30.617  25.354  23.350  1.00  0.00    -0.200 OA
ATOM     19  O   UNL A   1      31.348  26.342  21.162  1.00  0.00    -0.200 OA
BRANCH  17  20
ATOM     20  C   UNL A   1      29.974  27.825  22.734  1.00  0.00     0.140 A 
ATOM     21  C   UNL A   1      28.667  31.342  21.705  1.00  0.00     0.056 C 
ATOM     22  C   UNL A   1      28.936  30.011  22.311  1.00  0.00     0.003 A 
ATOM     23  C   UNL A   1      28.046  29.124  22.877  1.00  0.00     0.016 A 
ATOM     24  S   UNL A   1      30.532  29.391  22.338  1.00  0.00    -0.127 S 
ATOM     25  C   UNL A   1      28.662  27.875  23.172  1.00  0.00     0.034 A 
ENDBRANCH  17  20
ENDBRANCH  15  17
ENDBRANCH   6  15
ENDBRANCH   3   5
ENDBRANCH   2   3
ENDBRANCH   1   2
BRANCH   1  26
ATOM     26  C   UNL A   1      31.806  30.000  26.831  1.00  0.00     0.275 C 
BRANCH  26  27
ATOM     27  O   UNL A   1      33.048  30.570  26.372  1.00  0.00    -0.458 OA
BRANCH  27  28
ATOM     28  C   UNL A   1      33.608  31.426  27.252  1.00  0.00     0.338 C 
ATOM     29  O   UNL A   1      33.078  32.419  27.726  1.00  0.00    -0.246 OA
BRANCH  28  30
ATOM     30  C   UNL A   1      34.967  31.036  27.650  1.00  0.00     0.060 A 
ATOM     31  C   UNL A   1      35.230  29.714  27.989  1.00  0.00     0.016 A 
ATOM     32  C   UNL A   1      35.895  32.036  27.954  1.00  0.00     0.016 A 
ATOM     33  C   UNL A   1      36.348  29.419  28.763  1.00  0.00     0.010 A 
ATOM     34  C   UNL A   1      37.083  31.711  28.618  1.00  0.00     0.010 A 
ATOM     35  C   UNL A   1      37.307  30.402  29.068  1.00  0.00    -0.014 A 
BRANCH  35  36
ATOM     36  C   UNL A   1      38.545  30.023  29.806  1.00  0.00     0.031 A 
ATOM     37  C   UNL A   1      39.568  29.079  29.227  1.00  0.00     0.074 A 
ATOM     38  C   UNL A   1      38.765  30.572  31.018  1.00  0.00     0.049 A 
ATOM     39  N   UNL A   1      40.620  28.551  29.808  1.00  0.00    -0.248 NA
ATOM     40  C   UNL A   1      39.403  28.679  27.823  1.00  0.00     0.031 C 
ATOM     41  C   UNL A   1      37.880  31.533  31.680  1.00  0.00     0.029 A 
ATOM     42  N   UNL A   1      39.802  30.418  31.905  1.00  0.00    -0.354 N 
ATOM     43  C   UNL A   1      41.219  27.734  28.855  1.00  0.00     0.074 A 
ATOM     44  C   UNL A   1      40.421  27.841  27.652  1.00  0.00     0.031 C 
ATOM     45  C   UNL A   1      38.437  31.933  32.826  1.00  0.00     0.029 A 
ATOM     46  C   UNL A   1      39.641  31.148  33.056  1.00  0.00     0.049 A 
ATOM     47  H   UNL A   1      40.582  29.843  31.732  1.00  0.00     0.167 HD
ATOM     48  C   UNL A   1      42.326  26.962  28.983  1.00  0.00     0.037 A 
ATOM     49  C   UNL A   1      40.326  31.137  34.213  1.00  0.00     0.037 A 
ATOM     50  C   UNL A   1      43.130  26.878  30.180  1.00  0.00     0.049 A 
ATOM     51  C   UNL A   1      41.481  30.200  34.364  1.00  0.00     0.074 A 
ATOM     52  C   UNL A   1      44.280  26.138  30.398  1.00  0.00     0.029 A 
ATOM     53  N   UNL A   1      42.866  27.558  31.360  1.00  0.00    -0.354 N 
ATOM     54  N   UNL A   1      41.995  29.380  33.482  1.00  0.00    -0.248 NA
ATOM     55  C   UNL A   1      42.128  30.160  35.680  1.00  0.00     0.031 C 
ATOM     56  C   UNL A   1      44.681  26.328  31.725  1.00  0.00     0.029 A 
ATOM     57  C   UNL A   1      43.812  27.227  32.319  1.00  0.00     0.049 A 
ATOM     58  H   UNL A   1      42.117  28.183  31.497  1.00  0.00     0.167 HD
ATOM     59  C   UNL A   1      43.019  28.716  34.136  1.00  0.00     0.074 A 
ATOM     60  C   UNL A   1      43.073  29.252  35.482  1.00  0.00     0.031 C 
ATOM     61  C   UNL A   1      43.834  27.742  33.664  1.00  0.00     0.037 A 
BRANCH  48  62
ATOM     62  C   UNL A   1      42.733  26.100  27.821  1.00  0.00     0.064 A 
ATOM     63  C   UNL A   1      42.130  24.860  27.567  1.00  0.00     0.173 A 
ATOM     64  C   UNL A   1      43.667  26.577  26.887  1.00  0.00     0.173 A 
ATOM     65  F   UNL A   1      41.229  24.359  28.425  1.00  0.00    -0.203 F 
ATOM     66  C   UNL A   1      42.449  24.129  26.424  1.00  0.00     0.198 A 
ATOM     67  C   UNL A   1      43.969  25.855  25.736  1.00  0.00     0.198 A 
ATOM     68  F   UNL A   1      44.265  27.764  27.076  1.00  0.00    -0.203 F 
ATOM     69  F   UNL A   1      41.868  22.941  26.204  1.00  0.00    -0.200 F 
ATOM     70  C   UNL A   1      43.359  24.631  25.505  1.00  0.00     0.200 A 
ATOM     71  F   UNL A   1      44.833  26.352  24.840  1.00  0.00    -0.200 F 
ATOM     72  F   UNL A   1      43.645  23.939  24.393  1.00  0.00    -0.200 F 
ENDBRANCH  48  62
BRANCH  49  73
ATOM     73  C   UNL A   1      39.847  31.980  35.338  1.00  0.00     0.064 A 
ATOM     74  C   UNL A   1      40.303  33.291  35.509  1.00  0.00     0.173 A 
ATOM     75  C   UNL A   1      38.859  31.508  36.219  1.00  0.00     0.173 A 
ATOM     76  F   UNL A   1      41.264  33.777  34.708  1.00  0.00    -0.203 F 
ATOM     77  C   UNL A   1      39.777  34.107  36.508  1.00  0.00     0.198 A 
ATOM     78  C   UNL A   1      38.308  32.334  37.192  1.00  0.00     0.198 A 
ATOM     79  F   UNL A   1      38.390  30.257  36.094  1.00  0.00    -0.203 F 
ATOM     80  F   UNL A   1      40.241  35.353  36.665  1.00  0.00    -0.200 F 
ATOM     81  C   UNL A   1      38.769  33.633  37.337  1.00  0.00     0.200 A 
ATOM     82  F   UNL A   1      37.317  31.880  37.971  1.00  0.00    -0.200 F 
ATOM     83  F   UNL A   1      38.240  34.431  38.275  1.00  0.00    -0.200 F 
ENDBRANCH  49  73
BRANCH  61  84
ATOM     84  C   UNL A   1      44.853  27.201  34.620  1.00  0.00     0.064 A 
ATOM     85  C   UNL A   1      46.113  27.801  34.758  1.00  0.00     0.173 A 
ATOM     86  C   UNL A   1      44.573  26.065  35.394  1.00  0.00     0.173 A 
ATOM     87  F   UNL A   1      46.433  28.875  34.021  1.00  0.00    -0.203 F 
ATOM     88  C   UNL A   1      47.070  27.265  35.615  1.00  0.00     0.198 A 
ATOM     89  C   UNL A   1      45.523  25.547  36.270  1.00  0.00     0.198 A 
ATOM     90  F   UNL A   1      43.383  25.457  35.297  1.00  0.00    -0.203 F 
ATOM     91  F   UNL A   1      48.287  27.820  35.689  1.00  0.00    -0.200 F 
ATOM     92  C   UNL A   1      46.772  26.141  36.372  1.00  0.00     0.200 A 
ATOM     93  F   UNL A   1      45.234  24.466  37.005  1.00  0.00    -0.200 F 
ATOM     94  F   UNL A   1      47.697  25.621  37.191  1.00  0.00    -0.200 F 
ENDBRANCH  61  84
ENDBRANCH  35  36
ENDBRANCH  28  30
ENDBRANCH  27  28
ENDBRANCH  26  27
ENDBRANCH   1  26
TORSDOF 14
ENDMDL
MODEL 2
REMARK VINA RESULT:     -12.6      1.153      2.444
REMARK SMILES Cc1ccc(S(=O)(=O)Nc2cc3c(cc2C(=O)OCCOC(=O)c2ccc(-c4c5nc(c(-c6c(F)c(F)c(F)c(F)c6F)c6ccc([nH]6)c(-c6c(F)c(F)c(F)c(F)c6F)c6nc(c(-c7c(F)c(F)c(F)c(F)c7F)c7ccc4[nH]7)C=C6)C=C5)cc2)OCCO3)s1
REMARK SMILES IDX 19 1 18 2 16 3 17 4 15 5 10 6 11 7 12 8 14 9 13 10 90 11
REMARK SMILES IDX 87 12 89 13 88 14 9 15 6 17 7 18 8 19 5 20 1 21 2 22 3 23
REMARK SMILES IDX 91 24 4 25 20 26 21 27 22 28 23 29 24 30 25 31 86 32 26 33
REMARK SMILES IDX 85 34 27 35 28 36 29 37 79 38 30 39 84 40 78 41 80 42 31 43
REMARK SMILES IDX 83 44 77 45 76 46 32 48 64 49 44 50 63 51 45 52 48 53 62 54
REMARK SMILES IDX 81 55 46 56 47 57 61 59 82 60 49 61 33 62 34 63 42 64 35 65
REMARK SMILES IDX 36 66 40 67 43 68 37 69 38 70 41 71 39 72 65 73 66 74 74 75
REMARK SMILES IDX 67 76 68 77 72 78 75 79 69 80 70 81 73 82 71 83 50 84 51 85
REMARK SMILES IDX 59 86 52 87 53 88 57 89 60 90 54 91 55 92 58 93 56 94
REMARK H PARENT 9 16 80 47 48 58
REMARK Flexibility Score: inf
ROOT
ATOM      1  C   UNL A   1      32.820  29.688  24.908  1.00  0.00     0.275 C 
ENDROOT
BRANCH   1   2
ATOM      2  O   UNL A   1      33.202  28.427  25.505  1.00  0.00    -0.458 OA
BRANCH   2   3
ATOM      3  C   UNL A   1      33.541  27.455  24.625  1.00  0.00     0.340 C 
ATOM      4  O   UNL A   1      33.992  27.612  23.500  1.00  0.00    -0.246 OA
BRANCH   3   5
ATOM      5  C   UNL A   1      33.144  26.118  25.099  1.00  0.00     0.088 A 
ATOM      6  C   UNL A   1      31.920  25.894  25.753  1.00  0.00     0.067 A 
ATOM      7  C   UNL A   1      31.763  24.764  26.557  1.00  0.00     0.078 A 
ATOM      8  C   UNL A   1      32.753  23.793  26.585  1.00  0.00     0.163 A 
ATOM      9  C   UNL A   1      34.134  25.127  25.109  1.00  0.00     0.068 A 
ATOM     10  C   UNL A   1      33.903  23.941  25.802  1.00  0.00     0.162 A 
ATOM     11  O   UNL A   1      32.499  22.696  27.363  1.00  0.00    -0.486 OA
ATOM     12  O   UNL A   1      34.846  22.953  25.686  1.00  0.00    -0.486 OA
ATOM     13  C   UNL A   1      33.634  21.829  27.451  1.00  0.00     0.271 C 
ATOM     14  C   UNL A   1      34.295  21.689  26.090  1.00  0.00     0.271 C 
BRANCH   6  15
ATOM     15  N   UNL A   1      30.766  26.712  25.515  1.00  0.00    -0.278 N 
ATOM     16  H   UNL A   1      30.494  27.427  26.134  1.00  0.00     0.180 HD
BRANCH  15  17
ATOM     17  S   UNL A   1      29.881  26.363  24.073  1.00  0.00     0.271 S 
ATOM     18  O   UNL A   1      28.557  25.951  24.508  1.00  0.00    -0.200 OA
ATOM     19  O   UNL A   1      30.682  25.486  23.257  1.00  0.00    -0.200 OA
BRANCH  17  20
ATOM     20  C   UNL A   1      29.724  27.858  23.130  1.00  0.00     0.140 A 
ATOM     21  C   UNL A   1      28.019  31.279  22.400  1.00  0.00     0.056 C 
ATOM     22  C   UNL A   1      28.840  30.038  22.424  1.00  0.00     0.003 A 
ATOM     23  C   UNL A   1      30.142  29.856  22.010  1.00  0.00     0.016 A 
ATOM     24  S   UNL A   1      28.181  28.589  23.055  1.00  0.00    -0.127 S 
ATOM     25  C   UNL A   1      30.635  28.572  22.372  1.00  0.00     0.034 A 
ENDBRANCH  17  20
ENDBRANCH  15  17
ENDBRANCH   6  15
ENDBRANCH   3   5
ENDBRANCH   2   3
ENDBRANCH   1   2
BRANCH   1  26
ATOM     26  C   UNL A   1      31.803  30.454  25.752  1.00  0.00     0.275 C 
BRANCH  26  27
ATOM     27  O   UNL A   1      32.271  30.582  27.109  1.00  0.00    -0.458 OA
BRANCH  27  28
ATOM     28  C   UNL A   1      33.076  31.647  27.305  1.00  0.00     0.338 C 
ATOM     29  O   UNL A   1      32.753  32.820  27.208  1.00  0.00    -0.246 OA
BRANCH  28  30
ATOM     30  C   UNL A   1      34.440  31.273  27.703  1.00  0.00     0.060 A 
ATOM     31  C   UNL A   1      34.722  29.951  28.025  1.00  0.00     0.016 A 
ATOM     32  C   UNL A   1      35.351  32.283  28.022  1.00  0.00     0.016 A 
ATOM     33  C   UNL A   1      35.842  29.663  28.798  1.00  0.00     0.010 A 
ATOM     34  C   UNL A   1      36.543  31.967  28.686  1.00  0.00     0.010 A 
ATOM     35  C   UNL A   1      36.785  30.657  29.119  1.00  0.00    -0.014 A 
BRANCH  35  36
ATOM     36  C   UNL A   1      38.026  30.287  29.857  1.00  0.00     0.031 A 
ATOM     37  C   UNL A   1      39.100  29.426  29.241  1.00  0.00     0.074 A 
ATOM     38  C   UNL A   1      38.202  30.770  31.104  1.00  0.00     0.049 A 
ATOM     39  N   UNL A   1      40.165  28.910  29.809  1.00  0.00    -0.248 NA
ATOM     40  C   UNL A   1      38.977  29.107  27.813  1.00  0.00     0.031 C 
ATOM     41  C   UNL A   1      37.264  31.648  31.806  1.00  0.00     0.029 A 
ATOM     42  N   UNL A   1      39.230  30.608  31.999  1.00  0.00    -0.354 N 
ATOM     43  C   UNL A   1      40.816  28.181  28.820  1.00  0.00     0.074 A 
ATOM     44  C   UNL A   1      40.034  28.327  27.611  1.00  0.00     0.031 C 
ATOM     45  C   UNL A   1      37.784  32.002  32.984  1.00  0.00     0.029 A 
ATOM     46  C   UNL A   1      39.018  31.257  33.190  1.00  0.00     0.049 A 
ATOM     47  H   UNL A   1      40.038  30.079  31.807  1.00  0.00     0.167 HD
ATOM     48  C   UNL A   1      41.954  27.451  28.921  1.00  0.00     0.037 A 
ATOM     49  C   UNL A   1      39.684  31.205  34.357  1.00  0.00     0.037 A 
ATOM     50  C   UNL A   1      42.741  27.329  30.126  1.00  0.00     0.049 A 
ATOM     51  C   UNL A   1      40.876  30.312  34.472  1.00  0.00     0.074 A 
ATOM     52  C   UNL A   1      43.919  26.628  30.321  1.00  0.00     0.029 A 
ATOM     53  N   UNL A   1      42.428  27.922  31.340  1.00  0.00    -0.354 N 
ATOM     54  N   UNL A   1      41.441  29.571  33.552  1.00  0.00    -0.248 NA
ATOM     55  C   UNL A   1      41.503  30.219  35.796  1.00  0.00     0.031 C 
ATOM     56  C   UNL A   1      44.289  26.753  31.665  1.00  0.00     0.029 A 
ATOM     57  C   UNL A   1      43.371  27.575  32.296  1.00  0.00     0.049 A 
ATOM     58  H   UNL A   1      41.650  28.504  31.500  1.00  0.00     0.167 HD
ATOM     59  C   UNL A   1      42.483  28.913  34.184  1.00  0.00     0.074 A 
ATOM     60  C   UNL A   1      42.491  29.367  35.561  1.00  0.00     0.031 C 
ATOM     61  C   UNL A   1      43.349  28.007  33.670  1.00  0.00     0.037 A 
BRANCH  48  62
ATOM     62  C   UNL A   1      42.418  26.681  27.718  1.00  0.00     0.064 A 
ATOM     63  C   UNL A   1      43.334  27.213  26.801  1.00  0.00     0.173 A 
ATOM     64  C   UNL A   1      42.017  25.345  27.543  1.00  0.00     0.173 A 
ATOM     65  F   UNL A   1      43.751  28.482  26.922  1.00  0.00    -0.203 F 
ATOM     66  C   UNL A   1      43.830  26.439  25.753  1.00  0.00     0.198 A 
ATOM     67  C   UNL A   1      42.531  24.568  26.509  1.00  0.00     0.198 A 
ATOM     68  F   UNL A   1      41.151  24.782  28.400  1.00  0.00    -0.203 F 
ATOM     69  F   UNL A   1      44.700  26.969  24.881  1.00  0.00    -0.200 F 
ATOM     70  C   UNL A   1      43.437  25.116  25.613  1.00  0.00     0.200 A 
ATOM     71  F   UNL A   1      42.164  23.285  26.389  1.00  0.00    -0.200 F 
ATOM     72  F   UNL A   1      43.936  24.365  24.621  1.00  0.00    -0.200 F 
ENDBRANCH  48  62
BRANCH  49  73
ATOM     73  C   UNL A   1      39.149  31.955  35.521  1.00  0.00     0.064 A 
ATOM     74  C   UNL A   1      38.293  31.345  36.446  1.00  0.00     0.173 A 
ATOM     75  C   UNL A   1      39.550  33.278  35.771  1.00  0.00     0.173 A 
ATOM     76  F   UNL A   1      37.862  30.092  36.237  1.00  0.00    -0.203 F 
ATOM     77  C   UNL A   1      37.873  32.026  37.587  1.00  0.00     0.198 A 
ATOM     78  C   UNL A   1      39.160  33.943  36.928  1.00  0.00     0.198 A 
ATOM     79  F   UNL A   1      40.371  33.903  34.913  1.00  0.00    -0.203 F 
ATOM     80  F   UNL A   1      37.040  31.430  38.450  1.00  0.00    -0.200 F 
ATOM     81  C   UNL A   1      38.320  33.317  37.835  1.00  0.00     0.200 A 
ATOM     82  F   UNL A   1      39.617  35.178  37.174  1.00  0.00    -0.200 F 
ATOM     83  F   UNL A   1      37.943  33.956  38.950  1.00  0.00    -0.200 F 
ENDBRANCH  49  73
BRANCH  61  84
ATOM     84  C   UNL A   1      44.375  27.453  34.610  1.00  0.00     0.064 A 
ATOM     85  C   UNL A   1      44.150  26.260  35.313  1.00  0.00     0.173 A 
ATOM     86  C   UNL A   1      45.587  28.125  34.821  1.00  0.00     0.173 A 
ATOM     87  F   UNL A   1      42.995  25.595  35.160  1.00  0.00    -0.203 F 
ATOM     88  C   UNL A   1      45.089  25.776  36.218  1.00  0.00     0.198 A 
ATOM     89  C   UNL A   1      46.536  27.625  35.708  1.00  0.00     0.198 A 
ATOM     90  F   UNL A   1      45.847  29.269  34.172  1.00  0.00    -0.203 F 
ATOM     91  F   UNL A   1      44.830  24.666  36.922  1.00  0.00    -0.200 F 
ATOM     92  C   UNL A   1      46.282  26.457  36.412  1.00  0.00     0.200 A 
ATOM     93  F   UNL A   1      47.690  28.280  35.891  1.00  0.00    -0.200 F 
ATOM     94  F   UNL A   1      47.183  25.995  37.291  1.00  0.00    -0.200 F 
ENDBRANCH  61  84
ENDBRANCH  35  36
ENDBRANCH  28  30
ENDBRANCH  27  28
ENDBRANCH  26  27
ENDBRANCH   1  26
TORSDOF 14
ENDMDL
MODEL 3
REMARK VINA RESULT:     -12.5      4.373      9.819
REMARK SMILES Cc1ccc(S(=O)(=O)Nc2cc3c(cc2C(=O)OCCOC(=O)c2ccc(-c4c5nc(c(-c6c(F)c(F)c(F)c(F)c6F)c6ccc([nH]6)c(-c6c(F)c(F)c(F)c(F)c6F)c6nc(c(-c7c(F)c(F)c(F)c(F)c7F)c7ccc4[nH]7)C=C6)C=C5)cc2)OCCO3)s1
REMARK SMILES IDX 19 1 18 2 16 3 17 4 15 5 10 6 11 7 12 8 14 9 13 10 90 11
REMARK SMILES IDX 87 12 89 13 88 14 9 15 6 17 7 18 8 19 5 20 1 21 2 22 3 23
REMARK SMILES IDX 91 24 4 25 20 26 21 27 22 28 23 29 24 30 25 31 86 32 26 33
REMARK SMILES IDX 85 34 27 35 28 36 29 37 79 38 30 39 84 40 78 41 80 42 31 43
REMARK SMILES IDX 83 44 77 45 76 46 32 48 64 49 44 50 63 51 45 52 48 53 62 54
REMARK SMILES IDX 81 55 46 56 47 57 61 59 82 60 49 61 33 62 34 63 42 64 35 65
REMARK SMILES IDX 36 66 40 67 43 68 37 69 38 70 41 71 39 72 65 73 66 74 74 75
REMARK SMILES IDX 67 76 68 77 72 78 75 79 69 80 70 81 73 82 71 83 50 84 51 85
REMARK SMILES IDX 59 86 52 87 53 88 57 89 60 90 54 91 55 92 58 93 56 94
REMARK H PARENT 9 16 80 47 48 58
REMARK Flexibility Score: inf
ROOT
ATOM      1  C   UNL A   1      36.427  22.639  23.763  1.00  0.00     0.275 C 
ENDROOT
BRANCH   1   2
ATOM      2  O   UNL A   1      35.190  22.969  24.436  1.00  0.00    -0.458 OA
BRANCH   2   3
ATOM      3  C   UNL A   1      34.559  24.071  23.967  1.00  0.00     0.340 C 
ATOM      4  O   UNL A   1      34.587  24.499  22.822  1.00  0.00    -0.246 OA
BRANCH   3   5
ATOM      5  C   UNL A   1      33.929  24.849  25.047  1.00  0.00     0.088 A 
ATOM      6  C   UNL A   1      32.876  24.329  25.822  1.00  0.00     0.067 A 
ATOM      7  C   UNL A   1      32.030  25.199  26.510  1.00  0.00     0.078 A 
ATOM      8  C   UNL A   1      32.320  26.555  26.553  1.00  0.00     0.163 A 
ATOM      9  C   UNL A   1      34.235  26.215  25.110  1.00  0.00     0.068 A 
ATOM     10  C   UNL A   1      33.464  27.048  25.916  1.00  0.00     0.162 A 
ATOM     11  O   UNL A   1      31.464  27.331  27.288  1.00  0.00    -0.486 OA
ATOM     12  O   UNL A   1      33.872  28.351  26.042  1.00  0.00    -0.486 OA
ATOM     13  C   UNL A   1      31.754  28.725  27.147  1.00  0.00     0.271 C 
ATOM     14  C   UNL A   1      33.255  28.958  27.189  1.00  0.00     0.271 C 
BRANCH   6  15
ATOM     15  N   UNL A   1      32.719  22.922  26.050  1.00  0.00    -0.278 N 
ATOM     16  H   UNL A   1      33.260  22.435  26.712  1.00  0.00     0.180 HD
BRANCH  15  17
ATOM     17  S   UNL A   1      31.520  22.133  25.088  1.00  0.00     0.271 S 
ATOM     18  O   UNL A   1      31.299  22.998  23.941  1.00  0.00    -0.200 OA
ATOM     19  O   UNL A   1      30.422  21.773  25.947  1.00  0.00    -0.200 OA
BRANCH  17  20
ATOM     20  C   UNL A   1      32.183  20.592  24.511  1.00  0.00     0.140 A 
ATOM     21  C   UNL A   1      33.205  16.881  25.079  1.00  0.00     0.056 C 
ATOM     22  C   UNL A   1      32.930  18.253  24.574  1.00  0.00     0.003 A 
ATOM     23  C   UNL A   1      32.623  18.657  23.293  1.00  0.00     0.016 A 
ATOM     24  S   UNL A   1      32.950  19.581  25.655  1.00  0.00    -0.127 S 
ATOM     25  C   UNL A   1      32.242  20.027  23.249  1.00  0.00     0.034 A 
ENDBRANCH  17  20
ENDBRANCH  15  17
ENDBRANCH   6  15
ENDBRANCH   3   5
ENDBRANCH   2   3
ENDBRANCH   1   2
BRANCH   1  26
ATOM     26  C   UNL A   1      37.120  21.420  24.369  1.00  0.00     0.275 C 
BRANCH  26  27
ATOM     27  O   UNL A   1      37.429  21.658  25.757  1.00  0.00    -0.458 OA
BRANCH  27  28
ATOM     28  C   UNL A   1      38.744  21.565  26.041  1.00  0.00     0.338 C 
ATOM     29  O   UNL A   1      39.473  20.623  25.774  1.00  0.00    -0.246 OA
BRANCH  28  30
ATOM     30  C   UNL A   1      39.277  22.764  26.703  1.00  0.00     0.060 A 
ATOM     31  C   UNL A   1      38.819  24.019  26.320  1.00  0.00     0.016 A 
ATOM     32  C   UNL A   1      40.424  22.647  27.492  1.00  0.00     0.016 A 
ATOM     33  C   UNL A   1      39.592  25.141  26.601  1.00  0.00     0.010 A 
ATOM     34  C   UNL A   1      41.125  23.793  27.883  1.00  0.00     0.010 A 
ATOM     35  C   UNL A   1      40.740  25.055  27.408  1.00  0.00    -0.014 A 
BRANCH  35  36
ATOM     36  C   UNL A   1      41.480  26.295  27.776  1.00  0.00     0.031 A 
ATOM     37  C   UNL A   1      40.860  27.380  28.619  1.00  0.00     0.074 A 
ATOM     38  C   UNL A   1      42.758  26.429  27.364  1.00  0.00     0.049 A 
ATOM     39  N   UNL A   1      41.332  28.572  28.901  1.00  0.00    -0.248 NA
ATOM     40  C   UNL A   1      39.554  27.100  29.231  1.00  0.00     0.031 C 
ATOM     41  C   UNL A   1      43.496  25.438  26.579  1.00  0.00     0.029 A 
ATOM     42  N   UNL A   1      43.669  27.438  27.558  1.00  0.00    -0.354 N 
ATOM     43  C   UNL A   1      40.370  29.192  29.691  1.00  0.00     0.074 A 
ATOM     44  C   UNL A   1      39.288  28.244  29.853  1.00  0.00     0.031 C 
ATOM     45  C   UNL A   1      44.756  25.851  26.416  1.00  0.00     0.029 A 
ATOM     46  C   UNL A   1      44.876  27.200  26.950  1.00  0.00     0.049 A 
ATOM     47  H   UNL A   1      43.475  28.250  28.079  1.00  0.00     0.167 HD
ATOM     48  C   UNL A   1      40.389  30.441  30.218  1.00  0.00     0.037 A 
ATOM     49  C   UNL A   1      45.942  27.996  26.758  1.00  0.00     0.037 A 
ATOM     50  C   UNL A   1      41.482  31.373  30.070  1.00  0.00     0.049 A 
ATOM     51  C   UNL A   1      45.896  29.403  27.260  1.00  0.00     0.074 A 
ATOM     52  C   UNL A   1      41.601  32.654  30.584  1.00  0.00     0.029 A 
ATOM     53  N   UNL A   1      42.643  31.125  29.354  1.00  0.00    -0.354 N 
ATOM     54  N   UNL A   1      44.953  30.002  27.942  1.00  0.00    -0.248 NA
ATOM     55  C   UNL A   1      47.045  30.255  26.935  1.00  0.00     0.031 C 
ATOM     56  C   UNL A   1      42.809  33.198  30.135  1.00  0.00     0.029 A 
ATOM     57  C   UNL A   1      43.468  32.239  29.384  1.00  0.00     0.049 A 
ATOM     58  H   UNL A   1      42.852  30.280  28.892  1.00  0.00     0.167 HD
ATOM     59  C   UNL A   1      45.386  31.306  28.121  1.00  0.00     0.074 A 
ATOM     60  C   UNL A   1      46.692  31.402  27.501  1.00  0.00     0.031 C 
ATOM     61  C   UNL A   1      44.750  32.333  28.736  1.00  0.00     0.037 A 
BRANCH  48  62
ATOM     62  C   UNL A   1      39.181  30.914  30.977  1.00  0.00     0.064 A 
ATOM     63  C   UNL A   1      38.097  31.533  30.340  1.00  0.00     0.173 A 
ATOM     64  C   UNL A   1      39.066  30.643  32.350  1.00  0.00     0.173 A 
ATOM     65  F   UNL A   1      38.154  31.813  29.030  1.00  0.00    -0.203 F 
ATOM     66  C   UNL A   1      36.944  31.866  31.050  1.00  0.00     0.198 A 
ATOM     67  C   UNL A   1      37.905  30.956  33.052  1.00  0.00     0.198 A 
ATOM     68  F   UNL A   1      40.070  30.040  33.007  1.00  0.00    -0.203 F 
ATOM     69  F   UNL A   1      35.922  32.466  30.424  1.00  0.00    -0.200 F 
ATOM     70  C   UNL A   1      36.844  31.568  32.401  1.00  0.00     0.200 A 
ATOM     71  F   UNL A   1      37.804  30.649  34.353  1.00  0.00    -0.200 F 
ATOM     72  F   UNL A   1      35.724  31.865  33.076  1.00  0.00    -0.200 F 
ENDBRANCH  48  62
BRANCH  49  73
ATOM     73  C   UNL A   1      47.086  27.484  25.961  1.00  0.00     0.064 A 
ATOM     74  C   UNL A   1      47.141  27.661  24.574  1.00  0.00     0.173 A 
ATOM     75  C   UNL A   1      48.185  26.875  26.590  1.00  0.00     0.173 A 
ATOM     76  F   UNL A   1      46.105  28.214  23.927  1.00  0.00    -0.203 F 
ATOM     77  C   UNL A   1      48.261  27.264  23.848  1.00  0.00     0.198 A 
ATOM     78  C   UNL A   1      49.317  26.513  25.869  1.00  0.00     0.198 A 
ATOM     79  F   UNL A   1      48.177  26.685  27.918  1.00  0.00    -0.203 F 
ATOM     80  F   UNL A   1      48.286  27.426  22.518  1.00  0.00    -0.200 F 
ATOM     81  C   UNL A   1      49.354  26.705  24.498  1.00  0.00     0.200 A 
ATOM     82  F   UNL A   1      50.378  26.000  26.507  1.00  0.00    -0.200 F 
ATOM     83  F   UNL A   1      50.444  26.356  23.801  1.00  0.00    -0.200 F 
ENDBRANCH  49  73
BRANCH  61  84
ATOM     84  C   UNL A   1      45.472  33.645  28.763  1.00  0.00     0.064 A 
ATOM     85  C   UNL A   1      45.265  34.611  27.767  1.00  0.00     0.173 A 
ATOM     86  C   UNL A   1      46.387  33.936  29.785  1.00  0.00     0.173 A 
ATOM     87  F   UNL A   1      44.416  34.367  26.757  1.00  0.00    -0.203 F 
ATOM     88  C   UNL A   1      45.973  35.809  27.775  1.00  0.00     0.198 A 
ATOM     89  C   UNL A   1      47.074  35.146  29.805  1.00  0.00     0.198 A 
ATOM     90  F   UNL A   1      46.618  33.044  30.759  1.00  0.00    -0.203 F 
ATOM     91  F   UNL A   1      45.802  36.693  26.783  1.00  0.00    -0.200 F 
ATOM     92  C   UNL A   1      46.873  36.076  28.796  1.00  0.00     0.200 A 
ATOM     93  F   UNL A   1      47.940  35.406  30.793  1.00  0.00    -0.200 F 
ATOM     94  F   UNL A   1      47.561  37.227  28.798  1.00  0.00    -0.200 F 
ENDBRANCH  61  84
ENDBRANCH  35  36
ENDBRANCH  28  30
ENDBRANCH  27  28
ENDBRANCH  26  27
ENDBRANCH   1  26
TORSDOF 14
ENDMDL
