MODEL 1
REMARK VINA RESULT:     -13.0      0.000      0.000
REMARK SMILES CCN(C(=O)Cc1c(C(=O)OCCOC(=O)c2ccc(-c3c4nc(c(-c5c(F)c(F)c(F)c(F)c5F)c5ccc([nH]5)c(-c5c(F)c(F)c(F)c(F)c5F)c5nc(c(-c6c(F)c(F)c(F)c(F)c6F)c6ccc3[nH]6)C=C5)C=C4)cc2)[nH]c2ccc(Cl)cc12)c1ccc(C)c(C)c1
REMARK SMILES IDX 12 1 11 2 9 3 10 4 8 5 7 6 87 7 80 8 81 9 86 10 82 12 84 13
REMARK SMILES IDX 83 14 85 15 6 16 4 17 5 18 3 19 2 20 1 21 88 22 89 23 95 24
REMARK SMILES IDX 90 25 93 26 91 27 94 28 92 29 13 30 14 31 15 32 16 33 17 34
REMARK SMILES IDX 18 35 79 36 19 37 78 38 20 39 21 40 22 41 72 42 23 43 77 44
REMARK SMILES IDX 71 45 73 46 24 47 76 48 70 49 69 50 25 52 57 53 37 54 56 55
REMARK SMILES IDX 38 56 41 57 55 58 74 59 39 60 40 61 54 63 75 64 42 65 26 66
REMARK SMILES IDX 27 67 35 68 28 69 29 70 33 71 36 72 30 73 31 74 34 75 32 76
REMARK SMILES IDX 58 77 59 78 67 79 60 80 61 81 65 82 68 83 62 84 63 85 66 86
REMARK SMILES IDX 64 87 43 88 44 89 52 90 45 91 46 92 50 93 53 94 47 95 48 96
REMARK SMILES IDX 51 97 49 98
REMARK H PARENT 80 11 73 51 41 62
REMARK Flexibility Score: inf
ROOT
ATOM      1  C   UNL A   1      31.634  29.718  24.253  1.00  0.00     0.275 C 
ENDROOT
BRANCH   1   2
ATOM      2  O   UNL A   1      30.354  29.130  23.957  1.00  0.00    -0.457 OA
BRANCH   2   3
ATOM      3  C   UNL A   1      30.229  28.522  22.758  1.00  0.00     0.355 C 
ATOM      4  O   UNL A   1      29.872  29.061  21.723  1.00  0.00    -0.244 OA
BRANCH   3   5
ATOM      5  C   UNL A   1      30.672  27.143  22.818  1.00  0.00     0.129 A 
ATOM      6  C   UNL A   1      30.352  26.038  23.611  1.00  0.00     0.002 A 
ATOM      7  C   UNL A   1      31.121  24.926  23.093  1.00  0.00     0.005 A 
ATOM      8  N   UNL A   1      31.623  26.720  21.914  1.00  0.00    -0.349 N 
ATOM      9  C   UNL A   1      32.008  25.432  22.151  1.00  0.00     0.046 A 
ATOM     10  C   UNL A   1      31.185  23.544  23.374  1.00  0.00     0.031 A 
ATOM     11  H   UNL A   1      31.981  27.279  21.187  1.00  0.00     0.167 HD
ATOM     12  C   UNL A   1      33.044  24.685  21.579  1.00  0.00     0.028 A 
ATOM     13  C   UNL A   1      32.209  22.776  22.807  1.00  0.00     0.041 A 
ATOM     14  C   UNL A   1      33.144  23.342  21.947  1.00  0.00     0.022 A 
ATOM     15  Cl  UNL A   1      32.334  21.108  23.215  1.00  0.00    -0.084 Cl
BRANCH   6  16
ATOM     16  C   UNL A   1      29.351  25.953  24.736  1.00  0.00     0.139 C 
BRANCH  16  17
ATOM     17  C   UNL A   1      29.903  25.543  26.111  1.00  0.00     0.231 C 
ATOM     18  O   UNL A   1      29.141  24.932  26.873  1.00  0.00    -0.274 OA
BRANCH  17  19
ATOM     19  N   UNL A   1      31.242  25.816  26.440  1.00  0.00    -0.312 N 
BRANCH  19  20
ATOM     20  C   UNL A   1      31.797  27.172  26.601  1.00  0.00     0.122 C 
ATOM     21  C   UNL A   1      31.489  27.858  27.925  1.00  0.00     0.028 C 
ENDBRANCH  19  20
BRANCH  19  22
ATOM     22  C   UNL A   1      32.214  24.753  26.437  1.00  0.00     0.044 A 
ATOM     23  C   UNL A   1      31.926  23.502  26.984  1.00  0.00     0.026 A 
ATOM     24  C   UNL A   1      33.454  24.920  25.809  1.00  0.00     0.030 A 
ATOM     25  C   UNL A   1      32.832  22.442  26.858  1.00  0.00     0.006 A 
ATOM     26  C   UNL A   1      34.380  23.869  25.674  1.00  0.00    -0.046 A 
ATOM     27  C   UNL A   1      34.056  22.607  26.190  1.00  0.00    -0.048 A 
ATOM     28  C   UNL A   1      35.686  24.149  24.982  1.00  0.00     0.044 C 
ATOM     29  C   UNL A   1      34.971  21.419  26.085  1.00  0.00     0.044 C 
ENDBRANCH  19  22
ENDBRANCH  17  19
ENDBRANCH  16  17
ENDBRANCH   6  16
ENDBRANCH   3   5
ENDBRANCH   2   3
ENDBRANCH   1   2
BRANCH   1  30
ATOM     30  C   UNL A   1      31.587  30.546  25.539  1.00  0.00     0.275 C 
BRANCH  30  31
ATOM     31  O   UNL A   1      32.801  30.373  26.298  1.00  0.00    -0.458 OA
BRANCH  31  32
ATOM     32  C   UNL A   1      33.218  31.449  27.002  1.00  0.00     0.338 C 
ATOM     33  O   UNL A   1      32.614  32.481  27.235  1.00  0.00    -0.246 OA
BRANCH  32  34
ATOM     34  C   UNL A   1      34.537  31.169  27.586  1.00  0.00     0.060 A 
ATOM     35  C   UNL A   1      34.834  29.845  27.904  1.00  0.00     0.016 A 
ATOM     36  C   UNL A   1      35.409  32.192  27.949  1.00  0.00     0.016 A 
ATOM     37  C   UNL A   1      35.994  29.529  28.604  1.00  0.00     0.010 A 
ATOM     38  C   UNL A   1      36.592  31.875  28.630  1.00  0.00     0.010 A 
ATOM     39  C   UNL A   1      36.884  30.543  28.980  1.00  0.00    -0.014 A 
BRANCH  39  40
ATOM     40  C   UNL A   1      38.072  30.201  29.806  1.00  0.00     0.031 A 
ATOM     41  C   UNL A   1      39.156  29.329  29.236  1.00  0.00     0.074 A 
ATOM     42  C   UNL A   1      38.209  30.713  31.044  1.00  0.00     0.049 A 
ATOM     43  N   UNL A   1      40.215  28.829  29.823  1.00  0.00    -0.248 NA
ATOM     44  C   UNL A   1      39.032  28.970  27.815  1.00  0.00     0.031 C 
ATOM     45  C   UNL A   1      37.263  31.623  31.691  1.00  0.00     0.029 A 
ATOM     46  N   UNL A   1      39.205  30.550  31.976  1.00  0.00    -0.354 N 
ATOM     47  C   UNL A   1      40.857  28.064  28.859  1.00  0.00     0.074 A 
ATOM     48  C   UNL A   1      40.069  28.163  27.648  1.00  0.00     0.031 C 
ATOM     49  C   UNL A   1      37.734  31.955  32.904  1.00  0.00     0.029 A 
ATOM     50  C   UNL A   1      38.978  31.230  33.147  1.00  0.00     0.049 A 
ATOM     51  H   UNL A   1      40.005  29.998  31.819  1.00  0.00     0.167 HD
ATOM     52  C   UNL A   1      41.998  27.344  28.975  1.00  0.00     0.037 A 
ATOM     53  C   UNL A   1      39.675  31.242  34.300  1.00  0.00     0.037 A 
ATOM     54  C   UNL A   1      42.802  27.281  30.169  1.00  0.00     0.049 A 
ATOM     55  C   UNL A   1      40.917  30.401  34.417  1.00  0.00     0.074 A 
ATOM     56  C   UNL A   1      43.977  26.582  30.383  1.00  0.00     0.029 A 
ATOM     57  N   UNL A   1      42.517  27.954  31.348  1.00  0.00    -0.354 N 
ATOM     58  N   UNL A   1      41.491  29.641  33.516  1.00  0.00    -0.248 NA
ATOM     59  C   UNL A   1      41.600  30.406  35.718  1.00  0.00     0.031 C 
ATOM     60  C   UNL A   1      44.387  26.806  31.702  1.00  0.00     0.029 A 
ATOM     61  C   UNL A   1      43.488  27.677  32.296  1.00  0.00     0.049 A 
ATOM     62  H   UNL A   1      41.740  28.542  31.489  1.00  0.00     0.167 HD
ATOM     63  C   UNL A   1      42.603  29.088  34.134  1.00  0.00     0.074 A 
ATOM     64  C   UNL A   1      42.638  29.616  35.482  1.00  0.00     0.031 C 
ATOM     65  C   UNL A   1      43.511  28.216  33.632  1.00  0.00     0.037 A 
BRANCH  52  66
ATOM     66  C   UNL A   1      42.430  26.532  27.790  1.00  0.00     0.064 A 
ATOM     67  C   UNL A   1      41.910  25.255  27.537  1.00  0.00     0.173 A 
ATOM     68  C   UNL A   1      43.355  27.058  26.875  1.00  0.00     0.173 A 
ATOM     69  F   UNL A   1      41.033  24.701  28.389  1.00  0.00    -0.203 F 
ATOM     70  C   UNL A   1      42.317  24.525  26.423  1.00  0.00     0.198 A 
ATOM     71  C   UNL A   1      43.740  26.337  25.749  1.00  0.00     0.198 A 
ATOM     72  F   UNL A   1      43.878  28.279  27.070  1.00  0.00    -0.203 F 
ATOM     73  F   UNL A   1      41.839  23.289  26.221  1.00  0.00    -0.200 F 
ATOM     74  C   UNL A   1      43.227  25.069  25.527  1.00  0.00     0.200 A 
ATOM     75  F   UNL A   1      44.610  26.869  24.879  1.00  0.00    -0.200 F 
ATOM     76  F   UNL A   1      43.613  24.367  24.452  1.00  0.00    -0.200 F 
ENDBRANCH  52  66
BRANCH  53  77
ATOM     77  C   UNL A   1      39.193  32.050  35.449  1.00  0.00     0.064 A 
ATOM     78  C   UNL A   1      39.530  33.404  35.572  1.00  0.00     0.173 A 
ATOM     79  C   UNL A   1      38.389  31.484  36.450  1.00  0.00     0.173 A 
ATOM     80  F   UNL A   1      40.321  33.984  34.656  1.00  0.00    -0.203 F 
ATOM     81  C   UNL A   1      39.088  34.160  36.657  1.00  0.00     0.198 A 
ATOM     82  C   UNL A   1      37.923  32.248  37.518  1.00  0.00     0.198 A 
ATOM     83  F   UNL A   1      38.041  30.190  36.381  1.00  0.00    -0.203 F 
ATOM     84  F   UNL A   1      39.458  35.442  36.772  1.00  0.00    -0.200 F 
ATOM     85  C   UNL A   1      38.278  33.583  37.624  1.00  0.00     0.200 A 
ATOM     86  F   UNL A   1      37.131  31.688  38.443  1.00  0.00    -0.200 F 
ATOM     87  F   UNL A   1      37.847  34.311  38.663  1.00  0.00    -0.200 F 
ENDBRANCH  53  77
BRANCH  65  88
ATOM     88  C   UNL A   1      44.632  27.799  34.536  1.00  0.00     0.064 A 
ATOM     89  C   UNL A   1      44.538  26.655  35.341  1.00  0.00     0.173 A 
ATOM     90  C   UNL A   1      45.826  28.535  34.572  1.00  0.00     0.173 A 
ATOM     91  F   UNL A   1      43.409  25.930  35.354  1.00  0.00    -0.203 F 
ATOM     92  C   UNL A   1      45.592  26.274  36.167  1.00  0.00     0.198 A 
ATOM     93  C   UNL A   1      46.888  28.137  35.380  1.00  0.00     0.198 A 
ATOM     94  F   UNL A   1      45.966  29.633  33.815  1.00  0.00    -0.203 F 
ATOM     95  F   UNL A   1      45.465  25.201  36.961  1.00  0.00    -0.200 F 
ATOM     96  C   UNL A   1      46.767  27.011  36.181  1.00  0.00     0.200 A 
ATOM     97  F   UNL A   1      48.026  28.844  35.386  1.00  0.00    -0.200 F 
ATOM     98  F   UNL A   1      47.782  26.641  36.975  1.00  0.00    -0.200 F 
ENDBRANCH  65  88
ENDBRANCH  39  40
ENDBRANCH  32  34
ENDBRANCH  31  32
ENDBRANCH  30  31
ENDBRANCH   1  30
TORSDOF 16
ENDMDL
MODEL 2
REMARK VINA RESULT:     -13.0      0.123      1.546
REMARK SMILES CCN(C(=O)Cc1c(C(=O)OCCOC(=O)c2ccc(-c3c4nc(c(-c5c(F)c(F)c(F)c(F)c5F)c5ccc([nH]5)c(-c5c(F)c(F)c(F)c(F)c5F)c5nc(c(-c6c(F)c(F)c(F)c(F)c6F)c6ccc3[nH]6)C=C5)C=C4)cc2)[nH]c2ccc(Cl)cc12)c1ccc(C)c(C)c1
REMARK SMILES IDX 12 1 11 2 9 3 10 4 8 5 7 6 87 7 80 8 81 9 86 10 82 12 84 13
REMARK SMILES IDX 83 14 85 15 6 16 4 17 5 18 3 19 2 20 1 21 88 22 89 23 95 24
REMARK SMILES IDX 90 25 93 26 91 27 94 28 92 29 13 30 14 31 15 32 16 33 17 34
REMARK SMILES IDX 18 35 79 36 19 37 78 38 20 39 21 40 22 41 72 42 23 43 77 44
REMARK SMILES IDX 71 45 73 46 24 47 76 48 70 49 69 50 25 52 57 53 37 54 56 55
REMARK SMILES IDX 38 56 41 57 55 58 74 59 39 60 40 61 54 63 75 64 42 65 26 66
REMARK SMILES IDX 27 67 35 68 28 69 29 70 33 71 36 72 30 73 31 74 34 75 32 76
REMARK SMILES IDX 58 77 59 78 67 79 60 80 61 81 65 82 68 83 62 84 63 85 66 86
REMARK SMILES IDX 64 87 43 88 44 89 52 90 45 91 46 92 50 93 53 94 47 95 48 96
REMARK SMILES IDX 51 97 49 98
REMARK H PARENT 80 11 73 51 41 62
REMARK Flexibility Score: inf
ROOT
ATOM      1  C   UNL A   1      31.774  29.706  24.410  1.00  0.00     0.275 C 
ENDROOT
BRANCH   1   2
ATOM      2  O   UNL A   1      30.512  29.113  24.053  1.00  0.00    -0.457 OA
BRANCH   2   3
ATOM      3  C   UNL A   1      30.433  28.548  22.829  1.00  0.00     0.355 C 
ATOM      4  O   UNL A   1      30.149  29.132  21.796  1.00  0.00    -0.244 OA
BRANCH   3   5
ATOM      5  C   UNL A   1      30.828  27.154  22.865  1.00  0.00     0.129 A 
ATOM      6  C   UNL A   1      30.464  26.045  23.633  1.00  0.00     0.002 A 
ATOM      7  C   UNL A   1      31.200  24.918  23.100  1.00  0.00     0.005 A 
ATOM      8  N   UNL A   1      31.774  26.717  21.961  1.00  0.00    -0.349 N 
ATOM      9  C   UNL A   1      32.113  25.413  22.175  1.00  0.00     0.046 A 
ATOM     10  C   UNL A   1      31.216  23.529  23.354  1.00  0.00     0.031 A 
ATOM     11  H   UNL A   1      32.157  27.278  21.248  1.00  0.00     0.167 HD
ATOM     12  C   UNL A   1      33.129  24.642  21.598  1.00  0.00     0.028 A 
ATOM     13  C   UNL A   1      32.218  22.739  22.780  1.00  0.00     0.041 A 
ATOM     14  C   UNL A   1      33.180  23.290  21.940  1.00  0.00     0.022 A 
ATOM     15  Cl  UNL A   1      32.284  21.059  23.155  1.00  0.00    -0.084 Cl
BRANCH   6  16
ATOM     16  C   UNL A   1      29.451  25.971  24.748  1.00  0.00     0.139 C 
BRANCH  16  17
ATOM     17  C   UNL A   1      29.979  25.532  26.122  1.00  0.00     0.231 C 
ATOM     18  O   UNL A   1      29.189  24.949  26.877  1.00  0.00    -0.274 OA
BRANCH  17  19
ATOM     19  N   UNL A   1      31.326  25.748  26.459  1.00  0.00    -0.312 N 
BRANCH  19  20
ATOM     20  C   UNL A   1      31.924  27.077  26.681  1.00  0.00     0.122 C 
ATOM     21  C   UNL A   1      31.401  27.840  27.891  1.00  0.00     0.028 C 
ENDBRANCH  19  20
BRANCH  19  22
ATOM     22  C   UNL A   1      32.265  24.656  26.402  1.00  0.00     0.044 A 
ATOM     23  C   UNL A   1      31.933  23.386  26.874  1.00  0.00     0.026 A 
ATOM     24  C   UNL A   1      33.516  24.820  25.795  1.00  0.00     0.030 A 
ATOM     25  C   UNL A   1      32.807  22.307  26.695  1.00  0.00     0.006 A 
ATOM     26  C   UNL A   1      34.410  23.750  25.607  1.00  0.00    -0.046 A 
ATOM     27  C   UNL A   1      34.042  22.471  26.047  1.00  0.00    -0.048 A 
ATOM     28  C   UNL A   1      35.731  24.028  24.943  1.00  0.00     0.044 C 
ATOM     29  C   UNL A   1      34.921  21.263  25.882  1.00  0.00     0.044 C 
ENDBRANCH  19  22
ENDBRANCH  17  19
ENDBRANCH  16  17
ENDBRANCH   6  16
ENDBRANCH   3   5
ENDBRANCH   2   3
ENDBRANCH   1   2
BRANCH   1  30
ATOM     30  C   UNL A   1      31.634  30.635  25.618  1.00  0.00     0.275 C 
BRANCH  30  31
ATOM     31  O   UNL A   1      32.724  30.435  26.540  1.00  0.00    -0.458 OA
BRANCH  31  32
ATOM     32  C   UNL A   1      33.241  31.553  27.099  1.00  0.00     0.338 C 
ATOM     33  O   UNL A   1      32.720  32.647  27.222  1.00  0.00    -0.246 OA
BRANCH  32  34
ATOM     34  C   UNL A   1      34.557  31.245  27.676  1.00  0.00     0.060 A 
ATOM     35  C   UNL A   1      34.813  29.922  28.031  1.00  0.00     0.016 A 
ATOM     36  C   UNL A   1      35.466  32.250  27.999  1.00  0.00     0.016 A 
ATOM     37  C   UNL A   1      35.970  29.588  28.726  1.00  0.00     0.010 A 
ATOM     38  C   UNL A   1      36.646  31.913  28.675  1.00  0.00     0.010 A 
ATOM     39  C   UNL A   1      36.898  30.582  29.062  1.00  0.00    -0.014 A 
BRANCH  39  40
ATOM     40  C   UNL A   1      38.084  30.226  29.885  1.00  0.00     0.031 A 
ATOM     41  C   UNL A   1      39.161  29.351  29.307  1.00  0.00     0.074 A 
ATOM     42  C   UNL A   1      38.226  30.727  31.126  1.00  0.00     0.049 A 
ATOM     43  N   UNL A   1      40.217  28.838  29.890  1.00  0.00    -0.248 NA
ATOM     44  C   UNL A   1      39.034  29.004  27.884  1.00  0.00     0.031 C 
ATOM     45  C   UNL A   1      37.287  31.638  31.781  1.00  0.00     0.029 A 
ATOM     46  N   UNL A   1      39.220  30.549  32.057  1.00  0.00    -0.354 N 
ATOM     47  C   UNL A   1      40.853  28.077  28.919  1.00  0.00     0.074 A 
ATOM     48  C   UNL A   1      40.066  28.191  27.709  1.00  0.00     0.031 C 
ATOM     49  C   UNL A   1      37.760  31.957  32.997  1.00  0.00     0.029 A 
ATOM     50  C   UNL A   1      38.999  31.222  33.234  1.00  0.00     0.049 A 
ATOM     51  H   UNL A   1      40.016  29.993  31.895  1.00  0.00     0.167 HD
ATOM     52  C   UNL A   1      41.989  27.348  29.029  1.00  0.00     0.037 A 
ATOM     53  C   UNL A   1      39.697  31.219  34.386  1.00  0.00     0.037 A 
ATOM     54  C   UNL A   1      42.793  27.269  30.222  1.00  0.00     0.049 A 
ATOM     55  C   UNL A   1      40.933  30.368  34.495  1.00  0.00     0.074 A 
ATOM     56  C   UNL A   1      43.964  26.560  30.430  1.00  0.00     0.029 A 
ATOM     57  N   UNL A   1      42.514  27.935  31.406  1.00  0.00    -0.354 N 
ATOM     58  N   UNL A   1      41.500  29.611  33.588  1.00  0.00    -0.248 NA
ATOM     59  C   UNL A   1      41.616  30.358  35.796  1.00  0.00     0.031 C 
ATOM     60  C   UNL A   1      44.375  26.770  31.750  1.00  0.00     0.029 A 
ATOM     61  C   UNL A   1      43.483  27.644  32.351  1.00  0.00     0.049 A 
ATOM     62  H   UNL A   1      41.741  28.527  31.552  1.00  0.00     0.167 HD
ATOM     63  C   UNL A   1      42.609  29.046  34.201  1.00  0.00     0.074 A 
ATOM     64  C   UNL A   1      42.649  29.563  35.553  1.00  0.00     0.031 C 
ATOM     65  C   UNL A   1      43.510  28.172  33.692  1.00  0.00     0.037 A 
BRANCH  52  66
ATOM     66  C   UNL A   1      42.414  26.542  27.838  1.00  0.00     0.064 A 
ATOM     67  C   UNL A   1      41.912  25.256  27.593  1.00  0.00     0.173 A 
ATOM     68  C   UNL A   1      43.315  27.083  26.906  1.00  0.00     0.173 A 
ATOM     69  F   UNL A   1      41.060  24.688  28.461  1.00  0.00    -0.203 F 
ATOM     70  C   UNL A   1      42.313  24.532  26.473  1.00  0.00     0.198 A 
ATOM     71  C   UNL A   1      43.693  26.367  25.774  1.00  0.00     0.198 A 
ATOM     72  F   UNL A   1      43.820  28.312  27.091  1.00  0.00    -0.203 F 
ATOM     73  F   UNL A   1      41.853  23.288  26.281  1.00  0.00    -0.200 F 
ATOM     74  C   UNL A   1      43.198  25.091  25.561  1.00  0.00     0.200 A 
ATOM     75  F   UNL A   1      44.539  26.914  24.890  1.00  0.00    -0.200 F 
ATOM     76  F   UNL A   1      43.578  24.395  24.481  1.00  0.00    -0.200 F 
ENDBRANCH  52  66
BRANCH  53  77
ATOM     77  C   UNL A   1      39.221  32.022  35.542  1.00  0.00     0.064 A 
ATOM     78  C   UNL A   1      38.390  31.458  36.519  1.00  0.00     0.173 A 
ATOM     79  C   UNL A   1      39.583  33.369  35.690  1.00  0.00     0.173 A 
ATOM     80  F   UNL A   1      37.993  30.182  36.406  1.00  0.00    -0.203 F 
ATOM     81  C   UNL A   1      37.933  32.214  37.598  1.00  0.00     0.198 A 
ATOM     82  C   UNL A   1      39.150  34.115  36.784  1.00  0.00     0.198 A 
ATOM     83  F   UNL A   1      40.372  33.957  34.778  1.00  0.00    -0.203 F 
ATOM     84  F   UNL A   1      37.108  31.663  38.497  1.00  0.00    -0.200 F 
ATOM     85  C   UNL A   1      38.320  33.540  37.733  1.00  0.00     0.200 A 
ATOM     86  F   UNL A   1      39.536  35.391  36.916  1.00  0.00    -0.200 F 
ATOM     87  F   UNL A   1      37.887  34.264  38.773  1.00  0.00    -0.200 F 
ENDBRANCH  53  77
BRANCH  65  88
ATOM     88  C   UNL A   1      44.629  27.740  34.592  1.00  0.00     0.064 A 
ATOM     89  C   UNL A   1      45.823  28.470  34.680  1.00  0.00     0.173 A 
ATOM     90  C   UNL A   1      44.491  26.602  35.401  1.00  0.00     0.173 A 
ATOM     91  F   UNL A   1      46.007  29.556  33.914  1.00  0.00    -0.203 F 
ATOM     92  C   UNL A   1      46.848  28.065  35.530  1.00  0.00     0.198 A 
ATOM     93  C   UNL A   1      45.508  26.213  36.268  1.00  0.00     0.198 A 
ATOM     94  F   UNL A   1      43.365  25.874  35.357  1.00  0.00    -0.203 F 
ATOM     95  F   UNL A   1      47.997  28.752  35.567  1.00  0.00    -0.200 F 
ATOM     96  C   UNL A   1      46.687  26.941  36.327  1.00  0.00     0.200 A 
ATOM     97  F   UNL A   1      45.349  25.132  37.044  1.00  0.00    -0.200 F 
ATOM     98  F   UNL A   1      47.675  26.553  37.147  1.00  0.00    -0.200 F 
ENDBRANCH  65  88
ENDBRANCH  39  40
ENDBRANCH  32  34
ENDBRANCH  31  32
ENDBRANCH  30  31
ENDBRANCH   1  30
TORSDOF 16
ENDMDL
MODEL 3
REMARK VINA RESULT:     -12.8      4.291      9.426
REMARK SMILES CCN(C(=O)Cc1c(C(=O)OCCOC(=O)c2ccc(-c3c4nc(c(-c5c(F)c(F)c(F)c(F)c5F)c5ccc([nH]5)c(-c5c(F)c(F)c(F)c(F)c5F)c5nc(c(-c6c(F)c(F)c(F)c(F)c6F)c6ccc3[nH]6)C=C5)C=C4)cc2)[nH]c2ccc(Cl)cc12)c1ccc(C)c(C)c1
REMARK SMILES IDX 12 1 11 2 9 3 10 4 8 5 7 6 87 7 80 8 81 9 86 10 82 12 84 13
REMARK SMILES IDX 83 14 85 15 6 16 4 17 5 18 3 19 2 20 1 21 88 22 89 23 95 24
REMARK SMILES IDX 90 25 93 26 91 27 94 28 92 29 13 30 14 31 15 32 16 33 17 34
REMARK SMILES IDX 18 35 79 36 19 37 78 38 20 39 21 40 22 41 72 42 23 43 77 44
REMARK SMILES IDX 71 45 73 46 24 47 76 48 70 49 69 50 25 52 57 53 37 54 56 55
REMARK SMILES IDX 38 56 41 57 55 58 74 59 39 60 40 61 54 63 75 64 42 65 26 66
REMARK SMILES IDX 27 67 35 68 28 69 29 70 33 71 36 72 30 73 31 74 34 75 32 76
REMARK SMILES IDX 58 77 59 78 67 79 60 80 61 81 65 82 68 83 62 84 63 85 66 86
REMARK SMILES IDX 64 87 43 88 44 89 52 90 45 91 46 92 50 93 53 94 47 95 48 96
REMARK SMILES IDX 51 97 49 98
REMARK H PARENT 80 11 73 51 41 62
REMARK Flexibility Score: inf
ROOT
ATOM      1  C   UNL A   1      35.009  20.779  24.874  1.00  0.00     0.275 C 
ENDROOT
BRANCH   1   2
ATOM      2  O   UNL A   1      33.978  20.502  25.838  1.00  0.00    -0.457 OA
BRANCH   2   3
ATOM      3  C   UNL A   1      32.728  20.333  25.356  1.00  0.00     0.355 C 
ATOM      4  O   UNL A   1      32.154  19.262  25.233  1.00  0.00    -0.244 OA
BRANCH   3   5
ATOM      5  C   UNL A   1      32.089  21.606  25.086  1.00  0.00     0.129 A 
ATOM      6  C   UNL A   1      31.985  22.439  23.969  1.00  0.00     0.002 A 
ATOM      7  C   UNL A   1      31.137  23.544  24.361  1.00  0.00     0.005 A 
ATOM      8  N   UNL A   1      31.385  22.216  26.103  1.00  0.00    -0.349 N 
ATOM      9  C   UNL A   1      30.923  23.445  25.731  1.00  0.00     0.046 A 
ATOM     10  C   UNL A   1      30.573  24.652  23.692  1.00  0.00     0.031 A 
ATOM     11  H   UNL A   1      31.235  21.813  26.989  1.00  0.00     0.167 HD
ATOM     12  C   UNL A   1      30.311  24.443  26.497  1.00  0.00     0.028 A 
ATOM     13  C   UNL A   1      29.949  25.659  24.438  1.00  0.00     0.041 A 
ATOM     14  C   UNL A   1      29.846  25.573  25.822  1.00  0.00     0.022 A 
ATOM     15  Cl  UNL A   1      29.333  27.048  23.627  1.00  0.00    -0.084 Cl
BRANCH   6  16
ATOM     16  C   UNL A   1      32.555  22.229  22.589  1.00  0.00     0.139 C 
BRANCH  16  17
ATOM     17  C   UNL A   1      33.451  23.351  22.041  1.00  0.00     0.231 C 
ATOM     18  O   UNL A   1      33.378  23.600  20.830  1.00  0.00    -0.274 OA
BRANCH  17  19
ATOM     19  N   UNL A   1      34.268  24.088  22.916  1.00  0.00    -0.312 N 
BRANCH  19  20
ATOM     20  C   UNL A   1      35.404  23.521  23.665  1.00  0.00     0.122 C 
ATOM     21  C   UNL A   1      36.615  23.128  22.829  1.00  0.00     0.028 C 
ENDBRANCH  19  20
BRANCH  19  22
ATOM     22  C   UNL A   1      33.897  25.429  23.289  1.00  0.00     0.044 A 
ATOM     23  C   UNL A   1      33.501  26.366  22.334  1.00  0.00     0.026 A 
ATOM     24  C   UNL A   1      33.845  25.808  24.636  1.00  0.00     0.030 A 
ATOM     25  C   UNL A   1      33.022  27.623  22.724  1.00  0.00     0.006 A 
ATOM     26  C   UNL A   1      33.370  27.066  25.049  1.00  0.00    -0.046 A 
ATOM     27  C   UNL A   1      32.934  27.980  24.079  1.00  0.00    -0.048 A 
ATOM     28  C   UNL A   1      33.353  27.378  26.520  1.00  0.00     0.044 C 
ATOM     29  C   UNL A   1      32.397  29.342  24.420  1.00  0.00     0.044 C 
ENDBRANCH  19  22
ENDBRANCH  17  19
ENDBRANCH  16  17
ENDBRANCH   6  16
ENDBRANCH   3   5
ENDBRANCH   2   3
ENDBRANCH   1   2
BRANCH   1  30
ATOM     30  C   UNL A   1      36.379  20.309  25.369  1.00  0.00     0.275 C 
BRANCH  30  31
ATOM     31  O   UNL A   1      37.196  21.435  25.747  1.00  0.00    -0.458 OA
BRANCH  31  32
ATOM     32  C   UNL A   1      38.513  21.181  25.919  1.00  0.00     0.338 C 
ATOM     33  O   UNL A   1      39.142  20.192  25.587  1.00  0.00    -0.246 OA
BRANCH  32  34
ATOM     34  C   UNL A   1      39.165  22.363  26.498  1.00  0.00     0.060 A 
ATOM     35  C   UNL A   1      38.669  23.616  26.139  1.00  0.00     0.016 A 
ATOM     36  C   UNL A   1      40.327  22.258  27.258  1.00  0.00     0.016 A 
ATOM     37  C   UNL A   1      39.336  24.775  26.520  1.00  0.00     0.010 A 
ATOM     38  C   UNL A   1      40.986  23.425  27.667  1.00  0.00     0.010 A 
ATOM     39  C   UNL A   1      40.506  24.692  27.284  1.00  0.00    -0.014 A 
BRANCH  39  40
ATOM     40  C   UNL A   1      41.257  25.935  27.605  1.00  0.00     0.031 A 
ATOM     41  C   UNL A   1      40.609  27.010  28.432  1.00  0.00     0.074 A 
ATOM     42  C   UNL A   1      42.535  26.080  27.205  1.00  0.00     0.049 A 
ATOM     43  N   UNL A   1      41.050  28.207  28.732  1.00  0.00    -0.248 NA
ATOM     44  C   UNL A   1      39.288  26.698  28.998  1.00  0.00     0.031 C 
ATOM     45  C   UNL A   1      43.302  25.087  26.453  1.00  0.00     0.029 A 
ATOM     46  N   UNL A   1      43.419  27.116  27.385  1.00  0.00    -0.354 N 
ATOM     47  C   UNL A   1      40.045  28.804  29.481  1.00  0.00     0.074 A 
ATOM     48  C   UNL A   1      38.970  27.840  29.590  1.00  0.00     0.031 C 
ATOM     49  C   UNL A   1      44.546  25.551  26.255  1.00  0.00     0.029 A 
ATOM     50  C   UNL A   1      44.645  26.899  26.805  1.00  0.00     0.049 A 
ATOM     51  H   UNL A   1      43.194  27.935  27.882  1.00  0.00     0.167 HD
ATOM     52  C   UNL A   1      40.022  30.044  30.026  1.00  0.00     0.037 A 
ATOM     53  C   UNL A   1      45.716  27.709  26.700  1.00  0.00     0.037 A 
ATOM     54  C   UNL A   1      41.109  30.985  29.951  1.00  0.00     0.049 A 
ATOM     55  C   UNL A   1      45.650  29.097  27.278  1.00  0.00     0.074 A 
ATOM     56  C   UNL A   1      41.182  32.264  30.476  1.00  0.00     0.029 A 
ATOM     57  N   UNL A   1      42.321  30.742  29.322  1.00  0.00    -0.354 N 
ATOM     58  N   UNL A   1      44.676  29.672  27.942  1.00  0.00    -0.248 NA
ATOM     59  C   UNL A   1      46.825  29.955  27.076  1.00  0.00     0.031 C 
ATOM     60  C   UNL A   1      42.425  32.808  30.135  1.00  0.00     0.029 A 
ATOM     61  C   UNL A   1      43.142  31.852  29.435  1.00  0.00     0.049 A 
ATOM     62  H   UNL A   1      42.561  29.905  28.863  1.00  0.00     0.167 HD
ATOM     63  C   UNL A   1      45.124  30.949  28.246  1.00  0.00     0.074 A 
ATOM     64  C   UNL A   1      46.466  31.060  27.714  1.00  0.00     0.031 C 
ATOM     65  C   UNL A   1      44.478  31.943  28.903  1.00  0.00     0.037 A 
BRANCH  52  66
ATOM     66  C   UNL A   1      38.764  30.472  30.721  1.00  0.00     0.064 A 
ATOM     67  C   UNL A   1      38.634  30.424  32.116  1.00  0.00     0.173 A 
ATOM     68  C   UNL A   1      37.682  30.970  29.978  1.00  0.00     0.173 A 
ATOM     69  F   UNL A   1      39.633  29.943  32.871  1.00  0.00    -0.203 F 
ATOM     70  C   UNL A   1      37.460  30.839  32.741  1.00  0.00     0.198 A 
ATOM     71  C   UNL A   1      36.520  31.408  30.607  1.00  0.00     0.198 A 
ATOM     72  F   UNL A   1      37.758  31.042  28.640  1.00  0.00    -0.203 F 
ATOM     73  F   UNL A   1      37.342  30.746  34.073  1.00  0.00    -0.200 F 
ATOM     74  C   UNL A   1      36.407  31.336  31.986  1.00  0.00     0.200 A 
ATOM     75  F   UNL A   1      35.509  31.899  29.876  1.00  0.00    -0.200 F 
ATOM     76  F   UNL A   1      35.280  31.740  32.589  1.00  0.00    -0.200 F 
ENDBRANCH  52  66
BRANCH  53  77
ATOM     77  C   UNL A   1      46.931  27.241  25.984  1.00  0.00     0.064 A 
ATOM     78  C   UNL A   1      47.935  26.530  26.655  1.00  0.00     0.173 A 
ATOM     79  C   UNL A   1      47.114  27.498  24.617  1.00  0.00     0.173 A 
ATOM     80  F   UNL A   1      47.819  26.285  27.969  1.00  0.00    -0.203 F 
ATOM     81  C   UNL A   1      49.081  26.101  25.987  1.00  0.00     0.198 A 
ATOM     82  C   UNL A   1      48.246  27.043  23.945  1.00  0.00     0.198 A 
ATOM     83  F   UNL A   1      46.184  28.178  23.931  1.00  0.00    -0.203 F 
ATOM     84  F   UNL A   1      50.045  25.459  26.660  1.00  0.00    -0.200 F 
ATOM     85  C   UNL A   1      49.232  26.351  24.631  1.00  0.00     0.200 A 
ATOM     86  F   UNL A   1      48.380  27.276  22.632  1.00  0.00    -0.200 F 
ATOM     87  F   UNL A   1      50.329  25.932  23.988  1.00  0.00    -0.200 F 
ENDBRANCH  53  77
BRANCH  65  88
ATOM     88  C   UNL A   1      45.225  33.228  29.104  1.00  0.00     0.064 A 
ATOM     89  C   UNL A   1      46.034  33.437  30.230  1.00  0.00     0.173 A 
ATOM     90  C   UNL A   1      45.158  34.247  28.142  1.00  0.00     0.173 A 
ATOM     91  F   UNL A   1      46.116  32.498  31.185  1.00  0.00    -0.203 F 
ATOM     92  C   UNL A   1      46.732  34.630  30.398  1.00  0.00     0.198 A 
ATOM     93  C   UNL A   1      45.876  35.429  28.300  1.00  0.00     0.198 A 
ATOM     94  F   UNL A   1      44.402  34.091  27.044  1.00  0.00    -0.203 F 
ATOM     95  F   UNL A   1      47.465  34.827  31.502  1.00  0.00    -0.200 F 
ATOM     96  C   UNL A   1      46.657  35.621  29.430  1.00  0.00     0.200 A 
ATOM     97  F   UNL A   1      45.811  36.382  27.361  1.00  0.00    -0.200 F 
ATOM     98  F   UNL A   1      47.332  36.768  29.591  1.00  0.00    -0.200 F 
ENDBRANCH  65  88
ENDBRANCH  39  40
ENDBRANCH  32  34
ENDBRANCH  31  32
ENDBRANCH  30  31
ENDBRANCH   1  30
TORSDOF 16
ENDMDL
