MODEL 1
REMARK VINA RESULT:     -13.5      0.000      0.000
REMARK SMILES O=C(OCCOC(=O)[C@@H]1CCCC[C@@H]1C(=O)Nc1cc(C(F)(F)F)cc(C(F)(F)F)c1)c1ccc(-c2c3nc(c(-c4c(F)c(F)c(F)c(F)c4F)c4ccc([nH]4)c(-c4c(F)c(F)c(F)c(F)c4F)c4nc(c(-c5c(F)c(F)c(F)c(F)c5F)c5ccc2[nH]5)C=C4)C=C3)cc1
REMARK SMILES IDX 5 1 4 2 3 3 2 4 1 5 32 6 33 7 94 8 34 9 93 10 35 11 36 12
REMARK SMILES IDX 37 13 87 14 38 15 92 16 86 17 88 18 39 19 91 20 85 21 84 22
REMARK SMILES IDX 40 24 72 25 52 26 71 27 53 28 56 29 70 30 89 31 54 32 55 33
REMARK SMILES IDX 69 35 90 36 57 37 41 38 42 39 50 40 43 41 44 42 48 43 51 44
REMARK SMILES IDX 45 45 46 46 49 47 47 48 73 49 74 50 82 51 75 52 76 53 80 54
REMARK SMILES IDX 83 55 77 56 78 57 81 58 79 59 58 60 59 61 67 62 60 63 61 64
REMARK SMILES IDX 65 65 68 66 62 67 63 68 66 69 64 70 6 71 7 72 8 73 9 74
REMARK SMILES IDX 10 75 14 76 11 77 13 78 12 79 15 80 16 81 17 82 18 84 19 85
REMARK SMILES IDX 31 86 20 87 26 88 25 89 21 90 22 91 23 92 24 93 27 94 28 95
REMARK SMILES IDX 29 96 30 97
REMARK H PARENT 88 23 56 34 17 83
REMARK Flexibility Score: inf
ROOT
ATOM      1  C   UNL A   1      31.728  30.494  26.262  1.00  0.00     0.274 C 
ENDROOT
BRANCH   1   2
ATOM      2  C   UNL A   1      32.818  31.238  27.050  1.00  0.00     0.275 C 
BRANCH   2   3
ATOM      3  O   UNL A   1      32.543  32.626  27.245  1.00  0.00    -0.458 OA
BRANCH   3   4
ATOM      4  C   UNL A   1      33.218  33.441  28.070  1.00  0.00     0.338 C 
ATOM      5  O   UNL A   1      32.869  34.614  28.186  1.00  0.00    -0.246 OA
BRANCH   4   6
ATOM      6  C   UNL A   1      34.403  33.032  28.875  1.00  0.00     0.060 A 
ATOM      7  C   UNL A   1      34.428  32.358  30.573  1.00  0.00     0.016 A 
ATOM      8  C   UNL A   1      35.978  33.070  27.901  1.00  0.00     0.016 A 
ATOM      9  C   UNL A   1      35.945  31.645  31.288  1.00  0.00     0.010 A 
ATOM     10  C   UNL A   1      37.496  32.352  28.625  1.00  0.00     0.010 A 
ATOM     11  C   UNL A   1      37.455  31.614  30.286  1.00  0.00    -0.014 A 
BRANCH  11  12
ATOM     12  C   UNL A   1      38.650  30.932  30.797  1.00  0.00     0.031 A 
ATOM     13  C   UNL A   1      39.234  31.453  32.057  1.00  0.00     0.074 A 
ATOM     14  C   UNL A   1      39.193  29.877  30.163  1.00  0.00     0.049 A 
ATOM     15  N   UNL A   1      39.907  30.791  32.952  1.00  0.00    -0.248 NA
ATOM     16  C   UNL A   1      38.917  32.829  32.448  1.00  0.00     0.031 C 
ATOM     17  C   UNL A   1      38.709  29.226  28.946  1.00  0.00     0.029 A 
ATOM     18  N   UNL A   1      40.351  29.202  30.431  1.00  0.00    -0.354 N 
ATOM     19  C   UNL A   1      39.902  31.605  34.068  1.00  0.00     0.074 A 
ATOM     20  C   UNL A   1      39.253  32.834  33.724  1.00  0.00     0.031 C 
ATOM     21  C   UNL A   1      39.635  28.371  28.483  1.00  0.00     0.029 A 
ATOM     22  C   UNL A   1      40.728  28.337  29.433  1.00  0.00     0.049 A 
ATOM     23  H   UNL A   1      40.867  29.325  31.261  1.00  0.00     0.167 HD
ATOM     24  C   UNL A   1      40.437  31.354  35.278  1.00  0.00     0.037 A 
ATOM     25  C   UNL A   1      41.835  27.584  29.333  1.00  0.00     0.037 A 
ATOM     26  C   UNL A   1      41.451  30.358  35.420  1.00  0.00     0.049 A 
ATOM     27  C   UNL A   1      42.676  27.503  30.574  1.00  0.00     0.074 A 
ATOM     28  C   UNL A   1      42.290  30.111  36.482  1.00  0.00     0.029 A 
ATOM     29  N   UNL A   1      41.858  29.540  34.368  1.00  0.00    -0.354 N 
ATOM     30  N   UNL A   1      42.522  28.143  31.713  1.00  0.00    -0.248 NA
ATOM     31  C   UNL A   1      43.775  26.538  30.564  1.00  0.00     0.031 C 
ATOM     32  C   UNL A   1      43.289  29.240  36.023  1.00  0.00     0.029 A 
ATOM     33  C   UNL A   1      42.995  28.853  34.720  1.00  0.00     0.049 A 
ATOM     34  H   UNL A   1      41.399  29.465  33.500  1.00  0.00     0.167 HD
ATOM     35  C   UNL A   1      43.456  27.611  32.583  1.00  0.00     0.074 A 
ATOM     36  C   UNL A   1      44.180  26.601  31.825  1.00  0.00     0.031 C 
ATOM     37  C   UNL A   1      43.684  27.894  33.891  1.00  0.00     0.037 A 
BRANCH  24  38
ATOM     38  C   UNL A   1      40.059  32.299  36.373  1.00  0.00     0.064 A 
ATOM     39  C   UNL A   1      38.805  32.203  37.006  1.00  0.00     0.173 A 
ATOM     40  C   UNL A   1      40.872  33.390  36.697  1.00  0.00     0.173 A 
ATOM     41  F   UNL A   1      37.956  31.216  36.679  1.00  0.00    -0.203 F 
ATOM     42  C   UNL A   1      38.385  33.167  37.921  1.00  0.00     0.198 A 
ATOM     43  C   UNL A   1      40.454  34.346  37.622  1.00  0.00     0.198 A 
ATOM     44  F   UNL A   1      42.046  33.565  36.073  1.00  0.00    -0.203 F 
ATOM     45  F   UNL A   1      37.165  33.085  38.471  1.00  0.00    -0.200 F 
ATOM     46  C   UNL A   1      39.212  34.236  38.229  1.00  0.00     0.200 A 
ATOM     47  F   UNL A   1      41.242  35.394  37.897  1.00  0.00    -0.200 F 
ATOM     48  F   UNL A   1      38.800  35.177  39.090  1.00  0.00    -0.200 F 
ENDBRANCH  24  38
BRANCH  25  49
ATOM     49  C   UNL A   1      42.111  26.797  28.103  1.00  0.00     0.064 A 
ATOM     50  C   UNL A   1      42.977  27.269  27.108  1.00  0.00     0.173 A 
ATOM     51  C   UNL A   1      41.527  25.534  27.903  1.00  0.00     0.173 A 
ATOM     52  F   UNL A   1      43.569  28.463  27.252  1.00  0.00    -0.203 F 
ATOM     53  C   UNL A   1      43.220  26.533  25.948  1.00  0.00     0.198 A 
ATOM     54  C   UNL A   1      41.784  24.789  26.750  1.00  0.00     0.198 A 
ATOM     55  F   UNL A   1      40.706  25.018  28.830  1.00  0.00    -0.203 F 
ATOM     56  F   UNL A   1      44.022  27.032  24.998  1.00  0.00    -0.200 F 
ATOM     57  C   UNL A   1      42.623  25.295  25.769  1.00  0.00     0.200 A 
ATOM     58  F   UNL A   1      41.216  23.586  26.587  1.00  0.00    -0.200 F 
ATOM     59  F   UNL A   1      42.851  24.593  24.650  1.00  0.00    -0.200 F 
ENDBRANCH  25  49
BRANCH  37  60
ATOM     60  C   UNL A   1      44.744  27.092  34.570  1.00  0.00     0.064 A 
ATOM     61  C   UNL A   1      46.067  27.541  34.652  1.00  0.00     0.173 A 
ATOM     62  C   UNL A   1      44.398  25.895  35.213  1.00  0.00     0.173 A 
ATOM     63  F   UNL A   1      46.435  28.680  34.046  1.00  0.00    -0.203 F 
ATOM     64  C   UNL A   1      47.022  26.796  35.328  1.00  0.00     0.198 A 
ATOM     65  C   UNL A   1      45.345  25.179  35.930  1.00  0.00     0.198 A 
ATOM     66  F   UNL A   1      43.136  25.441  35.170  1.00  0.00    -0.203 F 
ATOM     67  F   UNL A   1      48.297  27.206  35.347  1.00  0.00    -0.200 F 
ATOM     68  C   UNL A   1      46.658  25.624  35.977  1.00  0.00     0.200 A 
ATOM     69  F   UNL A   1      44.985  24.065  36.581  1.00  0.00    -0.200 F 
ATOM     70  F   UNL A   1      47.577  24.918  36.648  1.00  0.00    -0.200 F 
ENDBRANCH  37  60
ENDBRANCH  11  12
ENDBRANCH   4   6
ENDBRANCH   3   4
ENDBRANCH   2   3
ENDBRANCH   1   2
BRANCH   1  71
ATOM     71  O   UNL A   1      32.137  30.057  24.948  1.00  0.00    -0.462 OA
BRANCH  71  72
ATOM     72  C   UNL A   1      32.687  28.824  24.816  1.00  0.00     0.309 C 
ATOM     73  O   UNL A   1      33.795  28.627  24.330  1.00  0.00    -0.252 OA
BRANCH  72  74
ATOM     74  C   UNL A   1      31.806  27.674  25.315  1.00  0.00     0.111 C 
ATOM     75  C   UNL A   1      32.610  26.544  25.967  1.00  0.00     0.016 C 
ATOM     76  C   UNL A   1      30.645  27.225  24.359  1.00  0.00     0.093 C 
ATOM     77  C   UNL A   1      31.716  25.501  26.636  1.00  0.00     0.001 C 
ATOM     78  C   UNL A   1      29.808  26.153  25.143  1.00  0.00     0.014 C 
ATOM     79  C   UNL A   1      30.621  25.002  25.713  1.00  0.00     0.001 C 
BRANCH  76  80
ATOM     80  C   UNL A   1      31.280  26.712  22.738  1.00  0.00     0.228 C 
ATOM     81  O   UNL A   1      30.677  27.550  21.992  1.00  0.00    -0.274 OA
ATOM     82  N   UNL A   1      32.543  25.288  22.225  1.00  0.00    -0.326 N 
ATOM     83  H   UNL A   1      32.746  25.411  21.270  1.00  0.00     0.169 HD
BRANCH  82  84
ATOM     84  C   UNL A   1      33.381  24.004  22.729  1.00  0.00     0.042 A 
ATOM     85  C   UNL A   1      34.582  24.259  23.418  1.00  0.00     0.039 A 
ATOM     86  C   UNL A   1      32.997  22.663  22.651  1.00  0.00     0.039 A 
ATOM     87  C   UNL A   1      35.140  23.279  24.273  1.00  0.00     0.058 A 
ATOM     88  C   UNL A   1      33.406  21.730  23.601  1.00  0.00     0.058 A 
ATOM     89  C   UNL A   1      34.477  22.051  24.426  1.00  0.00     0.026 A 
BRANCH  87  90
ATOM     90  C   UNL A   1      36.355  23.548  25.125  1.00  0.00     0.416 C 
ATOM     91  F   UNL A   1      36.231  24.646  25.915  1.00  0.00    -0.166 F 
ATOM     92  F   UNL A   1      36.630  22.514  25.969  1.00  0.00    -0.166 F 
ATOM     93  F   UNL A   1      37.488  23.731  24.394  1.00  0.00    -0.166 F 
ENDBRANCH  87  90
BRANCH  88  94
ATOM     94  C   UNL A   1      32.587  20.473  23.782  1.00  0.00     0.416 C 
ATOM     95  F   UNL A   1      31.968  20.075  22.645  1.00  0.00    -0.166 F 
ATOM     96  F   UNL A   1      33.358  19.428  24.195  1.00  0.00    -0.166 F 
ATOM     97  F   UNL A   1      31.616  20.599  24.728  1.00  0.00    -0.166 F 
ENDBRANCH  88  94
ENDBRANCH  82  84
ENDBRANCH  76  80
ENDBRANCH  72  74
ENDBRANCH  71  72
ENDBRANCH   1  71
TORSDOF 15
ENDMDL
MODEL 2
REMARK VINA RESULT:     -13.4      5.054     10.238
REMARK SMILES O=C(OCCOC(=O)[C@@H]1CCCC[C@@H]1C(=O)Nc1cc(C(F)(F)F)cc(C(F)(F)F)c1)c1ccc(-c2c3nc(c(-c4c(F)c(F)c(F)c(F)c4F)c4ccc([nH]4)c(-c4c(F)c(F)c(F)c(F)c4F)c4nc(c(-c5c(F)c(F)c(F)c(F)c5F)c5ccc2[nH]5)C=C4)C=C3)cc1
REMARK SMILES IDX 5 1 4 2 3 3 2 4 1 5 32 6 33 7 94 8 34 9 93 10 35 11 36 12
REMARK SMILES IDX 37 13 87 14 38 15 92 16 86 17 88 18 39 19 91 20 85 21 84 22
REMARK SMILES IDX 40 24 72 25 52 26 71 27 53 28 56 29 70 30 89 31 54 32 55 33
REMARK SMILES IDX 69 35 90 36 57 37 41 38 42 39 50 40 43 41 44 42 48 43 51 44
REMARK SMILES IDX 45 45 46 46 49 47 47 48 73 49 74 50 82 51 75 52 76 53 80 54
REMARK SMILES IDX 83 55 77 56 78 57 81 58 79 59 58 60 59 61 67 62 60 63 61 64
REMARK SMILES IDX 65 65 68 66 62 67 63 68 66 69 64 70 6 71 7 72 8 73 9 74
REMARK SMILES IDX 10 75 14 76 11 77 13 78 12 79 15 80 16 81 17 82 18 84 19 85
REMARK SMILES IDX 31 86 20 87 26 88 25 89 21 90 22 91 23 92 24 93 27 94 28 95
REMARK SMILES IDX 29 96 30 97
REMARK H PARENT 88 23 56 34 17 83
REMARK Flexibility Score: inf
ROOT
ATOM      1  C   UNL A   1      37.745  20.141  24.970  1.00  0.00     0.274 C 
ENDROOT
BRANCH   1   2
ATOM      2  C   UNL A   1      39.016  20.495  25.757  1.00  0.00     0.275 C 
BRANCH   2   3
ATOM      3  O   UNL A   1      40.001  19.461  25.757  1.00  0.00    -0.458 OA
BRANCH   3   4
ATOM      4  C   UNL A   1      41.308  19.636  26.011  1.00  0.00     0.338 C 
ATOM      5  O   UNL A   1      42.059  18.663  26.029  1.00  0.00    -0.246 OA
BRANCH   4   6
ATOM      6  C   UNL A   1      41.942  20.954  26.293  1.00  0.00     0.060 A 
ATOM      7  C   UNL A   1      42.678  22.124  25.098  1.00  0.00     0.016 A 
ATOM      8  C   UNL A   1      41.759  21.473  28.061  1.00  0.00     0.016 A 
ATOM      9  C   UNL A   1      43.147  23.815  25.593  1.00  0.00     0.010 A 
ATOM     10  C   UNL A   1      42.231  23.170  28.550  1.00  0.00     0.010 A 
ATOM     11  C   UNL A   1      42.879  24.331  27.309  1.00  0.00    -0.014 A 
BRANCH  11  12
ATOM     12  C   UNL A   1      43.134  25.724  27.695  1.00  0.00     0.031 A 
ATOM     13  C   UNL A   1      44.542  26.188  27.649  1.00  0.00     0.074 A 
ATOM     14  C   UNL A   1      42.140  26.552  28.066  1.00  0.00     0.049 A 
ATOM     15  N   UNL A   1      44.972  27.398  27.438  1.00  0.00    -0.248 NA
ATOM     16  C   UNL A   1      45.603  25.178  27.697  1.00  0.00     0.031 C 
ATOM     17  C   UNL A   1      40.709  26.257  28.117  1.00  0.00     0.029 A 
ATOM     18  N   UNL A   1      42.208  27.826  28.557  1.00  0.00    -0.354 N 
ATOM     19  C   UNL A   1      46.309  27.246  27.129  1.00  0.00     0.074 A 
ATOM     20  C   UNL A   1      46.647  25.861  27.267  1.00  0.00     0.031 C 
ATOM     21  C   UNL A   1      40.060  27.240  28.761  1.00  0.00     0.029 A 
ATOM     22  C   UNL A   1      41.016  28.283  29.067  1.00  0.00     0.049 A 
ATOM     23  H   UNL A   1      43.031  28.366  28.546  1.00  0.00     0.167 HD
ATOM     24  C   UNL A   1      47.194  28.202  26.792  1.00  0.00     0.037 A 
ATOM     25  C   UNL A   1      40.746  29.442  29.689  1.00  0.00     0.037 A 
ATOM     26  C   UNL A   1      46.935  29.567  27.125  1.00  0.00     0.049 A 
ATOM     27  C   UNL A   1      41.833  30.476  29.630  1.00  0.00     0.074 A 
ATOM     28  C   UNL A   1      47.785  30.649  27.101  1.00  0.00     0.029 A 
ATOM     29  N   UNL A   1      45.740  29.988  27.704  1.00  0.00    -0.354 N 
ATOM     30  N   UNL A   1      43.046  30.365  29.132  1.00  0.00    -0.248 NA
ATOM     31  C   UNL A   1      41.499  31.813  30.121  1.00  0.00     0.031 C 
ATOM     32  C   UNL A   1      47.147  31.689  27.791  1.00  0.00     0.029 A 
ATOM     33  C   UNL A   1      45.858  31.291  28.129  1.00  0.00     0.049 A 
ATOM     34  H   UNL A   1      44.931  29.435  27.795  1.00  0.00     0.167 HD
ATOM     35  C   UNL A   1      43.599  31.631  29.180  1.00  0.00     0.074 A 
ATOM     36  C   UNL A   1      42.584  32.490  29.772  1.00  0.00     0.031 C 
ATOM     37  C   UNL A   1      44.812  32.065  28.752  1.00  0.00     0.037 A 
BRANCH  24  38
ATOM     38  C   UNL A   1      48.507  27.725  26.258  1.00  0.00     0.064 A 
ATOM     39  C   UNL A   1      48.675  27.469  24.884  1.00  0.00     0.173 A 
ATOM     40  C   UNL A   1      49.554  27.381  27.119  1.00  0.00     0.173 A 
ATOM     41  F   UNL A   1      47.674  27.713  24.023  1.00  0.00    -0.203 F 
ATOM     42  C   UNL A   1      49.843  26.885  24.398  1.00  0.00     0.198 A 
ATOM     43  C   UNL A   1      50.726  26.808  26.629  1.00  0.00     0.198 A 
ATOM     44  F   UNL A   1      49.419  27.542  28.443  1.00  0.00    -0.203 F 
ATOM     45  F   UNL A   1      49.960  26.599  23.094  1.00  0.00    -0.200 F 
ATOM     46  C   UNL A   1      50.868  26.557  25.272  1.00  0.00     0.200 A 
ATOM     47  F   UNL A   1      51.705  26.465  27.477  1.00  0.00    -0.200 F 
ATOM     48  F   UNL A   1      51.983  25.973  24.810  1.00  0.00    -0.200 F 
ENDBRANCH  24  38
BRANCH  25  49
ATOM     49  C   UNL A   1      39.405  29.695  30.276  1.00  0.00     0.064 A 
ATOM     50  C   UNL A   1      38.343  30.179  29.499  1.00  0.00     0.173 A 
ATOM     51  C   UNL A   1      39.145  29.435  31.632  1.00  0.00     0.173 A 
ATOM     52  F   UNL A   1      38.533  30.434  28.197  1.00  0.00    -0.203 F 
ATOM     53  C   UNL A   1      37.090  30.430  30.059  1.00  0.00     0.198 A 
ATOM     54  C   UNL A   1      37.885  29.670  32.189  1.00  0.00     0.198 A 
ATOM     55  F   UNL A   1      40.114  28.950  32.422  1.00  0.00    -0.203 F 
ATOM     56  F   UNL A   1      36.108  30.930  29.297  1.00  0.00    -0.200 F 
ATOM     57  C   UNL A   1      36.862  30.176  31.402  1.00  0.00     0.200 A 
ATOM     58  F   UNL A   1      37.664  29.409  33.485  1.00  0.00    -0.200 F 
ATOM     59  F   UNL A   1      35.659  30.424  31.940  1.00  0.00    -0.200 F 
ENDBRANCH  25  49
BRANCH  37  60
ATOM     60  C   UNL A   1      45.086  33.525  28.901  1.00  0.00     0.064 A 
ATOM     61  C   UNL A   1      44.721  34.446  27.913  1.00  0.00     0.173 A 
ATOM     62  C   UNL A   1      45.653  34.003  30.090  1.00  0.00     0.173 A 
ATOM     63  F   UNL A   1      44.178  34.025  26.760  1.00  0.00    -0.203 F 
ATOM     64  C   UNL A   1      44.948  35.803  28.097  1.00  0.00     0.198 A 
ATOM     65  C   UNL A   1      45.833  35.363  30.291  1.00  0.00     0.198 A 
ATOM     66  F   UNL A   1      46.002  33.150  31.067  1.00  0.00    -0.203 F 
ATOM     67  F   UNL A   1      44.649  36.667  27.119  1.00  0.00    -0.200 F 
ATOM     68  C   UNL A   1      45.492  36.260  29.290  1.00  0.00     0.200 A 
ATOM     69  F   UNL A   1      46.328  35.805  31.454  1.00  0.00    -0.200 F 
ATOM     70  F   UNL A   1      45.690  37.572  29.474  1.00  0.00    -0.200 F 
ENDBRANCH  37  60
ENDBRANCH  11  12
ENDBRANCH   4   6
ENDBRANCH   3   4
ENDBRANCH   2   3
ENDBRANCH   1   2
BRANCH   1  71
ATOM     71  O   UNL A   1      36.568  20.871  25.378  1.00  0.00    -0.462 OA
BRANCH  71  72
ATOM     72  C   UNL A   1      36.295  22.053  24.771  1.00  0.00     0.309 C 
ATOM     73  O   UNL A   1      37.019  23.039  24.854  1.00  0.00    -0.252 OA
BRANCH  72  74
ATOM     74  C   UNL A   1      34.989  22.073  23.971  1.00  0.00     0.111 C 
ATOM     75  C   UNL A   1      34.701  23.435  23.330  1.00  0.00     0.016 C 
ATOM     76  C   UNL A   1      33.760  21.354  24.630  1.00  0.00     0.093 C 
ATOM     77  C   UNL A   1      33.508  23.392  22.375  1.00  0.00     0.001 C 
ATOM     78  C   UNL A   1      32.602  21.382  23.572  1.00  0.00     0.014 C 
ATOM     79  C   UNL A   1      32.285  22.757  23.009  1.00  0.00     0.001 C 
BRANCH  76  80
ATOM     80  C   UNL A   1      33.371  22.062  26.257  1.00  0.00     0.228 C 
ATOM     81  O   UNL A   1      33.668  21.072  27.002  1.00  0.00    -0.274 OA
ATOM     82  N   UNL A   1      32.693  23.839  26.775  1.00  0.00    -0.326 N 
ATOM     83  H   UNL A   1      32.742  23.893  27.757  1.00  0.00     0.169 HD
BRANCH  82  84
ATOM     84  C   UNL A   1      32.091  25.241  26.251  1.00  0.00     0.042 A 
ATOM     85  C   UNL A   1      32.980  26.331  26.187  1.00  0.00     0.039 A 
ATOM     86  C   UNL A   1      30.807  25.473  25.750  1.00  0.00     0.039 A 
ATOM     87  C   UNL A   1      32.702  27.435  25.347  1.00  0.00     0.058 A 
ATOM     88  C   UNL A   1      30.565  26.448  24.785  1.00  0.00     0.058 A 
ATOM     89  C   UNL A   1      31.530  27.426  24.575  1.00  0.00     0.026 A 
BRANCH  87  90
ATOM     90  C   UNL A   1      33.679  28.568  25.152  1.00  0.00     0.416 C 
ATOM     91  F   UNL A   1      34.378  28.486  23.990  1.00  0.00    -0.166 F 
ATOM     92  F   UNL A   1      33.061  29.782  25.128  1.00  0.00    -0.166 F 
ATOM     93  F   UNL A   1      34.603  28.650  26.148  1.00  0.00    -0.166 F 
ENDBRANCH  87  90
BRANCH  88  94
ATOM     94  C   UNL A   1      29.332  26.322  23.921  1.00  0.00     0.416 C 
ATOM     95  F   UNL A   1      29.321  25.192  23.173  1.00  0.00    -0.166 F 
ATOM     96  F   UNL A   1      28.194  26.308  24.669  1.00  0.00    -0.166 F 
ATOM     97  F   UNL A   1      29.178  27.361  23.054  1.00  0.00    -0.166 F 
ENDBRANCH  88  94
ENDBRANCH  82  84
ENDBRANCH  76  80
ENDBRANCH  72  74
ENDBRANCH  71  72
ENDBRANCH   1  71
TORSDOF 15
ENDMDL
MODEL 3
REMARK VINA RESULT:     -13.3      5.136     10.287
REMARK SMILES O=C(OCCOC(=O)[C@@H]1CCCC[C@@H]1C(=O)Nc1cc(C(F)(F)F)cc(C(F)(F)F)c1)c1ccc(-c2c3nc(c(-c4c(F)c(F)c(F)c(F)c4F)c4ccc([nH]4)c(-c4c(F)c(F)c(F)c(F)c4F)c4nc(c(-c5c(F)c(F)c(F)c(F)c5F)c5ccc2[nH]5)C=C4)C=C3)cc1
REMARK SMILES IDX 5 1 4 2 3 3 2 4 1 5 32 6 33 7 94 8 34 9 93 10 35 11 36 12
REMARK SMILES IDX 37 13 87 14 38 15 92 16 86 17 88 18 39 19 91 20 85 21 84 22
REMARK SMILES IDX 40 24 72 25 52 26 71 27 53 28 56 29 70 30 89 31 54 32 55 33
REMARK SMILES IDX 69 35 90 36 57 37 41 38 42 39 50 40 43 41 44 42 48 43 51 44
REMARK SMILES IDX 45 45 46 46 49 47 47 48 73 49 74 50 82 51 75 52 76 53 80 54
REMARK SMILES IDX 83 55 77 56 78 57 81 58 79 59 58 60 59 61 67 62 60 63 61 64
REMARK SMILES IDX 65 65 68 66 62 67 63 68 66 69 64 70 6 71 7 72 8 73 9 74
REMARK SMILES IDX 10 75 14 76 11 77 13 78 12 79 15 80 16 81 17 82 18 84 19 85
REMARK SMILES IDX 31 86 20 87 26 88 25 89 21 90 22 91 23 92 24 93 27 94 28 95
REMARK SMILES IDX 29 96 30 97
REMARK H PARENT 88 23 56 34 17 83
REMARK Flexibility Score: inf
ROOT
ATOM      1  C   UNL A   1      37.774  20.057  24.976  1.00  0.00     0.274 C 
ENDROOT
BRANCH   1   2
ATOM      2  C   UNL A   1      39.042  20.423  25.763  1.00  0.00     0.275 C 
BRANCH   2   3
ATOM      3  O   UNL A   1      40.041  19.403  25.753  1.00  0.00    -0.458 OA
BRANCH   3   4
ATOM      4  C   UNL A   1      41.353  19.601  25.960  1.00  0.00     0.338 C 
ATOM      5  O   UNL A   1      42.123  18.644  25.941  1.00  0.00    -0.246 OA
BRANCH   4   6
ATOM      6  C   UNL A   1      41.971  20.929  26.234  1.00  0.00     0.060 A 
ATOM      7  C   UNL A   1      42.672  22.110  25.028  1.00  0.00     0.016 A 
ATOM      8  C   UNL A   1      41.805  21.446  28.004  1.00  0.00     0.016 A 
ATOM      9  C   UNL A   1      43.122  23.807  25.515  1.00  0.00     0.010 A 
ATOM     10  C   UNL A   1      42.259  23.151  28.486  1.00  0.00     0.010 A 
ATOM     11  C   UNL A   1      42.871  24.320  27.236  1.00  0.00    -0.014 A 
BRANCH  11  12
ATOM     12  C   UNL A   1      43.111  25.717  27.617  1.00  0.00     0.031 A 
ATOM     13  C   UNL A   1      44.517  26.189  27.597  1.00  0.00     0.074 A 
ATOM     14  C   UNL A   1      42.105  26.542  27.963  1.00  0.00     0.049 A 
ATOM     15  N   UNL A   1      44.944  27.399  27.387  1.00  0.00    -0.248 NA
ATOM     16  C   UNL A   1      45.582  25.185  27.673  1.00  0.00     0.031 C 
ATOM     17  C   UNL A   1      40.675  26.239  27.987  1.00  0.00     0.029 A 
ATOM     18  N   UNL A   1      42.156  27.820  28.447  1.00  0.00    -0.354 N 
ATOM     19  C   UNL A   1      46.289  27.253  27.106  1.00  0.00     0.074 A 
ATOM     20  C   UNL A   1      46.631  25.871  27.260  1.00  0.00     0.031 C 
ATOM     21  C   UNL A   1      40.007  27.223  28.610  1.00  0.00     0.029 A 
ATOM     22  C   UNL A   1      40.952  28.273  28.929  1.00  0.00     0.049 A 
ATOM     23  H   UNL A   1      42.977  28.364  28.449  1.00  0.00     0.167 HD
ATOM     24  C   UNL A   1      47.175  28.212  26.782  1.00  0.00     0.037 A 
ATOM     25  C   UNL A   1      40.663  29.434  29.538  1.00  0.00     0.037 A 
ATOM     26  C   UNL A   1      46.902  29.577  27.100  1.00  0.00     0.049 A 
ATOM     27  C   UNL A   1      41.745  30.474  29.495  1.00  0.00     0.074 A 
ATOM     28  C   UNL A   1      47.746  30.663  27.086  1.00  0.00     0.029 A 
ATOM     29  N   UNL A   1      45.693  29.995  27.652  1.00  0.00    -0.354 N 
ATOM     30  N   UNL A   1      42.969  30.367  29.022  1.00  0.00    -0.248 NA
ATOM     31  C   UNL A   1      41.394  31.812  29.970  1.00  0.00     0.031 C 
ATOM     32  C   UNL A   1      47.089  31.704  27.757  1.00  0.00     0.029 A 
ATOM     33  C   UNL A   1      45.795  31.301  28.071  1.00  0.00     0.049 A 
ATOM     34  H   UNL A   1      44.885  29.439  27.730  1.00  0.00     0.167 HD
ATOM     35  C   UNL A   1      43.513  31.636  29.074  1.00  0.00     0.074 A 
ATOM     36  C   UNL A   1      42.482  32.493  29.639  1.00  0.00     0.031 C 
ATOM     37  C   UNL A   1      44.732  32.074  28.667  1.00  0.00     0.037 A 
BRANCH  24  38
ATOM     38  C   UNL A   1      48.501  27.739  26.277  1.00  0.00     0.064 A 
ATOM     39  C   UNL A   1      48.707  27.502  24.905  1.00  0.00     0.173 A 
ATOM     40  C   UNL A   1      49.523  27.379  27.162  1.00  0.00     0.173 A 
ATOM     41  F   UNL A   1      47.731  27.762  24.020  1.00  0.00    -0.203 F 
ATOM     42  C   UNL A   1      49.887  26.922  24.443  1.00  0.00     0.198 A 
ATOM     43  C   UNL A   1      50.707  26.810  26.696  1.00  0.00     0.198 A 
ATOM     44  F   UNL A   1      49.351  27.521  28.484  1.00  0.00    -0.203 F 
ATOM     45  F   UNL A   1      50.039  26.654  23.139  1.00  0.00    -0.200 F 
ATOM     46  C   UNL A   1      50.886  26.578  25.341  1.00  0.00     0.200 A 
ATOM     47  F   UNL A   1      51.661  26.452  27.567  1.00  0.00    -0.200 F 
ATOM     48  F   UNL A   1      52.012  25.997  24.902  1.00  0.00    -0.200 F 
ENDBRANCH  24  38
BRANCH  25  49
ATOM     49  C   UNL A   1      39.308  29.684  30.096  1.00  0.00     0.064 A 
ATOM     50  C   UNL A   1      38.270  30.190  29.303  1.00  0.00     0.173 A 
ATOM     51  C   UNL A   1      39.012  29.397  31.440  1.00  0.00     0.173 A 
ATOM     52  F   UNL A   1      38.494  30.471  28.012  1.00  0.00    -0.203 F 
ATOM     53  C   UNL A   1      37.004  30.437  29.835  1.00  0.00     0.198 A 
ATOM     54  C   UNL A   1      37.740  29.628  31.969  1.00  0.00     0.198 A 
ATOM     55  F   UNL A   1      39.958  28.890  32.244  1.00  0.00    -0.203 F 
ATOM     56  F   UNL A   1      36.045  30.959  29.060  1.00  0.00    -0.200 F 
ATOM     57  C   UNL A   1      36.740  30.158  31.167  1.00  0.00     0.200 A 
ATOM     58  F   UNL A   1      37.485  29.342  33.253  1.00  0.00    -0.200 F 
ATOM     59  F   UNL A   1      35.526  30.402  31.679  1.00  0.00    -0.200 F 
ENDBRANCH  25  49
BRANCH  37  60
ATOM     60  C   UNL A   1      44.996  33.536  28.812  1.00  0.00     0.064 A 
ATOM     61  C   UNL A   1      45.635  34.060  29.942  1.00  0.00     0.173 A 
ATOM     62  C   UNL A   1      44.670  34.404  27.760  1.00  0.00     0.173 A 
ATOM     63  F   UNL A   1      45.959  33.260  30.969  1.00  0.00    -0.203 F 
ATOM     64  C   UNL A   1      45.907  35.418  30.029  1.00  0.00     0.198 A 
ATOM     65  C   UNL A   1      44.990  35.751  27.831  1.00  0.00     0.198 A 
ATOM     66  F   UNL A   1      44.072  33.935  26.654  1.00  0.00    -0.203 F 
ATOM     67  F   UNL A   1      46.464  35.915  31.142  1.00  0.00    -0.200 F 
ATOM     68  C   UNL A   1      45.597  36.258  28.969  1.00  0.00     0.200 A 
ATOM     69  F   UNL A   1      44.717  36.556  26.795  1.00  0.00    -0.200 F 
ATOM     70  F   UNL A   1      45.881  37.565  29.048  1.00  0.00    -0.200 F 
ENDBRANCH  37  60
ENDBRANCH  11  12
ENDBRANCH   4   6
ENDBRANCH   3   4
ENDBRANCH   2   3
ENDBRANCH   1   2
BRANCH   1  71
ATOM     71  O   UNL A   1      36.594  20.788  25.374  1.00  0.00    -0.462 OA
BRANCH  71  72
ATOM     72  C   UNL A   1      36.269  21.916  24.693  1.00  0.00     0.309 C 
ATOM     73  O   UNL A   1      36.971  22.921  24.678  1.00  0.00    -0.252 OA
BRANCH  72  74
ATOM     74  C   UNL A   1      34.935  21.848  23.944  1.00  0.00     0.111 C 
ATOM     75  C   UNL A   1      34.648  23.108  23.119  1.00  0.00     0.016 C 
ATOM     76  C   UNL A   1      33.718  21.263  24.743  1.00  0.00     0.093 C 
ATOM     77  C   UNL A   1      33.420  22.953  22.222  1.00  0.00     0.001 C 
ATOM     78  C   UNL A   1      32.523  21.161  23.731  1.00  0.00     0.014 C 
ATOM     79  C   UNL A   1      32.210  22.446  22.984  1.00  0.00     0.001 C 
BRANCH  76  80
ATOM     80  C   UNL A   1      33.402  22.209  26.260  1.00  0.00     0.228 C 
ATOM     81  O   UNL A   1      33.473  21.273  27.120  1.00  0.00    -0.274 OA
ATOM     82  N   UNL A   1      33.054  24.128  26.547  1.00  0.00    -0.326 N 
ATOM     83  H   UNL A   1      33.071  24.283  27.520  1.00  0.00     0.169 HD
BRANCH  82  84
ATOM     84  C   UNL A   1      32.754  25.549  25.845  1.00  0.00     0.042 A 
ATOM     85  C   UNL A   1      32.811  26.690  26.667  1.00  0.00     0.039 A 
ATOM     86  C   UNL A   1      32.546  25.790  24.483  1.00  0.00     0.039 A 
ATOM     87  C   UNL A   1      33.016  27.972  26.102  1.00  0.00     0.058 A 
ATOM     88  C   UNL A   1      32.916  26.994  23.890  1.00  0.00     0.058 A 
ATOM     89  C   UNL A   1      33.166  28.087  24.711  1.00  0.00     0.026 A 
BRANCH  87  90
ATOM     90  C   UNL A   1      33.206  29.206  26.949  1.00  0.00     0.416 C 
ATOM     91  F   UNL A   1      32.075  29.605  27.587  1.00  0.00    -0.166 F 
ATOM     92  F   UNL A   1      34.137  29.020  27.926  1.00  0.00    -0.166 F 
ATOM     93  F   UNL A   1      33.639  30.280  26.233  1.00  0.00    -0.166 F 
ENDBRANCH  87  90
BRANCH  88  94
ATOM     94  C   UNL A   1      33.158  27.025  22.400  1.00  0.00     0.416 C 
ATOM     95  F   UNL A   1      33.683  28.197  21.971  1.00  0.00    -0.166 F 
ATOM     96  F   UNL A   1      34.019  26.044  22.011  1.00  0.00    -0.166 F 
ATOM     97  F   UNL A   1      32.027  26.818  21.670  1.00  0.00    -0.166 F 
ENDBRANCH  88  94
ENDBRANCH  82  84
ENDBRANCH  76  80
ENDBRANCH  72  74
ENDBRANCH  71  72
ENDBRANCH   1  71
TORSDOF 15
ENDMDL
