MODEL 1
REMARK VINA RESULT:     -10.6      0.000      0.000
REMARK SMILES CC(C)(C)C[C@@H](O)[C@@H](F)C(=O)OCCOC(=O)c1ccc(-c2c3nc(c(-c4c(F)c(F)c(F)c(F)c4F)c4ccc([nH]4)c(-c4c(F)c(F)c(F)c(F)c4F)c4nc(c(-c5c(F)c(F)c(F)c(F)c5F)c5ccc2[nH]5)C=C4)C=C3)cc1
REMARK SMILES IDX 13 1 12 2 10 3 11 4 8 5 9 6 6 7 5 8 2 9 1 10 3 11 4 12 7 13
REMARK SMILES IDX 14 15 15 16 16 17 17 18 18 19 19 20 80 21 20 22 79 23 21 24
REMARK SMILES IDX 22 25 23 26 73 27 24 28 78 29 72 30 74 31 25 32 77 33 71 34
REMARK SMILES IDX 70 35 26 37 58 38 38 39 57 40 39 41 42 42 56 43 75 44 40 45
REMARK SMILES IDX 41 46 55 48 76 49 43 50 27 51 28 52 36 53 29 54 30 55 34 56
REMARK SMILES IDX 37 57 31 58 32 59 35 60 33 61 59 62 60 63 68 64 61 65 62 66
REMARK SMILES IDX 66 67 69 68 63 69 64 70 67 71 65 72 44 73 45 74 53 75 46 76
REMARK SMILES IDX 47 77 51 78 54 79 48 80 49 81 52 82 50 83
REMARK H PARENT 7 14 74 36 42 47
REMARK Flexibility Score: inf
ROOT
ATOM      1  C   UNL A   1      42.293  19.404  26.290  1.00  0.00     0.274 C 
ENDROOT
BRANCH   1   2
ATOM      2  O   UNL A   1      42.846  19.210  24.971  1.00  0.00    -0.460 OA
BRANCH   2   3
ATOM      3  C   UNL A   1      44.151  18.819  24.922  1.00  0.00     0.343 C 
ATOM      4  O   UNL A   1      44.645  17.962  25.647  1.00  0.00    -0.249 OA
BRANCH   3   5
ATOM      5  C   UNL A   1      44.958  19.611  23.907  1.00  0.00     0.304 C 
ATOM      6  F   UNL A   1      45.387  18.805  22.890  1.00  0.00    -0.232 F 
BRANCH   5   7
ATOM      7  C   UNL A   1      46.170  20.335  24.513  1.00  0.00     0.160 C 
BRANCH   7   8
ATOM      8  C   UNL A   1      45.729  21.161  25.737  1.00  0.00     0.041 C 
BRANCH   8   9
ATOM      9  C   UNL A   1      45.456  22.674  25.494  1.00  0.00    -0.036 C 
ATOM     10  C   UNL A   1      46.117  23.208  24.213  1.00  0.00     0.011 C 
ATOM     11  C   UNL A   1      46.028  23.457  26.692  1.00  0.00     0.011 C 
ATOM     12  C   UNL A   1      43.941  22.932  25.420  1.00  0.00     0.011 C 
ENDBRANCH   8   9
ENDBRANCH   7   8
BRANCH   7  13
ATOM     13  O   UNL A   1      47.127  19.393  24.989  1.00  0.00    -0.389 OA
ATOM     14  H   UNL A   1      47.635  19.041  24.241  1.00  0.00     0.211 HD
ENDBRANCH   7  13
ENDBRANCH   5   7
ENDBRANCH   3   5
ENDBRANCH   2   3
ENDBRANCH   1   2
BRANCH   1  15
ATOM     15  C   UNL A   1      40.774  19.596  26.261  1.00  0.00     0.275 C 
BRANCH  15  16
ATOM     16  O   UNL A   1      40.353  20.663  27.131  1.00  0.00    -0.458 OA
BRANCH  16  17
ATOM     17  C   UNL A   1      39.633  21.637  26.529  1.00  0.00     0.338 C 
ATOM     18  O   UNL A   1      38.700  21.490  25.757  1.00  0.00    -0.246 OA
BRANCH  17  19
ATOM     19  C   UNL A   1      40.047  22.953  27.042  1.00  0.00     0.060 A 
ATOM     20  C   UNL A   1      39.473  24.095  26.478  1.00  0.00     0.016 A 
ATOM     21  C   UNL A   1      41.062  23.067  27.992  1.00  0.00     0.016 A 
ATOM     22  C   UNL A   1      39.929  25.358  26.836  1.00  0.00     0.010 A 
ATOM     23  C   UNL A   1      41.505  24.340  28.369  1.00  0.00     0.010 A 
ATOM     24  C   UNL A   1      40.951  25.491  27.783  1.00  0.00    -0.014 A 
BRANCH  24  25
ATOM     25  C   UNL A   1      41.439  26.843  28.140  1.00  0.00     0.031 A 
ATOM     26  C   UNL A   1      42.876  27.211  27.923  1.00  0.00     0.074 A 
ATOM     27  C   UNL A   1      40.574  27.750  28.630  1.00  0.00     0.049 A 
ATOM     28  N   UNL A   1      43.505  28.312  28.245  1.00  0.00    -0.248 NA
ATOM     29  C   UNL A   1      43.718  26.209  27.252  1.00  0.00     0.031 C 
ATOM     30  C   UNL A   1      39.145  27.524  28.838  1.00  0.00     0.029 A 
ATOM     31  N   UNL A   1      40.775  29.045  29.037  1.00  0.00    -0.354 N 
ATOM     32  C   UNL A   1      44.820  28.128  27.844  1.00  0.00     0.074 A 
ATOM     33  C   UNL A   1      44.902  26.808  27.253  1.00  0.00     0.031 C 
ATOM     34  C   UNL A   1      38.593  28.646  29.330  1.00  0.00     0.029 A 
ATOM     35  C   UNL A   1      39.638  29.650  29.510  1.00  0.00     0.049 A 
ATOM     36  H   UNL A   1      41.649  29.495  28.994  1.00  0.00     0.167 HD
ATOM     37  C   UNL A   1      45.861  28.984  27.961  1.00  0.00     0.037 A 
ATOM     38  C   UNL A   1      39.464  30.870  30.051  1.00  0.00     0.037 A 
ATOM     39  C   UNL A   1      45.773  30.305  28.523  1.00  0.00     0.049 A 
ATOM     40  C   UNL A   1      40.642  31.790  30.195  1.00  0.00     0.074 A 
ATOM     41  C   UNL A   1      46.775  31.247  28.678  1.00  0.00     0.029 A 
ATOM     42  N   UNL A   1      44.609  30.875  29.015  1.00  0.00    -0.354 N 
ATOM     43  N   UNL A   1      41.890  31.594  29.845  1.00  0.00    -0.248 NA
ATOM     44  C   UNL A   1      40.390  33.097  30.818  1.00  0.00     0.031 C 
ATOM     45  C   UNL A   1      46.223  32.380  29.287  1.00  0.00     0.029 A 
ATOM     46  C   UNL A   1      44.870  32.153  29.485  1.00  0.00     0.049 A 
ATOM     47  H   UNL A   1      43.727  30.438  29.029  1.00  0.00     0.167 HD
ATOM     48  C   UNL A   1      42.570  32.749  30.198  1.00  0.00     0.074 A 
ATOM     49  C   UNL A   1      41.595  33.650  30.776  1.00  0.00     0.031 C 
ATOM     50  C   UNL A   1      43.888  33.033  30.061  1.00  0.00     0.037 A 
BRANCH  37  51
ATOM     51  C   UNL A   1      47.203  28.507  27.498  1.00  0.00     0.064 A 
ATOM     52  C   UNL A   1      48.171  28.048  28.402  1.00  0.00     0.173 A 
ATOM     53  C   UNL A   1      47.503  28.465  26.128  1.00  0.00     0.173 A 
ATOM     54  F   UNL A   1      47.933  28.083  29.721  1.00  0.00    -0.203 F 
ATOM     55  C   UNL A   1      49.399  27.572  27.949  1.00  0.00     0.198 A 
ATOM     56  C   UNL A   1      48.724  27.973  25.679  1.00  0.00     0.198 A 
ATOM     57  F   UNL A   1      46.606  28.892  25.227  1.00  0.00    -0.203 F 
ATOM     58  F   UNL A   1      50.323  27.161  28.830  1.00  0.00    -0.200 F 
ATOM     59  C   UNL A   1      49.672  27.529  26.589  1.00  0.00     0.200 A 
ATOM     60  F   UNL A   1      48.984  27.926  24.366  1.00  0.00    -0.200 F 
ATOM     61  F   UNL A   1      50.852  27.064  26.156  1.00  0.00    -0.200 F 
ENDBRANCH  37  51
BRANCH  38  62
ATOM     62  C   UNL A   1      38.116  31.276  30.516  1.00  0.00     0.064 A 
ATOM     63  C   UNL A   1      37.784  31.241  31.877  1.00  0.00     0.173 A 
ATOM     64  C   UNL A   1      37.144  31.727  29.613  1.00  0.00     0.173 A 
ATOM     65  F   UNL A   1      38.677  30.794  32.772  1.00  0.00    -0.203 F 
ATOM     66  C   UNL A   1      36.524  31.640  32.316  1.00  0.00     0.198 A 
ATOM     67  C   UNL A   1      35.892  32.144  30.057  1.00  0.00     0.198 A 
ATOM     68  F   UNL A   1      37.418  31.776  28.301  1.00  0.00    -0.203 F 
ATOM     69  F   UNL A   1      36.220  31.573  33.620  1.00  0.00    -0.200 F 
ATOM     70  C   UNL A   1      35.582  32.098  31.407  1.00  0.00     0.200 A 
ATOM     71  F   UNL A   1      34.988  32.594  29.175  1.00  0.00    -0.200 F 
ATOM     72  F   UNL A   1      34.373  32.489  31.832  1.00  0.00    -0.200 F 
ENDBRANCH  38  62
BRANCH  50  73
ATOM     73  C   UNL A   1      44.349  34.376  30.537  1.00  0.00     0.064 A 
ATOM     74  C   UNL A   1      44.297  35.500  29.701  1.00  0.00     0.173 A 
ATOM     75  C   UNL A   1      44.805  34.548  31.851  1.00  0.00     0.173 A 
ATOM     76  F   UNL A   1      43.882  35.377  28.431  1.00  0.00    -0.203 F 
ATOM     77  C   UNL A   1      44.698  36.750  30.162  1.00  0.00     0.198 A 
ATOM     78  C   UNL A   1      45.189  35.804  32.314  1.00  0.00     0.198 A 
ATOM     79  F   UNL A   1      44.869  33.501  32.688  1.00  0.00    -0.203 F 
ATOM     80  F   UNL A   1      44.668  37.807  29.339  1.00  0.00    -0.200 F 
ATOM     81  C   UNL A   1      45.137  36.902  31.469  1.00  0.00     0.200 A 
ATOM     82  F   UNL A   1      45.608  35.951  33.579  1.00  0.00    -0.200 F 
ATOM     83  F   UNL A   1      45.519  38.108  31.913  1.00  0.00    -0.200 F 
ENDBRANCH  50  73
ENDBRANCH  24  25
ENDBRANCH  17  19
ENDBRANCH  16  17
ENDBRANCH  15  16
ENDBRANCH   1  15
TORSDOF 15
ENDMDL
MODEL 2
REMARK VINA RESULT:     -10.5      1.336      7.674
REMARK SMILES CC(C)(C)C[C@@H](O)[C@@H](F)C(=O)OCCOC(=O)c1ccc(-c2c3nc(c(-c4c(F)c(F)c(F)c(F)c4F)c4ccc([nH]4)c(-c4c(F)c(F)c(F)c(F)c4F)c4nc(c(-c5c(F)c(F)c(F)c(F)c5F)c5ccc2[nH]5)C=C4)C=C3)cc1
REMARK SMILES IDX 13 1 12 2 10 3 11 4 8 5 9 6 6 7 5 8 2 9 1 10 3 11 4 12 7 13
REMARK SMILES IDX 14 15 15 16 16 17 17 18 18 19 19 20 80 21 20 22 79 23 21 24
REMARK SMILES IDX 22 25 23 26 73 27 24 28 78 29 72 30 74 31 25 32 77 33 71 34
REMARK SMILES IDX 70 35 26 37 58 38 38 39 57 40 39 41 42 42 56 43 75 44 40 45
REMARK SMILES IDX 41 46 55 48 76 49 43 50 27 51 28 52 36 53 29 54 30 55 34 56
REMARK SMILES IDX 37 57 31 58 32 59 35 60 33 61 59 62 60 63 68 64 61 65 62 66
REMARK SMILES IDX 66 67 69 68 63 69 64 70 67 71 65 72 44 73 45 74 53 75 46 76
REMARK SMILES IDX 47 77 51 78 54 79 48 80 49 81 52 82 50 83
REMARK H PARENT 7 14 74 36 42 47
REMARK Flexibility Score: inf
ROOT
ATOM      1  C   UNL A   1      41.845  19.622  26.446  1.00  0.00     0.274 C 
ENDROOT
BRANCH   1   2
ATOM      2  O   UNL A   1      42.706  19.185  25.373  1.00  0.00    -0.460 OA
BRANCH   2   3
ATOM      3  C   UNL A   1      43.796  18.452  25.742  1.00  0.00     0.343 C 
ATOM      4  O   UNL A   1      43.795  17.611  26.634  1.00  0.00    -0.249 OA
BRANCH   3   5
ATOM      5  C   UNL A   1      45.045  18.839  24.968  1.00  0.00     0.304 C 
ATOM      6  F   UNL A   1      46.100  19.039  25.815  1.00  0.00    -0.232 F 
BRANCH   5   7
ATOM      7  C   UNL A   1      44.866  20.090  24.094  1.00  0.00     0.160 C 
BRANCH   7   8
ATOM      8  C   UNL A   1      46.038  21.064  24.328  1.00  0.00     0.041 C 
BRANCH   8   9
ATOM      9  C   UNL A   1      45.664  22.512  24.760  1.00  0.00    -0.036 C 
ATOM     10  C   UNL A   1      46.661  23.569  24.256  1.00  0.00     0.011 C 
ATOM     11  C   UNL A   1      45.654  22.558  26.301  1.00  0.00     0.011 C 
ATOM     12  C   UNL A   1      44.257  22.869  24.251  1.00  0.00     0.011 C 
ENDBRANCH   8   9
ENDBRANCH   7   8
BRANCH   7  13
ATOM     13  O   UNL A   1      44.903  19.744  22.713  1.00  0.00    -0.389 OA
ATOM     14  H   UNL A   1      44.035  19.913  22.313  1.00  0.00     0.211 HD
ENDBRANCH   7  13
ENDBRANCH   5   7
ENDBRANCH   3   5
ENDBRANCH   2   3
ENDBRANCH   1   2
BRANCH   1  15
ATOM     15  C   UNL A   1      40.365  19.586  26.054  1.00  0.00     0.275 C 
BRANCH  15  16
ATOM     16  O   UNL A   1      39.573  20.463  26.875  1.00  0.00    -0.458 OA
BRANCH  16  17
ATOM     17  C   UNL A   1      39.026  21.514  26.223  1.00  0.00     0.338 C 
ATOM     18  O   UNL A   1      38.095  21.485  25.434  1.00  0.00    -0.246 OA
BRANCH  17  19
ATOM     19  C   UNL A   1      39.633  22.768  26.697  1.00  0.00     0.060 A 
ATOM     20  C   UNL A   1      39.216  23.968  26.117  1.00  0.00     0.016 A 
ATOM     21  C   UNL A   1      40.673  22.756  27.627  1.00  0.00     0.016 A 
ATOM     22  C   UNL A   1      39.855  25.161  26.436  1.00  0.00     0.010 A 
ATOM     23  C   UNL A   1      41.300  23.960  27.967  1.00  0.00     0.010 A 
ATOM     24  C   UNL A   1      40.904  25.166  27.363  1.00  0.00    -0.014 A 
BRANCH  24  25
ATOM     25  C   UNL A   1      41.586  26.441  27.680  1.00  0.00     0.031 A 
ATOM     26  C   UNL A   1      40.887  27.493  28.488  1.00  0.00     0.074 A 
ATOM     27  C   UNL A   1      42.851  26.636  27.265  1.00  0.00     0.049 A 
ATOM     28  N   UNL A   1      41.288  28.700  28.798  1.00  0.00    -0.248 NA
ATOM     29  C   UNL A   1      39.562  27.142  29.022  1.00  0.00     0.031 C 
ATOM     30  C   UNL A   1      43.649  25.667  26.515  1.00  0.00     0.029 A 
ATOM     31  N   UNL A   1      43.685  27.714  27.418  1.00  0.00    -0.354 N 
ATOM     32  C   UNL A   1      40.258  29.263  29.537  1.00  0.00     0.074 A 
ATOM     33  C   UNL A   1      39.211  28.267  29.632  1.00  0.00     0.031 C 
ATOM     34  C   UNL A   1      44.863  26.192  26.279  1.00  0.00     0.029 A 
ATOM     35  C   UNL A   1      44.909  27.547  26.822  1.00  0.00     0.049 A 
ATOM     36  H   UNL A   1      43.430  28.528  27.910  1.00  0.00     0.167 HD
ATOM     37  C   UNL A   1      40.195  30.499  30.084  1.00  0.00     0.037 A 
ATOM     38  C   UNL A   1      45.943  28.400  26.705  1.00  0.00     0.037 A 
ATOM     39  C   UNL A   1      41.247  31.478  30.013  1.00  0.00     0.049 A 
ATOM     40  C   UNL A   1      45.836  29.776  27.297  1.00  0.00     0.074 A 
ATOM     41  C   UNL A   1      41.276  32.756  30.542  1.00  0.00     0.029 A 
ATOM     42  N   UNL A   1      42.464  31.281  29.377  1.00  0.00    -0.354 N 
ATOM     43  N   UNL A   1      44.844  30.312  27.964  1.00  0.00    -0.248 NA
ATOM     44  C   UNL A   1      46.989  30.668  27.112  1.00  0.00     0.031 C 
ATOM     45  C   UNL A   1      42.501  33.344  30.206  1.00  0.00     0.029 A 
ATOM     46  C   UNL A   1      43.247  32.419  29.492  1.00  0.00     0.049 A 
ATOM     47  H   UNL A   1      42.733  30.455  28.913  1.00  0.00     0.167 HD
ATOM     48  C   UNL A   1      45.251  31.599  28.282  1.00  0.00     0.074 A 
ATOM     49  C   UNL A   1      46.588  31.760  27.750  1.00  0.00     0.031 C 
ATOM     50  C   UNL A   1      44.572  32.562  28.951  1.00  0.00     0.037 A 
BRANCH  37  51
ATOM     51  C   UNL A   1      38.929  30.880  30.786  1.00  0.00     0.064 A 
ATOM     52  C   UNL A   1      38.772  30.699  32.167  1.00  0.00     0.173 A 
ATOM     53  C   UNL A   1      37.879  31.477  30.073  1.00  0.00     0.173 A 
ATOM     54  F   UNL A   1      39.745  30.120  32.887  1.00  0.00    -0.203 F 
ATOM     55  C   UNL A   1      37.602  31.095  32.808  1.00  0.00     0.198 A 
ATOM     56  C   UNL A   1      36.718  31.886  30.720  1.00  0.00     0.198 A 
ATOM     57  F   UNL A   1      37.986  31.671  28.750  1.00  0.00    -0.203 F 
ATOM     58  F   UNL A   1      37.460  30.891  34.126  1.00  0.00    -0.200 F 
ATOM     59  C   UNL A   1      36.578  31.694  32.087  1.00  0.00     0.200 A 
ATOM     60  F   UNL A   1      35.733  32.470  30.023  1.00  0.00    -0.200 F 
ATOM     61  F   UNL A   1      35.456  32.080  32.708  1.00  0.00    -0.200 F 
ENDBRANCH  37  51
BRANCH  38  62
ATOM     62  C   UNL A   1      47.161  27.975  25.974  1.00  0.00     0.064 A 
ATOM     63  C   UNL A   1      48.330  27.630  26.663  1.00  0.00     0.173 A 
ATOM     64  C   UNL A   1      47.170  27.883  24.576  1.00  0.00     0.173 A 
ATOM     65  F   UNL A   1      48.373  27.726  28.000  1.00  0.00    -0.203 F 
ATOM     66  C   UNL A   1      49.469  27.213  25.977  1.00  0.00     0.198 A 
ATOM     67  C   UNL A   1      48.302  27.447  23.893  1.00  0.00     0.198 A 
ATOM     68  F   UNL A   1      46.072  28.205  23.875  1.00  0.00    -0.203 F 
ATOM     69  F   UNL A   1      50.585  26.914  26.656  1.00  0.00    -0.200 F 
ATOM     70  C   UNL A   1      49.451  27.115  24.594  1.00  0.00     0.200 A 
ATOM     71  F   UNL A   1      48.278  27.346  22.556  1.00  0.00    -0.200 F 
ATOM     72  F   UNL A   1      50.544  26.705  23.935  1.00  0.00    -0.200 F 
ENDBRANCH  38  62
BRANCH  50  73
ATOM     73  C   UNL A   1      45.269  33.873  29.152  1.00  0.00     0.064 A 
ATOM     74  C   UNL A   1      45.119  34.923  28.234  1.00  0.00     0.173 A 
ATOM     75  C   UNL A   1      46.055  34.095  30.291  1.00  0.00     0.173 A 
ATOM     76  F   UNL A   1      44.389  34.748  27.123  1.00  0.00    -0.203 F 
ATOM     77  C   UNL A   1      45.745  36.148  28.446  1.00  0.00     0.198 A 
ATOM     78  C   UNL A   1      46.665  35.328  30.507  1.00  0.00     0.198 A 
ATOM     79  F   UNL A   1      46.223  33.121  31.197  1.00  0.00    -0.203 F 
ATOM     80  F   UNL A   1      45.615  37.129  27.542  1.00  0.00    -0.200 F 
ATOM     81  C   UNL A   1      46.512  36.351  29.583  1.00  0.00     0.200 A 
ATOM     82  F   UNL A   1      47.401  35.526  31.610  1.00  0.00    -0.200 F 
ATOM     83  F   UNL A   1      47.111  37.533  29.787  1.00  0.00    -0.200 F 
ENDBRANCH  50  73
ENDBRANCH  24  25
ENDBRANCH  17  19
ENDBRANCH  16  17
ENDBRANCH  15  16
ENDBRANCH   1  15
TORSDOF 15
ENDMDL
MODEL 3
REMARK VINA RESULT:     -10.3      1.388      7.947
REMARK SMILES CC(C)(C)C[C@@H](O)[C@@H](F)C(=O)OCCOC(=O)c1ccc(-c2c3nc(c(-c4c(F)c(F)c(F)c(F)c4F)c4ccc([nH]4)c(-c4c(F)c(F)c(F)c(F)c4F)c4nc(c(-c5c(F)c(F)c(F)c(F)c5F)c5ccc2[nH]5)C=C4)C=C3)cc1
REMARK SMILES IDX 13 1 12 2 10 3 11 4 8 5 9 6 6 7 5 8 2 9 1 10 3 11 4 12 7 13
REMARK SMILES IDX 14 15 15 16 16 17 17 18 18 19 19 20 80 21 20 22 79 23 21 24
REMARK SMILES IDX 22 25 23 26 73 27 24 28 78 29 72 30 74 31 25 32 77 33 71 34
REMARK SMILES IDX 70 35 26 37 58 38 38 39 57 40 39 41 42 42 56 43 75 44 40 45
REMARK SMILES IDX 41 46 55 48 76 49 43 50 27 51 28 52 36 53 29 54 30 55 34 56
REMARK SMILES IDX 37 57 31 58 32 59 35 60 33 61 59 62 60 63 68 64 61 65 62 66
REMARK SMILES IDX 66 67 69 68 63 69 64 70 67 71 65 72 44 73 45 74 53 75 46 76
REMARK SMILES IDX 47 77 51 78 54 79 48 80 49 81 52 82 50 83
REMARK H PARENT 7 14 74 36 42 47
REMARK Flexibility Score: inf
ROOT
ATOM      1  C   UNL A   1      41.436  19.230  26.419  1.00  0.00     0.274 C 
ENDROOT
BRANCH   1   2
ATOM      2  O   UNL A   1      42.529  19.210  25.477  1.00  0.00    -0.460 OA
BRANCH   2   3
ATOM      3  C   UNL A   1      43.592  18.425  25.812  1.00  0.00     0.343 C 
ATOM      4  O   UNL A   1      43.599  17.630  26.746  1.00  0.00    -0.249 OA
BRANCH   3   5
ATOM      5  C   UNL A   1      44.807  18.688  24.938  1.00  0.00     0.304 C 
ATOM      6  F   UNL A   1      45.954  18.680  25.684  1.00  0.00    -0.232 F 
BRANCH   5   7
ATOM      7  C   UNL A   1      44.731  20.010  24.158  1.00  0.00     0.160 C 
BRANCH   7   8
ATOM      8  C   UNL A   1      45.901  20.926  24.567  1.00  0.00     0.041 C 
BRANCH   8   9
ATOM      9  C   UNL A   1      45.543  22.403  24.906  1.00  0.00    -0.036 C 
ATOM     10  C   UNL A   1      46.499  23.419  24.260  1.00  0.00     0.011 C 
ATOM     11  C   UNL A   1      45.625  22.571  26.436  1.00  0.00     0.011 C 
ATOM     12  C   UNL A   1      44.105  22.714  24.457  1.00  0.00     0.011 C 
ENDBRANCH   8   9
ENDBRANCH   7   8
BRANCH   7  13
ATOM     13  O   UNL A   1      44.876  19.774  22.761  1.00  0.00    -0.389 OA
ATOM     14  H   UNL A   1      45.094  18.841  22.611  1.00  0.00     0.211 HD
ENDBRANCH   7  13
ENDBRANCH   5   7
ENDBRANCH   3   5
ENDBRANCH   2   3
ENDBRANCH   1   2
BRANCH   1  15
ATOM     15  C   UNL A   1      40.138  19.746  25.792  1.00  0.00     0.275 C 
BRANCH  15  16
ATOM     16  O   UNL A   1      39.390  20.567  26.708  1.00  0.00    -0.458 OA
BRANCH  16  17
ATOM     17  C   UNL A   1      38.796  21.646  26.150  1.00  0.00     0.338 C 
ATOM     18  O   UNL A   1      37.807  21.653  25.435  1.00  0.00    -0.246 OA
BRANCH  17  19
ATOM     19  C   UNL A   1      39.440  22.877  26.635  1.00  0.00     0.060 A 
ATOM     20  C   UNL A   1      39.041  24.096  26.083  1.00  0.00     0.016 A 
ATOM     21  C   UNL A   1      40.494  22.825  27.547  1.00  0.00     0.016 A 
ATOM     22  C   UNL A   1      39.713  25.268  26.412  1.00  0.00     0.010 A 
ATOM     23  C   UNL A   1      41.155  24.008  27.897  1.00  0.00     0.010 A 
ATOM     24  C   UNL A   1      40.777  25.233  27.320  1.00  0.00    -0.014 A 
BRANCH  24  25
ATOM     25  C   UNL A   1      41.494  26.487  27.647  1.00  0.00     0.031 A 
ATOM     26  C   UNL A   1      40.822  27.554  28.458  1.00  0.00     0.074 A 
ATOM     27  C   UNL A   1      42.766  26.647  27.238  1.00  0.00     0.049 A 
ATOM     28  N   UNL A   1      41.256  28.747  28.776  1.00  0.00    -0.248 NA
ATOM     29  C   UNL A   1      39.485  27.238  28.984  1.00  0.00     0.031 C 
ATOM     30  C   UNL A   1      43.539  25.660  26.486  1.00  0.00     0.029 A 
ATOM     31  N   UNL A   1      43.630  27.700  27.401  1.00  0.00    -0.354 N 
ATOM     32  C   UNL A   1      40.240  29.335  29.513  1.00  0.00     0.074 A 
ATOM     33  C   UNL A   1      39.164  28.369  29.598  1.00  0.00     0.031 C 
ATOM     34  C   UNL A   1      44.769  26.151  26.258  1.00  0.00     0.029 A 
ATOM     35  C   UNL A   1      44.851  27.501  26.809  1.00  0.00     0.049 A 
ATOM     36  H   UNL A   1      43.396  28.518  27.896  1.00  0.00     0.167 HD
ATOM     37  C   UNL A   1      40.210  30.570  30.067  1.00  0.00     0.037 A 
ATOM     38  C   UNL A   1      45.910  28.325  26.702  1.00  0.00     0.037 A 
ATOM     39  C   UNL A   1      41.289  31.518  30.006  1.00  0.00     0.049 A 
ATOM     40  C   UNL A   1      45.840  29.700  27.301  1.00  0.00     0.074 A 
ATOM     41  C   UNL A   1      41.352  32.792  30.542  1.00  0.00     0.029 A 
ATOM     42  N   UNL A   1      42.503  31.290  29.374  1.00  0.00    -0.354 N 
ATOM     43  N   UNL A   1      44.860  30.261  27.966  1.00  0.00    -0.248 NA
ATOM     44  C   UNL A   1      47.018  30.560  27.125  1.00  0.00     0.031 C 
ATOM     45  C   UNL A   1      42.595  33.347  30.215  1.00  0.00     0.029 A 
ATOM     46  C   UNL A   1      43.317  32.405  29.499  1.00  0.00     0.049 A 
ATOM     47  H   UNL A   1      42.750  30.459  28.907  1.00  0.00     0.167 HD
ATOM     48  C   UNL A   1      45.302  31.534  28.293  1.00  0.00     0.074 A 
ATOM     49  C   UNL A   1      46.646  31.660  27.768  1.00  0.00     0.031 C 
ATOM     50  C   UNL A   1      44.649  32.513  28.965  1.00  0.00     0.037 A 
BRANCH  37  51
ATOM     51  C   UNL A   1      38.952  30.983  30.766  1.00  0.00     0.064 A 
ATOM     52  C   UNL A   1      37.873  31.542  30.066  1.00  0.00     0.173 A 
ATOM     53  C   UNL A   1      38.808  30.772  32.145  1.00  0.00     0.173 A 
ATOM     54  F   UNL A   1      37.970  31.774  28.749  1.00  0.00    -0.203 F 
ATOM     55  C   UNL A   1      36.696  31.884  30.728  1.00  0.00     0.198 A 
ATOM     56  C   UNL A   1      37.625  31.100  32.799  1.00  0.00     0.198 A 
ATOM     57  F   UNL A   1      39.814  30.238  32.854  1.00  0.00    -0.203 F 
ATOM     58  F   UNL A   1      35.684  32.442  30.047  1.00  0.00    -0.200 F 
ATOM     59  C   UNL A   1      36.571  31.658  32.091  1.00  0.00     0.200 A 
ATOM     60  F   UNL A   1      37.503  30.875  34.114  1.00  0.00    -0.200 F 
ATOM     61  F   UNL A   1      35.435  31.982  32.724  1.00  0.00    -0.200 F 
ENDBRANCH  37  51
BRANCH  38  62
ATOM     62  C   UNL A   1      47.118  27.869  25.974  1.00  0.00     0.064 A 
ATOM     63  C   UNL A   1      47.160  27.877  24.574  1.00  0.00     0.173 A 
ATOM     64  C   UNL A   1      48.259  27.440  26.664  1.00  0.00     0.173 A 
ATOM     65  F   UNL A   1      46.081  28.257  23.874  1.00  0.00    -0.203 F 
ATOM     66  C   UNL A   1      48.302  27.466  23.890  1.00  0.00     0.198 A 
ATOM     67  C   UNL A   1      49.407  27.049  25.979  1.00  0.00     0.198 A 
ATOM     68  F   UNL A   1      48.263  27.415  28.005  1.00  0.00    -0.203 F 
ATOM     69  F   UNL A   1      48.309  27.456  22.550  1.00  0.00    -0.200 F 
ATOM     70  C   UNL A   1      49.426  27.060  24.593  1.00  0.00     0.200 A 
ATOM     71  F   UNL A   1      50.494  26.665  26.663  1.00  0.00    -0.200 F 
ATOM     72  F   UNL A   1      50.527  26.673  23.934  1.00  0.00    -0.200 F 
ENDBRANCH  38  62
BRANCH  50  73
ATOM     73  C   UNL A   1      45.382  33.802  29.175  1.00  0.00     0.064 A 
ATOM     74  C   UNL A   1      46.224  33.986  30.280  1.00  0.00     0.173 A 
ATOM     75  C   UNL A   1      45.275  34.843  28.242  1.00  0.00     0.173 A 
ATOM     76  F   UNL A   1      46.344  33.022  31.206  1.00  0.00    -0.203 F 
ATOM     77  C   UNL A   1      46.926  35.176  30.450  1.00  0.00     0.198 A 
ATOM     78  C   UNL A   1      45.992  36.024  28.407  1.00  0.00     0.198 A 
ATOM     79  F   UNL A   1      44.484  34.709  27.167  1.00  0.00    -0.203 F 
ATOM     80  F   UNL A   1      47.704  35.345  31.529  1.00  0.00    -0.200 F 
ATOM     81  C   UNL A   1      46.814  36.191  29.512  1.00  0.00     0.200 A 
ATOM     82  F   UNL A   1      45.889  37.003  27.496  1.00  0.00    -0.200 F 
ATOM     83  F   UNL A   1      47.494  37.334  29.675  1.00  0.00    -0.200 F 
ENDBRANCH  50  73
ENDBRANCH  24  25
ENDBRANCH  17  19
ENDBRANCH  16  17
ENDBRANCH  15  16
ENDBRANCH   1  15
TORSDOF 15
ENDMDL
