MODEL 1
REMARK VINA RESULT:     -12.2      0.000      0.000
REMARK SMILES Cc1nc(NCc2ccc(Cl)cc2Cl)sc1C(=O)OCCOC(=O)c1ccc(-c2c3nc(c(-c4c(F)c(F)c(F)c(F)c4F)c4ccc([nH]4)c(-c4c(F)c(F)c(F)c(F)c4F)c4nc(c(-c5c(F)c(F)c(F)c(F)c5F)c5ccc2[nH]5)C=C4)C=C3)cc1
REMARK SMILES IDX 20 1 19 2 17 3 18 4 16 5 1 6 2 7 3 8 4 9 15 10 5 11 6 13
REMARK SMILES IDX 7 14 8 15 13 16 9 17 12 18 14 19 10 20 11 21 21 22 22 23
REMARK SMILES IDX 23 24 24 25 25 26 26 27 87 28 27 29 86 30 28 31 29 32 30 33
REMARK SMILES IDX 80 34 31 35 85 36 79 37 81 38 32 39 84 40 78 41 77 42 33 44
REMARK SMILES IDX 65 45 45 46 64 47 46 48 49 49 63 50 82 51 47 52 48 53 62 55
REMARK SMILES IDX 83 56 50 57 34 58 35 59 43 60 36 61 37 62 41 63 44 64 38 65
REMARK SMILES IDX 39 66 42 67 40 68 66 69 67 70 75 71 68 72 69 73 73 74 76 75
REMARK SMILES IDX 70 76 71 77 74 78 72 79 51 80 52 81 60 82 53 83 54 84 58 85
REMARK SMILES IDX 61 86 55 87 56 88 59 89 57 90
REMARK H PARENT 5 12 81 43 49 54
REMARK Flexibility Score: inf
ROOT
ATOM      1  C   UNL A   1      35.013  20.534  25.005  1.00  0.00     0.275 C 
ENDROOT
BRANCH   1   2
ATOM      2  O   UNL A   1      33.876  21.228  24.451  1.00  0.00    -0.458 OA
BRANCH   2   3
ATOM      3  C   UNL A   1      32.674  20.947  25.030  1.00  0.00     0.350 C 
ATOM      4  O   UNL A   1      32.144  19.847  24.995  1.00  0.00    -0.245 OA
BRANCH   3   5
ATOM      5  C   UNL A   1      32.163  22.094  25.753  1.00  0.00     0.137 A 
ATOM      6  C   UNL A   1      33.407  22.207  28.024  1.00  0.00     0.069 C 
ATOM      7  C   UNL A   1      32.414  22.635  27.004  1.00  0.00     0.065 A 
ATOM      8  N   UNL A   1      31.656  23.770  27.308  1.00  0.00    -0.225 NA
ATOM      9  C   UNL A   1      30.849  24.072  26.321  1.00  0.00     0.183 A 
ATOM     10  S   UNL A   1      30.998  23.067  24.953  1.00  0.00    -0.090 S 
BRANCH   9  11
ATOM     11  N   UNL A   1      29.976  25.096  26.270  1.00  0.00    -0.357 N 
ATOM     12  H   UNL A   1      29.143  25.044  26.793  1.00  0.00     0.163 HD
BRANCH  11  13
ATOM     13  C   UNL A   1      30.231  26.259  25.471  1.00  0.00     0.152 C 
BRANCH  13  14
ATOM     14  C   UNL A   1      31.472  27.051  25.867  1.00  0.00    -0.010 A 
ATOM     15  C   UNL A   1      31.340  27.813  27.051  1.00  0.00     0.008 A 
ATOM     16  C   UNL A   1      32.738  27.043  25.247  1.00  0.00     0.047 A 
ATOM     17  C   UNL A   1      32.413  28.528  27.591  1.00  0.00     0.021 A 
ATOM     18  C   UNL A   1      33.812  27.762  25.792  1.00  0.00     0.041 A 
ATOM     19  Cl  UNL A   1      33.124  26.198  23.792  1.00  0.00    -0.084 Cl
ATOM     20  C   UNL A   1      33.648  28.493  26.960  1.00  0.00     0.042 A 
ATOM     21  Cl  UNL A   1      34.982  29.348  27.626  1.00  0.00    -0.084 Cl
ENDBRANCH  13  14
ENDBRANCH  11  13
ENDBRANCH   9  11
ENDBRANCH   3   5
ENDBRANCH   2   3
ENDBRANCH   1   2
BRANCH   1  22
ATOM     22  C   UNL A   1      36.320  21.264  24.693  1.00  0.00     0.275 C 
BRANCH  22  23
ATOM     23  O   UNL A   1      37.001  21.653  25.903  1.00  0.00    -0.458 OA
BRANCH  23  24
ATOM     24  C   UNL A   1      38.339  21.462  25.906  1.00  0.00     0.338 C 
ATOM     25  O   UNL A   1      38.959  20.534  25.417  1.00  0.00    -0.246 OA
BRANCH  24  26
ATOM     26  C   UNL A   1      39.006  22.621  26.518  1.00  0.00     0.060 A 
ATOM     27  C   UNL A   1      38.547  23.887  26.170  1.00  0.00     0.016 A 
ATOM     28  C   UNL A   1      40.148  22.485  27.302  1.00  0.00     0.016 A 
ATOM     29  C   UNL A   1      39.252  25.027  26.539  1.00  0.00     0.010 A 
ATOM     30  C   UNL A   1      40.826  23.636  27.732  1.00  0.00     0.010 A 
ATOM     31  C   UNL A   1      40.400  24.917  27.331  1.00  0.00    -0.014 A 
BRANCH  31  32
ATOM     32  C   UNL A   1      41.164  26.142  27.692  1.00  0.00     0.031 A 
ATOM     33  C   UNL A   1      40.510  27.232  28.495  1.00  0.00     0.074 A 
ATOM     34  C   UNL A   1      42.459  26.262  27.341  1.00  0.00     0.049 A 
ATOM     35  N   UNL A   1      40.961  28.422  28.802  1.00  0.00    -0.248 NA
ATOM     36  C   UNL A   1      39.165  26.948  29.020  1.00  0.00     0.031 C 
ATOM     37  C   UNL A   1      43.236  25.255  26.617  1.00  0.00     0.029 A 
ATOM     38  N   UNL A   1      43.356  27.280  27.555  1.00  0.00    -0.354 N 
ATOM     39  C   UNL A   1      39.945  29.042  29.517  1.00  0.00     0.074 A 
ATOM     40  C   UNL A   1      38.849  28.100  29.595  1.00  0.00     0.031 C 
ATOM     41  C   UNL A   1      44.495  25.695  26.468  1.00  0.00     0.029 A 
ATOM     42  C   UNL A   1      44.598  27.041  27.020  1.00  0.00     0.049 A 
ATOM     43  H   UNL A   1      43.130  28.104  28.046  1.00  0.00     0.167 HD
ATOM     44  C   UNL A   1      39.928  30.285  30.057  1.00  0.00     0.037 A 
ATOM     45  C   UNL A   1      45.688  27.829  26.949  1.00  0.00     0.037 A 
ATOM     46  C   UNL A   1      41.034  31.206  30.016  1.00  0.00     0.049 A 
ATOM     47  C   UNL A   1      45.632  29.217  27.524  1.00  0.00     0.074 A 
ATOM     48  C   UNL A   1      41.112  32.488  30.533  1.00  0.00     0.029 A 
ATOM     49  N   UNL A   1      42.265  30.936  29.436  1.00  0.00    -0.354 N 
ATOM     50  N   UNL A   1      44.646  29.814  28.147  1.00  0.00    -0.248 NA
ATOM     51  C   UNL A   1      46.835  30.047  27.370  1.00  0.00     0.031 C 
ATOM     52  C   UNL A   1      42.379  33.005  30.239  1.00  0.00     0.029 A 
ATOM     53  C   UNL A   1      43.103  32.031  29.573  1.00  0.00     0.049 A 
ATOM     54  H   UNL A   1      42.506  30.091  28.991  1.00  0.00     0.167 HD
ATOM     55  C   UNL A   1      45.110  31.082  28.468  1.00  0.00     0.074 A 
ATOM     56  C   UNL A   1      46.474  31.162  27.990  1.00  0.00     0.031 C 
ATOM     57  C   UNL A   1      44.460  32.092  29.095  1.00  0.00     0.037 A 
BRANCH  44  58
ATOM     58  C   UNL A   1      38.658  30.738  30.713  1.00  0.00     0.064 A 
ATOM     59  C   UNL A   1      38.492  30.709  32.105  1.00  0.00     0.173 A 
ATOM     60  C   UNL A   1      37.605  31.245  29.936  1.00  0.00     0.173 A 
ATOM     61  F   UNL A   1      39.464  30.220  32.891  1.00  0.00    -0.203 F 
ATOM     62  C   UNL A   1      37.309  31.150  32.693  1.00  0.00     0.198 A 
ATOM     63  C   UNL A   1      36.433  31.708  30.529  1.00  0.00     0.198 A 
ATOM     64  F   UNL A   1      37.716  31.300  28.601  1.00  0.00    -0.203 F 
ATOM     65  F   UNL A   1      37.156  31.077  34.023  1.00  0.00    -0.200 F 
ATOM     66  C   UNL A   1      36.284  31.655  31.907  1.00  0.00     0.200 A 
ATOM     67  F   UNL A   1      35.449  32.206  29.767  1.00  0.00    -0.200 F 
ATOM     68  F   UNL A   1      35.149  32.085  32.475  1.00  0.00    -0.200 F 
ENDBRANCH  44  58
BRANCH  45  69
ATOM     69  C   UNL A   1      46.914  27.334  26.272  1.00  0.00     0.064 A 
ATOM     70  C   UNL A   1      47.913  26.660  26.985  1.00  0.00     0.173 A 
ATOM     71  C   UNL A   1      47.111  27.528  24.895  1.00  0.00     0.173 A 
ATOM     72  F   UNL A   1      47.784  26.477  28.308  1.00  0.00    -0.203 F 
ATOM     73  C   UNL A   1      49.067  26.205  26.350  1.00  0.00     0.198 A 
ATOM     74  C   UNL A   1      48.251  27.047  24.256  1.00  0.00     0.198 A 
ATOM     75  F   UNL A   1      46.186  28.172  24.169  1.00  0.00    -0.203 F 
ATOM     76  F   UNL A   1      50.027  25.598  27.062  1.00  0.00    -0.200 F 
ATOM     77  C   UNL A   1      49.231  26.391  24.985  1.00  0.00     0.200 A 
ATOM     78  F   UNL A   1      48.399  27.219  22.937  1.00  0.00    -0.200 F 
ATOM     79  F   UNL A   1      50.338  25.947  24.374  1.00  0.00    -0.200 F 
ENDBRANCH  45  69
BRANCH  57  80
ATOM     80  C   UNL A   1      45.226  33.361  29.321  1.00  0.00     0.064 A 
ATOM     81  C   UNL A   1      46.009  33.548  30.470  1.00  0.00     0.173 A 
ATOM     82  C   UNL A   1      45.204  34.385  28.363  1.00  0.00     0.173 A 
ATOM     83  F   UNL A   1      46.048  32.603  31.421  1.00  0.00    -0.203 F 
ATOM     84  C   UNL A   1      46.726  34.726  30.661  1.00  0.00     0.198 A 
ATOM     85  C   UNL A   1      45.941  35.552  28.547  1.00  0.00     0.198 A 
ATOM     86  F   UNL A   1      44.474  34.251  27.247  1.00  0.00    -0.203 F 
ATOM     87  F   UNL A   1      47.435  34.901  31.784  1.00  0.00    -0.200 F 
ATOM     88  C   UNL A   1      46.696  35.724  29.698  1.00  0.00     0.200 A 
ATOM     89  F   UNL A   1      45.918  36.511  27.612  1.00  0.00    -0.200 F 
ATOM     90  F   UNL A   1      47.390  36.856  29.882  1.00  0.00    -0.200 F 
ENDBRANCH  57  80
ENDBRANCH  31  32
ENDBRANCH  24  26
ENDBRANCH  23  24
ENDBRANCH  22  23
ENDBRANCH   1  22
TORSDOF 14
ENDMDL
MODEL 2
REMARK VINA RESULT:     -12.2      0.142      1.977
REMARK SMILES Cc1nc(NCc2ccc(Cl)cc2Cl)sc1C(=O)OCCOC(=O)c1ccc(-c2c3nc(c(-c4c(F)c(F)c(F)c(F)c4F)c4ccc([nH]4)c(-c4c(F)c(F)c(F)c(F)c4F)c4nc(c(-c5c(F)c(F)c(F)c(F)c5F)c5ccc2[nH]5)C=C4)C=C3)cc1
REMARK SMILES IDX 20 1 19 2 17 3 18 4 16 5 1 6 2 7 3 8 4 9 15 10 5 11 6 13
REMARK SMILES IDX 7 14 8 15 13 16 9 17 12 18 14 19 10 20 11 21 21 22 22 23
REMARK SMILES IDX 23 24 24 25 25 26 26 27 87 28 27 29 86 30 28 31 29 32 30 33
REMARK SMILES IDX 80 34 31 35 85 36 79 37 81 38 32 39 84 40 78 41 77 42 33 44
REMARK SMILES IDX 65 45 45 46 64 47 46 48 49 49 63 50 82 51 47 52 48 53 62 55
REMARK SMILES IDX 83 56 50 57 34 58 35 59 43 60 36 61 37 62 41 63 44 64 38 65
REMARK SMILES IDX 39 66 42 67 40 68 66 69 67 70 75 71 68 72 69 73 73 74 76 75
REMARK SMILES IDX 70 76 71 77 74 78 72 79 51 80 52 81 60 82 53 83 54 84 58 85
REMARK SMILES IDX 61 86 55 87 56 88 59 89 57 90
REMARK H PARENT 5 12 81 43 49 54
REMARK Flexibility Score: inf
ROOT
ATOM      1  C   UNL A   1      35.017  20.568  24.818  1.00  0.00     0.275 C 
ENDROOT
BRANCH   1   2
ATOM      2  O   UNL A   1      33.827  21.225  24.334  1.00  0.00    -0.458 OA
BRANCH   2   3
ATOM      3  C   UNL A   1      32.674  20.917  24.994  1.00  0.00     0.350 C 
ATOM      4  O   UNL A   1      32.178  19.800  25.010  1.00  0.00    -0.245 OA
BRANCH   3   5
ATOM      5  C   UNL A   1      32.174  22.060  25.731  1.00  0.00     0.137 A 
ATOM      6  C   UNL A   1      33.446  22.156  27.987  1.00  0.00     0.069 C 
ATOM      7  C   UNL A   1      32.442  22.592  26.983  1.00  0.00     0.065 A 
ATOM      8  N   UNL A   1      31.689  23.726  27.303  1.00  0.00    -0.225 NA
ATOM      9  C   UNL A   1      30.870  24.035  26.328  1.00  0.00     0.183 A 
ATOM     10  S   UNL A   1      31.001  23.040  24.952  1.00  0.00    -0.090 S 
BRANCH   9  11
ATOM     11  N   UNL A   1      29.998  25.062  26.295  1.00  0.00    -0.357 N 
ATOM     12  H   UNL A   1      29.165  25.001  26.817  1.00  0.00     0.163 HD
BRANCH  11  13
ATOM     13  C   UNL A   1      30.256  26.239  25.518  1.00  0.00     0.152 C 
BRANCH  13  14
ATOM     14  C   UNL A   1      31.495  27.024  25.932  1.00  0.00    -0.010 A 
ATOM     15  C   UNL A   1      31.321  27.865  27.055  1.00  0.00     0.008 A 
ATOM     16  C   UNL A   1      32.793  26.944  25.387  1.00  0.00     0.047 A 
ATOM     17  C   UNL A   1      32.382  28.586  27.608  1.00  0.00     0.021 A 
ATOM     18  C   UNL A   1      33.855  27.669  25.944  1.00  0.00     0.041 A 
ATOM     19  Cl  UNL A   1      33.233  25.995  24.013  1.00  0.00    -0.084 Cl
ATOM     20  C   UNL A   1      33.649  28.479  27.051  1.00  0.00     0.042 A 
ATOM     21  Cl  UNL A   1      34.969  29.342  27.736  1.00  0.00    -0.084 Cl
ENDBRANCH  13  14
ENDBRANCH  11  13
ENDBRANCH   9  11
ENDBRANCH   3   5
ENDBRANCH   2   3
ENDBRANCH   1   2
BRANCH   1  22
ATOM     22  C   UNL A   1      36.256  21.444  24.627  1.00  0.00     0.275 C 
BRANCH  22  23
ATOM     23  O   UNL A   1      36.922  21.685  25.882  1.00  0.00    -0.458 OA
BRANCH  23  24
ATOM     24  C   UNL A   1      38.257  21.468  25.885  1.00  0.00     0.338 C 
ATOM     25  O   UNL A   1      38.859  20.527  25.398  1.00  0.00    -0.246 OA
BRANCH  24  26
ATOM     26  C   UNL A   1      38.946  22.617  26.492  1.00  0.00     0.060 A 
ATOM     27  C   UNL A   1      38.487  23.889  26.169  1.00  0.00     0.016 A 
ATOM     28  C   UNL A   1      40.107  22.465  27.245  1.00  0.00     0.016 A 
ATOM     29  C   UNL A   1      39.208  25.020  26.532  1.00  0.00     0.010 A 
ATOM     30  C   UNL A   1      40.803  23.607  27.669  1.00  0.00     0.010 A 
ATOM     31  C   UNL A   1      40.375  24.895  27.294  1.00  0.00    -0.014 A 
BRANCH  31  32
ATOM     32  C   UNL A   1      41.156  26.111  27.648  1.00  0.00     0.031 A 
ATOM     33  C   UNL A   1      40.526  27.201  28.471  1.00  0.00     0.074 A 
ATOM     34  C   UNL A   1      42.445  26.224  27.272  1.00  0.00     0.049 A 
ATOM     35  N   UNL A   1      40.993  28.385  28.777  1.00  0.00    -0.248 NA
ATOM     36  C   UNL A   1      39.190  26.923  29.020  1.00  0.00     0.031 C 
ATOM     37  C   UNL A   1      43.199  25.216  26.525  1.00  0.00     0.029 A 
ATOM     38  N   UNL A   1      43.353  27.233  27.475  1.00  0.00    -0.354 N 
ATOM     39  C   UNL A   1      39.996  29.008  29.516  1.00  0.00     0.074 A 
ATOM     40  C   UNL A   1      38.894  28.073  29.609  1.00  0.00     0.031 C 
ATOM     41  C   UNL A   1      44.458  25.647  26.355  1.00  0.00     0.029 A 
ATOM     42  C   UNL A   1      44.583  26.988  26.915  1.00  0.00     0.049 A 
ATOM     43  H   UNL A   1      43.144  28.055  27.976  1.00  0.00     0.167 HD
ATOM     44  C   UNL A   1      39.999  30.247  30.065  1.00  0.00     0.037 A 
ATOM     45  C   UNL A   1      45.677  27.769  26.827  1.00  0.00     0.037 A 
ATOM     46  C   UNL A   1      41.112  31.160  30.009  1.00  0.00     0.049 A 
ATOM     47  C   UNL A   1      45.643  29.153  27.413  1.00  0.00     0.074 A 
ATOM     48  C   UNL A   1      41.209  32.438  30.533  1.00  0.00     0.029 A 
ATOM     49  N   UNL A   1      42.328  30.884  29.403  1.00  0.00    -0.354 N 
ATOM     50  N   UNL A   1      44.675  29.753  28.060  1.00  0.00    -0.248 NA
ATOM     51  C   UNL A   1      46.850  29.974  27.241  1.00  0.00     0.031 C 
ATOM     52  C   UNL A   1      42.475  32.946  30.218  1.00  0.00     0.029 A 
ATOM     53  C   UNL A   1      43.178  31.972  29.531  1.00  0.00     0.049 A 
ATOM     54  H   UNL A   1      42.555  30.041  28.948  1.00  0.00     0.167 HD
ATOM     55  C   UNL A   1      45.155  31.015  28.379  1.00  0.00     0.074 A 
ATOM     56  C   UNL A   1      46.510  31.088  27.876  1.00  0.00     0.031 C 
ATOM     57  C   UNL A   1      44.525  32.025  29.027  1.00  0.00     0.037 A 
BRANCH  44  58
ATOM     58  C   UNL A   1      38.746  30.705  30.749  1.00  0.00     0.064 A 
ATOM     59  C   UNL A   1      37.649  31.204  30.032  1.00  0.00     0.173 A 
ATOM     60  C   UNL A   1      38.630  30.608  32.145  1.00  0.00     0.173 A 
ATOM     61  F   UNL A   1      37.717  31.329  28.697  1.00  0.00    -0.203 F 
ATOM     62  C   UNL A   1      36.490  31.608  30.689  1.00  0.00     0.198 A 
ATOM     63  C   UNL A   1      37.459  30.990  32.795  1.00  0.00     0.198 A 
ATOM     64  F   UNL A   1      39.648  30.133  32.876  1.00  0.00    -0.203 F 
ATOM     65  F   UNL A   1      35.468  32.118  29.987  1.00  0.00    -0.200 F 
ATOM     66  C   UNL A   1      36.393  31.496  32.068  1.00  0.00     0.200 A 
ATOM     67  F   UNL A   1      37.365  30.870  34.127  1.00  0.00    -0.200 F 
ATOM     68  F   UNL A   1      35.274  31.879  32.697  1.00  0.00    -0.200 F 
ENDBRANCH  44  58
BRANCH  45  69
ATOM     69  C   UNL A   1      46.886  27.269  26.122  1.00  0.00     0.064 A 
ATOM     70  C   UNL A   1      47.072  27.497  24.753  1.00  0.00     0.173 A 
ATOM     71  C   UNL A   1      47.880  26.552  26.806  1.00  0.00     0.173 A 
ATOM     72  F   UNL A   1      46.136  28.153  24.051  1.00  0.00    -0.203 F 
ATOM     73  C   UNL A   1      48.202  27.020  24.091  1.00  0.00     0.198 A 
ATOM     74  C   UNL A   1      49.023  26.100  26.150  1.00  0.00     0.198 A 
ATOM     75  F   UNL A   1      47.747  26.303  28.117  1.00  0.00    -0.203 F 
ATOM     76  F   UNL A   1      48.336  27.216  22.772  1.00  0.00    -0.200 F 
ATOM     77  C   UNL A   1      49.180  26.329  24.792  1.00  0.00     0.200 A 
ATOM     78  F   UNL A   1      49.969  25.444  26.833  1.00  0.00    -0.200 F 
ATOM     79  F   UNL A   1      50.269  25.876  24.157  1.00  0.00    -0.200 F 
ENDBRANCH  45  69
BRANCH  57  80
ATOM     80  C   UNL A   1      45.306  33.287  29.246  1.00  0.00     0.064 A 
ATOM     81  C   UNL A   1      45.271  34.339  28.319  1.00  0.00     0.173 A 
ATOM     82  C   UNL A   1      46.069  33.458  30.410  1.00  0.00     0.173 A 
ATOM     83  F   UNL A   1      44.568  34.215  27.183  1.00  0.00    -0.203 F 
ATOM     84  C   UNL A   1      45.991  35.510  28.541  1.00  0.00     0.198 A 
ATOM     85  C   UNL A   1      46.769  34.639  30.640  1.00  0.00     0.198 A 
ATOM     86  F   UNL A   1      46.130  32.482  31.327  1.00  0.00    -0.203 F 
ATOM     87  F   UNL A   1      45.977  36.487  27.624  1.00  0.00    -0.200 F 
ATOM     88  C   UNL A   1      46.734  35.661  29.703  1.00  0.00     0.200 A 
ATOM     89  F   UNL A   1      47.479  34.788  31.766  1.00  0.00    -0.200 F 
ATOM     90  F   UNL A   1      47.423  36.791  29.916  1.00  0.00    -0.200 F 
ENDBRANCH  57  80
ENDBRANCH  31  32
ENDBRANCH  24  26
ENDBRANCH  23  24
ENDBRANCH  22  23
ENDBRANCH   1  22
TORSDOF 14
ENDMDL
MODEL 3
REMARK VINA RESULT:     -12.1      4.704      9.539
REMARK SMILES Cc1nc(NCc2ccc(Cl)cc2Cl)sc1C(=O)OCCOC(=O)c1ccc(-c2c3nc(c(-c4c(F)c(F)c(F)c(F)c4F)c4ccc([nH]4)c(-c4c(F)c(F)c(F)c(F)c4F)c4nc(c(-c5c(F)c(F)c(F)c(F)c5F)c5ccc2[nH]5)C=C4)C=C3)cc1
REMARK SMILES IDX 20 1 19 2 17 3 18 4 16 5 1 6 2 7 3 8 4 9 15 10 5 11 6 13
REMARK SMILES IDX 7 14 8 15 13 16 9 17 12 18 14 19 10 20 11 21 21 22 22 23
REMARK SMILES IDX 23 24 24 25 25 26 26 27 87 28 27 29 86 30 28 31 29 32 30 33
REMARK SMILES IDX 80 34 31 35 85 36 79 37 81 38 32 39 84 40 78 41 77 42 33 44
REMARK SMILES IDX 65 45 45 46 64 47 46 48 49 49 63 50 82 51 47 52 48 53 62 55
REMARK SMILES IDX 83 56 50 57 34 58 35 59 43 60 36 61 37 62 41 63 44 64 38 65
REMARK SMILES IDX 39 66 42 67 40 68 66 69 67 70 75 71 68 72 69 73 73 74 76 75
REMARK SMILES IDX 70 76 71 77 74 78 72 79 51 80 52 81 60 82 53 83 54 84 58 85
REMARK SMILES IDX 61 86 55 87 56 88 59 89 57 90
REMARK H PARENT 5 12 81 43 49 54
REMARK Flexibility Score: inf
ROOT
ATOM      1  C   UNL A   1      31.364  29.766  24.942  1.00  0.00     0.275 C 
ENDROOT
BRANCH   1   2
ATOM      2  O   UNL A   1      31.097  28.386  24.617  1.00  0.00    -0.458 OA
BRANCH   2   3
ATOM      3  C   UNL A   1      30.892  28.119  23.296  1.00  0.00     0.350 C 
ATOM      4  O   UNL A   1      30.045  28.678  22.614  1.00  0.00    -0.245 OA
BRANCH   3   5
ATOM      5  C   UNL A   1      31.860  27.161  22.800  1.00  0.00     0.137 A 
ATOM      6  C   UNL A   1      34.053  28.448  22.299  1.00  0.00     0.069 C 
ATOM      7  C   UNL A   1      33.167  27.256  22.348  1.00  0.00     0.065 A 
ATOM      8  N   UNL A   1      33.727  26.044  21.936  1.00  0.00    -0.225 NA
ATOM      9  C   UNL A   1      32.866  25.063  22.062  1.00  0.00     0.183 A 
ATOM     10  S   UNL A   1      31.372  25.517  22.744  1.00  0.00    -0.090 S 
BRANCH   9  11
ATOM     11  N   UNL A   1      33.063  23.766  21.758  1.00  0.00    -0.357 N 
ATOM     12  H   UNL A   1      33.081  23.491  20.813  1.00  0.00     0.163 HD
BRANCH  11  13
ATOM     13  C   UNL A   1      33.247  22.777  22.780  1.00  0.00     0.152 C 
BRANCH  13  14
ATOM     14  C   UNL A   1      34.404  23.047  23.735  1.00  0.00    -0.010 A 
ATOM     15  C   UNL A   1      35.690  22.814  23.196  1.00  0.00     0.008 A 
ATOM     16  C   UNL A   1      34.343  23.574  25.041  1.00  0.00     0.047 A 
ATOM     17  C   UNL A   1      36.854  23.093  23.917  1.00  0.00     0.021 A 
ATOM     18  C   UNL A   1      35.513  23.853  25.761  1.00  0.00     0.041 A 
ATOM     19  Cl  UNL A   1      32.888  23.923  25.902  1.00  0.00    -0.084 Cl
ATOM     20  C   UNL A   1      36.759  23.618  25.197  1.00  0.00     0.042 A 
ATOM     21  Cl  UNL A   1      38.183  23.989  26.086  1.00  0.00    -0.084 Cl
ENDBRANCH  13  14
ENDBRANCH  11  13
ENDBRANCH   9  11
ENDBRANCH   3   5
ENDBRANCH   2   3
ENDBRANCH   1   2
BRANCH   1  22
ATOM     22  C   UNL A   1      32.745  29.934  25.578  1.00  0.00     0.275 C 
BRANCH  22  23
ATOM     23  O   UNL A   1      32.637  30.354  26.953  1.00  0.00    -0.458 OA
BRANCH  23  24
ATOM     24  C   UNL A   1      33.301  31.489  27.269  1.00  0.00     0.338 C 
ATOM     25  O   UNL A   1      32.882  32.632  27.226  1.00  0.00    -0.246 OA
BRANCH  24  26
ATOM     26  C   UNL A   1      34.633  31.155  27.795  1.00  0.00     0.060 A 
ATOM     27  C   UNL A   1      34.834  29.864  28.270  1.00  0.00     0.016 A 
ATOM     28  C   UNL A   1      35.624  32.121  27.958  1.00  0.00     0.016 A 
ATOM     29  C   UNL A   1      35.989  29.534  28.968  1.00  0.00     0.010 A 
ATOM     30  C   UNL A   1      36.819  31.773  28.605  1.00  0.00     0.010 A 
ATOM     31  C   UNL A   1      37.002  30.484  29.141  1.00  0.00    -0.014 A 
BRANCH  31  32
ATOM     32  C   UNL A   1      38.220  30.128  29.919  1.00  0.00     0.031 A 
ATOM     33  C   UNL A   1      39.247  29.200  29.332  1.00  0.00     0.074 A 
ATOM     34  C   UNL A   1      38.431  30.669  31.134  1.00  0.00     0.049 A 
ATOM     35  N   UNL A   1      40.306  28.671  29.894  1.00  0.00    -0.248 NA
ATOM     36  C   UNL A   1      39.057  28.810  27.927  1.00  0.00     0.031 C 
ATOM     37  C   UNL A   1      37.549  31.631  31.796  1.00  0.00     0.029 A 
ATOM     38  N   UNL A   1      39.461  30.496  32.027  1.00  0.00    -0.354 N 
ATOM     39  C   UNL A   1      40.882  27.857  28.928  1.00  0.00     0.074 A 
ATOM     40  C   UNL A   1      40.054  27.956  27.744  1.00  0.00     0.031 C 
ATOM     41  C   UNL A   1      38.086  31.980  32.976  1.00  0.00     0.029 A 
ATOM     42  C   UNL A   1      39.310  31.215  33.187  1.00  0.00     0.049 A 
ATOM     43  H   UNL A   1      40.234  29.911  31.852  1.00  0.00     0.167 HD
ATOM     44  C   UNL A   1      42.000  27.096  29.021  1.00  0.00     0.037 A 
ATOM     45  C   UNL A   1      40.053  31.230  34.311  1.00  0.00     0.037 A 
ATOM     46  C   UNL A   1      42.847  27.032  30.184  1.00  0.00     0.049 A 
ATOM     47  C   UNL A   1      41.268  30.350  34.403  1.00  0.00     0.074 A 
ATOM     48  C   UNL A   1      43.999  26.288  30.374  1.00  0.00     0.029 A 
ATOM     49  N   UNL A   1      42.641  27.753  31.351  1.00  0.00    -0.354 N 
ATOM     50  N   UNL A   1      41.772  29.540  33.504  1.00  0.00    -0.248 NA
ATOM     51  C   UNL A   1      42.008  30.373  35.673  1.00  0.00     0.031 C 
ATOM     52  C   UNL A   1      44.473  26.536  31.668  1.00  0.00     0.029 A 
ATOM     53  C   UNL A   1      43.638  27.463  32.268  1.00  0.00     0.049 A 
ATOM     54  H   UNL A   1      41.895  28.377  31.505  1.00  0.00     0.167 HD
ATOM     55  C   UNL A   1      42.889  28.965  34.093  1.00  0.00     0.074 A 
ATOM     56  C   UNL A   1      43.004  29.535  35.419  1.00  0.00     0.031 C 
ATOM     57  C   UNL A   1      43.739  28.042  33.582  1.00  0.00     0.037 A 
BRANCH  44  58
ATOM     58  C   UNL A   1      42.356  26.241  27.842  1.00  0.00     0.064 A 
ATOM     59  C   UNL A   1      41.754  24.994  27.621  1.00  0.00     0.173 A 
ATOM     60  C   UNL A   1      43.290  26.697  26.898  1.00  0.00     0.173 A 
ATOM     61  F   UNL A   1      40.866  24.509  28.501  1.00  0.00    -0.203 F 
ATOM     62  C   UNL A   1      42.090  24.225  26.509  1.00  0.00     0.198 A 
ATOM     63  C   UNL A   1      43.605  25.936  25.775  1.00  0.00     0.198 A 
ATOM     64  F   UNL A   1      43.890  27.885  27.060  1.00  0.00    -0.203 F 
ATOM     65  F   UNL A   1      41.532  23.019  26.338  1.00  0.00    -0.200 F 
ATOM     66  C   UNL A   1      43.010  24.698  25.585  1.00  0.00     0.200 A 
ATOM     67  F   UNL A   1      44.485  26.401  24.877  1.00  0.00    -0.200 F 
ATOM     68  F   UNL A   1      43.327  23.960  24.512  1.00  0.00    -0.200 F 
ENDBRANCH  44  58
BRANCH  45  69
ATOM     69  C   UNL A   1      39.642  32.085  35.455  1.00  0.00     0.064 A 
ATOM     70  C   UNL A   1      40.164  33.374  35.619  1.00  0.00     0.173 A 
ATOM     71  C   UNL A   1      38.720  31.626  36.408  1.00  0.00     0.173 A 
ATOM     72  F   UNL A   1      41.071  33.846  34.751  1.00  0.00    -0.203 F 
ATOM     73  C   UNL A   1      39.785  34.171  36.699  1.00  0.00     0.198 A 
ATOM     74  C   UNL A   1      38.320  32.434  37.470  1.00  0.00     0.198 A 
ATOM     75  F   UNL A   1      38.195  30.397  36.298  1.00  0.00    -0.203 F 
ATOM     76  F   UNL A   1      40.330  35.385  36.856  1.00  0.00    -0.200 F 
ATOM     77  C   UNL A   1      38.858  33.703  37.618  1.00  0.00     0.200 A 
ATOM     78  F   UNL A   1      37.416  31.982  38.349  1.00  0.00    -0.200 F 
ATOM     79  F   UNL A   1      38.489  34.472  38.651  1.00  0.00    -0.200 F 
ENDBRANCH  45  69
BRANCH  57  80
ATOM     80  C   UNL A   1      44.881  27.610  34.453  1.00  0.00     0.064 A 
ATOM     81  C   UNL A   1      44.785  26.478  35.276  1.00  0.00     0.173 A 
ATOM     82  C   UNL A   1      46.093  28.315  34.440  1.00  0.00     0.173 A 
ATOM     83  F   UNL A   1      43.640  25.781  35.334  1.00  0.00    -0.203 F 
ATOM     84  C   UNL A   1      45.857  26.080  36.070  1.00  0.00     0.198 A 
ATOM     85  C   UNL A   1      47.171  27.901  35.217  1.00  0.00     0.198 A 
ATOM     86  F   UNL A   1      46.234  29.402  33.666  1.00  0.00    -0.203 F 
ATOM     87  F   UNL A   1      45.732  25.019  36.879  1.00  0.00    -0.200 F 
ATOM     88  C   UNL A   1      47.050  26.788  36.036  1.00  0.00     0.200 A 
ATOM     89  F   UNL A   1      48.324  28.580  35.177  1.00  0.00    -0.200 F 
ATOM     90  F   UNL A   1      48.082  26.400  36.799  1.00  0.00    -0.200 F 
ENDBRANCH  57  80
ENDBRANCH  31  32
ENDBRANCH  24  26
ENDBRANCH  23  24
ENDBRANCH  22  23
ENDBRANCH   1  22
TORSDOF 14
ENDMDL
