MODEL 1
REMARK VINA RESULT:     -12.8      0.000      0.000
REMARK SMILES CC1=C(C#N)c2nc(N)c(C#N)c(C)c2/C1=C\c1ccc(OCC(=O)OCCOC(=O)c2ccc(-c3c4nc(c(-c5c(F)c(F)c(F)c(F)c5F)c5ccc([nH]5)c(-c5c(F)c(F)c(F)c(F)c5F)c5nc(c(-c6c(F)c(F)c(F)c(F)c6F)c6ccc3[nH]6)C=C5)C=C4)cc2)c(Cl)c1
REMARK SMILES IDX 27 1 26 2 24 3 25 4 23 5 22 6 21 7 18 8 19 9 97 10 20 11
REMARK SMILES IDX 95 12 96 13 17 14 1 15 2 16 3 17 16 18 6 19 15 20 7 21 13 22
REMARK SMILES IDX 8 23 10 24 14 25 4 26 5 27 9 28 11 31 12 32 28 33 29 34
REMARK SMILES IDX 30 35 31 36 32 37 33 38 94 39 34 40 93 41 35 42 36 43 37 44
REMARK SMILES IDX 87 45 38 46 92 47 86 48 88 49 39 50 91 51 85 52 84 53 40 55
REMARK SMILES IDX 72 56 52 57 71 58 53 59 56 60 70 61 89 62 54 63 55 64 69 66
REMARK SMILES IDX 90 67 57 68 41 69 42 70 50 71 43 72 44 73 48 74 51 75 45 76
REMARK SMILES IDX 46 77 49 78 47 79 73 80 74 81 82 82 75 83 76 84 80 85 83 86
REMARK SMILES IDX 77 87 78 88 81 89 79 90 58 91 59 92 67 93 60 94 61 95 65 96
REMARK SMILES IDX 68 97 62 98 63 99 66 100 64 101
REMARK H PARENT 9 29 9 30 88 54 56 65
REMARK Flexibility Score: inf
ROOT
ATOM      1  C   UNL A   1      31.195  29.209  24.898  1.00  0.00     0.274 C 
ENDROOT
BRANCH   1   2
ATOM      2  O   UNL A   1      30.313  29.719  23.859  1.00  0.00    -0.460 OA
BRANCH   2   3
ATOM      3  C   UNL A   1      30.435  29.122  22.646  1.00  0.00     0.344 C 
ATOM      4  O   UNL A   1      29.890  29.545  21.626  1.00  0.00    -0.248 OA
BRANCH   3   5
ATOM      5  C   UNL A   1      31.295  27.835  22.608  1.00  0.00     0.352 C 
BRANCH   5   6
ATOM      6  O   UNL A   1      30.900  26.527  22.240  1.00  0.00    -0.480 OA
BRANCH   6   7
ATOM      7  C   UNL A   1      31.319  25.407  22.903  1.00  0.00     0.138 A 
ATOM      8  C   UNL A   1      32.093  22.773  23.618  1.00  0.00    -0.023 A 
ATOM      9  C   UNL A   1      32.796  23.472  22.636  1.00  0.00     0.012 A 
ATOM     10  C   UNL A   1      31.207  23.500  24.418  1.00  0.00     0.032 A 
ATOM     11  C   UNL A   1      32.381  24.759  22.258  1.00  0.00     0.048 A 
ATOM     12  C   UNL A   1      30.884  24.839  24.102  1.00  0.00     0.083 A 
ATOM     13  Cl  UNL A   1      30.149  25.761  25.360  1.00  0.00    -0.080 Cl
BRANCH   8  14
ATOM     14  C   UNL A   1      32.298  21.324  23.794  1.00  0.00     0.017 C 
ATOM     15  C   UNL A   1      32.154  18.294  24.081  1.00  0.00     0.046 C 
ATOM     16  C   UNL A   1      33.369  19.134  24.298  1.00  0.00    -0.023 C 
ATOM     17  C   UNL A   1      34.600  18.692  24.628  1.00  0.00     0.082 C 
ATOM     18  C   UNL A   1      33.380  20.629  24.229  1.00  0.00    -0.011 C 
ATOM     19  C   UNL A   1      35.482  19.841  24.747  1.00  0.00     0.092 A 
ATOM     20  C   UNL A   1      34.760  21.036  24.650  1.00  0.00     0.014 A 
ATOM     21  N   UNL A   1      36.797  19.699  24.999  1.00  0.00    -0.228 NA
ATOM     22  C   UNL A   1      35.450  22.184  25.037  1.00  0.00    -0.019 A 
ATOM     23  C   UNL A   1      37.473  20.829  25.254  1.00  0.00     0.142 A 
ATOM     24  C   UNL A   1      36.828  22.066  25.366  1.00  0.00     0.098 A 
ATOM     25  C   UNL A   1      34.764  23.495  25.195  1.00  0.00     0.046 C 
BRANCH  17  26
ATOM     26  C   UNL A   1      35.036  17.266  24.923  1.00  0.00     0.102 C 
ATOM     27  N   UNL A   1      35.396  16.083  25.167  1.00  0.00    -0.192 NA
ENDBRANCH  17  26
BRANCH  23  28
ATOM     28  N   UNL A   1      38.824  20.663  25.483  1.00  0.00    -0.383 N 
ATOM     29  H   UNL A   1      39.427  21.441  25.453  1.00  0.00     0.158 HD
ATOM     30  H   UNL A   1      39.184  19.768  25.675  1.00  0.00     0.158 HD
ENDBRANCH  23  28
BRANCH  24  31
ATOM     31  C   UNL A   1      37.583  23.185  25.860  1.00  0.00     0.103 C 
ATOM     32  N   UNL A   1      38.206  24.074  26.263  1.00  0.00    -0.192 NA
ENDBRANCH  24  31
ENDBRANCH   8  14
ENDBRANCH   6   7
ENDBRANCH   5   6
ENDBRANCH   3   5
ENDBRANCH   2   3
ENDBRANCH   1   2
BRANCH   1  33
ATOM     33  C   UNL A   1      31.620  30.299  25.890  1.00  0.00     0.275 C 
BRANCH  33  34
ATOM     34  O   UNL A   1      33.045  30.512  25.920  1.00  0.00    -0.458 OA
BRANCH  34  35
ATOM     35  C   UNL A   1      33.424  31.277  26.960  1.00  0.00     0.338 C 
ATOM     36  O   UNL A   1      32.780  32.158  27.498  1.00  0.00    -0.246 OA
BRANCH  35  37
ATOM     37  C   UNL A   1      34.721  30.941  27.509  1.00  0.00     0.060 A 
ATOM     38  C   UNL A   1      34.926  29.619  27.887  1.00  0.00     0.016 A 
ATOM     39  C   UNL A   1      35.550  31.970  27.958  1.00  0.00     0.016 A 
ATOM     40  C   UNL A   1      35.952  29.328  28.769  1.00  0.00     0.010 A 
ATOM     41  C   UNL A   1      36.643  31.656  28.762  1.00  0.00     0.010 A 
ATOM     42  C   UNL A   1      36.845  30.332  29.177  1.00  0.00    -0.014 A 
BRANCH  42  43
ATOM     43  C   UNL A   1      38.048  29.943  29.943  1.00  0.00     0.031 A 
ATOM     44  C   UNL A   1      39.108  29.062  29.362  1.00  0.00     0.074 A 
ATOM     45  C   UNL A   1      38.154  30.422  31.196  1.00  0.00     0.049 A 
ATOM     46  N   UNL A   1      40.180  28.580  29.937  1.00  0.00    -0.248 NA
ATOM     47  C   UNL A   1      38.944  28.655  27.959  1.00  0.00     0.031 C 
ATOM     48  C   UNL A   1      37.177  31.306  31.840  1.00  0.00     0.029 A 
ATOM     49  N   UNL A   1      39.129  30.263  32.142  1.00  0.00    -0.354 N 
ATOM     50  C   UNL A   1      40.809  27.800  28.978  1.00  0.00     0.074 A 
ATOM     51  C   UNL A   1      39.978  27.840  27.792  1.00  0.00     0.031 C 
ATOM     52  C   UNL A   1      37.636  31.672  33.040  1.00  0.00     0.029 A 
ATOM     53  C   UNL A   1      38.880  30.960  33.296  1.00  0.00     0.049 A 
ATOM     54  H   UNL A   1      39.928  29.704  32.009  1.00  0.00     0.167 HD
ATOM     55  C   UNL A   1      41.980  27.125  29.086  1.00  0.00     0.037 A 
ATOM     56  C   UNL A   1      39.560  31.002  34.454  1.00  0.00     0.037 A 
ATOM     57  C   UNL A   1      42.787  27.108  30.283  1.00  0.00     0.049 A 
ATOM     58  C   UNL A   1      40.806  30.184  34.574  1.00  0.00     0.074 A 
ATOM     59  C   UNL A   1      43.988  26.460  30.507  1.00  0.00     0.029 A 
ATOM     60  N   UNL A   1      42.468  27.771  31.464  1.00  0.00    -0.354 N 
ATOM     61  N   UNL A   1      41.391  29.438  33.668  1.00  0.00    -0.248 NA
ATOM     62  C   UNL A   1      41.478  30.197  35.876  1.00  0.00     0.031 C 
ATOM     63  C   UNL A   1      44.361  26.677  31.837  1.00  0.00     0.029 A 
ATOM     64  C   UNL A   1      43.432  27.519  32.429  1.00  0.00     0.049 A 
ATOM     65  H   UNL A   1      41.673  28.337  31.596  1.00  0.00     0.167 HD
ATOM     66  C   UNL A   1      42.510  28.902  34.282  1.00  0.00     0.074 A 
ATOM     67  C   UNL A   1      42.532  29.428  35.634  1.00  0.00     0.031 C 
ATOM     68  C   UNL A   1      43.432  28.048  33.773  1.00  0.00     0.037 A 
BRANCH  55  69
ATOM     69  C   UNL A   1      42.444  26.329  27.895  1.00  0.00     0.064 A 
ATOM     70  C   UNL A   1      43.409  26.823  27.002  1.00  0.00     0.173 A 
ATOM     71  C   UNL A   1      41.936  25.042  27.654  1.00  0.00     0.173 A 
ATOM     72  F   UNL A   1      43.924  28.049  27.176  1.00  0.00    -0.203 F 
ATOM     73  C   UNL A   1      43.814  26.079  25.896  1.00  0.00     0.198 A 
ATOM     74  C   UNL A   1      42.372  24.285  26.569  1.00  0.00     0.198 A 
ATOM     75  F   UNL A   1      41.018  24.512  28.476  1.00  0.00    -0.203 F 
ATOM     76  F   UNL A   1      44.687  26.601  25.023  1.00  0.00    -0.200 F 
ATOM     77  C   UNL A   1      43.301  24.809  25.684  1.00  0.00     0.200 A 
ATOM     78  F   UNL A   1      41.888  23.050  26.376  1.00  0.00    -0.200 F 
ATOM     79  F   UNL A   1      43.694  24.094  24.621  1.00  0.00    -0.200 F 
ENDBRANCH  55  69
BRANCH  56  80
ATOM     80  C   UNL A   1      39.058  31.867  35.550  1.00  0.00     0.064 A 
ATOM     81  C   UNL A   1      38.223  31.340  36.543  1.00  0.00     0.173 A 
ATOM     82  C   UNL A   1      39.492  33.193  35.695  1.00  0.00     0.173 A 
ATOM     83  F   UNL A   1      37.777  30.079  36.442  1.00  0.00    -0.203 F 
ATOM     84  C   UNL A   1      37.849  32.105  37.645  1.00  0.00     0.198 A 
ATOM     85  C   UNL A   1      39.145  33.946  36.814  1.00  0.00     0.198 A 
ATOM     86  F   UNL A   1      40.308  33.738  34.779  1.00  0.00    -0.203 F 
ATOM     87  F   UNL A   1      37.042  31.581  38.577  1.00  0.00    -0.200 F 
ATOM     88  C   UNL A   1      38.323  33.401  37.788  1.00  0.00     0.200 A 
ATOM     89  F   UNL A   1      39.631  35.186  36.963  1.00  0.00    -0.200 F 
ATOM     90  F   UNL A   1      37.993  34.122  38.868  1.00  0.00    -0.200 F 
ENDBRANCH  56  80
BRANCH  68  91
ATOM     91  C   UNL A   1      44.554  27.633  34.681  1.00  0.00     0.064 A 
ATOM     92  C   UNL A   1      45.729  28.391  34.790  1.00  0.00     0.173 A 
ATOM     93  C   UNL A   1      44.424  26.499  35.497  1.00  0.00     0.173 A 
ATOM     94  F   UNL A   1      45.908  29.473  34.018  1.00  0.00    -0.203 F 
ATOM     95  C   UNL A   1      46.740  28.019  35.671  1.00  0.00     0.198 A 
ATOM     96  C   UNL A   1      45.421  26.152  36.403  1.00  0.00     0.198 A 
ATOM     97  F   UNL A   1      43.318  25.742  35.434  1.00  0.00    -0.203 F 
ATOM     98  F   UNL A   1      47.873  28.733  35.726  1.00  0.00    -0.200 F 
ATOM     99  C   UNL A   1      46.579  26.908  36.485  1.00  0.00     0.200 A 
ATOM    100  F   UNL A   1      45.256  25.090  37.204  1.00  0.00    -0.200 F 
ATOM    101  F   UNL A   1      47.545  26.566  37.349  1.00  0.00    -0.200 F 
ENDBRANCH  68  91
ENDBRANCH  42  43
ENDBRANCH  35  37
ENDBRANCH  34  35
ENDBRANCH  33  34
ENDBRANCH   1  33
TORSDOF 17
ENDMDL
MODEL 2
REMARK VINA RESULT:     -12.5      1.044      2.253
REMARK SMILES CC1=C(C#N)c2nc(N)c(C#N)c(C)c2/C1=C\c1ccc(OCC(=O)OCCOC(=O)c2ccc(-c3c4nc(c(-c5c(F)c(F)c(F)c(F)c5F)c5ccc([nH]5)c(-c5c(F)c(F)c(F)c(F)c5F)c5nc(c(-c6c(F)c(F)c(F)c(F)c6F)c6ccc3[nH]6)C=C5)C=C4)cc2)c(Cl)c1
REMARK SMILES IDX 27 1 26 2 24 3 25 4 23 5 22 6 21 7 18 8 19 9 97 10 20 11
REMARK SMILES IDX 95 12 96 13 17 14 1 15 2 16 3 17 16 18 6 19 15 20 7 21 13 22
REMARK SMILES IDX 8 23 10 24 14 25 4 26 5 27 9 28 11 31 12 32 28 33 29 34
REMARK SMILES IDX 30 35 31 36 32 37 33 38 94 39 34 40 93 41 35 42 36 43 37 44
REMARK SMILES IDX 87 45 38 46 92 47 86 48 88 49 39 50 91 51 85 52 84 53 40 55
REMARK SMILES IDX 72 56 52 57 71 58 53 59 56 60 70 61 89 62 54 63 55 64 69 66
REMARK SMILES IDX 90 67 57 68 41 69 42 70 50 71 43 72 44 73 48 74 51 75 45 76
REMARK SMILES IDX 46 77 49 78 47 79 73 80 74 81 82 82 75 83 76 84 80 85 83 86
REMARK SMILES IDX 77 87 78 88 81 89 79 90 58 91 59 92 67 93 60 94 61 95 65 96
REMARK SMILES IDX 68 97 62 98 63 99 66 100 64 101
REMARK H PARENT 9 29 9 30 88 54 56 65
REMARK Flexibility Score: inf
ROOT
ATOM      1  C   UNL A   1      30.748  30.389  24.438  1.00  0.00     0.274 C 
ENDROOT
BRANCH   1   2
ATOM      2  O   UNL A   1      29.731  29.496  23.903  1.00  0.00    -0.460 OA
BRANCH   2   3
ATOM      3  C   UNL A   1      29.928  29.089  22.623  1.00  0.00     0.344 C 
ATOM      4  O   UNL A   1      29.745  29.816  21.645  1.00  0.00    -0.248 OA
BRANCH   3   5
ATOM      5  C   UNL A   1      30.382  27.619  22.443  1.00  0.00     0.352 C 
BRANCH   5   6
ATOM      6  O   UNL A   1      30.476  26.603  23.423  1.00  0.00    -0.480 OA
BRANCH   6   7
ATOM      7  C   UNL A   1      31.587  26.413  24.196  1.00  0.00     0.138 A 
ATOM      8  C   UNL A   1      34.156  25.717  25.180  1.00  0.00    -0.023 A 
ATOM      9  C   UNL A   1      34.027  26.602  24.109  1.00  0.00     0.012 A 
ATOM     10  C   UNL A   1      33.004  25.424  25.917  1.00  0.00     0.032 A 
ATOM     11  C   UNL A   1      32.754  26.908  23.600  1.00  0.00     0.048 A 
ATOM     12  C   UNL A   1      31.732  25.841  25.462  1.00  0.00     0.083 A 
ATOM     13  Cl  UNL A   1      30.463  25.817  26.627  1.00  0.00    -0.080 Cl
BRANCH   8  14
ATOM     14  C   UNL A   1      35.467  25.131  25.511  1.00  0.00     0.017 C 
ATOM     15  C   UNL A   1      38.351  24.464  26.232  1.00  0.00     0.046 C 
ATOM     16  C   UNL A   1      37.297  23.479  25.849  1.00  0.00    -0.023 C 
ATOM     17  C   UNL A   1      37.439  22.138  25.786  1.00  0.00     0.082 C 
ATOM     18  C   UNL A   1      35.913  23.852  25.421  1.00  0.00    -0.011 C 
ATOM     19  C   UNL A   1      36.172  21.563  25.366  1.00  0.00     0.092 A 
ATOM     20  C   UNL A   1      35.266  22.565  25.002  1.00  0.00     0.014 A 
ATOM     21  N   UNL A   1      35.993  20.231  25.284  1.00  0.00    -0.228 NA
ATOM     22  C   UNL A   1      34.134  22.128  24.316  1.00  0.00    -0.019 A 
ATOM     23  C   UNL A   1      34.844  19.825  24.726  1.00  0.00     0.142 A 
ATOM     24  C   UNL A   1      33.938  20.728  24.158  1.00  0.00     0.098 A 
ATOM     25  C   UNL A   1      33.187  23.081  23.677  1.00  0.00     0.046 C 
BRANCH  17  26
ATOM     26  C   UNL A   1      38.697  21.317  26.017  1.00  0.00     0.102 C 
ATOM     27  N   UNL A   1      39.740  20.635  26.209  1.00  0.00    -0.192 NA
ENDBRANCH  17  26
BRANCH  23  28
ATOM     28  N   UNL A   1      34.669  18.456  24.677  1.00  0.00    -0.383 N 
ATOM     29  H   UNL A   1      33.761  18.077  24.635  1.00  0.00     0.158 HD
ATOM     30  H   UNL A   1      35.452  17.860  24.683  1.00  0.00     0.158 HD
ENDBRANCH  23  28
BRANCH  24  31
ATOM     31  C   UNL A   1      32.846  20.203  23.385  1.00  0.00     0.103 C 
ATOM     32  N   UNL A   1      31.979  19.766  22.755  1.00  0.00    -0.192 NA
ENDBRANCH  24  31
ENDBRANCH   8  14
ENDBRANCH   6   7
ENDBRANCH   5   6
ENDBRANCH   3   5
ENDBRANCH   2   3
ENDBRANCH   1   2
BRANCH   1  33
ATOM     33  C   UNL A   1      31.511  29.766  25.614  1.00  0.00     0.275 C 
BRANCH  33  34
ATOM     34  O   UNL A   1      32.906  30.130  25.639  1.00  0.00    -0.458 OA
BRANCH  34  35
ATOM     35  C   UNL A   1      33.221  30.865  26.720  1.00  0.00     0.338 C 
ATOM     36  O   UNL A   1      32.507  31.660  27.303  1.00  0.00    -0.246 OA
BRANCH  35  37
ATOM     37  C   UNL A   1      34.541  30.605  27.256  1.00  0.00     0.060 A 
ATOM     38  C   UNL A   1      34.806  29.311  27.689  1.00  0.00     0.016 A 
ATOM     39  C   UNL A   1      35.336  31.686  27.642  1.00  0.00     0.016 A 
ATOM     40  C   UNL A   1      35.860  29.101  28.561  1.00  0.00     0.010 A 
ATOM     41  C   UNL A   1      36.456  31.452  28.435  1.00  0.00     0.010 A 
ATOM     42  C   UNL A   1      36.719  30.157  28.905  1.00  0.00    -0.014 A 
BRANCH  42  43
ATOM     43  C   UNL A   1      37.952  29.851  29.663  1.00  0.00     0.031 A 
ATOM     44  C   UNL A   1      39.034  28.985  29.100  1.00  0.00     0.074 A 
ATOM     45  C   UNL A   1      38.064  30.393  30.889  1.00  0.00     0.049 A 
ATOM     46  N   UNL A   1      40.135  28.572  29.673  1.00  0.00    -0.248 NA
ATOM     47  C   UNL A   1      38.858  28.505  27.721  1.00  0.00     0.031 C 
ATOM     48  C   UNL A   1      37.066  31.268  31.512  1.00  0.00     0.029 A 
ATOM     49  N   UNL A   1      39.063  30.316  31.820  1.00  0.00    -0.354 N 
ATOM     50  C   UNL A   1      40.775  27.772  28.738  1.00  0.00     0.074 A 
ATOM     51  C   UNL A   1      39.919  27.724  27.570  1.00  0.00     0.031 C 
ATOM     52  C   UNL A   1      37.535  31.708  32.683  1.00  0.00     0.029 A 
ATOM     53  C   UNL A   1      38.810  31.058  32.946  1.00  0.00     0.049 A 
ATOM     54  H   UNL A   1      39.881  29.783  31.695  1.00  0.00     0.167 HD
ATOM     55  C   UNL A   1      41.974  27.147  28.853  1.00  0.00     0.037 A 
ATOM     56  C   UNL A   1      39.511  31.180  34.085  1.00  0.00     0.037 A 
ATOM     57  C   UNL A   1      42.804  27.218  30.032  1.00  0.00     0.049 A 
ATOM     58  C   UNL A   1      40.789  30.416  34.216  1.00  0.00     0.074 A 
ATOM     59  C   UNL A   1      44.033  26.628  30.259  1.00  0.00     0.029 A 
ATOM     60  N   UNL A   1      42.482  27.924  31.186  1.00  0.00    -0.354 N 
ATOM     61  N   UNL A   1      41.386  29.651  33.334  1.00  0.00    -0.248 NA
ATOM     62  C   UNL A   1      41.487  30.518  35.502  1.00  0.00     0.031 C 
ATOM     63  C   UNL A   1      44.425  26.922  31.569  1.00  0.00     0.029 A 
ATOM     64  C   UNL A   1      43.475  27.755  32.141  1.00  0.00     0.049 A 
ATOM     65  H   UNL A   1      41.669  28.464  31.309  1.00  0.00     0.167 HD
ATOM     66  C   UNL A   1      42.537  29.188  33.947  1.00  0.00     0.074 A 
ATOM     67  C   UNL A   1      42.565  29.779  35.273  1.00  0.00     0.031 C 
ATOM     68  C   UNL A   1      43.481  28.347  33.458  1.00  0.00     0.037 A 
BRANCH  55  69
ATOM     69  C   UNL A   1      42.444  26.314  27.690  1.00  0.00     0.064 A 
ATOM     70  C   UNL A   1      43.393  26.791  26.771  1.00  0.00     0.173 A 
ATOM     71  C   UNL A   1      41.960  25.010  27.504  1.00  0.00     0.173 A 
ATOM     72  F   UNL A   1      43.886  28.033  26.893  1.00  0.00    -0.203 F 
ATOM     73  C   UNL A   1      43.805  26.012  25.692  1.00  0.00     0.198 A 
ATOM     74  C   UNL A   1      42.403  24.219  26.447  1.00  0.00     0.198 A 
ATOM     75  F   UNL A   1      41.059  24.494  28.354  1.00  0.00    -0.203 F 
ATOM     76  F   UNL A   1      44.661  26.516  24.792  1.00  0.00    -0.200 F 
ATOM     77  C   UNL A   1      43.316  24.725  25.534  1.00  0.00     0.200 A 
ATOM     78  F   UNL A   1      41.942  22.968  26.306  1.00  0.00    -0.200 F 
ATOM     79  F   UNL A   1      43.715  23.976  24.497  1.00  0.00    -0.200 F 
ENDBRANCH  55  69
BRANCH  56  80
ATOM     80  C   UNL A   1      38.997  32.076  35.151  1.00  0.00     0.064 A 
ATOM     81  C   UNL A   1      38.313  31.548  36.252  1.00  0.00     0.173 A 
ATOM     82  C   UNL A   1      39.278  33.451  35.151  1.00  0.00     0.173 A 
ATOM     83  F   UNL A   1      38.015  30.241  36.291  1.00  0.00    -0.203 F 
ATOM     84  C   UNL A   1      37.939  32.360  37.320  1.00  0.00     0.198 A 
ATOM     85  C   UNL A   1      38.933  34.255  36.233  1.00  0.00     0.198 A 
ATOM     86  F   UNL A   1      39.947  34.001  34.126  1.00  0.00    -0.203 F 
ATOM     87  F   UNL A   1      37.277  31.833  38.359  1.00  0.00    -0.200 F 
ATOM     88  C   UNL A   1      38.263  33.709  37.317  1.00  0.00     0.200 A 
ATOM     89  F   UNL A   1      39.277  35.551  36.240  1.00  0.00    -0.200 F 
ATOM     90  F   UNL A   1      37.936  34.481  38.362  1.00  0.00    -0.200 F 
ENDBRANCH  56  80
BRANCH  68  91
ATOM     91  C   UNL A   1      44.636  28.019  34.360  1.00  0.00     0.064 A 
ATOM     92  C   UNL A   1      45.788  28.816  34.398  1.00  0.00     0.173 A 
ATOM     93  C   UNL A   1      44.561  26.929  35.242  1.00  0.00     0.173 A 
ATOM     94  F   UNL A   1      45.915  29.859  33.562  1.00  0.00    -0.203 F 
ATOM     95  C   UNL A   1      46.831  28.527  35.273  1.00  0.00     0.198 A 
ATOM     96  C   UNL A   1      45.589  26.665  36.141  1.00  0.00     0.198 A 
ATOM     97  F   UNL A   1      43.479  26.136  35.249  1.00  0.00    -0.203 F 
ATOM     98  F   UNL A   1      47.941  29.277  35.260  1.00  0.00    -0.200 F 
ATOM     99  C   UNL A   1      46.724  27.460  36.152  1.00  0.00     0.200 A 
ATOM    100  F   UNL A   1      45.477  25.645  37.004  1.00  0.00    -0.200 F 
ATOM    101  F   UNL A   1      47.720  27.196  37.009  1.00  0.00    -0.200 F 
ENDBRANCH  68  91
ENDBRANCH  42  43
ENDBRANCH  35  37
ENDBRANCH  34  35
ENDBRANCH  33  34
ENDBRANCH   1  33
TORSDOF 17
ENDMDL
MODEL 3
REMARK VINA RESULT:     -12.5      4.774     10.308
REMARK SMILES CC1=C(C#N)c2nc(N)c(C#N)c(C)c2/C1=C\c1ccc(OCC(=O)OCCOC(=O)c2ccc(-c3c4nc(c(-c5c(F)c(F)c(F)c(F)c5F)c5ccc([nH]5)c(-c5c(F)c(F)c(F)c(F)c5F)c5nc(c(-c6c(F)c(F)c(F)c(F)c6F)c6ccc3[nH]6)C=C5)C=C4)cc2)c(Cl)c1
REMARK SMILES IDX 27 1 26 2 24 3 25 4 23 5 22 6 21 7 18 8 19 9 97 10 20 11
REMARK SMILES IDX 95 12 96 13 17 14 1 15 2 16 3 17 16 18 6 19 15 20 7 21 13 22
REMARK SMILES IDX 8 23 10 24 14 25 4 26 5 27 9 28 11 31 12 32 28 33 29 34
REMARK SMILES IDX 30 35 31 36 32 37 33 38 94 39 34 40 93 41 35 42 36 43 37 44
REMARK SMILES IDX 87 45 38 46 92 47 86 48 88 49 39 50 91 51 85 52 84 53 40 55
REMARK SMILES IDX 72 56 52 57 71 58 53 59 56 60 70 61 89 62 54 63 55 64 69 66
REMARK SMILES IDX 90 67 57 68 41 69 42 70 50 71 43 72 44 73 48 74 51 75 45 76
REMARK SMILES IDX 46 77 49 78 47 79 73 80 74 81 82 82 75 83 76 84 80 85 83 86
REMARK SMILES IDX 77 87 78 88 81 89 79 90 58 91 59 92 67 93 60 94 61 95 65 96
REMARK SMILES IDX 68 97 62 98 63 99 66 100 64 101
REMARK H PARENT 9 29 9 30 88 54 56 65
REMARK Flexibility Score: inf
ROOT
ATOM      1  C   UNL A   1      35.612  22.380  25.752  1.00  0.00     0.274 C 
ENDROOT
BRANCH   1   2
ATOM      2  O   UNL A   1      34.251  22.090  25.324  1.00  0.00    -0.460 OA
BRANCH   2   3
ATOM      3  C   UNL A   1      33.335  21.989  26.321  1.00  0.00     0.344 C 
ATOM      4  O   UNL A   1      33.637  21.792  27.499  1.00  0.00    -0.248 OA
BRANCH   3   5
ATOM      5  C   UNL A   1      31.852  22.110  25.893  1.00  0.00     0.352 C 
BRANCH   5   6
ATOM      6  O   UNL A   1      31.330  22.540  24.650  1.00  0.00    -0.480 OA
BRANCH   6   7
ATOM      7  C   UNL A   1      31.267  23.855  24.283  1.00  0.00     0.138 A 
ATOM      8  C   UNL A   1      30.409  26.466  23.576  1.00  0.00    -0.023 A 
ATOM      9  C   UNL A   1      30.091  25.934  24.826  1.00  0.00     0.012 A 
ATOM     10  C   UNL A   1      31.383  25.804  22.822  1.00  0.00     0.032 A 
ATOM     11  C   UNL A   1      30.482  24.624  25.152  1.00  0.00     0.048 A 
ATOM     12  C   UNL A   1      31.865  24.536  23.221  1.00  0.00     0.083 A 
ATOM     13  Cl  UNL A   1      33.338  24.019  22.489  1.00  0.00    -0.080 Cl
BRANCH   8  14
ATOM     14  C   UNL A   1      29.738  27.685  23.091  1.00  0.00     0.017 C 
ATOM     15  C   UNL A   1      28.164  29.869  21.664  1.00  0.00     0.046 C 
ATOM     16  C   UNL A   1      29.055  30.066  22.846  1.00  0.00    -0.023 C 
ATOM     17  C   UNL A   1      29.287  31.229  23.489  1.00  0.00     0.082 C 
ATOM     18  C   UNL A   1      29.877  28.982  23.469  1.00  0.00    -0.011 C 
ATOM     19  C   UNL A   1      30.219  30.974  24.575  1.00  0.00     0.092 A 
ATOM     20  C   UNL A   1      30.707  29.663  24.516  1.00  0.00     0.014 A 
ATOM     21  N   UNL A   1      30.581  31.942  25.439  1.00  0.00    -0.228 NA
ATOM     22  C   UNL A   1      31.813  29.400  25.323  1.00  0.00    -0.019 A 
ATOM     23  C   UNL A   1      31.569  31.632  26.290  1.00  0.00     0.142 A 
ATOM     24  C   UNL A   1      32.261  30.418  26.209  1.00  0.00     0.098 A 
ATOM     25  C   UNL A   1      32.576  28.127  25.215  1.00  0.00     0.046 C 
BRANCH  17  26
ATOM     26  C   UNL A   1      28.767  32.614  23.139  1.00  0.00     0.102 C 
ATOM     27  N   UNL A   1      28.334  33.761  22.849  1.00  0.00    -0.192 NA
ENDBRANCH  17  26
BRANCH  23  28
ATOM     28  N   UNL A   1      31.905  32.629  27.183  1.00  0.00    -0.383 N 
ATOM     29  H   UNL A   1      31.645  32.549  28.130  1.00  0.00     0.158 HD
ATOM     30  H   UNL A   1      32.405  33.419  26.874  1.00  0.00     0.158 HD
ENDBRANCH  23  28
BRANCH  24  31
ATOM     31  C   UNL A   1      33.447  30.255  27.004  1.00  0.00     0.103 C 
ATOM     32  N   UNL A   1      34.408  30.143  27.640  1.00  0.00    -0.192 NA
ENDBRANCH  24  31
ENDBRANCH   8  14
ENDBRANCH   6   7
ENDBRANCH   5   6
ENDBRANCH   3   5
ENDBRANCH   2   3
ENDBRANCH   1   2
BRANCH   1  33
ATOM     33  C   UNL A   1      36.576  21.224  25.460  1.00  0.00     0.275 C 
BRANCH  33  34
ATOM     34  O   UNL A   1      37.884  21.668  25.051  1.00  0.00    -0.458 OA
BRANCH  34  35
ATOM     35  C   UNL A   1      38.815  21.453  25.998  1.00  0.00     0.338 C 
ATOM     36  O   UNL A   1      39.255  20.380  26.366  1.00  0.00    -0.246 OA
BRANCH  35  37
ATOM     37  C   UNL A   1      39.372  22.659  26.575  1.00  0.00     0.060 A 
ATOM     38  C   UNL A   1      39.008  23.867  25.992  1.00  0.00     0.016 A 
ATOM     39  C   UNL A   1      40.484  22.553  27.412  1.00  0.00     0.016 A 
ATOM     40  C   UNL A   1      39.798  24.981  26.215  1.00  0.00     0.010 A 
ATOM     41  C   UNL A   1      41.213  23.700  27.716  1.00  0.00     0.010 A 
ATOM     42  C   UNL A   1      40.876  24.920  27.112  1.00  0.00    -0.014 A 
BRANCH  42  43
ATOM     43  C   UNL A   1      41.560  26.176  27.486  1.00  0.00     0.031 A 
ATOM     44  C   UNL A   1      40.902  27.213  28.340  1.00  0.00     0.074 A 
ATOM     45  C   UNL A   1      42.813  26.349  27.027  1.00  0.00     0.049 A 
ATOM     46  N   UNL A   1      41.349  28.391  28.690  1.00  0.00    -0.248 NA
ATOM     47  C   UNL A   1      39.563  26.899  28.861  1.00  0.00     0.031 C 
ATOM     48  C   UNL A   1      43.544  25.380  26.204  1.00  0.00     0.029 A 
ATOM     49  N   UNL A   1      43.704  27.372  27.201  1.00  0.00    -0.354 N 
ATOM     50  C   UNL A   1      40.346  28.969  29.455  1.00  0.00     0.074 A 
ATOM     51  C   UNL A   1      39.246  28.026  29.486  1.00  0.00     0.031 C 
ATOM     52  C   UNL A   1      44.791  25.818  26.009  1.00  0.00     0.029 A 
ATOM     53  C   UNL A   1      44.912  27.146  26.594  1.00  0.00     0.049 A 
ATOM     54  H   UNL A   1      43.498  28.190  27.710  1.00  0.00     0.167 HD
ATOM     55  C   UNL A   1      40.357  30.174  30.077  1.00  0.00     0.037 A 
ATOM     56  C   UNL A   1      45.996  27.932  26.488  1.00  0.00     0.037 A 
ATOM     57  C   UNL A   1      41.472  31.090  30.028  1.00  0.00     0.049 A 
ATOM     58  C   UNL A   1      45.952  29.288  27.115  1.00  0.00     0.074 A 
ATOM     59  C   UNL A   1      41.595  32.334  30.619  1.00  0.00     0.029 A 
ATOM     60  N   UNL A   1      42.660  30.857  29.341  1.00  0.00    -0.354 N 
ATOM     61  N   UNL A   1      44.996  29.835  27.828  1.00  0.00    -0.248 NA
ATOM     62  C   UNL A   1      47.125  30.144  26.915  1.00  0.00     0.031 C 
ATOM     63  C   UNL A   1      42.825  32.880  30.238  1.00  0.00     0.029 A 
ATOM     64  C   UNL A   1      43.505  31.950  29.467  1.00  0.00     0.049 A 
ATOM     65  H   UNL A   1      42.870  30.037  28.839  1.00  0.00     0.167 HD
ATOM     66  C   UNL A   1      45.454  31.094  28.176  1.00  0.00     0.074 A 
ATOM     67  C   UNL A   1      46.785  31.220  27.611  1.00  0.00     0.031 C 
ATOM     68  C   UNL A   1      44.825  32.059  28.892  1.00  0.00     0.037 A 
BRANCH  55  69
ATOM     69  C   UNL A   1      39.124  30.582  30.838  1.00  0.00     0.064 A 
ATOM     70  C   UNL A   1      38.041  31.217  30.210  1.00  0.00     0.173 A 
ATOM     71  C   UNL A   1      39.010  30.312  32.211  1.00  0.00     0.173 A 
ATOM     72  F   UNL A   1      38.095  31.508  28.901  1.00  0.00    -0.203 F 
ATOM     73  C   UNL A   1      36.914  31.602  30.933  1.00  0.00     0.198 A 
ATOM     74  C   UNL A   1      37.866  30.662  32.924  1.00  0.00     0.198 A 
ATOM     75  F   UNL A   1      40.008  29.699  32.866  1.00  0.00    -0.203 F 
ATOM     76  F   UNL A   1      35.922  32.266  30.322  1.00  0.00    -0.200 F 
ATOM     77  C   UNL A   1      36.824  31.318  32.287  1.00  0.00     0.200 A 
ATOM     78  F   UNL A   1      37.773  30.372  34.229  1.00  0.00    -0.200 F 
ATOM     79  F   UNL A   1      35.738  31.687  32.981  1.00  0.00    -0.200 F 
ENDBRANCH  55  69
BRANCH  56  80
ATOM     80  C   UNL A   1      47.189  27.416  25.772  1.00  0.00     0.064 A 
ATOM     81  C   UNL A   1      47.343  27.639  24.399  1.00  0.00     0.173 A 
ATOM     82  C   UNL A   1      48.247  26.800  26.459  1.00  0.00     0.173 A 
ATOM     83  F   UNL A   1      46.355  28.218  23.699  1.00  0.00    -0.203 F 
ATOM     84  C   UNL A   1      48.515  27.274  23.740  1.00  0.00     0.198 A 
ATOM     85  C   UNL A   1      49.430  26.466  25.807  1.00  0.00     0.198 A 
ATOM     86  F   UNL A   1      48.154  26.581  27.780  1.00  0.00    -0.203 F 
ATOM     87  F   UNL A   1      48.635  27.490  22.423  1.00  0.00    -0.200 F 
ATOM     88  C   UNL A   1      49.563  26.703  24.447  1.00  0.00     0.200 A 
ATOM     89  F   UNL A   1      50.452  25.944  26.500  1.00  0.00    -0.200 F 
ATOM     90  F   UNL A   1      50.704  26.388  23.819  1.00  0.00    -0.200 F 
ENDBRANCH  56  80
BRANCH  68  91
ATOM     91  C   UNL A   1      45.576  33.340  29.117  1.00  0.00     0.064 A 
ATOM     92  C   UNL A   1      45.441  34.433  28.250  1.00  0.00     0.173 A 
ATOM     93  C   UNL A   1      46.392  33.495  30.249  1.00  0.00     0.173 A 
ATOM     94  F   UNL A   1      44.687  34.329  27.145  1.00  0.00    -0.203 F 
ATOM     95  C   UNL A   1      46.107  35.630  28.498  1.00  0.00     0.198 A 
ATOM     96  C   UNL A   1      47.026  34.704  30.513  1.00  0.00     0.198 A 
ATOM     97  F   UNL A   1      46.552  32.480  31.112  1.00  0.00    -0.203 F 
ATOM     98  F   UNL A   1      45.998  36.646  27.632  1.00  0.00    -0.200 F 
ATOM     99  C   UNL A   1      46.887  35.768  29.636  1.00  0.00     0.200 A 
ATOM    100  F   UNL A   1      47.764  34.843  31.623  1.00  0.00    -0.200 F 
ATOM    101  F   UNL A   1      47.510  36.929  29.884  1.00  0.00    -0.200 F 
ENDBRANCH  68  91
ENDBRANCH  42  43
ENDBRANCH  35  37
ENDBRANCH  34  35
ENDBRANCH  33  34
ENDBRANCH   1  33
TORSDOF 17
ENDMDL
