MODEL 1
REMARK VINA RESULT:     -12.4      0.000      0.000
REMARK SMILES C[C@@H]1CC[C@H]([N@@H+]2[C@@H](C(=O)OCCOC(=O)c3ccc(-c4c5nc(c(-c6c(F)c(F)c(F)c(F)c6F)c6ccc([nH]6)c(-c6c(F)c(F)c(F)c(F)c6F)c6nc(c(-c7c(F)c(F)c(F)c(F)c7F)c7ccc4[nH]7)C=C6)C=C5)cc3)C[C@H]3CCCC[C@H]32)C1
REMARK SMILES IDX 12 1 11 2 10 3 8 4 9 5 7 6 6 7 85 8 79 10 80 11 84 12 81 13
REMARK SMILES IDX 83 14 82 15 5 16 1 17 2 18 3 19 86 20 4 21 13 22 14 23 15 24
REMARK SMILES IDX 16 25 17 26 78 27 18 28 77 29 19 30 20 31 21 32 71 33 22 34
REMARK SMILES IDX 76 35 70 36 72 37 23 38 75 39 69 40 68 41 24 43 56 44 36 45
REMARK SMILES IDX 55 46 37 47 40 48 54 49 73 50 38 51 39 52 53 54 74 55 41 56
REMARK SMILES IDX 25 57 26 58 34 59 27 60 28 61 32 62 35 63 29 64 30 65 33 66
REMARK SMILES IDX 31 67 57 68 58 69 66 70 59 71 60 72 64 73 67 74 61 75 62 76
REMARK SMILES IDX 65 77 63 78 42 79 43 80 51 81 44 82 45 83 49 84 52 85 46 86
REMARK SMILES IDX 47 87 50 88 48 89
REMARK H PARENT 6 9 72 42 40 53
REMARK Flexibility Score: inf
ROOT
ATOM      1  C   UNL A   1      32.341  29.684  25.139  1.00  0.00     0.275 C 
ENDROOT
BRANCH   1   2
ATOM      2  C   UNL A   1      33.341  28.653  24.616  1.00  0.00     0.274 C 
BRANCH   2   3
ATOM      3  O   UNL A   1      32.722  27.361  24.437  1.00  0.00    -0.458 OA
BRANCH   3   4
ATOM      4  C   UNL A   1      33.525  26.411  23.869  1.00  0.00     0.365 C 
ATOM      5  O   UNL A   1      33.626  26.246  22.659  1.00  0.00    -0.245 OA
BRANCH   4   6
ATOM      6  C   UNL A   1      34.255  25.592  24.959  1.00  0.00     0.296 C 
ATOM      7  N   UNL A   1      34.663  24.251  24.432  1.00  0.00    -0.318 N 
ATOM      8  C   UNL A   1      33.731  23.263  24.996  1.00  0.00     0.188 C 
ATOM      9  H   UNL A   1      34.576  24.219  23.416  1.00  0.00     0.349 HD
ATOM     10  C   UNL A   1      33.293  25.329  26.126  1.00  0.00     0.087 C 
ATOM     11  C   UNL A   1      33.353  23.824  26.363  1.00  0.00     0.054 C 
ATOM     12  C   UNL A   1      32.517  23.068  24.069  1.00  0.00     0.065 C 
ATOM     13  C   UNL A   1      32.116  23.191  26.992  1.00  0.00     0.010 C 
ATOM     14  C   UNL A   1      31.413  22.273  24.755  1.00  0.00     0.006 C 
ATOM     15  C   UNL A   1      30.958  22.987  26.023  1.00  0.00     0.001 C 
BRANCH   7  16
ATOM     16  C   UNL A   1      36.105  23.956  24.548  1.00  0.00     0.185 C 
ATOM     17  C   UNL A   1      36.290  20.639  25.007  1.00  0.00     0.008 C 
ATOM     18  C   UNL A   1      37.239  21.751  24.572  1.00  0.00    -0.008 C 
ATOM     19  C   UNL A   1      37.751  22.583  25.744  1.00  0.00     0.009 C 
ATOM     20  C   UNL A   1      36.588  22.790  23.657  1.00  0.00     0.068 C 
ATOM     21  C   UNL A   1      36.725  23.699  25.932  1.00  0.00     0.065 C 
ENDBRANCH   7  16
ENDBRANCH   4   6
ENDBRANCH   3   4
ENDBRANCH   2   3
ENDBRANCH   1   2
BRANCH   1  22
ATOM     22  O   UNL A   1      32.481  29.854  26.561  1.00  0.00    -0.458 OA
BRANCH  22  23
ATOM     23  C   UNL A   1      33.021  31.021  26.967  1.00  0.00     0.338 C 
ATOM     24  O   UNL A   1      32.525  32.140  26.900  1.00  0.00    -0.246 OA
BRANCH  23  25
ATOM     25  C   UNL A   1      34.339  30.777  27.566  1.00  0.00     0.060 A 
ATOM     26  C   UNL A   1      34.667  29.487  27.966  1.00  0.00     0.016 A 
ATOM     27  C   UNL A   1      35.201  31.836  27.850  1.00  0.00     0.016 A 
ATOM     28  C   UNL A   1      35.820  29.254  28.706  1.00  0.00     0.010 A 
ATOM     29  C   UNL A   1      36.402  31.586  28.528  1.00  0.00     0.010 A 
ATOM     30  C   UNL A   1      36.711  30.293  28.988  1.00  0.00    -0.014 A 
BRANCH  30  31
ATOM     31  C   UNL A   1      37.936  30.014  29.784  1.00  0.00     0.031 A 
ATOM     32  C   UNL A   1      39.042  29.171  29.213  1.00  0.00     0.074 A 
ATOM     33  C   UNL A   1      38.083  30.552  31.011  1.00  0.00     0.049 A 
ATOM     34  N   UNL A   1      40.104  28.685  29.807  1.00  0.00    -0.248 NA
ATOM     35  C   UNL A   1      38.940  28.823  27.788  1.00  0.00     0.031 C 
ATOM     36  C   UNL A   1      37.121  31.440  31.664  1.00  0.00     0.029 A 
ATOM     37  N   UNL A   1      39.104  30.442  31.922  1.00  0.00    -0.354 N 
ATOM     38  C   UNL A   1      40.757  27.921  28.849  1.00  0.00     0.074 A 
ATOM     39  C   UNL A   1      39.983  28.020  27.630  1.00  0.00     0.031 C 
ATOM     40  C   UNL A   1      37.613  31.827  32.850  1.00  0.00     0.029 A 
ATOM     41  C   UNL A   1      38.876  31.137  33.084  1.00  0.00     0.049 A 
ATOM     42  H   UNL A   1      39.920  29.917  31.759  1.00  0.00     0.167 HD
ATOM     43  C   UNL A   1      41.895  27.196  28.984  1.00  0.00     0.037 A 
ATOM     44  C   UNL A   1      39.572  31.177  34.236  1.00  0.00     0.037 A 
ATOM     45  C   UNL A   1      42.697  27.154  30.178  1.00  0.00     0.049 A 
ATOM     46  C   UNL A   1      40.811  30.344  34.373  1.00  0.00     0.074 A 
ATOM     47  C   UNL A   1      43.890  26.486  30.395  1.00  0.00     0.029 A 
ATOM     48  N   UNL A   1      42.393  27.820  31.356  1.00  0.00    -0.354 N 
ATOM     49  N   UNL A   1      41.385  29.568  33.487  1.00  0.00    -0.248 NA
ATOM     50  C   UNL A   1      41.480  30.362  35.681  1.00  0.00     0.031 C 
ATOM     51  C   UNL A   1      44.288  26.717  31.717  1.00  0.00     0.029 A 
ATOM     52  C   UNL A   1      43.360  27.557  32.313  1.00  0.00     0.049 A 
ATOM     53  H   UNL A   1      41.606  28.396  31.493  1.00  0.00     0.167 HD
ATOM     54  C   UNL A   1      42.467  28.988  34.132  1.00  0.00     0.074 A 
ATOM     55  C   UNL A   1      42.493  29.532  35.475  1.00  0.00     0.031 C 
ATOM     56  C   UNL A   1      43.350  28.077  33.656  1.00  0.00     0.037 A 
BRANCH  43  57
ATOM     57  C   UNL A   1      42.309  26.344  27.822  1.00  0.00     0.064 A 
ATOM     58  C   UNL A   1      41.720  25.100  27.557  1.00  0.00     0.173 A 
ATOM     59  C   UNL A   1      43.306  26.800  26.944  1.00  0.00     0.173 A 
ATOM     60  F   UNL A   1      40.773  24.614  28.373  1.00  0.00    -0.203 F 
ATOM     61  C   UNL A   1      42.133  24.330  26.471  1.00  0.00     0.198 A 
ATOM     62  C   UNL A   1      43.700  26.039  25.847  1.00  0.00     0.198 A 
ATOM     63  F   UNL A   1      43.898  27.985  27.151  1.00  0.00    -0.203 F 
ATOM     64  F   UNL A   1      41.589  23.123  26.261  1.00  0.00    -0.200 F 
ATOM     65  C   UNL A   1      43.119  24.801  25.615  1.00  0.00     0.200 A 
ATOM     66  F   UNL A   1      44.646  26.499  25.017  1.00  0.00    -0.200 F 
ATOM     67  F   UNL A   1      43.514  24.059  24.572  1.00  0.00    -0.200 F 
ENDBRANCH  43  57
BRANCH  44  68
ATOM     68  C   UNL A   1      39.053  31.985  35.367  1.00  0.00     0.064 A 
ATOM     69  C   UNL A   1      38.304  31.397  36.393  1.00  0.00     0.173 A 
ATOM     70  C   UNL A   1      39.349  33.354  35.472  1.00  0.00     0.173 A 
ATOM     71  F   UNL A   1      37.974  30.099  36.321  1.00  0.00    -0.203 F 
ATOM     72  C   UNL A   1      37.878  32.145  37.489  1.00  0.00     0.198 A 
ATOM     73  C   UNL A   1      38.947  34.093  36.581  1.00  0.00     0.198 A 
ATOM     74  F   UNL A   1      40.062  33.961  34.512  1.00  0.00    -0.203 F 
ATOM     75  F   UNL A   1      37.147  31.566  38.449  1.00  0.00    -0.200 F 
ATOM     76  C   UNL A   1      38.211  33.488  37.587  1.00  0.00     0.200 A 
ATOM     77  F   UNL A   1      39.284  35.386  36.679  1.00  0.00    -0.200 F 
ATOM     78  F   UNL A   1      37.823  34.201  38.654  1.00  0.00    -0.200 F 
ENDBRANCH  44  68
BRANCH  56  79
ATOM     79  C   UNL A   1      44.398  27.588  34.609  1.00  0.00     0.064 A 
ATOM     80  C   UNL A   1      44.196  26.427  35.371  1.00  0.00     0.173 A 
ATOM     81  C   UNL A   1      45.619  28.262  34.745  1.00  0.00     0.173 A 
ATOM     82  F   UNL A   1      43.036  25.759  35.288  1.00  0.00    -0.203 F 
ATOM     83  C   UNL A   1      45.175  25.969  36.248  1.00  0.00     0.198 A 
ATOM     84  C   UNL A   1      46.604  27.789  35.607  1.00  0.00     0.198 A 
ATOM     85  F   UNL A   1      45.858  29.376  34.036  1.00  0.00    -0.203 F 
ATOM     86  F   UNL A   1      44.947  24.879  36.993  1.00  0.00    -0.200 F 
ATOM     87  C   UNL A   1      46.379  26.647  36.361  1.00  0.00     0.200 A 
ATOM     88  F   UNL A   1      47.770  28.442  35.712  1.00  0.00    -0.200 F 
ATOM     89  F   UNL A   1      47.323  26.203  37.204  1.00  0.00    -0.200 F 
ENDBRANCH  56  79
ENDBRANCH  30  31
ENDBRANCH  23  25
ENDBRANCH  22  23
ENDBRANCH   1  22
TORSDOF 12
ENDMDL
MODEL 2
REMARK VINA RESULT:     -12.4      0.372      1.663
REMARK SMILES C[C@@H]1CC[C@H]([N@@H+]2[C@@H](C(=O)OCCOC(=O)c3ccc(-c4c5nc(c(-c6c(F)c(F)c(F)c(F)c6F)c6ccc([nH]6)c(-c6c(F)c(F)c(F)c(F)c6F)c6nc(c(-c7c(F)c(F)c(F)c(F)c7F)c7ccc4[nH]7)C=C6)C=C5)cc3)C[C@H]3CCCC[C@H]32)C1
REMARK SMILES IDX 12 1 11 2 10 3 8 4 9 5 7 6 6 7 85 8 79 10 80 11 84 12 81 13
REMARK SMILES IDX 83 14 82 15 5 16 1 17 2 18 3 19 86 20 4 21 13 22 14 23 15 24
REMARK SMILES IDX 16 25 17 26 78 27 18 28 77 29 19 30 20 31 21 32 71 33 22 34
REMARK SMILES IDX 76 35 70 36 72 37 23 38 75 39 69 40 68 41 24 43 56 44 36 45
REMARK SMILES IDX 55 46 37 47 40 48 54 49 73 50 38 51 39 52 53 54 74 55 41 56
REMARK SMILES IDX 25 57 26 58 34 59 27 60 28 61 32 62 35 63 29 64 30 65 33 66
REMARK SMILES IDX 31 67 57 68 58 69 66 70 59 71 60 72 64 73 67 74 61 75 62 76
REMARK SMILES IDX 65 77 63 78 42 79 43 80 51 81 44 82 45 83 49 84 52 85 46 86
REMARK SMILES IDX 47 87 50 88 48 89
REMARK H PARENT 6 9 72 42 40 53
REMARK Flexibility Score: inf
ROOT
ATOM      1  C   UNL A   1      31.737  29.500  25.714  1.00  0.00     0.275 C 
ENDROOT
BRANCH   1   2
ATOM      2  C   UNL A   1      31.962  28.156  25.022  1.00  0.00     0.274 C 
BRANCH   2   3
ATOM      3  O   UNL A   1      33.188  27.534  25.463  1.00  0.00    -0.458 OA
BRANCH   3   4
ATOM      4  C   UNL A   1      33.707  26.607  24.602  1.00  0.00     0.365 C 
ATOM      5  O   UNL A   1      33.650  26.710  23.383  1.00  0.00    -0.245 OA
BRANCH   4   6
ATOM      6  C   UNL A   1      34.349  25.437  25.384  1.00  0.00     0.296 C 
ATOM      7  N   UNL A   1      34.795  24.355  24.450  1.00  0.00    -0.318 N 
ATOM      8  C   UNL A   1      33.820  23.260  24.560  1.00  0.00     0.188 C 
ATOM      9  H   UNL A   1      34.788  24.685  23.484  1.00  0.00     0.349 HD
ATOM     10  C   UNL A   1      33.297  24.809  26.310  1.00  0.00     0.087 C 
ATOM     11  C   UNL A   1      33.337  23.316  26.005  1.00  0.00     0.054 C 
ATOM     12  C   UNL A   1      32.682  23.438  23.537  1.00  0.00     0.065 C 
ATOM     13  C   UNL A   1      32.053  22.537  26.278  1.00  0.00     0.010 C 
ATOM     14  C   UNL A   1      31.527  22.484  23.816  1.00  0.00     0.006 C 
ATOM     15  C   UNL A   1      30.975  22.721  25.218  1.00  0.00     0.001 C 
BRANCH   7  16
ATOM     16  C   UNL A   1      36.222  23.997  24.560  1.00  0.00     0.185 C 
ATOM     17  C   UNL A   1      36.264  20.673  25.004  1.00  0.00     0.008 C 
ATOM     18  C   UNL A   1      37.260  21.745  24.570  1.00  0.00    -0.008 C 
ATOM     19  C   UNL A   1      37.811  22.548  25.744  1.00  0.00     0.009 C 
ATOM     20  C   UNL A   1      36.652  22.815  23.662  1.00  0.00     0.068 C 
ATOM     21  C   UNL A   1      36.835  23.707  25.940  1.00  0.00     0.065 C 
ENDBRANCH   7  16
ENDBRANCH   4   6
ENDBRANCH   3   4
ENDBRANCH   2   3
ENDBRANCH   1   2
BRANCH   1  22
ATOM     22  O   UNL A   1      32.954  30.268  25.742  1.00  0.00    -0.458 OA
BRANCH  22  23
ATOM     23  C   UNL A   1      33.116  31.082  26.805  1.00  0.00     0.338 C 
ATOM     24  O   UNL A   1      32.321  31.901  27.251  1.00  0.00    -0.246 OA
BRANCH  23  25
ATOM     25  C   UNL A   1      34.423  30.834  27.424  1.00  0.00     0.060 A 
ATOM     26  C   UNL A   1      34.774  29.531  27.759  1.00  0.00     0.016 A 
ATOM     27  C   UNL A   1      35.252  31.895  27.793  1.00  0.00     0.016 A 
ATOM     28  C   UNL A   1      35.912  29.282  28.515  1.00  0.00     0.010 A 
ATOM     29  C   UNL A   1      36.441  31.634  28.488  1.00  0.00     0.010 A 
ATOM     30  C   UNL A   1      36.769  30.324  28.880  1.00  0.00    -0.014 A 
BRANCH  30  31
ATOM     31  C   UNL A   1      37.980  30.028  29.692  1.00  0.00     0.031 A 
ATOM     32  C   UNL A   1      39.085  29.175  29.134  1.00  0.00     0.074 A 
ATOM     33  C   UNL A   1      38.115  30.559  30.924  1.00  0.00     0.049 A 
ATOM     34  N   UNL A   1      40.132  28.675  29.740  1.00  0.00    -0.248 NA
ATOM     35  C   UNL A   1      38.999  28.835  27.706  1.00  0.00     0.031 C 
ATOM     36  C   UNL A   1      37.154  31.455  31.568  1.00  0.00     0.029 A 
ATOM     37  N   UNL A   1      39.122  30.434  31.849  1.00  0.00    -0.354 N 
ATOM     38  C   UNL A   1      40.791  27.909  28.787  1.00  0.00     0.074 A 
ATOM     39  C   UNL A   1      40.035  28.022  27.558  1.00  0.00     0.031 C 
ATOM     40  C   UNL A   1      37.633  31.830  32.762  1.00  0.00     0.029 A 
ATOM     41  C   UNL A   1      38.886  31.126  33.011  1.00  0.00     0.049 A 
ATOM     42  H   UNL A   1      39.935  29.901  31.695  1.00  0.00     0.167 HD
ATOM     43  C   UNL A   1      41.919  27.170  28.935  1.00  0.00     0.037 A 
ATOM     44  C   UNL A   1      39.566  31.153  34.172  1.00  0.00     0.037 A 
ATOM     45  C   UNL A   1      42.704  27.114  30.140  1.00  0.00     0.049 A 
ATOM     46  C   UNL A   1      40.794  30.305  34.323  1.00  0.00     0.074 A 
ATOM     47  C   UNL A   1      43.886  26.432  30.371  1.00  0.00     0.029 A 
ATOM     48  N   UNL A   1      42.390  27.778  31.317  1.00  0.00    -0.354 N 
ATOM     49  N   UNL A   1      41.372  29.527  33.442  1.00  0.00    -0.248 NA
ATOM     50  C   UNL A   1      41.444  30.310  35.641  1.00  0.00     0.031 C 
ATOM     51  C   UNL A   1      44.268  26.652  31.699  1.00  0.00     0.029 A 
ATOM     52  C   UNL A   1      43.341  27.500  32.286  1.00  0.00     0.049 A 
ATOM     53  H   UNL A   1      41.608  28.362  31.445  1.00  0.00     0.167 HD
ATOM     54  C   UNL A   1      42.438  28.932  34.099  1.00  0.00     0.074 A 
ATOM     55  C   UNL A   1      42.451  29.470  35.445  1.00  0.00     0.031 C 
ATOM     56  C   UNL A   1      43.318  28.014  33.631  1.00  0.00     0.037 A 
BRANCH  43  57
ATOM     57  C   UNL A   1      42.340  26.319  27.775  1.00  0.00     0.064 A 
ATOM     58  C   UNL A   1      43.349  26.711  26.884  1.00  0.00     0.173 A 
ATOM     59  C   UNL A   1      41.729  25.071  27.568  1.00  0.00     0.173 A 
ATOM     60  F   UNL A   1      43.953  27.900  27.031  1.00  0.00    -0.203 F 
ATOM     61  C   UNL A   1      43.712  25.898  25.813  1.00  0.00     0.198 A 
ATOM     62  C   UNL A   1      42.111  24.251  26.510  1.00  0.00     0.198 A 
ATOM     63  F   UNL A   1      40.761  24.648  28.394  1.00  0.00    -0.203 F 
ATOM     64  F   UNL A   1      44.648  26.312  24.946  1.00  0.00    -0.200 F 
ATOM     65  C   UNL A   1      43.096  24.668  25.629  1.00  0.00     0.200 A 
ATOM     66  F   UNL A   1      41.521  23.060  26.340  1.00  0.00    -0.200 F 
ATOM     67  F   UNL A   1      43.448  23.888  24.598  1.00  0.00    -0.200 F 
ENDBRANCH  43  57
BRANCH  44  68
ATOM     68  C   UNL A   1      39.039  31.961  35.300  1.00  0.00     0.064 A 
ATOM     69  C   UNL A   1      38.278  31.375  36.317  1.00  0.00     0.173 A 
ATOM     70  C   UNL A   1      39.341  33.328  35.411  1.00  0.00     0.173 A 
ATOM     71  F   UNL A   1      37.942  30.078  36.240  1.00  0.00    -0.203 F 
ATOM     72  C   UNL A   1      37.845  32.123  37.411  1.00  0.00     0.198 A 
ATOM     73  C   UNL A   1      38.932  34.068  36.517  1.00  0.00     0.198 A 
ATOM     74  F   UNL A   1      40.066  33.934  34.459  1.00  0.00    -0.203 F 
ATOM     75  F   UNL A   1      37.101  31.545  38.363  1.00  0.00    -0.200 F 
ATOM     76  C   UNL A   1      38.184  33.464  37.515  1.00  0.00     0.200 A 
ATOM     77  F   UNL A   1      39.275  35.359  36.620  1.00  0.00    -0.200 F 
ATOM     78  F   UNL A   1      37.788  34.177  38.579  1.00  0.00    -0.200 F 
ENDBRANCH  44  68
BRANCH  56  79
ATOM     79  C   UNL A   1      44.347  27.509  34.596  1.00  0.00     0.064 A 
ATOM     80  C   UNL A   1      45.552  28.200  34.794  1.00  0.00     0.173 A 
ATOM     81  C   UNL A   1      44.122  26.347  35.347  1.00  0.00     0.173 A 
ATOM     82  F   UNL A   1      45.819  29.306  34.084  1.00  0.00    -0.203 F 
ATOM     83  C   UNL A   1      46.502  27.735  35.697  1.00  0.00     0.198 A 
ATOM     84  C   UNL A   1      45.065  25.896  36.265  1.00  0.00     0.198 A 
ATOM     85  F   UNL A   1      42.984  25.653  35.193  1.00  0.00    -0.203 F 
ATOM     86  F   UNL A   1      47.663  28.390  35.844  1.00  0.00    -0.200 F 
ATOM     87  C   UNL A   1      46.256  26.587  36.436  1.00  0.00     0.200 A 
ATOM     88  F   UNL A   1      44.825  24.790  36.983  1.00  0.00    -0.200 F 
ATOM     89  F   UNL A   1      47.171  26.141  37.308  1.00  0.00    -0.200 F 
ENDBRANCH  56  79
ENDBRANCH  30  31
ENDBRANCH  23  25
ENDBRANCH  22  23
ENDBRANCH   1  22
TORSDOF 12
ENDMDL
MODEL 3
REMARK VINA RESULT:     -12.3      0.312      1.187
REMARK SMILES C[C@@H]1CC[C@H]([N@@H+]2[C@@H](C(=O)OCCOC(=O)c3ccc(-c4c5nc(c(-c6c(F)c(F)c(F)c(F)c6F)c6ccc([nH]6)c(-c6c(F)c(F)c(F)c(F)c6F)c6nc(c(-c7c(F)c(F)c(F)c(F)c7F)c7ccc4[nH]7)C=C6)C=C5)cc3)C[C@H]3CCCC[C@H]32)C1
REMARK SMILES IDX 12 1 11 2 10 3 8 4 9 5 7 6 6 7 85 8 79 10 80 11 84 12 81 13
REMARK SMILES IDX 83 14 82 15 5 16 1 17 2 18 3 19 86 20 4 21 13 22 14 23 15 24
REMARK SMILES IDX 16 25 17 26 78 27 18 28 77 29 19 30 20 31 21 32 71 33 22 34
REMARK SMILES IDX 76 35 70 36 72 37 23 38 75 39 69 40 68 41 24 43 56 44 36 45
REMARK SMILES IDX 55 46 37 47 40 48 54 49 73 50 38 51 39 52 53 54 74 55 41 56
REMARK SMILES IDX 25 57 26 58 34 59 27 60 28 61 32 62 35 63 29 64 30 65 33 66
REMARK SMILES IDX 31 67 57 68 58 69 66 70 59 71 60 72 64 73 67 74 61 75 62 76
REMARK SMILES IDX 65 77 63 78 42 79 43 80 51 81 44 82 45 83 49 84 52 85 46 86
REMARK SMILES IDX 47 87 50 88 48 89
REMARK H PARENT 6 9 72 42 40 53
REMARK Flexibility Score: inf
ROOT
ATOM      1  C   UNL A   1      31.776  29.405  25.362  1.00  0.00     0.275 C 
ENDROOT
BRANCH   1   2
ATOM      2  C   UNL A   1      32.004  28.117  24.571  1.00  0.00     0.274 C 
BRANCH   2   3
ATOM      3  O   UNL A   1      33.382  27.696  24.635  1.00  0.00    -0.458 OA
BRANCH   3   4
ATOM      4  C   UNL A   1      33.650  26.503  24.022  1.00  0.00     0.365 C 
ATOM      5  O   UNL A   1      33.346  26.256  22.861  1.00  0.00    -0.245 OA
BRANCH   4   6
ATOM      6  C   UNL A   1      34.363  25.538  24.997  1.00  0.00     0.296 C 
ATOM      7  N   UNL A   1      34.710  24.252  24.314  1.00  0.00    -0.318 N 
ATOM      8  C   UNL A   1      33.748  23.241  24.779  1.00  0.00     0.188 C 
ATOM      9  H   UNL A   1      34.607  24.340  23.302  1.00  0.00     0.349 HD
ATOM     10  C   UNL A   1      33.409  25.179  26.145  1.00  0.00     0.087 C 
ATOM     11  C   UNL A   1      33.414  23.655  26.208  1.00  0.00     0.054 C 
ATOM     12  C   UNL A   1      32.514  23.199  23.859  1.00  0.00     0.065 C 
ATOM     13  C   UNL A   1      32.161  23.000  26.784  1.00  0.00     0.010 C 
ATOM     14  C   UNL A   1      31.390  22.372  24.471  1.00  0.00     0.006 C 
ATOM     15  C   UNL A   1      30.983  22.953  25.821  1.00  0.00     0.001 C 
BRANCH   7  16
ATOM     16  C   UNL A   1      36.141  23.892  24.367  1.00  0.00     0.185 C 
ATOM     17  C   UNL A   1      36.197  20.599  25.001  1.00  0.00     0.008 C 
ATOM     18  C   UNL A   1      37.170  21.638  24.453  1.00  0.00    -0.008 C 
ATOM     19  C   UNL A   1      37.787  22.504  25.547  1.00  0.00     0.009 C 
ATOM     20  C   UNL A   1      36.518  22.657  23.518  1.00  0.00     0.068 C 
ATOM     21  C   UNL A   1      36.826  23.679  25.728  1.00  0.00     0.065 C 
ENDBRANCH   7  16
ENDBRANCH   4   6
ENDBRANCH   3   4
ENDBRANCH   2   3
ENDBRANCH   1   2
BRANCH   1  22
ATOM     22  O   UNL A   1      33.018  30.105  25.565  1.00  0.00    -0.458 OA
BRANCH  22  23
ATOM     23  C   UNL A   1      33.108  30.836  26.695  1.00  0.00     0.338 C 
ATOM     24  O   UNL A   1      32.252  31.559  27.190  1.00  0.00    -0.246 OA
BRANCH  23  25
ATOM     25  C   UNL A   1      34.421  30.626  27.317  1.00  0.00     0.060 A 
ATOM     26  C   UNL A   1      34.820  29.331  27.626  1.00  0.00     0.016 A 
ATOM     27  C   UNL A   1      35.204  31.711  27.713  1.00  0.00     0.016 A 
ATOM     28  C   UNL A   1      35.962  29.111  28.385  1.00  0.00     0.010 A 
ATOM     29  C   UNL A   1      36.399  31.481  28.411  1.00  0.00     0.010 A 
ATOM     30  C   UNL A   1      36.776  30.178  28.778  1.00  0.00    -0.014 A 
BRANCH  30  31
ATOM     31  C   UNL A   1      37.993  29.911  29.592  1.00  0.00     0.031 A 
ATOM     32  C   UNL A   1      39.106  29.062  29.046  1.00  0.00     0.074 A 
ATOM     33  C   UNL A   1      38.125  30.467  30.813  1.00  0.00     0.049 A 
ATOM     34  N   UNL A   1      40.161  28.586  29.658  1.00  0.00    -0.248 NA
ATOM     35  C   UNL A   1      39.020  28.693  27.625  1.00  0.00     0.031 C 
ATOM     36  C   UNL A   1      37.155  31.364  31.443  1.00  0.00     0.029 A 
ATOM     37  N   UNL A   1      39.136  30.372  31.737  1.00  0.00    -0.354 N 
ATOM     38  C   UNL A   1      40.826  27.809  28.719  1.00  0.00     0.074 A 
ATOM     39  C   UNL A   1      40.066  27.890  27.490  1.00  0.00     0.031 C 
ATOM     40  C   UNL A   1      37.633  31.768  32.628  1.00  0.00     0.029 A 
ATOM     41  C   UNL A   1      38.894  31.084  32.886  1.00  0.00     0.049 A 
ATOM     42  H   UNL A   1      39.955  29.846  31.590  1.00  0.00     0.167 HD
ATOM     43  C   UNL A   1      41.963  27.087  28.877  1.00  0.00     0.037 A 
ATOM     44  C   UNL A   1      39.577  31.141  34.044  1.00  0.00     0.037 A 
ATOM     45  C   UNL A   1      42.753  27.064  30.081  1.00  0.00     0.049 A 
ATOM     46  C   UNL A   1      40.816  30.311  34.208  1.00  0.00     0.074 A 
ATOM     47  C   UNL A   1      43.944  26.401  30.320  1.00  0.00     0.029 A 
ATOM     48  N   UNL A   1      42.434  27.747  31.245  1.00  0.00    -0.354 N 
ATOM     49  N   UNL A   1      41.401  29.523  33.339  1.00  0.00    -0.248 NA
ATOM     50  C   UNL A   1      41.470  30.350  35.523  1.00  0.00     0.031 C 
ATOM     51  C   UNL A   1      44.326  26.651  31.643  1.00  0.00     0.029 A 
ATOM     52  C   UNL A   1      43.391  27.499  32.217  1.00  0.00     0.049 A 
ATOM     53  H   UNL A   1      41.645  28.324  31.365  1.00  0.00     0.167 HD
ATOM     54  C   UNL A   1      42.476  28.954  34.005  1.00  0.00     0.074 A 
ATOM     55  C   UNL A   1      42.486  29.517  35.340  1.00  0.00     0.031 C 
ATOM     56  C   UNL A   1      43.365  28.038  33.552  1.00  0.00     0.037 A 
BRANCH  43  57
ATOM     57  C   UNL A   1      42.392  26.219  27.732  1.00  0.00     0.064 A 
ATOM     58  C   UNL A   1      41.853  24.943  27.516  1.00  0.00     0.173 A 
ATOM     59  C   UNL A   1      43.350  26.691  26.820  1.00  0.00     0.173 A 
ATOM     60  F   UNL A   1      40.944  24.442  28.366  1.00  0.00    -0.203 F 
ATOM     61  C   UNL A   1      42.278  24.160  26.445  1.00  0.00     0.198 A 
ATOM     62  C   UNL A   1      43.755  25.915  25.738  1.00  0.00     0.198 A 
ATOM     63  F   UNL A   1      43.894  27.907  26.980  1.00  0.00    -0.203 F 
ATOM     64  F   UNL A   1      41.783  22.924  26.283  1.00  0.00    -0.200 F 
ATOM     65  C   UNL A   1      43.225  24.647  25.555  1.00  0.00     0.200 A 
ATOM     66  F   UNL A   1      44.664  26.391  24.875  1.00  0.00    -0.200 F 
ATOM     67  F   UNL A   1      43.632  23.891  24.527  1.00  0.00    -0.200 F 
ENDBRANCH  43  57
BRANCH  44  68
ATOM     68  C   UNL A   1      39.044  31.964  35.158  1.00  0.00     0.064 A 
ATOM     69  C   UNL A   1      38.311  31.385  36.200  1.00  0.00     0.173 A 
ATOM     70  C   UNL A   1      39.312  33.341  35.230  1.00  0.00     0.173 A 
ATOM     71  F   UNL A   1      38.008  30.079  36.160  1.00  0.00    -0.203 F 
ATOM     72  C   UNL A   1      37.873  32.150  37.279  1.00  0.00     0.198 A 
ATOM     73  C   UNL A   1      38.898  34.098  36.322  1.00  0.00     0.198 A 
ATOM     74  F   UNL A   1      40.010  33.940  34.253  1.00  0.00    -0.203 F 
ATOM     75  F   UNL A   1      37.156  31.578  38.256  1.00  0.00    -0.200 F 
ATOM     76  C   UNL A   1      38.178  33.502  37.345  1.00  0.00     0.200 A 
ATOM     77  F   UNL A   1      39.209  35.400  36.388  1.00  0.00    -0.200 F 
ATOM     78  F   UNL A   1      37.777  34.231  38.396  1.00  0.00    -0.200 F 
ENDBRANCH  44  68
BRANCH  56  79
ATOM     79  C   UNL A   1      44.403  27.564  34.523  1.00  0.00     0.064 A 
ATOM     80  C   UNL A   1      45.622  28.243  34.666  1.00  0.00     0.173 A 
ATOM     81  C   UNL A   1      44.173  26.444  35.334  1.00  0.00     0.173 A 
ATOM     82  F   UNL A   1      45.894  29.309  33.898  1.00  0.00    -0.203 F 
ATOM     83  C   UNL A   1      46.581  27.808  35.575  1.00  0.00     0.198 A 
ATOM     84  C   UNL A   1      45.126  26.024  36.258  1.00  0.00     0.198 A 
ATOM     85  F   UNL A   1      43.022  25.763  35.234  1.00  0.00    -0.203 F 
ATOM     86  F   UNL A   1      47.754  28.449  35.669  1.00  0.00    -0.200 F 
ATOM     87  C   UNL A   1      46.330  26.702  36.373  1.00  0.00     0.200 A 
ATOM     88  F   UNL A   1      44.880  24.958  37.033  1.00  0.00    -0.200 F 
ATOM     89  F   UNL A   1      47.253  26.284  37.251  1.00  0.00    -0.200 F 
ENDBRANCH  56  79
ENDBRANCH  30  31
ENDBRANCH  23  25
ENDBRANCH  22  23
ENDBRANCH   1  22
TORSDOF 12
ENDMDL
