MODEL 1
REMARK VINA RESULT:     -12.2      0.000      0.000
REMARK SMILES Cc1ccc2nc(CC3(CC(=O)OCCOC(=O)c4ccc(-c5c6nc(c(-c7c(F)c(F)c(F)c(F)c7F)c7ccc([nH]7)c(-c7c(F)c(F)c(F)c(F)c7F)c7nc(c(-c8c(F)c(F)c(F)c(F)c8F)c8ccc5[nH]8)C=C7)C=C6)cc4)CCCCC3)sc2c1
REMARK SMILES IDX 14 1 13 2 11 3 12 4 10 5 9 6 82 7 86 8 83 9 85 10 84 11 8 12
REMARK SMILES IDX 7 13 1 14 2 15 3 16 89 17 4 18 88 19 5 20 87 21 6 22 15 23
REMARK SMILES IDX 16 24 17 25 18 26 19 27 20 28 81 29 21 30 80 31 22 32 23 33
REMARK SMILES IDX 24 34 74 35 25 36 79 37 73 38 75 39 26 40 78 41 72 42 71 43
REMARK SMILES IDX 27 45 59 46 39 47 58 48 40 49 43 50 57 51 76 52 41 53 42 54
REMARK SMILES IDX 56 56 77 57 44 58 28 59 29 60 37 61 30 62 31 63 35 64 38 65
REMARK SMILES IDX 32 66 33 67 36 68 34 69 60 70 61 71 69 72 62 73 63 74 67 75
REMARK SMILES IDX 70 76 64 77 65 78 68 79 66 80 45 81 46 82 54 83 47 84 48 85
REMARK SMILES IDX 52 86 55 87 49 88 50 89 53 90 51 91
REMARK H PARENT 75 44 43 55
REMARK Flexibility Score: inf
ROOT
ATOM      1  C   UNL A   1      36.659  22.256  23.870  1.00  0.00     0.274 C 
ENDROOT
BRANCH   1   2
ATOM      2  O   UNL A   1      35.263  21.938  23.698  1.00  0.00    -0.462 OA
BRANCH   2   3
ATOM      3  C   UNL A   1      34.450  22.974  23.396  1.00  0.00     0.306 C 
ATOM      4  O   UNL A   1      34.532  23.651  22.376  1.00  0.00    -0.252 OA
BRANCH   3   5
ATOM      5  C   UNL A   1      33.390  23.266  24.439  1.00  0.00     0.130 C 
BRANCH   5   6
ATOM      6  C   UNL A   1      33.664  24.204  25.657  1.00  0.00    -0.013 C 
ATOM      7  C   UNL A   1      34.742  23.503  26.545  1.00  0.00     0.008 C 
ATOM      8  C   UNL A   1      32.403  24.395  26.541  1.00  0.00     0.008 C 
ATOM      9  C   UNL A   1      34.258  22.198  27.188  1.00  0.00     0.001 C 
ATOM     10  C   UNL A   1      31.872  23.085  27.117  1.00  0.00     0.001 C 
ATOM     11  C   UNL A   1      32.941  22.373  27.941  1.00  0.00     0.000 C 
BRANCH   6  12
ATOM     12  C   UNL A   1      34.232  25.562  25.123  1.00  0.00     0.075 C 
BRANCH  12  13
ATOM     13  C   UNL A   1      33.197  26.571  24.698  1.00  0.00     0.094 A 
ATOM     14  C   UNL A   1      28.991  30.962  23.519  1.00  0.00     0.044 C 
ATOM     15  C   UNL A   1      29.882  29.753  23.523  1.00  0.00    -0.050 A 
ATOM     16  C   UNL A   1      29.752  28.775  22.535  1.00  0.00     0.006 A 
ATOM     17  C   UNL A   1      30.863  29.616  24.522  1.00  0.00     0.024 A 
ATOM     18  C   UNL A   1      30.586  27.652  22.523  1.00  0.00     0.030 A 
ATOM     19  C   UNL A   1      31.689  28.477  24.505  1.00  0.00     0.055 A 
ATOM     20  C   UNL A   1      31.567  27.497  23.521  1.00  0.00     0.082 A 
ATOM     21  S   UNL A   1      32.952  28.021  25.589  1.00  0.00    -0.119 S 
ATOM     22  N   UNL A   1      32.447  26.436  23.627  1.00  0.00    -0.241 NA
ENDBRANCH  12  13
ENDBRANCH   6  12
ENDBRANCH   5   6
ENDBRANCH   3   5
ENDBRANCH   2   3
ENDBRANCH   1   2
BRANCH   1  23
ATOM     23  C   UNL A   1      37.365  21.145  24.640  1.00  0.00     0.275 C 
BRANCH  23  24
ATOM     24  O   UNL A   1      37.792  21.646  25.919  1.00  0.00    -0.458 OA
BRANCH  24  25
ATOM     25  C   UNL A   1      39.082  21.406  26.244  1.00  0.00     0.338 C 
ATOM     26  O   UNL A   1      39.679  20.345  26.200  1.00  0.00    -0.246 OA
BRANCH  25  27
ATOM     27  C   UNL A   1      39.711  22.655  26.697  1.00  0.00     0.060 A 
ATOM     28  C   UNL A   1      39.310  23.885  26.173  1.00  0.00     0.016 A 
ATOM     29  C   UNL A   1      40.780  22.582  27.590  1.00  0.00     0.016 A 
ATOM     30  C   UNL A   1      40.000  25.047  26.514  1.00  0.00     0.010 A 
ATOM     31  C   UNL A   1      41.432  23.753  27.978  1.00  0.00     0.010 A 
ATOM     32  C   UNL A   1      41.060  24.993  27.429  1.00  0.00    -0.014 A 
BRANCH  32  33
ATOM     33  C   UNL A   1      41.798  26.218  27.818  1.00  0.00     0.031 A 
ATOM     34  C   UNL A   1      41.113  27.280  28.629  1.00  0.00     0.074 A 
ATOM     35  C   UNL A   1      43.066  26.397  27.404  1.00  0.00     0.049 A 
ATOM     36  N   UNL A   1      41.504  28.498  28.902  1.00  0.00    -0.248 NA
ATOM     37  C   UNL A   1      39.803  26.925  29.201  1.00  0.00     0.031 C 
ATOM     38  C   UNL A   1      43.851  25.428  26.639  1.00  0.00     0.029 A 
ATOM     39  N   UNL A   1      43.910  27.469  27.553  1.00  0.00    -0.354 N 
ATOM     40  C   UNL A   1      40.477  29.070  29.638  1.00  0.00     0.074 A 
ATOM     41  C   UNL A   1      39.441  28.066  29.771  1.00  0.00     0.031 C 
ATOM     42  C   UNL A   1      45.060  25.949  26.382  1.00  0.00     0.029 A 
ATOM     43  C   UNL A   1      45.112  27.309  26.909  1.00  0.00     0.049 A 
ATOM     44  H   UNL A   1      43.677  28.273  28.070  1.00  0.00     0.167 HD
ATOM     45  C   UNL A   1      40.405  30.321  30.151  1.00  0.00     0.037 A 
ATOM     46  C   UNL A   1      46.124  28.177  26.723  1.00  0.00     0.037 A 
ATOM     47  C   UNL A   1      41.451  31.304  30.041  1.00  0.00     0.049 A 
ATOM     48  C   UNL A   1      46.009  29.569  27.277  1.00  0.00     0.074 A 
ATOM     49  C   UNL A   1      41.486  32.591  30.547  1.00  0.00     0.029 A 
ATOM     50  N   UNL A   1      42.655  31.102  29.380  1.00  0.00    -0.354 N 
ATOM     51  N   UNL A   1      45.025  30.110  27.951  1.00  0.00    -0.248 NA
ATOM     52  C   UNL A   1      47.141  30.473  27.034  1.00  0.00     0.031 C 
ATOM     53  C   UNL A   1      42.698  33.180  30.167  1.00  0.00     0.029 A 
ATOM     54  C   UNL A   1      43.433  32.245  29.455  1.00  0.00     0.049 A 
ATOM     55  H   UNL A   1      42.917  30.269  28.925  1.00  0.00     0.167 HD
ATOM     56  C   UNL A   1      45.420  31.411  28.222  1.00  0.00     0.074 A 
ATOM     57  C   UNL A   1      46.742  31.575  27.653  1.00  0.00     0.031 C 
ATOM     58  C   UNL A   1      44.747  32.386  28.881  1.00  0.00     0.037 A 
BRANCH  45  59
ATOM     59  C   UNL A   1      39.140  30.712  30.853  1.00  0.00     0.064 A 
ATOM     60  C   UNL A   1      38.989  30.563  32.240  1.00  0.00     0.173 A 
ATOM     61  C   UNL A   1      38.079  31.280  30.133  1.00  0.00     0.173 A 
ATOM     62  F   UNL A   1      39.970  30.012  32.970  1.00  0.00    -0.203 F 
ATOM     63  C   UNL A   1      37.813  30.954  32.876  1.00  0.00     0.198 A 
ATOM     64  C   UNL A   1      36.914  31.690  30.776  1.00  0.00     0.198 A 
ATOM     65  F   UNL A   1      38.176  31.447  28.805  1.00  0.00    -0.203 F 
ATOM     66  F   UNL A   1      37.675  30.770  34.197  1.00  0.00    -0.200 F 
ATOM     67  C   UNL A   1      36.780  31.522  32.145  1.00  0.00     0.200 A 
ATOM     68  F   UNL A   1      35.920  32.247  30.070  1.00  0.00    -0.200 F 
ATOM     69  F   UNL A   1      35.652  31.903  32.761  1.00  0.00    -0.200 F 
ENDBRANCH  45  59
BRANCH  46  70
ATOM     70  C   UNL A   1      47.318  27.754  25.951  1.00  0.00     0.064 A 
ATOM     71  C   UNL A   1      47.316  27.782  24.550  1.00  0.00     0.173 A 
ATOM     72  C   UNL A   1      48.491  27.336  26.597  1.00  0.00     0.173 A 
ATOM     73  F   UNL A   1      46.208  28.151  23.891  1.00  0.00    -0.203 F 
ATOM     74  C   UNL A   1      48.443  27.403  23.824  1.00  0.00     0.198 A 
ATOM     75  C   UNL A   1      49.625  26.981  25.870  1.00  0.00     0.198 A 
ATOM     76  F   UNL A   1      48.542  27.293  27.936  1.00  0.00    -0.203 F 
ATOM     77  F   UNL A   1      48.405  27.410  22.484  1.00  0.00    -0.200 F 
ATOM     78  C   UNL A   1      49.599  27.012  24.483  1.00  0.00     0.200 A 
ATOM     79  F   UNL A   1      50.742  26.615  26.510  1.00  0.00    -0.200 F 
ATOM     80  F   UNL A   1      50.685  26.658  23.783  1.00  0.00    -0.200 F 
ENDBRANCH  46  70
BRANCH  58  81
ATOM     81  C   UNL A   1      45.442  33.704  29.041  1.00  0.00     0.064 A 
ATOM     82  C   UNL A   1      45.282  34.733  28.102  1.00  0.00     0.173 A 
ATOM     83  C   UNL A   1      46.250  33.950  30.161  1.00  0.00     0.173 A 
ATOM     84  F   UNL A   1      44.532  34.537  27.007  1.00  0.00    -0.203 F 
ATOM     85  C   UNL A   1      45.925  35.956  28.268  1.00  0.00     0.198 A 
ATOM     86  C   UNL A   1      46.873  35.182  30.335  1.00  0.00     0.198 A 
ATOM     87  F   UNL A   1      46.429  32.996  31.088  1.00  0.00    -0.203 F 
ATOM     88  F   UNL A   1      45.791  36.912  27.340  1.00  0.00    -0.200 F 
ATOM     89  C   UNL A   1      46.715  36.181  29.386  1.00  0.00     0.200 A 
ATOM     90  F   UNL A   1      47.630  35.400  31.419  1.00  0.00    -0.200 F 
ATOM     91  F   UNL A   1      47.331  37.360  29.547  1.00  0.00    -0.200 F 
ENDBRANCH  58  81
ENDBRANCH  32  33
ENDBRANCH  25  27
ENDBRANCH  24  25
ENDBRANCH  23  24
ENDBRANCH   1  23
TORSDOF 14
ENDMDL
MODEL 2
REMARK VINA RESULT:     -12.1      0.126      1.598
REMARK SMILES Cc1ccc2nc(CC3(CC(=O)OCCOC(=O)c4ccc(-c5c6nc(c(-c7c(F)c(F)c(F)c(F)c7F)c7ccc([nH]7)c(-c7c(F)c(F)c(F)c(F)c7F)c7nc(c(-c8c(F)c(F)c(F)c(F)c8F)c8ccc5[nH]8)C=C7)C=C6)cc4)CCCCC3)sc2c1
REMARK SMILES IDX 14 1 13 2 11 3 12 4 10 5 9 6 82 7 86 8 83 9 85 10 84 11 8 12
REMARK SMILES IDX 7 13 1 14 2 15 3 16 89 17 4 18 88 19 5 20 87 21 6 22 15 23
REMARK SMILES IDX 16 24 17 25 18 26 19 27 20 28 81 29 21 30 80 31 22 32 23 33
REMARK SMILES IDX 24 34 74 35 25 36 79 37 73 38 75 39 26 40 78 41 72 42 71 43
REMARK SMILES IDX 27 45 59 46 39 47 58 48 40 49 43 50 57 51 76 52 41 53 42 54
REMARK SMILES IDX 56 56 77 57 44 58 28 59 29 60 37 61 30 62 31 63 35 64 38 65
REMARK SMILES IDX 32 66 33 67 36 68 34 69 60 70 61 71 69 72 62 73 63 74 67 75
REMARK SMILES IDX 70 76 64 77 65 78 68 79 66 80 45 81 46 82 54 83 47 84 48 85
REMARK SMILES IDX 52 86 55 87 49 88 50 89 53 90 51 91
REMARK H PARENT 75 44 43 55
REMARK Flexibility Score: inf
ROOT
ATOM      1  C   UNL A   1      36.709  22.163  23.916  1.00  0.00     0.274 C 
ENDROOT
BRANCH   1   2
ATOM      2  O   UNL A   1      35.293  21.892  23.920  1.00  0.00    -0.462 OA
BRANCH   2   3
ATOM      3  C   UNL A   1      34.496  22.888  23.476  1.00  0.00     0.306 C 
ATOM      4  O   UNL A   1      34.634  23.467  22.403  1.00  0.00    -0.252 OA
BRANCH   3   5
ATOM      5  C   UNL A   1      33.376  23.267  24.425  1.00  0.00     0.130 C 
BRANCH   5   6
ATOM      6  C   UNL A   1      33.608  24.224  25.637  1.00  0.00    -0.013 C 
ATOM      7  C   UNL A   1      34.659  23.540  26.569  1.00  0.00     0.008 C 
ATOM      8  C   UNL A   1      32.319  24.424  26.477  1.00  0.00     0.008 C 
ATOM      9  C   UNL A   1      34.159  22.243  27.216  1.00  0.00     0.001 C 
ATOM     10  C   UNL A   1      31.774  23.120  27.055  1.00  0.00     0.001 C 
ATOM     11  C   UNL A   1      32.818  22.425  27.924  1.00  0.00     0.000 C 
BRANCH   6  12
ATOM     12  C   UNL A   1      34.189  25.576  25.102  1.00  0.00     0.075 C 
BRANCH  12  13
ATOM     13  C   UNL A   1      33.163  26.598  24.684  1.00  0.00     0.094 A 
ATOM     14  C   UNL A   1      28.977  31.018  23.545  1.00  0.00     0.044 C 
ATOM     15  C   UNL A   1      29.873  29.812  23.531  1.00  0.00    -0.050 A 
ATOM     16  C   UNL A   1      29.777  28.872  22.502  1.00  0.00     0.006 A 
ATOM     17  C   UNL A   1      30.824  29.640  24.552  1.00  0.00     0.024 A 
ATOM     18  C   UNL A   1      30.614  27.753  22.474  1.00  0.00     0.030 A 
ATOM     19  C   UNL A   1      31.654  28.506  24.518  1.00  0.00     0.055 A 
ATOM     20  C   UNL A   1      31.566  27.563  23.494  1.00  0.00     0.082 A 
ATOM     21  S   UNL A   1      32.885  28.012  25.621  1.00  0.00    -0.119 S 
ATOM     22  N   UNL A   1      32.446  26.501  23.586  1.00  0.00    -0.241 NA
ENDBRANCH  12  13
ENDBRANCH   6  12
ENDBRANCH   5   6
ENDBRANCH   3   5
ENDBRANCH   2   3
ENDBRANCH   1   2
BRANCH   1  23
ATOM     23  C   UNL A   1      37.459  21.085  24.691  1.00  0.00     0.275 C 
BRANCH  23  24
ATOM     24  O   UNL A   1      37.879  21.613  25.962  1.00  0.00    -0.458 OA
BRANCH  24  25
ATOM     25  C   UNL A   1      39.164  21.372  26.303  1.00  0.00     0.338 C 
ATOM     26  O   UNL A   1      39.757  20.308  26.281  1.00  0.00    -0.246 OA
BRANCH  25  27
ATOM     27  C   UNL A   1      39.795  22.625  26.742  1.00  0.00     0.060 A 
ATOM     28  C   UNL A   1      39.390  23.851  26.210  1.00  0.00     0.016 A 
ATOM     29  C   UNL A   1      40.867  22.560  27.632  1.00  0.00     0.016 A 
ATOM     30  C   UNL A   1      40.080  25.016  26.538  1.00  0.00     0.010 A 
ATOM     31  C   UNL A   1      41.520  23.734  28.007  1.00  0.00     0.010 A 
ATOM     32  C   UNL A   1      41.145  24.970  27.448  1.00  0.00    -0.014 A 
BRANCH  32  33
ATOM     33  C   UNL A   1      41.884  26.199  27.824  1.00  0.00     0.031 A 
ATOM     34  C   UNL A   1      41.204  27.263  28.637  1.00  0.00     0.074 A 
ATOM     35  C   UNL A   1      43.147  26.378  27.396  1.00  0.00     0.049 A 
ATOM     36  N   UNL A   1      41.595  28.484  28.899  1.00  0.00    -0.248 NA
ATOM     37  C   UNL A   1      39.902  26.908  29.224  1.00  0.00     0.031 C 
ATOM     38  C   UNL A   1      43.926  25.407  26.628  1.00  0.00     0.029 A 
ATOM     39  N   UNL A   1      43.990  27.453  27.531  1.00  0.00    -0.354 N 
ATOM     40  C   UNL A   1      40.574  29.056  29.643  1.00  0.00     0.074 A 
ATOM     41  C   UNL A   1      39.543  28.051  29.792  1.00  0.00     0.031 C 
ATOM     42  C   UNL A   1      45.131  25.930  26.355  1.00  0.00     0.029 A 
ATOM     43  C   UNL A   1      45.186  27.293  26.875  1.00  0.00     0.049 A 
ATOM     44  H   UNL A   1      43.760  28.260  28.046  1.00  0.00     0.167 HD
ATOM     45  C   UNL A   1      40.505  30.310  30.151  1.00  0.00     0.037 A 
ATOM     46  C   UNL A   1      46.194  28.163  26.675  1.00  0.00     0.037 A 
ATOM     47  C   UNL A   1      41.547  31.295  30.025  1.00  0.00     0.049 A 
ATOM     48  C   UNL A   1      46.081  29.557  27.223  1.00  0.00     0.074 A 
ATOM     49  C   UNL A   1      41.585  32.585  30.525  1.00  0.00     0.029 A 
ATOM     50  N   UNL A   1      42.745  31.092  29.353  1.00  0.00    -0.354 N 
ATOM     51  N   UNL A   1      45.102  30.100  27.905  1.00  0.00    -0.248 NA
ATOM     52  C   UNL A   1      47.208  30.462  26.964  1.00  0.00     0.031 C 
ATOM     53  C   UNL A   1      42.791  33.174  30.129  1.00  0.00     0.029 A 
ATOM     54  C   UNL A   1      43.521  32.238  29.414  1.00  0.00     0.049 A 
ATOM     55  H   UNL A   1      43.004  30.258  28.899  1.00  0.00     0.167 HD
ATOM     56  C   UNL A   1      45.497  31.403  28.165  1.00  0.00     0.074 A 
ATOM     57  C   UNL A   1      46.813  31.567  27.582  1.00  0.00     0.031 C 
ATOM     58  C   UNL A   1      44.828  32.379  28.827  1.00  0.00     0.037 A 
BRANCH  45  59
ATOM     59  C   UNL A   1      39.246  30.701  30.865  1.00  0.00     0.064 A 
ATOM     60  C   UNL A   1      38.149  31.246  30.182  1.00  0.00     0.173 A 
ATOM     61  C   UNL A   1      39.123  30.491  32.246  1.00  0.00     0.173 A 
ATOM     62  F   UNL A   1      38.223  31.480  28.863  1.00  0.00    -0.203 F 
ATOM     63  C   UNL A   1      36.980  31.582  30.861  1.00  0.00     0.198 A 
ATOM     64  C   UNL A   1      37.945  30.808  32.917  1.00  0.00     0.198 A 
ATOM     65  F   UNL A   1      40.143  29.969  32.944  1.00  0.00    -0.203 F 
ATOM     66  F   UNL A   1      35.956  32.135  30.195  1.00  0.00    -0.200 F 
ATOM     67  C   UNL A   1      36.877  31.357  32.226  1.00  0.00     0.200 A 
ATOM     68  F   UNL A   1      37.844  30.581  34.235  1.00  0.00    -0.200 F 
ATOM     69  F   UNL A   1      35.749  31.675  32.875  1.00  0.00    -0.200 F 
ENDBRANCH  45  59
BRANCH  46  70
ATOM     70  C   UNL A   1      47.381  27.739  25.892  1.00  0.00     0.064 A 
ATOM     71  C   UNL A   1      47.370  27.776  24.492  1.00  0.00     0.173 A 
ATOM     72  C   UNL A   1      48.556  27.311  26.528  1.00  0.00     0.173 A 
ATOM     73  F   UNL A   1      46.260  28.154  23.842  1.00  0.00    -0.203 F 
ATOM     74  C   UNL A   1      48.490  27.396  23.756  1.00  0.00     0.198 A 
ATOM     75  C   UNL A   1      49.683  26.955  25.792  1.00  0.00     0.198 A 
ATOM     76  F   UNL A   1      48.614  27.259  27.867  1.00  0.00    -0.203 F 
ATOM     77  F   UNL A   1      48.444  27.412  22.416  1.00  0.00    -0.200 F 
ATOM     78  C   UNL A   1      49.648  26.995  24.405  1.00  0.00     0.200 A 
ATOM     79  F   UNL A   1      50.803  26.580  26.423  1.00  0.00    -0.200 F 
ATOM     80  F   UNL A   1      50.728  26.640  23.696  1.00  0.00    -0.200 F 
ENDBRANCH  46  70
BRANCH  58  81
ATOM     81  C   UNL A   1      45.521  33.699  28.973  1.00  0.00     0.064 A 
ATOM     82  C   UNL A   1      46.378  33.959  30.053  1.00  0.00     0.173 A 
ATOM     83  C   UNL A   1      45.351  34.702  28.007  1.00  0.00     0.173 A 
ATOM     84  F   UNL A   1      46.557  33.036  31.009  1.00  0.00    -0.203 F 
ATOM     85  C   UNL A   1      47.024  35.186  30.171  1.00  0.00     0.198 A 
ATOM     86  C   UNL A   1      46.016  35.919  28.117  1.00  0.00     0.198 A 
ATOM     87  F   UNL A   1      44.545  34.497  26.955  1.00  0.00    -0.203 F 
ATOM     88  F   UNL A   1      47.807  35.430  31.230  1.00  0.00    -0.200 F 
ATOM     89  C   UNL A   1      46.846  36.162  29.201  1.00  0.00     0.200 A 
ATOM     90  F   UNL A   1      45.850  36.859  27.176  1.00  0.00    -0.200 F 
ATOM     91  F   UNL A   1      47.471  37.343  29.314  1.00  0.00    -0.200 F 
ENDBRANCH  58  81
ENDBRANCH  32  33
ENDBRANCH  25  27
ENDBRANCH  24  25
ENDBRANCH  23  24
ENDBRANCH   1  23
TORSDOF 14
ENDMDL
MODEL 3
REMARK VINA RESULT:     -11.9      4.195      9.856
REMARK SMILES Cc1ccc2nc(CC3(CC(=O)OCCOC(=O)c4ccc(-c5c6nc(c(-c7c(F)c(F)c(F)c(F)c7F)c7ccc([nH]7)c(-c7c(F)c(F)c(F)c(F)c7F)c7nc(c(-c8c(F)c(F)c(F)c(F)c8F)c8ccc5[nH]8)C=C7)C=C6)cc4)CCCCC3)sc2c1
REMARK SMILES IDX 14 1 13 2 11 3 12 4 10 5 9 6 82 7 86 8 83 9 85 10 84 11 8 12
REMARK SMILES IDX 7 13 1 14 2 15 3 16 89 17 4 18 88 19 5 20 87 21 6 22 15 23
REMARK SMILES IDX 16 24 17 25 18 26 19 27 20 28 81 29 21 30 80 31 22 32 23 33
REMARK SMILES IDX 24 34 74 35 25 36 79 37 73 38 75 39 26 40 78 41 72 42 71 43
REMARK SMILES IDX 27 45 59 46 39 47 58 48 40 49 43 50 57 51 76 52 41 53 42 54
REMARK SMILES IDX 56 56 77 57 44 58 28 59 29 60 37 61 30 62 31 63 35 64 38 65
REMARK SMILES IDX 32 66 33 67 36 68 34 69 60 70 61 71 69 72 62 73 63 74 67 75
REMARK SMILES IDX 70 76 64 77 65 78 68 79 66 80 45 81 46 82 54 83 47 84 48 85
REMARK SMILES IDX 52 86 55 87 49 88 50 89 53 90 51 91
REMARK H PARENT 75 44 43 55
REMARK Flexibility Score: inf
ROOT
ATOM      1  C   UNL A   1      31.471  28.514  25.281  1.00  0.00     0.274 C 
ENDROOT
BRANCH   1   2
ATOM      2  O   UNL A   1      32.215  27.537  26.037  1.00  0.00    -0.462 OA
BRANCH   2   3
ATOM      3  C   UNL A   1      33.102  26.795  25.339  1.00  0.00     0.306 C 
ATOM      4  O   UNL A   1      33.576  27.113  24.252  1.00  0.00    -0.252 OA
BRANCH   3   5
ATOM      5  C   UNL A   1      33.489  25.488  26.001  1.00  0.00     0.130 C 
BRANCH   5   6
ATOM      6  C   UNL A   1      33.381  24.119  25.257  1.00  0.00    -0.013 C 
ATOM      7  C   UNL A   1      32.027  24.125  24.478  1.00  0.00     0.008 C 
ATOM      8  C   UNL A   1      33.332  22.922  26.243  1.00  0.00     0.008 C 
ATOM      9  C   UNL A   1      30.792  24.146  25.387  1.00  0.00     0.001 C 
ATOM     10  C   UNL A   1      32.147  22.986  27.203  1.00  0.00     0.001 C 
ATOM     11  C   UNL A   1      30.826  23.044  26.442  1.00  0.00     0.000 C 
BRANCH   6  12
ATOM     12  C   UNL A   1      34.566  24.009  24.240  1.00  0.00     0.075 C 
BRANCH  12  13
ATOM     13  C   UNL A   1      35.868  23.518  24.818  1.00  0.00     0.094 A 
ATOM     14  C   UNL A   1      41.037  20.928  27.041  1.00  0.00     0.044 C 
ATOM     15  C   UNL A   1      39.887  21.826  26.683  1.00  0.00    -0.050 A 
ATOM     16  C   UNL A   1      39.810  23.119  27.206  1.00  0.00     0.006 A 
ATOM     17  C   UNL A   1      38.891  21.364  25.804  1.00  0.00     0.024 A 
ATOM     18  C   UNL A   1      38.751  23.966  26.870  1.00  0.00     0.030 A 
ATOM     19  C   UNL A   1      37.825  22.223  25.481  1.00  0.00     0.055 A 
ATOM     20  C   UNL A   1      37.742  23.516  25.997  1.00  0.00     0.082 A 
ATOM     21  S   UNL A   1      36.461  21.944  24.462  1.00  0.00    -0.119 S 
ATOM     22  N   UNL A   1      36.642  24.248  25.591  1.00  0.00    -0.241 NA
ENDBRANCH  12  13
ENDBRANCH   6  12
ENDBRANCH   5   6
ENDBRANCH   3   5
ENDBRANCH   2   3
ENDBRANCH   1   2
BRANCH   1  23
ATOM     23  C   UNL A   1      31.728  29.915  25.826  1.00  0.00     0.275 C 
BRANCH  23  24
ATOM     24  O   UNL A   1      33.106  30.031  26.221  1.00  0.00    -0.458 OA
BRANCH  24  25
ATOM     25  C   UNL A   1      33.413  31.107  26.978  1.00  0.00     0.338 C 
ATOM     26  O   UNL A   1      32.769  32.132  27.117  1.00  0.00    -0.246 OA
BRANCH  25  27
ATOM     27  C   UNL A   1      34.705  30.883  27.644  1.00  0.00     0.060 A 
ATOM     28  C   UNL A   1      35.086  29.601  28.044  1.00  0.00     0.016 A 
ATOM     29  C   UNL A   1      35.501  31.986  27.952  1.00  0.00     0.016 A 
ATOM     30  C   UNL A   1      36.252  29.421  28.787  1.00  0.00     0.010 A 
ATOM     31  C   UNL A   1      36.697  31.798  28.643  1.00  0.00     0.010 A 
ATOM     32  C   UNL A   1      37.074  30.516  29.083  1.00  0.00    -0.014 A 
BRANCH  32  33
ATOM     33  C   UNL A   1      38.325  30.346  29.859  1.00  0.00     0.031 A 
ATOM     34  C   UNL A   1      39.456  29.538  29.289  1.00  0.00     0.074 A 
ATOM     35  C   UNL A   1      38.428  30.876  31.092  1.00  0.00     0.049 A 
ATOM     36  N   UNL A   1      40.542  29.102  29.874  1.00  0.00    -0.248 NA
ATOM     37  C   UNL A   1      39.342  29.160  27.871  1.00  0.00     0.031 C 
ATOM     38  C   UNL A   1      37.414  31.704  31.743  1.00  0.00     0.029 A 
ATOM     39  N   UNL A   1      39.429  30.776  32.025  1.00  0.00    -0.354 N 
ATOM     40  C   UNL A   1      41.219  28.366  28.913  1.00  0.00     0.074 A 
ATOM     41  C   UNL A   1      40.423  28.411  27.704  1.00  0.00     0.031 C 
ATOM     42  C   UNL A   1      37.841  32.036  32.970  1.00  0.00     0.029 A 
ATOM     43  C   UNL A   1      39.128  31.393  33.214  1.00  0.00     0.049 A 
ATOM     44  H   UNL A   1      40.279  30.309  31.858  1.00  0.00     0.167 HD
ATOM     45  C   UNL A   1      42.397  27.708  29.033  1.00  0.00     0.037 A 
ATOM     46  C   UNL A   1      39.793  31.400  34.385  1.00  0.00     0.037 A 
ATOM     47  C   UNL A   1      43.199  27.693  30.229  1.00  0.00     0.049 A 
ATOM     48  C   UNL A   1      41.083  30.639  34.502  1.00  0.00     0.074 A 
ATOM     49  C   UNL A   1      44.420  27.078  30.444  1.00  0.00     0.029 A 
ATOM     50  N   UNL A   1      42.859  28.331  31.413  1.00  0.00    -0.354 N 
ATOM     51  N   UNL A   1      41.706  29.925  33.597  1.00  0.00    -0.248 NA
ATOM     52  C   UNL A   1      41.756  30.677  35.807  1.00  0.00     0.031 C 
ATOM     53  C   UNL A   1      44.804  27.318  31.769  1.00  0.00     0.029 A 
ATOM     54  C   UNL A   1      43.840  28.114  32.366  1.00  0.00     0.049 A 
ATOM     55  H   UNL A   1      42.041  28.861  31.555  1.00  0.00     0.167 HD
ATOM     56  C   UNL A   1      42.846  29.437  34.216  1.00  0.00     0.074 A 
ATOM     57  C   UNL A   1      42.840  29.950  35.572  1.00  0.00     0.031 C 
ATOM     58  C   UNL A   1      43.813  28.633  33.709  1.00  0.00     0.037 A 
BRANCH  45  59
ATOM     59  C   UNL A   1      42.879  26.924  27.850  1.00  0.00     0.064 A 
ATOM     60  C   UNL A   1      42.644  25.546  27.732  1.00  0.00     0.173 A 
ATOM     61  C   UNL A   1      43.550  27.569  26.801  1.00  0.00     0.173 A 
ATOM     62  F   UNL A   1      42.018  24.882  28.716  1.00  0.00    -0.203 F 
ATOM     63  C   UNL A   1      43.080  24.840  26.614  1.00  0.00     0.198 A 
ATOM     64  C   UNL A   1      43.965  26.864  25.674  1.00  0.00     0.198 A 
ATOM     65  F   UNL A   1      43.796  28.886  26.864  1.00  0.00    -0.203 F 
ATOM     66  F   UNL A   1      42.877  23.517  26.537  1.00  0.00    -0.200 F 
ATOM     67  C   UNL A   1      43.734  25.500  25.584  1.00  0.00     0.200 A 
ATOM     68  F   UNL A   1      44.589  27.505  24.675  1.00  0.00    -0.200 F 
ATOM     69  F   UNL A   1      44.147  24.819  24.506  1.00  0.00    -0.200 F 
ENDBRANCH  45  59
BRANCH  46  70
ATOM     70  C   UNL A   1      39.225  32.132  35.544  1.00  0.00     0.064 A 
ATOM     71  C   UNL A   1      38.423  31.475  36.487  1.00  0.00     0.173 A 
ATOM     72  C   UNL A   1      39.490  33.494  35.744  1.00  0.00     0.173 A 
ATOM     73  F   UNL A   1      38.123  30.178  36.321  1.00  0.00    -0.203 F 
ATOM     74  C   UNL A   1      37.904  32.156  37.586  1.00  0.00     0.198 A 
ATOM     75  C   UNL A   1      38.991  34.168  36.857  1.00  0.00     0.198 A 
ATOM     76  F   UNL A   1      40.253  34.166  34.869  1.00  0.00    -0.203 F 
ATOM     77  F   UNL A   1      37.115  31.512  38.457  1.00  0.00    -0.200 F 
ATOM     78  C   UNL A   1      38.195  33.499  37.775  1.00  0.00     0.200 A 
ATOM     79  F   UNL A   1      39.285  35.461  37.042  1.00  0.00    -0.200 F 
ATOM     80  F   UNL A   1      37.705  34.150  38.838  1.00  0.00    -0.200 F 
ENDBRANCH  46  70
BRANCH  58  81
ATOM     81  C   UNL A   1      44.952  28.282  34.618  1.00  0.00     0.064 A 
ATOM     82  C   UNL A   1      44.971  27.075  35.332  1.00  0.00     0.173 A 
ATOM     83  C   UNL A   1      46.047  29.147  34.750  1.00  0.00     0.173 A 
ATOM     84  F   UNL A   1      43.937  26.225  35.248  1.00  0.00    -0.203 F 
ATOM     85  C   UNL A   1      46.040  26.757  36.164  1.00  0.00     0.198 A 
ATOM     86  C   UNL A   1      47.125  28.815  35.566  1.00  0.00     0.198 A 
ATOM     87  F   UNL A   1      46.074  30.311  34.084  1.00  0.00    -0.203 F 
ATOM     88  F   UNL A   1      46.022  25.617  36.868  1.00  0.00    -0.200 F 
ATOM     89  C   UNL A   1      47.117  27.624  36.276  1.00  0.00     0.200 A 
ATOM     90  F   UNL A   1      48.168  29.650  35.668  1.00  0.00    -0.200 F 
ATOM     91  F   UNL A   1      48.148  27.314  37.076  1.00  0.00    -0.200 F 
ENDBRANCH  58  81
ENDBRANCH  32  33
ENDBRANCH  25  27
ENDBRANCH  24  25
ENDBRANCH  23  24
ENDBRANCH   1  23
TORSDOF 14
ENDMDL
