MODEL 1
REMARK VINA RESULT:     -10.7      0.000      0.000
REMARK SMILES COC[C@@H](C)CNc1cc(C)c(N)c(C(=O)OCCOC(=O)c2ccc(-c3c4nc(c(-c5c(F)c(F)c(F)c(F)c5F)c5ccc([nH]5)c(-c5c(F)c(F)c(F)c(F)c5F)c5nc(c(-c6c(F)c(F)c(F)c(F)c6F)c6ccc3[nH]6)C=C5)C=C4)cc2)c1
REMARK SMILES IDX 17 1 15 2 16 3 14 4 8 5 9 6 86 7 10 8 11 9 12 10 7 11 6 13
REMARK SMILES IDX 4 14 5 15 3 16 2 17 1 18 13 19 18 22 19 23 20 24 21 25 22 26
REMARK SMILES IDX 23 27 24 28 85 29 25 30 84 31 26 32 27 33 28 34 78 35 29 36
REMARK SMILES IDX 83 37 77 38 79 39 30 40 82 41 76 42 75 43 31 45 63 46 43 47
REMARK SMILES IDX 62 48 44 49 47 50 61 51 80 52 45 53 46 54 60 56 81 57 48 58
REMARK SMILES IDX 32 59 33 60 41 61 34 62 35 63 39 64 42 65 36 66 37 67 40 68
REMARK SMILES IDX 38 69 64 70 65 71 73 72 66 73 67 74 71 75 74 76 68 77 69 78
REMARK SMILES IDX 72 79 70 80 49 81 50 82 58 83 51 84 52 85 56 86 59 87 53 88
REMARK SMILES IDX 54 89 57 90 55 91
REMARK H PARENT 7 12 13 20 13 21 79 44 47 55
REMARK Flexibility Score: inf
ROOT
ATOM      1  O   UNL A   1      32.133  27.698  25.275  1.00  0.00    -0.458 OA
ENDROOT
BRANCH   1   2
ATOM      2  C   UNL A   1      31.669  26.568  25.877  1.00  0.00     0.340 C 
ATOM      3  O   UNL A   1      30.716  26.491  26.632  1.00  0.00    -0.246 OA
BRANCH   2   4
ATOM      4  C   UNL A   1      32.448  25.388  25.408  1.00  0.00     0.085 A 
ATOM      5  C   UNL A   1      34.619  24.303  25.158  1.00  0.00     0.035 A 
ATOM      6  C   UNL A   1      33.991  23.314  24.399  1.00  0.00     0.031 A 
ATOM      7  C   UNL A   1      33.833  25.359  25.620  1.00  0.00     0.043 A 
ATOM      8  C   UNL A   1      32.601  23.313  24.177  1.00  0.00    -0.025 A 
ATOM      9  C   UNL A   1      32.015  22.258  23.276  1.00  0.00     0.047 C 
ATOM     10  C   UNL A   1      31.803  24.305  24.774  1.00  0.00     0.049 A 
BRANCH   5  11
ATOM     11  N   UNL A   1      35.974  24.343  25.402  1.00  0.00    -0.385 N 
ATOM     12  H   UNL A   1      36.314  25.104  25.926  1.00  0.00     0.160 HD
BRANCH  11  13
ATOM     13  C   UNL A   1      36.944  23.360  24.955  1.00  0.00     0.118 C 
BRANCH  13  14
ATOM     14  C   UNL A   1      37.874  22.985  26.125  1.00  0.00     0.031 C 
ATOM     15  C   UNL A   1      38.782  24.174  26.448  1.00  0.00     0.012 C 
BRANCH  14  16
ATOM     16  C   UNL A   1      38.673  21.715  25.793  1.00  0.00     0.164 C 
BRANCH  16  17
ATOM     17  O   UNL A   1      39.891  21.614  26.528  1.00  0.00    -0.384 OA
ATOM     18  C   UNL A   1      40.571  20.377  26.381  1.00  0.00     0.194 C 
ENDBRANCH  16  17
ENDBRANCH  14  16
ENDBRANCH  13  14
ENDBRANCH  11  13
ENDBRANCH   5  11
BRANCH  10  19
ATOM     19  N   UNL A   1      30.417  24.274  24.605  1.00  0.00    -0.398 N 
ATOM     20  H   UNL A   1      29.825  24.310  25.390  1.00  0.00     0.156 HD
ATOM     21  H   UNL A   1      30.033  24.219  23.700  1.00  0.00     0.156 HD
ENDBRANCH  10  19
ENDBRANCH   2   4
ENDBRANCH   1   2
BRANCH   1  22
ATOM     22  C   UNL A   1      31.155  28.703  24.933  1.00  0.00     0.275 C 
BRANCH  22  23
ATOM     23  C   UNL A   1      31.703  30.102  25.220  1.00  0.00     0.275 C 
BRANCH  23  24
ATOM     24  O   UNL A   1      32.783  29.987  26.159  1.00  0.00    -0.458 OA
BRANCH  24  25
ATOM     25  C   UNL A   1      33.080  31.091  26.885  1.00  0.00     0.338 C 
ATOM     26  O   UNL A   1      32.401  32.100  26.993  1.00  0.00    -0.246 OA
BRANCH  25  27
ATOM     27  C   UNL A   1      34.383  30.890  27.563  1.00  0.00     0.060 A 
ATOM     28  C   UNL A   1      34.809  29.604  27.885  1.00  0.00     0.016 A 
ATOM     29  C   UNL A   1      35.163  31.979  27.953  1.00  0.00     0.016 A 
ATOM     30  C   UNL A   1      35.971  29.403  28.630  1.00  0.00     0.010 A 
ATOM     31  C   UNL A   1      36.379  31.769  28.624  1.00  0.00     0.010 A 
ATOM     32  C   UNL A   1      36.795  30.474  28.992  1.00  0.00    -0.014 A 
BRANCH  32  33
ATOM     33  C   UNL A   1      38.039  30.239  29.790  1.00  0.00     0.031 A 
ATOM     34  C   UNL A   1      39.192  29.476  29.189  1.00  0.00     0.074 A 
ATOM     35  C   UNL A   1      38.182  30.734  31.039  1.00  0.00     0.049 A 
ATOM     36  N   UNL A   1      40.244  28.958  29.777  1.00  0.00    -0.248 NA
ATOM     37  C   UNL A   1      39.153  29.257  27.736  1.00  0.00     0.031 C 
ATOM     38  C   UNL A   1      37.200  31.554  31.749  1.00  0.00     0.029 A 
ATOM     39  N   UNL A   1      39.225  30.630  31.934  1.00  0.00    -0.354 N 
ATOM     40  C   UNL A   1      40.937  28.278  28.783  1.00  0.00     0.074 A 
ATOM     41  C   UNL A   1      40.204  28.470  27.551  1.00  0.00     0.031 C 
ATOM     42  C   UNL A   1      37.709  31.933  32.931  1.00  0.00     0.029 A 
ATOM     43  C   UNL A   1      39.001  31.283  33.123  1.00  0.00     0.049 A 
ATOM     44  H   UNL A   1      40.053  30.135  31.739  1.00  0.00     0.167 HD
ATOM     45  C   UNL A   1      42.076  27.551  28.896  1.00  0.00     0.037 A 
ATOM     46  C   UNL A   1      39.717  31.313  34.264  1.00  0.00     0.037 A 
ATOM     47  C   UNL A   1      42.856  27.435  30.101  1.00  0.00     0.049 A 
ATOM     48  C   UNL A   1      40.969  30.489  34.373  1.00  0.00     0.074 A 
ATOM     49  C   UNL A   1      44.024  26.723  30.309  1.00  0.00     0.029 A 
ATOM     50  N   UNL A   1      42.562  28.073  31.296  1.00  0.00    -0.354 N 
ATOM     51  N   UNL A   1      41.549  29.743  33.465  1.00  0.00    -0.248 NA
ATOM     52  C   UNL A   1      41.642  30.475  35.680  1.00  0.00     0.031 C 
ATOM     53  C   UNL A   1      44.425  26.910  31.637  1.00  0.00     0.029 A 
ATOM     54  C   UNL A   1      43.526  27.769  32.245  1.00  0.00     0.049 A 
ATOM     55  H   UNL A   1      41.783  28.657  31.447  1.00  0.00     0.167 HD
ATOM     56  C   UNL A   1      42.644  29.165  34.091  1.00  0.00     0.074 A 
ATOM     57  C   UNL A   1      42.672  29.674  35.446  1.00  0.00     0.031 C 
ATOM     58  C   UNL A   1      43.537  28.276  33.591  1.00  0.00     0.037 A 
BRANCH  45  59
ATOM     59  C   UNL A   1      42.531  26.779  27.692  1.00  0.00     0.064 A 
ATOM     60  C   UNL A   1      43.365  27.339  26.715  1.00  0.00     0.173 A 
ATOM     61  C   UNL A   1      42.160  25.432  27.547  1.00  0.00     0.173 A 
ATOM     62  F   UNL A   1      43.737  28.625  26.800  1.00  0.00    -0.203 F 
ATOM     63  C   UNL A   1      43.796  26.583  25.626  1.00  0.00     0.198 A 
ATOM     64  C   UNL A   1      42.615  24.673  26.472  1.00  0.00     0.198 A 
ATOM     65  F   UNL A   1      41.370  24.846  28.458  1.00  0.00    -0.203 F 
ATOM     66  F   UNL A   1      44.563  27.149  24.684  1.00  0.00    -0.200 F 
ATOM     67  C   UNL A   1      43.428  25.252  25.510  1.00  0.00     0.200 A 
ATOM     68  F   UNL A   1      42.270  23.382  26.371  1.00  0.00    -0.200 F 
ATOM     69  F   UNL A   1      43.855  24.524  24.468  1.00  0.00    -0.200 F 
ENDBRANCH  45  59
BRANCH  46  70
ATOM     70  C   UNL A   1      39.223  32.096  35.429  1.00  0.00     0.064 A 
ATOM     71  C   UNL A   1      38.376  31.516  36.384  1.00  0.00     0.173 A 
ATOM     72  C   UNL A   1      39.588  33.438  35.613  1.00  0.00     0.173 A 
ATOM     73  F   UNL A   1      37.966  30.248  36.234  1.00  0.00    -0.203 F 
ATOM     74  C   UNL A   1      37.916  32.248  37.478  1.00  0.00     0.198 A 
ATOM     75  C   UNL A   1      39.158  34.158  36.725  1.00  0.00     0.198 A 
ATOM     76  F   UNL A   1      40.386  34.045  34.723  1.00  0.00    -0.203 F 
ATOM     77  F   UNL A   1      37.076  31.683  38.356  1.00  0.00    -0.200 F 
ATOM     78  C   UNL A   1      38.318  33.564  37.654  1.00  0.00     0.200 A 
ATOM     79  F   UNL A   1      39.561  35.424  36.897  1.00  0.00    -0.200 F 
ATOM     80  F   UNL A   1      37.890  34.262  38.715  1.00  0.00    -0.200 F 
ENDBRANCH  46  70
BRANCH  58  81
ATOM     81  C   UNL A   1      44.623  27.809  34.514  1.00  0.00     0.064 A 
ATOM     82  C   UNL A   1      45.831  28.510  34.633  1.00  0.00     0.173 A 
ATOM     83  C   UNL A   1      44.446  26.660  35.300  1.00  0.00     0.173 A 
ATOM     84  F   UNL A   1      46.052  29.605  33.888  1.00  0.00    -0.203 F 
ATOM     85  C   UNL A   1      46.835  28.065  35.489  1.00  0.00     0.198 A 
ATOM     86  C   UNL A   1      45.443  26.231  36.172  1.00  0.00     0.198 A 
ATOM     87  F   UNL A   1      43.306  25.957  35.224  1.00  0.00    -0.203 F 
ATOM     88  F   UNL A   1      48.000  28.725  35.554  1.00  0.00    -0.200 F 
ATOM     89  C   UNL A   1      46.638  26.929  36.260  1.00  0.00     0.200 A 
ATOM     90  F   UNL A   1      45.249  25.138  36.921  1.00  0.00    -0.200 F 
ATOM     91  F   UNL A   1      47.605  26.500  37.083  1.00  0.00    -0.200 F 
ENDBRANCH  58  81
ENDBRANCH  32  33
ENDBRANCH  25  27
ENDBRANCH  24  25
ENDBRANCH  23  24
ENDBRANCH  22  23
ENDBRANCH   1  22
TORSDOF 17
ENDMDL
MODEL 2
REMARK VINA RESULT:     -10.5      5.807      9.724
REMARK SMILES COC[C@@H](C)CNc1cc(C)c(N)c(C(=O)OCCOC(=O)c2ccc(-c3c4nc(c(-c5c(F)c(F)c(F)c(F)c5F)c5ccc([nH]5)c(-c5c(F)c(F)c(F)c(F)c5F)c5nc(c(-c6c(F)c(F)c(F)c(F)c6F)c6ccc3[nH]6)C=C5)C=C4)cc2)c1
REMARK SMILES IDX 17 1 15 2 16 3 14 4 8 5 9 6 86 7 10 8 11 9 12 10 7 11 6 13
REMARK SMILES IDX 4 14 5 15 3 16 2 17 1 18 13 19 18 22 19 23 20 24 21 25 22 26
REMARK SMILES IDX 23 27 24 28 85 29 25 30 84 31 26 32 27 33 28 34 78 35 29 36
REMARK SMILES IDX 83 37 77 38 79 39 30 40 82 41 76 42 75 43 31 45 63 46 43 47
REMARK SMILES IDX 62 48 44 49 47 50 61 51 80 52 45 53 46 54 60 56 81 57 48 58
REMARK SMILES IDX 32 59 33 60 41 61 34 62 35 63 39 64 42 65 36 66 37 67 40 68
REMARK SMILES IDX 38 69 64 70 65 71 73 72 66 73 67 74 71 75 74 76 68 77 69 78
REMARK SMILES IDX 72 79 70 80 49 81 50 82 58 83 51 84 52 85 56 86 59 87 53 88
REMARK SMILES IDX 54 89 57 90 55 91
REMARK H PARENT 7 12 13 20 13 21 79 44 47 55
REMARK Flexibility Score: inf
ROOT
ATOM      1  O   UNL A   1      41.189  19.534  25.736  1.00  0.00    -0.458 OA
ENDROOT
BRANCH   1   2
ATOM      2  C   UNL A   1      40.772  20.789  26.060  1.00  0.00     0.340 C 
ATOM      3  O   UNL A   1      41.474  21.705  26.451  1.00  0.00    -0.246 OA
BRANCH   2   4
ATOM      4  C   UNL A   1      39.316  20.928  25.779  1.00  0.00     0.085 A 
ATOM      5  C   UNL A   1      37.220  19.862  25.128  1.00  0.00     0.035 A 
ATOM      6  C   UNL A   1      36.643  21.130  25.063  1.00  0.00     0.031 A 
ATOM      7  C   UNL A   1      38.576  19.784  25.448  1.00  0.00     0.043 A 
ATOM      8  C   UNL A   1      37.359  22.294  25.398  1.00  0.00    -0.025 A 
ATOM      9  C   UNL A   1      36.689  23.631  25.219  1.00  0.00     0.047 C 
ATOM     10  C   UNL A   1      38.683  22.185  25.861  1.00  0.00     0.049 A 
BRANCH   5  11
ATOM     11  N   UNL A   1      36.557  18.696  24.812  1.00  0.00    -0.385 N 
ATOM     12  H   UNL A   1      37.104  17.884  24.698  1.00  0.00     0.160 HD
BRANCH  11  13
ATOM     13  C   UNL A   1      35.123  18.559  24.632  1.00  0.00     0.118 C 
BRANCH  13  14
ATOM     14  C   UNL A   1      34.800  17.144  24.118  1.00  0.00     0.031 C 
ATOM     15  C   UNL A   1      33.666  17.225  23.094  1.00  0.00     0.012 C 
BRANCH  14  16
ATOM     16  C   UNL A   1      34.462  16.208  25.289  1.00  0.00     0.164 C 
BRANCH  16  17
ATOM     17  O   UNL A   1      33.648  15.102  24.903  1.00  0.00    -0.384 OA
ATOM     18  C   UNL A   1      32.446  14.964  25.644  1.00  0.00     0.194 C 
ENDBRANCH  16  17
ENDBRANCH  14  16
ENDBRANCH  13  14
ENDBRANCH  11  13
ENDBRANCH   5  11
BRANCH  10  19
ATOM     19  N   UNL A   1      39.378  23.332  26.250  1.00  0.00    -0.398 N 
ATOM     20  H   UNL A   1      40.124  23.262  26.888  1.00  0.00     0.156 HD
ATOM     21  H   UNL A   1      39.123  24.210  25.884  1.00  0.00     0.156 HD
ENDBRANCH  10  19
ENDBRANCH   2   4
ENDBRANCH   1   2
BRANCH   1  22
ATOM     22  C   UNL A   1      42.130  18.907  26.634  1.00  0.00     0.275 C 
BRANCH  22  23
ATOM     23  C   UNL A   1      43.290  18.293  25.849  1.00  0.00     0.275 C 
BRANCH  23  24
ATOM     24  O   UNL A   1      43.411  18.982  24.596  1.00  0.00    -0.458 OA
BRANCH  24  25
ATOM     25  C   UNL A   1      44.661  19.329  24.208  1.00  0.00     0.338 C 
ATOM     26  O   UNL A   1      45.481  18.613  23.654  1.00  0.00    -0.246 OA
BRANCH  25  27
ATOM     27  C   UNL A   1      44.899  20.752  24.550  1.00  0.00     0.060 A 
ATOM     28  C   UNL A   1      45.521  21.085  25.751  1.00  0.00     0.016 A 
ATOM     29  C   UNL A   1      44.444  21.774  23.717  1.00  0.00     0.016 A 
ATOM     30  C   UNL A   1      45.644  22.418  26.145  1.00  0.00     0.010 A 
ATOM     31  C   UNL A   1      44.650  23.118  24.075  1.00  0.00     0.010 A 
ATOM     32  C   UNL A   1      45.239  23.461  25.307  1.00  0.00    -0.014 A 
BRANCH  32  33
ATOM     33  C   UNL A   1      45.380  24.885  25.746  1.00  0.00     0.031 A 
ATOM     34  C   UNL A   1      46.683  25.615  25.545  1.00  0.00     0.074 A 
ATOM     35  C   UNL A   1      44.345  25.564  26.289  1.00  0.00     0.049 A 
ATOM     36  N   UNL A   1      47.092  26.748  26.063  1.00  0.00    -0.248 NA
ATOM     37  C   UNL A   1      47.663  24.980  24.651  1.00  0.00     0.031 C 
ATOM     38  C   UNL A   1      42.994  25.040  26.492  1.00  0.00     0.029 A 
ATOM     39  N   UNL A   1      44.265  26.857  26.759  1.00  0.00    -0.354 N 
ATOM     40  C   UNL A   1      48.402  26.913  25.631  1.00  0.00     0.074 A 
ATOM     41  C   UNL A   1      48.714  25.778  24.789  1.00  0.00     0.031 C 
ATOM     42  C   UNL A   1      42.208  26.014  26.976  1.00  0.00     0.029 A 
ATOM     43  C   UNL A   1      43.022  27.195  27.239  1.00  0.00     0.049 A 
ATOM     44  H   UNL A   1      45.027  27.480  26.750  1.00  0.00     0.167 HD
ATOM     45  C   UNL A   1      49.268  27.914  25.923  1.00  0.00     0.037 A 
ATOM     46  C   UNL A   1      42.591  28.303  27.875  1.00  0.00     0.037 A 
ATOM     47  C   UNL A   1      48.930  29.090  26.686  1.00  0.00     0.049 A 
ATOM     48  C   UNL A   1      43.569  29.396  28.202  1.00  0.00     0.074 A 
ATOM     49  C   UNL A   1      49.740  30.158  27.029  1.00  0.00     0.029 A 
ATOM     50  N   UNL A   1      47.672  29.364  27.197  1.00  0.00    -0.354 N 
ATOM     51  N   UNL A   1      44.842  29.483  27.901  1.00  0.00    -0.248 NA
ATOM     52  C   UNL A   1      43.061  30.525  28.995  1.00  0.00     0.031 C 
ATOM     53  C   UNL A   1      48.978  31.069  27.769  1.00  0.00     0.029 A 
ATOM     54  C   UNL A   1      47.683  30.584  27.855  1.00  0.00     0.049 A 
ATOM     55  H   UNL A   1      46.885  28.779  27.105  1.00  0.00     0.167 HD
ATOM     56  C   UNL A   1      45.287  30.665  28.476  1.00  0.00     0.074 A 
ATOM     57  C   UNL A   1      44.143  31.282  29.111  1.00  0.00     0.031 C 
ATOM     58  C   UNL A   1      46.540  31.183  28.489  1.00  0.00     0.037 A 
BRANCH  45  59
ATOM     59  C   UNL A   1      50.686  27.768  25.456  1.00  0.00     0.064 A 
ATOM     60  C   UNL A   1      51.079  28.080  24.147  1.00  0.00     0.173 A 
ATOM     61  C   UNL A   1      51.678  27.355  26.360  1.00  0.00     0.173 A 
ATOM     62  F   UNL A   1      50.168  28.466  23.242  1.00  0.00    -0.203 F 
ATOM     63  C   UNL A   1      52.411  27.963  23.755  1.00  0.00     0.198 A 
ATOM     64  C   UNL A   1      53.012  27.267  25.971  1.00  0.00     0.198 A 
ATOM     65  F   UNL A   1      51.356  27.053  27.626  1.00  0.00    -0.203 F 
ATOM     66  F   UNL A   1      52.760  28.231  22.489  1.00  0.00    -0.200 F 
ATOM     67  C   UNL A   1      53.376  27.566  24.668  1.00  0.00     0.200 A 
ATOM     68  F   UNL A   1      53.945  26.897  26.860  1.00  0.00    -0.200 F 
ATOM     69  F   UNL A   1      54.659  27.468  24.291  1.00  0.00    -0.200 F 
ENDBRANCH  45  59
BRANCH  46  70
ATOM     70  C   UNL A   1      41.173  28.399  28.316  1.00  0.00     0.064 A 
ATOM     71  C   UNL A   1      40.773  27.928  29.574  1.00  0.00     0.173 A 
ATOM     72  C   UNL A   1      40.190  28.966  27.492  1.00  0.00     0.173 A 
ATOM     73  F   UNL A   1      41.667  27.342  30.386  1.00  0.00    -0.203 F 
ATOM     74  C   UNL A   1      39.445  28.023  29.990  1.00  0.00     0.198 A 
ATOM     75  C   UNL A   1      38.871  29.093  27.921  1.00  0.00     0.198 A 
ATOM     76  F   UNL A   1      40.516  29.420  26.273  1.00  0.00    -0.203 F 
ATOM     77  F   UNL A   1      39.081  27.529  31.182  1.00  0.00    -0.200 F 
ATOM     78  C   UNL A   1      38.499  28.616  29.169  1.00  0.00     0.200 A 
ATOM     79  F   UNL A   1      37.964  29.680  27.129  1.00  0.00    -0.200 F 
ATOM     80  F   UNL A   1      37.226  28.723  29.575  1.00  0.00    -0.200 F 
ENDBRANCH  46  70
BRANCH  58  81
ATOM     81  C   UNL A   1      46.730  32.486  29.207  1.00  0.00     0.064 A 
ATOM     82  C   UNL A   1      47.097  32.527  30.559  1.00  0.00     0.173 A 
ATOM     83  C   UNL A   1      46.563  33.704  28.531  1.00  0.00     0.173 A 
ATOM     84  F   UNL A   1      47.251  31.387  31.252  1.00  0.00    -0.203 F 
ATOM     85  C   UNL A   1      47.267  33.742  31.218  1.00  0.00     0.198 A 
ATOM     86  C   UNL A   1      46.756  34.917  29.187  1.00  0.00     0.198 A 
ATOM     87  F   UNL A   1      46.217  33.717  27.236  1.00  0.00    -0.203 F 
ATOM     88  F   UNL A   1      47.573  33.759  32.523  1.00  0.00    -0.200 F 
ATOM     89  C   UNL A   1      47.100  34.935  30.530  1.00  0.00     0.200 A 
ATOM     90  F   UNL A   1      46.603  36.069  28.520  1.00  0.00    -0.200 F 
ATOM     91  F   UNL A   1      47.263  36.104  31.165  1.00  0.00    -0.200 F 
ENDBRANCH  58  81
ENDBRANCH  32  33
ENDBRANCH  25  27
ENDBRANCH  24  25
ENDBRANCH  23  24
ENDBRANCH  22  23
ENDBRANCH   1  22
TORSDOF 17
ENDMDL
MODEL 3
REMARK VINA RESULT:     -10.3      4.489      9.759
REMARK SMILES COC[C@@H](C)CNc1cc(C)c(N)c(C(=O)OCCOC(=O)c2ccc(-c3c4nc(c(-c5c(F)c(F)c(F)c(F)c5F)c5ccc([nH]5)c(-c5c(F)c(F)c(F)c(F)c5F)c5nc(c(-c6c(F)c(F)c(F)c(F)c6F)c6ccc3[nH]6)C=C5)C=C4)cc2)c1
REMARK SMILES IDX 17 1 15 2 16 3 14 4 8 5 9 6 86 7 10 8 11 9 12 10 7 11 6 13
REMARK SMILES IDX 4 14 5 15 3 16 2 17 1 18 13 19 18 22 19 23 20 24 21 25 22 26
REMARK SMILES IDX 23 27 24 28 85 29 25 30 84 31 26 32 27 33 28 34 78 35 29 36
REMARK SMILES IDX 83 37 77 38 79 39 30 40 82 41 76 42 75 43 31 45 63 46 43 47
REMARK SMILES IDX 62 48 44 49 47 50 61 51 80 52 45 53 46 54 60 56 81 57 48 58
REMARK SMILES IDX 32 59 33 60 41 61 34 62 35 63 39 64 42 65 36 66 37 67 40 68
REMARK SMILES IDX 38 69 64 70 65 71 73 72 66 73 67 74 71 75 74 76 68 77 69 78
REMARK SMILES IDX 72 79 70 80 49 81 50 82 58 83 51 84 52 85 56 86 59 87 53 88
REMARK SMILES IDX 54 89 57 90 55 91
REMARK H PARENT 7 12 13 20 13 21 79 44 47 55
REMARK Flexibility Score: inf
ROOT
ATOM      1  O   UNL A   1      35.653  23.006  23.737  1.00  0.00    -0.458 OA
ENDROOT
BRANCH   1   2
ATOM      2  C   UNL A   1      35.201  23.554  24.898  1.00  0.00     0.340 C 
ATOM      3  O   UNL A   1      35.720  24.468  25.515  1.00  0.00    -0.246 OA
BRANCH   2   4
ATOM      4  C   UNL A   1      33.902  22.933  25.280  1.00  0.00     0.085 A 
ATOM      5  C   UNL A   1      32.519  20.927  25.396  1.00  0.00     0.035 A 
ATOM      6  C   UNL A   1      31.452  21.734  25.791  1.00  0.00     0.031 A 
ATOM      7  C   UNL A   1      33.731  21.553  25.102  1.00  0.00     0.043 A 
ATOM      8  C   UNL A   1      31.598  23.121  25.986  1.00  0.00    -0.025 A 
ATOM      9  C   UNL A   1      30.378  23.934  26.330  1.00  0.00     0.047 C 
ATOM     10  C   UNL A   1      32.863  23.714  25.827  1.00  0.00     0.049 A 
BRANCH   5  11
ATOM     11  N   UNL A   1      32.423  19.567  25.196  1.00  0.00    -0.385 N 
ATOM     12  H   UNL A   1      32.118  19.020  25.956  1.00  0.00     0.160 HD
BRANCH  11  13
ATOM     13  C   UNL A   1      32.734  18.869  23.961  1.00  0.00     0.118 C 
BRANCH  13  14
ATOM     14  C   UNL A   1      33.866  17.855  24.212  1.00  0.00     0.031 C 
ATOM     15  C   UNL A   1      34.035  16.970  22.975  1.00  0.00     0.012 C 
BRANCH  14  16
ATOM     16  C   UNL A   1      33.584  17.036  25.481  1.00  0.00     0.164 C 
BRANCH  16  17
ATOM     17  O   UNL A   1      32.256  16.517  25.527  1.00  0.00    -0.384 OA
ATOM     18  C   UNL A   1      32.166  15.153  25.906  1.00  0.00     0.194 C 
ENDBRANCH  16  17
ENDBRANCH  14  16
ENDBRANCH  13  14
ENDBRANCH  11  13
ENDBRANCH   5  11
BRANCH  10  19
ATOM     19  N   UNL A   1      33.025  25.078  26.076  1.00  0.00    -0.398 N 
ATOM     20  H   UNL A   1      33.414  25.662  25.385  1.00  0.00     0.156 HD
ATOM     21  H   UNL A   1      32.748  25.457  26.942  1.00  0.00     0.156 HD
ENDBRANCH  10  19
ENDBRANCH   2   4
ENDBRANCH   1   2
BRANCH   1  22
ATOM     22  C   UNL A   1      37.010  22.512  23.734  1.00  0.00     0.275 C 
BRANCH  22  23
ATOM     23  C   UNL A   1      37.126  21.262  24.608  1.00  0.00     0.275 C 
BRANCH  23  24
ATOM     24  O   UNL A   1      37.637  21.649  25.893  1.00  0.00    -0.458 OA
BRANCH  24  25
ATOM     25  C   UNL A   1      38.938  21.365  26.142  1.00  0.00     0.338 C 
ATOM     26  O   UNL A   1      39.493  20.287  25.995  1.00  0.00    -0.246 OA
BRANCH  25  27
ATOM     27  C   UNL A   1      39.619  22.591  26.623  1.00  0.00     0.060 A 
ATOM     28  C   UNL A   1      39.194  23.842  26.183  1.00  0.00     0.016 A 
ATOM     29  C   UNL A   1      40.734  22.510  27.458  1.00  0.00     0.016 A 
ATOM     30  C   UNL A   1      39.898  24.996  26.527  1.00  0.00     0.010 A 
ATOM     31  C   UNL A   1      41.386  23.682  27.877  1.00  0.00     0.010 A 
ATOM     32  C   UNL A   1      40.988  24.947  27.400  1.00  0.00    -0.014 A 
BRANCH  32  33
ATOM     33  C   UNL A   1      41.730  26.196  27.760  1.00  0.00     0.031 A 
ATOM     34  C   UNL A   1      41.090  27.227  28.654  1.00  0.00     0.074 A 
ATOM     35  C   UNL A   1      42.994  26.415  27.335  1.00  0.00     0.049 A 
ATOM     36  N   UNL A   1      41.450  28.467  28.886  1.00  0.00    -0.248 NA
ATOM     37  C   UNL A   1      39.877  26.813  29.375  1.00  0.00     0.031 C 
ATOM     38  C   UNL A   1      43.793  25.495  26.524  1.00  0.00     0.029 A 
ATOM     39  N   UNL A   1      43.840  27.483  27.542  1.00  0.00    -0.354 N 
ATOM     40  C   UNL A   1      40.462  29.003  29.703  1.00  0.00     0.074 A 
ATOM     41  C   UNL A   1      39.501  27.949  29.948  1.00  0.00     0.031 C 
ATOM     42  C   UNL A   1      45.025  26.002  26.362  1.00  0.00     0.029 A 
ATOM     43  C   UNL A   1      45.071  27.338  26.946  1.00  0.00     0.049 A 
ATOM     44  H   UNL A   1      43.587  28.275  28.069  1.00  0.00     0.167 HD
ATOM     45  C   UNL A   1      40.363  30.263  30.192  1.00  0.00     0.037 A 
ATOM     46  C   UNL A   1      46.102  28.198  26.824  1.00  0.00     0.037 A 
ATOM     47  C   UNL A   1      41.364  31.285  30.025  1.00  0.00     0.049 A 
ATOM     48  C   UNL A   1      45.967  29.595  27.361  1.00  0.00     0.074 A 
ATOM     49  C   UNL A   1      41.352  32.590  30.487  1.00  0.00     0.029 A 
ATOM     50  N   UNL A   1      42.572  31.108  29.368  1.00  0.00    -0.354 N 
ATOM     51  N   UNL A   1      44.971  30.134  28.021  1.00  0.00    -0.248 NA
ATOM     52  C   UNL A   1      47.081  30.517  27.097  1.00  0.00     0.031 C 
ATOM     53  C   UNL A   1      42.542  33.210  30.089  1.00  0.00     0.029 A 
ATOM     54  C   UNL A   1      43.311  32.279  29.411  1.00  0.00     0.049 A 
ATOM     55  H   UNL A   1      42.862  30.272  28.936  1.00  0.00     0.167 HD
ATOM     56  C   UNL A   1      45.332  31.455  28.240  1.00  0.00     0.074 A 
ATOM     57  C   UNL A   1      46.654  31.630  27.677  1.00  0.00     0.031 C 
ATOM     58  C   UNL A   1      44.622  32.442  28.840  1.00  0.00     0.037 A 
BRANCH  45  59
ATOM     59  C   UNL A   1      39.103  30.630  30.920  1.00  0.00     0.064 A 
ATOM     60  C   UNL A   1      38.987  30.527  32.313  1.00  0.00     0.173 A 
ATOM     61  C   UNL A   1      38.010  31.146  30.205  1.00  0.00     0.173 A 
ATOM     62  F   UNL A   1      39.997  30.028  33.040  1.00  0.00    -0.203 F 
ATOM     63  C   UNL A   1      37.813  30.908  32.961  1.00  0.00     0.198 A 
ATOM     64  C   UNL A   1      36.850  31.551  30.860  1.00  0.00     0.198 A 
ATOM     65  F   UNL A   1      38.074  31.273  28.871  1.00  0.00    -0.203 F 
ATOM     66  F   UNL A   1      37.709  30.766  34.290  1.00  0.00    -0.200 F 
ATOM     67  C   UNL A   1      36.751  31.426  32.236  1.00  0.00     0.200 A 
ATOM     68  F   UNL A   1      35.831  32.066  30.158  1.00  0.00    -0.200 F 
ATOM     69  F   UNL A   1      35.629  31.804  32.864  1.00  0.00    -0.200 F 
ENDBRANCH  45  59
BRANCH  46  70
ATOM     70  C   UNL A   1      47.330  27.783  26.094  1.00  0.00     0.064 A 
ATOM     71  C   UNL A   1      48.478  27.371  26.784  1.00  0.00     0.173 A 
ATOM     72  C   UNL A   1      47.380  27.787  24.691  1.00  0.00     0.173 A 
ATOM     73  F   UNL A   1      48.496  27.386  28.125  1.00  0.00    -0.203 F 
ATOM     74  C   UNL A   1      49.628  26.978  26.099  1.00  0.00     0.198 A 
ATOM     75  C   UNL A   1      48.515  27.359  24.008  1.00  0.00     0.198 A 
ATOM     76  F   UNL A   1      46.313  28.184  23.983  1.00  0.00    -0.203 F 
ATOM     77  F   UNL A   1      50.725  26.626  26.782  1.00  0.00    -0.200 F 
ATOM     78  C   UNL A   1      49.641  26.960  24.712  1.00  0.00     0.200 A 
ATOM     79  F   UNL A   1      48.517  27.331  22.668  1.00  0.00    -0.200 F 
ATOM     80  F   UNL A   1      50.740  26.566  24.054  1.00  0.00    -0.200 F 
ENDBRANCH  46  70
BRANCH  58  81
ATOM     81  C   UNL A   1      45.268  33.792  28.925  1.00  0.00     0.064 A 
ATOM     82  C   UNL A   1      46.132  34.123  29.978  1.00  0.00     0.173 A 
ATOM     83  C   UNL A   1      45.036  34.758  27.934  1.00  0.00     0.173 A 
ATOM     84  F   UNL A   1      46.370  33.237  30.959  1.00  0.00    -0.203 F 
ATOM     85  C   UNL A   1      46.723  35.382  30.050  1.00  0.00     0.198 A 
ATOM     86  C   UNL A   1      45.647  36.008  27.997  1.00  0.00     0.198 A 
ATOM     87  F   UNL A   1      44.220  34.488  26.904  1.00  0.00    -0.203 F 
ATOM     88  F   UNL A   1      47.510  35.692  31.090  1.00  0.00    -0.200 F 
ATOM     89  C   UNL A   1      46.483  36.320  29.057  1.00  0.00     0.200 A 
ATOM     90  F   UNL A   1      45.420  36.911  27.034  1.00  0.00    -0.200 F 
ATOM     91  F   UNL A   1      47.052  37.532  29.128  1.00  0.00    -0.200 F 
ENDBRANCH  58  81
ENDBRANCH  32  33
ENDBRANCH  25  27
ENDBRANCH  24  25
ENDBRANCH  23  24
ENDBRANCH  22  23
ENDBRANCH   1  22
TORSDOF 17
ENDMDL
