MODEL 1
REMARK VINA RESULT:     -14.2      0.000      0.000
REMARK SMILES Cc1ccc(N2C(=O)C[C@H](Sc3ccccc3C(=O)OCCOC(=O)c3ccc(-c4c5nc(c(-c6c(F)c(F)c(F)c(F)c6F)c6ccc([nH]6)c(-c6c(F)c(F)c(F)c(F)c6F)c6nc(c(-c7c(F)c(F)c(F)c(F)c7F)c7ccc4[nH]7)C=C6)C=C5)cc3)C2=O)cc1
REMARK SMILES IDX 21 1 20 2 18 3 19 4 17 5 12 6 13 7 14 8 16 9 15 10 11 11
REMARK SMILES IDX 10 12 6 13 7 14 89 15 8 16 9 17 90 18 5 19 1 20 2 21 3 22
REMARK SMILES IDX 92 23 4 24 91 25 22 26 23 27 24 28 25 29 26 30 27 31 88 32
REMARK SMILES IDX 28 33 87 34 29 35 30 36 31 37 81 38 32 39 86 40 80 41 82 42
REMARK SMILES IDX 33 43 85 44 79 45 78 46 34 48 66 49 46 50 65 51 47 52 50 53
REMARK SMILES IDX 64 54 83 55 48 56 49 57 63 59 84 60 51 61 35 62 36 63 44 64
REMARK SMILES IDX 37 65 38 66 42 67 45 68 39 69 40 70 43 71 41 72 67 73 68 74
REMARK SMILES IDX 76 75 69 76 70 77 74 78 77 79 71 80 72 81 75 82 73 83 52 84
REMARK SMILES IDX 53 85 61 86 54 87 55 88 59 89 62 90 56 91 57 92 60 93 58 94
REMARK H PARENT 82 47 50 58
REMARK Flexibility Score: inf
ROOT
ATOM      1  C   UNL A   1      32.775  28.556  27.088  1.00  0.00     0.275 C 
ENDROOT
BRANCH   1   2
ATOM      2  O   UNL A   1      33.071  27.265  26.503  1.00  0.00    -0.458 OA
BRANCH   2   3
ATOM      3  C   UNL A   1      33.052  27.217  25.143  1.00  0.00     0.339 C 
ATOM      4  O   UNL A   1      34.029  27.195  24.410  1.00  0.00    -0.246 OA
BRANCH   3   5
ATOM      5  C   UNL A   1      31.713  27.538  24.611  1.00  0.00     0.073 A 
ATOM      6  C   UNL A   1      30.535  26.781  24.798  1.00  0.00     0.023 A 
ATOM      7  C   UNL A   1      29.431  27.089  23.983  1.00  0.00     0.016 A 
ATOM      8  C   UNL A   1      29.504  28.079  22.996  1.00  0.00     0.001 A 
ATOM      9  C   UNL A   1      31.767  28.554  23.635  1.00  0.00     0.017 A 
ATOM     10  C   UNL A   1      30.673  28.808  22.817  1.00  0.00     0.001 A 
BRANCH   6  11
ATOM     11  S   UNL A   1      30.454  25.208  25.654  1.00  0.00    -0.111 SA
BRANCH  11  12
ATOM     12  C   UNL A   1      31.120  23.869  24.583  1.00  0.00     0.151 C 
ATOM     13  N   UNL A   1      33.406  23.636  24.228  1.00  0.00    -0.250 N 
ATOM     14  C   UNL A   1      32.947  24.156  23.047  1.00  0.00     0.235 C 
ATOM     15  C   UNL A   1      32.395  23.274  25.081  1.00  0.00     0.247 C 
ATOM     16  O   UNL A   1      33.585  24.408  22.032  1.00  0.00    -0.274 OA
ATOM     17  C   UNL A   1      31.454  24.309  23.153  1.00  0.00     0.126 C 
ATOM     18  O   UNL A   1      32.456  22.496  26.025  1.00  0.00    -0.273 OA
BRANCH  13  19
ATOM     19  C   UNL A   1      34.719  23.209  24.445  1.00  0.00     0.052 A 
ATOM     20  C   UNL A   1      38.530  21.734  25.742  1.00  0.00     0.044 C 
ATOM     21  C   UNL A   1      37.223  22.272  25.242  1.00  0.00    -0.051 A 
ATOM     22  C   UNL A   1      36.310  21.408  24.620  1.00  0.00     0.005 A 
ATOM     23  C   UNL A   1      36.888  23.619  25.420  1.00  0.00     0.005 A 
ATOM     24  C   UNL A   1      35.067  21.879  24.203  1.00  0.00     0.027 A 
ATOM     25  C   UNL A   1      35.630  24.083  25.039  1.00  0.00     0.027 A 
ENDBRANCH  13  19
ENDBRANCH  11  12
ENDBRANCH   6  11
ENDBRANCH   3   5
ENDBRANCH   2   3
ENDBRANCH   1   2
BRANCH   1  26
ATOM     26  C   UNL A   1      33.943  29.557  26.933  1.00  0.00     0.275 C 
BRANCH  26  27
ATOM     27  O   UNL A   1      35.109  29.322  27.745  1.00  0.00    -0.458 OA
BRANCH  27  28
ATOM     28  C   UNL A   1      35.875  30.397  27.980  1.00  0.00     0.338 C 
ATOM     29  O   UNL A   1      35.452  31.539  28.168  1.00  0.00    -0.246 OA
BRANCH  28  30
ATOM     30  C   UNL A   1      37.215  29.946  28.395  1.00  0.00     0.060 A 
ATOM     31  C   UNL A   1      37.311  29.127  29.525  1.00  0.00     0.016 A 
ATOM     32  C   UNL A   1      38.237  29.980  27.447  1.00  0.00     0.016 A 
ATOM     33  C   UNL A   1      38.283  28.153  29.600  1.00  0.00     0.010 A 
ATOM     34  C   UNL A   1      39.201  29.012  27.497  1.00  0.00     0.010 A 
ATOM     35  C   UNL A   1      39.204  28.102  28.563  1.00  0.00    -0.014 A 
BRANCH  35  36
ATOM     36  C   UNL A   1      40.451  27.399  28.720  1.00  0.00     0.031 A 
ATOM     37  C   UNL A   1      40.574  25.974  28.401  1.00  0.00     0.074 A 
ATOM     38  C   UNL A   1      41.419  28.281  29.039  1.00  0.00     0.049 A 
ATOM     39  N   UNL A   1      41.458  25.204  28.929  1.00  0.00    -0.248 NA
ATOM     40  C   UNL A   1      39.661  25.265  27.501  1.00  0.00     0.031 C 
ATOM     41  C   UNL A   1      42.859  28.197  28.969  1.00  0.00     0.029 A 
ATOM     42  N   UNL A   1      41.171  29.520  29.667  1.00  0.00    -0.354 N 
ATOM     43  C   UNL A   1      41.468  24.040  28.187  1.00  0.00     0.074 A 
ATOM     44  C   UNL A   1      40.242  24.060  27.425  1.00  0.00     0.031 C 
ATOM     45  C   UNL A   1      43.370  29.169  29.753  1.00  0.00     0.029 A 
ATOM     46  C   UNL A   1      42.259  29.777  30.489  1.00  0.00     0.049 A 
ATOM     47  H   UNL A   1      40.379  30.092  29.544  1.00  0.00     0.167 HD
ATOM     48  C   UNL A   1      42.626  23.320  28.125  1.00  0.00     0.037 A 
ATOM     49  C   UNL A   1      42.072  29.691  31.841  1.00  0.00     0.037 A 
ATOM     50  C   UNL A   1      43.655  23.986  28.922  1.00  0.00     0.049 A 
ATOM     51  C   UNL A   1      42.878  28.559  32.417  1.00  0.00     0.074 A 
ATOM     52  C   UNL A   1      44.570  24.959  28.552  1.00  0.00     0.029 A 
ATOM     53  N   UNL A   1      43.545  24.050  30.308  1.00  0.00    -0.354 N 
ATOM     54  N   UNL A   1      43.077  27.423  31.809  1.00  0.00    -0.248 NA
ATOM     55  C   UNL A   1      43.523  28.648  33.719  1.00  0.00     0.031 C 
ATOM     56  C   UNL A   1      44.956  25.663  29.715  1.00  0.00     0.029 A 
ATOM     57  C   UNL A   1      44.285  25.115  30.793  1.00  0.00     0.049 A 
ATOM     58  H   UNL A   1      43.019  23.430  30.861  1.00  0.00     0.167 HD
ATOM     59  C   UNL A   1      43.894  26.653  32.589  1.00  0.00     0.074 A 
ATOM     60  C   UNL A   1      44.134  27.455  33.778  1.00  0.00     0.031 C 
ATOM     61  C   UNL A   1      44.332  25.421  32.210  1.00  0.00     0.037 A 
BRANCH  48  62
ATOM     62  C   UNL A   1      42.935  22.321  27.034  1.00  0.00     0.064 A 
ATOM     63  C   UNL A   1      42.303  21.056  27.018  1.00  0.00     0.173 A 
ATOM     64  C   UNL A   1      43.876  22.524  26.007  1.00  0.00     0.173 A 
ATOM     65  F   UNL A   1      41.317  20.752  27.871  1.00  0.00    -0.203 F 
ATOM     66  C   UNL A   1      42.663  20.042  26.129  1.00  0.00     0.198 A 
ATOM     67  C   UNL A   1      44.257  21.497  25.131  1.00  0.00     0.198 A 
ATOM     68  F   UNL A   1      44.430  23.728  25.808  1.00  0.00    -0.203 F 
ATOM     69  F   UNL A   1      42.042  18.855  26.189  1.00  0.00    -0.200 F 
ATOM     70  C   UNL A   1      43.660  20.252  25.202  1.00  0.00     0.200 A 
ATOM     71  F   UNL A   1      45.214  21.720  24.219  1.00  0.00    -0.200 F 
ATOM     72  F   UNL A   1      44.031  19.268  24.373  1.00  0.00    -0.200 F 
ENDBRANCH  48  62
BRANCH  49  73
ATOM     73  C   UNL A   1      40.712  30.057  32.363  1.00  0.00     0.064 A 
ATOM     74  C   UNL A   1      40.337  31.413  32.467  1.00  0.00     0.173 A 
ATOM     75  C   UNL A   1      39.703  29.109  32.594  1.00  0.00     0.173 A 
ATOM     76  F   UNL A   1      41.248  32.380  32.271  1.00  0.00    -0.203 F 
ATOM     77  C   UNL A   1      39.018  31.797  32.724  1.00  0.00     0.198 A 
ATOM     78  C   UNL A   1      38.384  29.496  32.861  1.00  0.00     0.198 A 
ATOM     79  F   UNL A   1      39.968  27.798  32.520  1.00  0.00    -0.203 F 
ATOM     80  F   UNL A   1      38.690  33.096  32.755  1.00  0.00    -0.200 F 
ATOM     81  C   UNL A   1      38.040  30.837  32.910  1.00  0.00     0.200 A 
ATOM     82  F   UNL A   1      37.432  28.566  33.029  1.00  0.00    -0.200 F 
ATOM     83  F   UNL A   1      36.764  31.203  33.110  1.00  0.00    -0.200 F 
ENDBRANCH  49  73
BRANCH  61  84
ATOM     84  C   UNL A   1      44.980  24.448  33.145  1.00  0.00     0.064 A 
ATOM     85  C   UNL A   1      44.347  23.272  33.571  1.00  0.00     0.173 A 
ATOM     86  C   UNL A   1      46.331  24.606  33.523  1.00  0.00     0.173 A 
ATOM     87  F   UNL A   1      43.107  22.962  33.164  1.00  0.00    -0.203 F 
ATOM     88  C   UNL A   1      44.992  22.354  34.396  1.00  0.00     0.198 A 
ATOM     89  C   UNL A   1      46.992  23.655  34.293  1.00  0.00     0.198 A 
ATOM     90  F   UNL A   1      47.049  25.670  33.135  1.00  0.00    -0.203 F 
ATOM     91  F   UNL A   1      44.328  21.274  34.830  1.00  0.00    -0.200 F 
ATOM     92  C   UNL A   1      46.315  22.540  34.748  1.00  0.00     0.200 A 
ATOM     93  F   UNL A   1      48.292  23.816  34.576  1.00  0.00    -0.200 F 
ATOM     94  F   UNL A   1      46.944  21.637  35.511  1.00  0.00    -0.200 F 
ENDBRANCH  61  84
ENDBRANCH  35  36
ENDBRANCH  28  30
ENDBRANCH  27  28
ENDBRANCH  26  27
ENDBRANCH   1  26
TORSDOF 14
ENDMDL
MODEL 2
REMARK VINA RESULT:     -14.1      3.775      9.923
REMARK SMILES Cc1ccc(N2C(=O)C[C@H](Sc3ccccc3C(=O)OCCOC(=O)c3ccc(-c4c5nc(c(-c6c(F)c(F)c(F)c(F)c6F)c6ccc([nH]6)c(-c6c(F)c(F)c(F)c(F)c6F)c6nc(c(-c7c(F)c(F)c(F)c(F)c7F)c7ccc4[nH]7)C=C6)C=C5)cc3)C2=O)cc1
REMARK SMILES IDX 21 1 20 2 18 3 19 4 17 5 12 6 13 7 14 8 16 9 15 10 11 11
REMARK SMILES IDX 10 12 6 13 7 14 89 15 8 16 9 17 90 18 5 19 1 20 2 21 3 22
REMARK SMILES IDX 92 23 4 24 91 25 22 26 23 27 24 28 25 29 26 30 27 31 88 32
REMARK SMILES IDX 28 33 87 34 29 35 30 36 31 37 81 38 32 39 86 40 80 41 82 42
REMARK SMILES IDX 33 43 85 44 79 45 78 46 34 48 66 49 46 50 65 51 47 52 50 53
REMARK SMILES IDX 64 54 83 55 48 56 49 57 63 59 84 60 51 61 35 62 36 63 44 64
REMARK SMILES IDX 37 65 38 66 42 67 45 68 39 69 40 70 43 71 41 72 67 73 68 74
REMARK SMILES IDX 76 75 69 76 70 77 74 78 77 79 71 80 72 81 75 82 73 83 52 84
REMARK SMILES IDX 53 85 61 86 54 87 55 88 59 89 62 90 56 91 57 92 60 93 58 94
REMARK H PARENT 82 47 50 58
REMARK Flexibility Score: inf
ROOT
ATOM      1  C   UNL A   1      36.947  23.036  24.413  1.00  0.00     0.275 C 
ENDROOT
BRANCH   1   2
ATOM      2  O   UNL A   1      35.725  23.810  24.485  1.00  0.00    -0.458 OA
BRANCH   2   3
ATOM      3  C   UNL A   1      34.762  23.312  25.308  1.00  0.00     0.339 C 
ATOM      4  O   UNL A   1      34.598  23.604  26.482  1.00  0.00    -0.246 OA
BRANCH   3   5
ATOM      5  C   UNL A   1      34.126  22.112  24.729  1.00  0.00     0.073 A 
ATOM      6  C   UNL A   1      33.272  22.078  23.603  1.00  0.00     0.023 A 
ATOM      7  C   UNL A   1      32.543  20.896  23.380  1.00  0.00     0.016 A 
ATOM      8  C   UNL A   1      32.625  19.809  24.258  1.00  0.00     0.001 A 
ATOM      9  C   UNL A   1      34.224  21.001  25.590  1.00  0.00     0.017 A 
ATOM     10  C   UNL A   1      33.460  19.863  25.367  1.00  0.00     0.001 A 
BRANCH   6  11
ATOM     11  S   UNL A   1      32.712  23.520  22.699  1.00  0.00    -0.111 SA
BRANCH  11  12
ATOM     12  C   UNL A   1      31.428  24.414  23.665  1.00  0.00     0.151 C 
ATOM     13  N   UNL A   1      32.003  25.785  25.454  1.00  0.00    -0.250 N 
ATOM     14  C   UNL A   1      31.477  24.673  26.055  1.00  0.00     0.235 C 
ATOM     15  C   UNL A   1      31.836  25.785  24.092  1.00  0.00     0.247 C 
ATOM     16  O   UNL A   1      31.317  24.463  27.251  1.00  0.00    -0.274 OA
ATOM     17  C   UNL A   1      31.027  23.726  24.976  1.00  0.00     0.126 C 
ATOM     18  O   UNL A   1      31.878  26.746  23.333  1.00  0.00    -0.273 OA
BRANCH  13  19
ATOM     19  C   UNL A   1      32.378  26.947  26.132  1.00  0.00     0.052 A 
ATOM     20  C   UNL A   1      33.453  30.826  27.610  1.00  0.00     0.044 C 
ATOM     21  C   UNL A   1      33.096  29.446  27.143  1.00  0.00    -0.051 A 
ATOM     22  C   UNL A   1      31.759  29.026  27.180  1.00  0.00     0.005 A 
ATOM     23  C   UNL A   1      34.077  28.585  26.636  1.00  0.00     0.005 A 
ATOM     24  C   UNL A   1      31.401  27.771  26.695  1.00  0.00     0.027 A 
ATOM     25  C   UNL A   1      33.716  27.345  26.114  1.00  0.00     0.027 A 
ENDBRANCH  13  19
ENDBRANCH  11  12
ENDBRANCH   6  11
ENDBRANCH   3   5
ENDBRANCH   2   3
ENDBRANCH   1   2
BRANCH   1  26
ATOM     26  C   UNL A   1      37.646  22.906  25.785  1.00  0.00     0.275 C 
BRANCH  26  27
ATOM     27  O   UNL A   1      38.286  24.089  26.300  1.00  0.00    -0.458 OA
BRANCH  27  28
ATOM     28  C   UNL A   1      39.512  23.908  26.810  1.00  0.00     0.338 C 
ATOM     29  O   UNL A   1      40.294  23.017  26.470  1.00  0.00    -0.246 OA
BRANCH  28  30
ATOM     30  C   UNL A   1      39.933  25.143  27.494  1.00  0.00     0.060 A 
ATOM     31  C   UNL A   1      40.389  26.206  26.708  1.00  0.00     0.016 A 
ATOM     32  C   UNL A   1      39.468  25.360  28.791  1.00  0.00     0.016 A 
ATOM     33  C   UNL A   1      40.154  27.508  27.091  1.00  0.00     0.010 A 
ATOM     34  C   UNL A   1      39.215  26.645  29.183  1.00  0.00     0.010 A 
ATOM     35  C   UNL A   1      39.546  27.702  28.324  1.00  0.00    -0.014 A 
BRANCH  35  36
ATOM     36  C   UNL A   1      39.598  28.984  28.976  1.00  0.00     0.031 A 
ATOM     37  C   UNL A   1      38.558  29.995  28.767  1.00  0.00     0.074 A 
ATOM     38  C   UNL A   1      40.619  28.992  29.855  1.00  0.00     0.049 A 
ATOM     39  N   UNL A   1      38.756  31.257  28.917  1.00  0.00    -0.248 NA
ATOM     40  C   UNL A   1      37.207  29.680  28.297  1.00  0.00     0.031 C 
ATOM     41  C   UNL A   1      40.910  29.842  30.986  1.00  0.00     0.029 A 
ATOM     42  N   UNL A   1      41.754  28.160  29.743  1.00  0.00    -0.354 N 
ATOM     43  C   UNL A   1      37.513  31.857  28.931  1.00  0.00     0.074 A 
ATOM     44  C   UNL A   1      36.606  30.875  28.387  1.00  0.00     0.031 C 
ATOM     45  C   UNL A   1      42.217  29.693  31.292  1.00  0.00     0.029 A 
ATOM     46  C   UNL A   1      42.831  28.881  30.239  1.00  0.00     0.049 A 
ATOM     47  H   UNL A   1      41.777  27.244  29.381  1.00  0.00     0.167 HD
ATOM     48  C   UNL A   1      37.363  33.023  29.625  1.00  0.00     0.037 A 
ATOM     49  C   UNL A   1      43.765  29.329  29.347  1.00  0.00     0.037 A 
ATOM     50  C   UNL A   1      38.642  33.398  30.226  1.00  0.00     0.049 A 
ATOM     51  C   UNL A   1      43.768  30.832  29.291  1.00  0.00     0.074 A 
ATOM     52  C   UNL A   1      39.175  33.059  31.460  1.00  0.00     0.029 A 
ATOM     53  N   UNL A   1      39.711  33.790  29.425  1.00  0.00    -0.354 N 
ATOM     54  N   UNL A   1      42.696  31.567  29.389  1.00  0.00    -0.248 NA
ATOM     55  C   UNL A   1      44.993  31.602  29.132  1.00  0.00     0.031 C 
ATOM     56  C   UNL A   1      40.581  33.175  31.378  1.00  0.00     0.029 A 
ATOM     57  C   UNL A   1      40.905  33.594  30.100  1.00  0.00     0.049 A 
ATOM     58  H   UNL A   1      39.631  34.153  28.515  1.00  0.00     0.167 HD
ATOM     59  C   UNL A   1      43.069  32.881  29.355  1.00  0.00     0.074 A 
ATOM     60  C   UNL A   1      44.511  32.853  29.178  1.00  0.00     0.031 C 
ATOM     61  C   UNL A   1      42.181  33.906  29.486  1.00  0.00     0.037 A 
BRANCH  48  62
ATOM     62  C   UNL A   1      36.030  33.543  30.112  1.00  0.00     0.064 A 
ATOM     63  C   UNL A   1      35.148  34.199  29.223  1.00  0.00     0.173 A 
ATOM     64  C   UNL A   1      35.584  33.475  31.445  1.00  0.00     0.173 A 
ATOM     65  F   UNL A   1      35.389  34.258  27.908  1.00  0.00    -0.203 F 
ATOM     66  C   UNL A   1      33.979  34.833  29.649  1.00  0.00     0.198 A 
ATOM     67  C   UNL A   1      34.425  34.135  31.877  1.00  0.00     0.198 A 
ATOM     68  F   UNL A   1      36.243  32.746  32.356  1.00  0.00    -0.203 F 
ATOM     69  F   UNL A   1      33.202  35.463  28.756  1.00  0.00    -0.200 F 
ATOM     70  C   UNL A   1      33.630  34.825  30.982  1.00  0.00     0.200 A 
ATOM     71  F   UNL A   1      34.083  34.102  33.174  1.00  0.00    -0.200 F 
ATOM     72  F   UNL A   1      32.528  35.464  31.396  1.00  0.00    -0.200 F 
ENDBRANCH  48  62
BRANCH  49  73
ATOM     73  C   UNL A   1      44.006  28.478  28.132  1.00  0.00     0.064 A 
ATOM     74  C   UNL A   1      44.766  27.294  28.240  1.00  0.00     0.173 A 
ATOM     75  C   UNL A   1      43.363  28.700  26.905  1.00  0.00     0.173 A 
ATOM     76  F   UNL A   1      45.422  27.016  29.378  1.00  0.00    -0.203 F 
ATOM     77  C   UNL A   1      44.825  26.359  27.203  1.00  0.00     0.198 A 
ATOM     78  C   UNL A   1      43.430  27.765  25.865  1.00  0.00     0.198 A 
ATOM     79  F   UNL A   1      42.622  29.799  26.712  1.00  0.00    -0.203 F 
ATOM     80  F   UNL A   1      45.509  25.217  27.366  1.00  0.00    -0.200 F 
ATOM     81  C   UNL A   1      44.148  26.590  26.020  1.00  0.00     0.200 A 
ATOM     82  F   UNL A   1      42.764  27.984  24.721  1.00  0.00    -0.200 F 
ATOM     83  F   UNL A   1      44.164  25.672  25.042  1.00  0.00    -0.200 F 
ENDBRANCH  49  73
BRANCH  61  84
ATOM     84  C   UNL A   1      42.509  35.332  29.170  1.00  0.00     0.064 A 
ATOM     85  C   UNL A   1      42.031  35.981  28.021  1.00  0.00     0.173 A 
ATOM     86  C   UNL A   1      43.199  36.135  30.103  1.00  0.00     0.173 A 
ATOM     87  F   UNL A   1      41.256  35.343  27.132  1.00  0.00    -0.203 F 
ATOM     88  C   UNL A   1      42.302  37.324  27.778  1.00  0.00     0.198 A 
ATOM     89  C   UNL A   1      43.411  37.492  29.886  1.00  0.00     0.198 A 
ATOM     90  F   UNL A   1      43.661  35.631  31.257  1.00  0.00    -0.203 F 
ATOM     91  F   UNL A   1      41.880  37.888  26.638  1.00  0.00    -0.200 F 
ATOM     92  C   UNL A   1      42.983  38.081  28.713  1.00  0.00     0.200 A 
ATOM     93  F   UNL A   1      44.018  38.228  30.828  1.00  0.00    -0.200 F 
ATOM     94  F   UNL A   1      43.210  39.382  28.493  1.00  0.00    -0.200 F 
ENDBRANCH  61  84
ENDBRANCH  35  36
ENDBRANCH  28  30
ENDBRANCH  27  28
ENDBRANCH  26  27
ENDBRANCH   1  26
TORSDOF 14
ENDMDL
MODEL 3
REMARK VINA RESULT:     -14.0      3.920     10.119
REMARK SMILES Cc1ccc(N2C(=O)C[C@H](Sc3ccccc3C(=O)OCCOC(=O)c3ccc(-c4c5nc(c(-c6c(F)c(F)c(F)c(F)c6F)c6ccc([nH]6)c(-c6c(F)c(F)c(F)c(F)c6F)c6nc(c(-c7c(F)c(F)c(F)c(F)c7F)c7ccc4[nH]7)C=C6)C=C5)cc3)C2=O)cc1
REMARK SMILES IDX 21 1 20 2 18 3 19 4 17 5 12 6 13 7 14 8 16 9 15 10 11 11
REMARK SMILES IDX 10 12 6 13 7 14 89 15 8 16 9 17 90 18 5 19 1 20 2 21 3 22
REMARK SMILES IDX 92 23 4 24 91 25 22 26 23 27 24 28 25 29 26 30 27 31 88 32
REMARK SMILES IDX 28 33 87 34 29 35 30 36 31 37 81 38 32 39 86 40 80 41 82 42
REMARK SMILES IDX 33 43 85 44 79 45 78 46 34 48 66 49 46 50 65 51 47 52 50 53
REMARK SMILES IDX 64 54 83 55 48 56 49 57 63 59 84 60 51 61 35 62 36 63 44 64
REMARK SMILES IDX 37 65 38 66 42 67 45 68 39 69 40 70 43 71 41 72 67 73 68 74
REMARK SMILES IDX 76 75 69 76 70 77 74 78 77 79 71 80 72 81 75 82 73 83 52 84
REMARK SMILES IDX 53 85 61 86 54 87 55 88 59 89 62 90 56 91 57 92 60 93 58 94
REMARK H PARENT 82 47 50 58
REMARK Flexibility Score: inf
ROOT
ATOM      1  C   UNL A   1      36.551  23.587  24.875  1.00  0.00     0.275 C 
ENDROOT
BRANCH   1   2
ATOM      2  O   UNL A   1      35.881  22.360  24.494  1.00  0.00    -0.458 OA
BRANCH   2   3
ATOM      3  C   UNL A   1      34.771  22.048  25.217  1.00  0.00     0.339 C 
ATOM      4  O   UNL A   1      34.556  22.361  26.377  1.00  0.00    -0.246 OA
BRANCH   3   5
ATOM      5  C   UNL A   1      33.981  20.988  24.559  1.00  0.00     0.073 A 
ATOM      6  C   UNL A   1      33.059  21.166  23.503  1.00  0.00     0.023 A 
ATOM      7  C   UNL A   1      32.200  20.092  23.206  1.00  0.00     0.016 A 
ATOM      8  C   UNL A   1      32.225  18.908  23.952  1.00  0.00     0.001 A 
ATOM      9  C   UNL A   1      34.019  19.780  25.284  1.00  0.00     0.017 A 
ATOM     10  C   UNL A   1      33.130  18.753  24.995  1.00  0.00     0.001 A 
BRANCH   6  11
ATOM     11  S   UNL A   1      32.593  22.750  22.806  1.00  0.00    -0.111 SA
BRANCH  11  12
ATOM     12  C   UNL A   1      31.339  23.568  23.875  1.00  0.00     0.151 C 
ATOM     13  N   UNL A   1      31.970  25.067  25.538  1.00  0.00    -0.250 N 
ATOM     14  C   UNL A   1      31.619  23.941  26.234  1.00  0.00     0.235 C 
ATOM     15  C   UNL A   1      31.660  24.989  24.204  1.00  0.00     0.247 C 
ATOM     16  O   UNL A   1      31.609  23.774  27.448  1.00  0.00    -0.274 OA
ATOM     17  C   UNL A   1      31.148  22.908  25.246  1.00  0.00     0.126 C 
ATOM     18  O   UNL A   1      31.530  25.913  23.411  1.00  0.00    -0.273 OA
BRANCH  13  19
ATOM     19  C   UNL A   1      32.304  26.289  26.129  1.00  0.00     0.052 A 
ATOM     20  C   UNL A   1      33.182  30.310  27.329  1.00  0.00     0.044 C 
ATOM     21  C   UNL A   1      32.900  28.885  26.958  1.00  0.00    -0.051 A 
ATOM     22  C   UNL A   1      31.606  28.369  27.123  1.00  0.00     0.005 A 
ATOM     23  C   UNL A   1      33.903  28.073  26.415  1.00  0.00     0.005 A 
ATOM     24  C   UNL A   1      31.312  27.066  26.729  1.00  0.00     0.027 A 
ATOM     25  C   UNL A   1      33.601  26.783  25.984  1.00  0.00     0.027 A 
ENDBRANCH  13  19
ENDBRANCH  11  12
ENDBRANCH   6  11
ENDBRANCH   3   5
ENDBRANCH   2   3
ENDBRANCH   1   2
BRANCH   1  26
ATOM     26  C   UNL A   1      37.806  23.331  25.739  1.00  0.00     0.275 C 
BRANCH  26  27
ATOM     27  O   UNL A   1      38.437  24.488  26.322  1.00  0.00    -0.458 OA
BRANCH  27  28
ATOM     28  C   UNL A   1      39.408  24.230  27.210  1.00  0.00     0.338 C 
ATOM     29  O   UNL A   1      40.092  23.205  27.231  1.00  0.00    -0.246 OA
BRANCH  28  30
ATOM     30  C   UNL A   1      39.811  25.492  27.856  1.00  0.00     0.060 A 
ATOM     31  C   UNL A   1      40.271  26.530  27.038  1.00  0.00     0.016 A 
ATOM     32  C   UNL A   1      39.328  25.750  29.137  1.00  0.00     0.016 A 
ATOM     33  C   UNL A   1      40.023  27.843  27.373  1.00  0.00     0.010 A 
ATOM     34  C   UNL A   1      39.061  27.047  29.481  1.00  0.00     0.010 A 
ATOM     35  C   UNL A   1      39.397  28.075  28.590  1.00  0.00    -0.014 A 
BRANCH  35  36
ATOM     36  C   UNL A   1      39.432  29.380  29.198  1.00  0.00     0.031 A 
ATOM     37  C   UNL A   1      38.397  30.381  28.927  1.00  0.00     0.074 A 
ATOM     38  C   UNL A   1      40.431  29.420  30.102  1.00  0.00     0.049 A 
ATOM     39  N   UNL A   1      38.590  31.647  29.038  1.00  0.00    -0.248 NA
ATOM     40  C   UNL A   1      37.058  30.048  28.434  1.00  0.00     0.031 C 
ATOM     41  C   UNL A   1      40.692  30.310  31.209  1.00  0.00     0.029 A 
ATOM     42  N   UNL A   1      41.568  28.586  30.047  1.00  0.00    -0.354 N 
ATOM     43  C   UNL A   1      37.348  32.246  28.999  1.00  0.00     0.074 A 
ATOM     44  C   UNL A   1      36.455  31.244  28.468  1.00  0.00     0.031 C 
ATOM     45  C   UNL A   1      41.991  30.174  31.553  1.00  0.00     0.029 A 
ATOM     46  C   UNL A   1      42.632  29.326  30.545  1.00  0.00     0.049 A 
ATOM     47  H   UNL A   1      41.600  27.658  29.719  1.00  0.00     0.167 HD
ATOM     48  C   UNL A   1      37.180  33.436  29.648  1.00  0.00     0.037 A 
ATOM     49  C   UNL A   1      43.588  29.743  29.661  1.00  0.00     0.037 A 
ATOM     50  C   UNL A   1      38.442  33.834  30.267  1.00  0.00     0.049 A 
ATOM     51  C   UNL A   1      43.592  31.243  29.553  1.00  0.00     0.074 A 
ATOM     52  C   UNL A   1      38.944  33.539  31.526  1.00  0.00     0.029 A 
ATOM     53  N   UNL A   1      39.531  34.198  29.480  1.00  0.00    -0.354 N 
ATOM     54  N   UNL A   1      42.517  31.979  29.598  1.00  0.00    -0.248 NA
ATOM     55  C   UNL A   1      44.820  32.008  29.397  1.00  0.00     0.031 C 
ATOM     56  C   UNL A   1      40.352  33.654  31.475  1.00  0.00     0.029 A 
ATOM     57  C   UNL A   1      40.708  34.028  30.191  1.00  0.00     0.049 A 
ATOM     58  H   UNL A   1      39.474  34.530  28.556  1.00  0.00     0.167 HD
ATOM     59  C   UNL A   1      42.890  33.293  29.526  1.00  0.00     0.074 A 
ATOM     60  C   UNL A   1      44.337  33.260  29.387  1.00  0.00     0.031 C 
ATOM     61  C   UNL A   1      41.999  34.320  29.599  1.00  0.00     0.037 A 
BRANCH  48  62
ATOM     62  C   UNL A   1      35.834  33.971  30.082  1.00  0.00     0.064 A 
ATOM     63  C   UNL A   1      34.953  34.549  29.140  1.00  0.00     0.173 A 
ATOM     64  C   UNL A   1      35.374  33.992  31.412  1.00  0.00     0.173 A 
ATOM     65  F   UNL A   1      35.209  34.518  27.826  1.00  0.00    -0.203 F 
ATOM     66  C   UNL A   1      33.772  35.196  29.507  1.00  0.00     0.198 A 
ATOM     67  C   UNL A   1      34.201  34.665  31.784  1.00  0.00     0.198 A 
ATOM     68  F   UNL A   1      36.032  33.339  32.380  1.00  0.00    -0.203 F 
ATOM     69  F   UNL A   1      32.997  35.749  28.563  1.00  0.00    -0.200 F 
ATOM     70  C   UNL A   1      33.408  35.279  30.833  1.00  0.00     0.200 A 
ATOM     71  F   UNL A   1      33.846  34.720  33.076  1.00  0.00    -0.200 F 
ATOM     72  F   UNL A   1      32.293  35.930  31.189  1.00  0.00    -0.200 F 
ENDBRANCH  48  62
BRANCH  49  73
ATOM     73  C   UNL A   1      43.860  28.850  28.484  1.00  0.00     0.064 A 
ATOM     74  C   UNL A   1      44.623  27.675  28.650  1.00  0.00     0.173 A 
ATOM     75  C   UNL A   1      43.243  29.025  27.235  1.00  0.00     0.173 A 
ATOM     76  F   UNL A   1      45.254  27.442  29.812  1.00  0.00    -0.203 F 
ATOM     77  C   UNL A   1      44.709  26.703  27.650  1.00  0.00     0.198 A 
ATOM     78  C   UNL A   1      43.338  28.053  26.231  1.00  0.00     0.198 A 
ATOM     79  F   UNL A   1      42.502  30.112  26.986  1.00  0.00    -0.203 F 
ATOM     80  F   UNL A   1      45.394  25.572  27.869  1.00  0.00    -0.200 F 
ATOM     81  C   UNL A   1      44.057  26.888  26.444  1.00  0.00     0.200 A 
ATOM     82  F   UNL A   1      42.696  28.227  25.066  1.00  0.00    -0.200 F 
ATOM     83  F   UNL A   1      44.099  25.935  25.500  1.00  0.00    -0.200 F 
ENDBRANCH  49  73
BRANCH  61  84
ATOM     84  C   UNL A   1      42.334  35.734  29.241  1.00  0.00     0.064 A 
ATOM     85  C   UNL A   1      43.156  36.542  30.040  1.00  0.00     0.173 A 
ATOM     86  C   UNL A   1      41.950  36.270  27.993  1.00  0.00     0.173 A 
ATOM     87  F   UNL A   1      43.681  36.084  31.186  1.00  0.00    -0.203 F 
ATOM     88  C   UNL A   1      43.499  37.836  29.658  1.00  0.00     0.198 A 
ATOM     89  C   UNL A   1      42.349  37.539  27.587  1.00  0.00     0.198 A 
ATOM     90  F   UNL A   1      41.201  35.570  27.128  1.00  0.00    -0.203 F 
ATOM     91  F   UNL A   1      44.235  38.595  30.481  1.00  0.00    -0.200 F 
ATOM     92  C   UNL A   1      43.105  38.330  28.429  1.00  0.00     0.200 A 
ATOM     93  F   UNL A   1      42.012  37.982  26.367  1.00  0.00    -0.200 F 
ATOM     94  F   UNL A   1      43.468  39.561  28.048  1.00  0.00    -0.200 F 
ENDBRANCH  61  84
ENDBRANCH  35  36
ENDBRANCH  28  30
ENDBRANCH  27  28
ENDBRANCH  26  27
ENDBRANCH   1  26
TORSDOF 14
ENDMDL
