MODEL 1
REMARK VINA RESULT:     -13.1      0.000      0.000
REMARK SMILES CC(C)(C)c1cc2c(cc1Cl)C=C(C(=O)OCCOC(=O)c1ccc(-c3c4nc(c(-c5c(F)c(F)c(F)c(F)c5F)c5ccc([nH]5)c(-c5c(F)c(F)c(F)c(F)c5F)c5nc(c(-c6c(F)c(F)c(F)c(F)c6F)c6ccc3[nH]6)C=C5)C=C4)cc1)[C@@H](C(F)(F)F)O2
REMARK SMILES IDX 18 1 17 2 16 3 14 4 15 5 13 6 5 7 6 8 10 9 7 10 9 11 11 12
REMARK SMILES IDX 8 13 90 14 12 15 85 16 2 17 1 18 3 19 4 20 86 21 87 22 88 23
REMARK SMILES IDX 89 24 19 25 20 26 21 27 22 28 23 29 84 30 24 31 83 32 25 33
REMARK SMILES IDX 26 34 27 35 77 36 28 37 82 38 76 39 78 40 29 41 81 42 75 43
REMARK SMILES IDX 74 44 30 46 62 47 42 48 61 49 43 50 46 51 60 52 79 53 44 54
REMARK SMILES IDX 45 55 59 57 80 58 47 59 31 60 32 61 40 62 33 63 34 64 38 65
REMARK SMILES IDX 41 66 35 67 36 68 39 69 37 70 63 71 64 72 72 73 65 74 66 75
REMARK SMILES IDX 70 76 73 77 67 78 68 79 71 80 69 81 48 82 49 83 57 84 50 85
REMARK SMILES IDX 51 86 55 87 58 88 52 89 53 90 56 91 54 92
REMARK H PARENT 78 45 46 56
REMARK Flexibility Score: inf
ROOT
ATOM      1  C   UNL A   1      31.403  31.130  26.316  1.00  0.00     0.275 C 
ENDROOT
BRANCH   1   2
ATOM      2  C   UNL A   1      31.118  30.333  25.042  1.00  0.00     0.275 C 
BRANCH   2   3
ATOM      3  O   UNL A   1      31.044  28.914  25.313  1.00  0.00    -0.459 OA
BRANCH   3   4
ATOM      4  C   UNL A   1      30.745  28.132  24.251  1.00  0.00     0.338 C 
ATOM      5  O   UNL A   1      29.812  28.278  23.477  1.00  0.00    -0.246 OA
BRANCH   4   6
ATOM      6  C   UNL A   1      31.762  27.076  24.083  1.00  0.00     0.087 C 
ATOM      7  C   UNL A   1      35.096  23.346  24.953  1.00  0.00    -0.020 A 
ATOM      8  C   UNL A   1      34.816  24.238  23.873  1.00  0.00     0.053 A 
ATOM      9  C   UNL A   1      34.255  23.454  26.080  1.00  0.00     0.045 A 
ATOM     10  C   UNL A   1      33.778  25.172  23.904  1.00  0.00     0.128 A 
ATOM     11  C   UNL A   1      33.214  24.393  26.106  1.00  0.00     0.032 A 
ATOM     12  Cl  UNL A   1      34.382  22.541  27.539  1.00  0.00    -0.084 Cl
ATOM     13  C   UNL A   1      32.989  25.255  25.034  1.00  0.00     0.019 A 
ATOM     14  O   UNL A   1      33.602  25.960  22.801  1.00  0.00    -0.475 OA
ATOM     15  C   UNL A   1      31.958  26.260  25.122  1.00  0.00     0.027 C 
ATOM     16  C   UNL A   1      32.611  27.035  22.843  1.00  0.00     0.316 C 
BRANCH   7  17
ATOM     17  C   UNL A   1      36.318  22.405  24.794  1.00  0.00    -0.012 C 
ATOM     18  C   UNL A   1      37.511  22.609  25.751  1.00  0.00     0.016 C 
ATOM     19  C   UNL A   1      36.865  22.578  23.359  1.00  0.00     0.016 C 
ATOM     20  C   UNL A   1      35.887  20.929  25.001  1.00  0.00     0.016 C 
ENDBRANCH   7  17
BRANCH  16  21
ATOM     21  C   UNL A   1      33.337  28.376  22.638  1.00  0.00     0.430 C 
ATOM     22  F   UNL A   1      32.497  29.328  22.167  1.00  0.00    -0.167 F 
ATOM     23  F   UNL A   1      33.847  28.847  23.801  1.00  0.00    -0.167 F 
ATOM     24  F   UNL A   1      34.363  28.267  21.763  1.00  0.00    -0.167 F 
ENDBRANCH  16  21
ENDBRANCH   4   6
ENDBRANCH   3   4
ENDBRANCH   2   3
ENDBRANCH   1   2
BRANCH   1  25
ATOM     25  O   UNL A   1      32.746  30.872  26.766  1.00  0.00    -0.458 OA
BRANCH  25  26
ATOM     26  C   UNL A   1      33.387  31.918  27.331  1.00  0.00     0.338 C 
ATOM     27  O   UNL A   1      32.948  33.034  27.549  1.00  0.00    -0.246 OA
BRANCH  26  28
ATOM     28  C   UNL A   1      34.734  31.503  27.756  1.00  0.00     0.060 A 
ATOM     29  C   UNL A   1      35.721  32.437  28.045  1.00  0.00     0.016 A 
ATOM     30  C   UNL A   1      34.948  30.162  28.045  1.00  0.00     0.016 A 
ATOM     31  C   UNL A   1      36.921  32.005  28.625  1.00  0.00     0.010 A 
ATOM     32  C   UNL A   1      36.066  29.762  28.775  1.00  0.00     0.010 A 
ATOM     33  C   UNL A   1      37.092  30.671  29.053  1.00  0.00    -0.014 A 
BRANCH  33  34
ATOM     34  C   UNL A   1      38.321  30.245  29.796  1.00  0.00     0.031 A 
ATOM     35  C   UNL A   1      38.563  30.647  31.235  1.00  0.00     0.074 A 
ATOM     36  C   UNL A   1      39.258  29.508  29.161  1.00  0.00     0.049 A 
ATOM     37  N   UNL A   1      39.549  30.305  32.032  1.00  0.00    -0.248 NA
ATOM     38  C   UNL A   1      37.615  31.588  31.849  1.00  0.00     0.031 C 
ATOM     39  C   UNL A   1      39.238  29.157  27.740  1.00  0.00     0.029 A 
ATOM     40  N   UNL A   1      40.396  28.895  29.632  1.00  0.00    -0.354 N 
ATOM     41  C   UNL A   1      39.349  31.010  33.213  1.00  0.00     0.074 A 
ATOM     42  C   UNL A   1      38.201  31.861  33.006  1.00  0.00     0.031 C 
ATOM     43  C   UNL A   1      40.245  28.309  27.479  1.00  0.00     0.029 A 
ATOM     44  C   UNL A   1      41.009  28.088  28.703  1.00  0.00     0.049 A 
ATOM     45  H   UNL A   1      40.737  29.022  30.547  1.00  0.00     0.167 HD
ATOM     46  C   UNL A   1      40.020  30.922  34.388  1.00  0.00     0.037 A 
ATOM     47  C   UNL A   1      42.045  27.236  28.826  1.00  0.00     0.037 A 
ATOM     48  C   UNL A   1      41.114  30.019  34.627  1.00  0.00     0.049 A 
ATOM     49  C   UNL A   1      42.721  27.078  30.159  1.00  0.00     0.074 A 
ATOM     50  C   UNL A   1      41.794  29.784  35.809  1.00  0.00     0.029 A 
ATOM     51  N   UNL A   1      41.676  29.192  33.668  1.00  0.00    -0.354 N 
ATOM     52  N   UNL A   1      42.452  27.675  31.294  1.00  0.00    -0.248 NA
ATOM     53  C   UNL A   1      43.840  26.128  30.231  1.00  0.00     0.031 C 
ATOM     54  C   UNL A   1      42.787  28.833  35.559  1.00  0.00     0.029 A 
ATOM     55  C   UNL A   1      42.700  28.448  34.231  1.00  0.00     0.049 A 
ATOM     56  H   UNL A   1      41.392  29.141  32.727  1.00  0.00     0.167 HD
ATOM     57  C   UNL A   1      43.352  27.161  32.218  1.00  0.00     0.074 A 
ATOM     58  C   UNL A   1      44.165  26.190  31.516  1.00  0.00     0.031 C 
ATOM     59  C   UNL A   1      43.491  27.473  33.528  1.00  0.00     0.037 A 
BRANCH  46  60
ATOM     60  C   UNL A   1      39.555  31.781  35.530  1.00  0.00     0.064 A 
ATOM     61  C   UNL A   1      40.063  33.075  35.724  1.00  0.00     0.173 A 
ATOM     62  C   UNL A   1      38.550  31.335  36.403  1.00  0.00     0.173 A 
ATOM     63  F   UNL A   1      41.028  33.549  34.921  1.00  0.00    -0.203 F 
ATOM     64  C   UNL A   1      39.606  33.878  36.764  1.00  0.00     0.198 A 
ATOM     65  C   UNL A   1      38.071  32.155  37.423  1.00  0.00     0.198 A 
ATOM     66  F   UNL A   1      38.017  30.113  36.255  1.00  0.00    -0.203 F 
ATOM     67  F   UNL A   1      40.142  35.092  36.955  1.00  0.00    -0.200 F 
ATOM     68  C   UNL A   1      38.605  33.422  37.608  1.00  0.00     0.200 A 
ATOM     69  F   UNL A   1      37.089  31.721  38.226  1.00  0.00    -0.200 F 
ATOM     70  F   UNL A   1      38.155  34.203  38.599  1.00  0.00    -0.200 F 
ENDBRANCH  46  60
BRANCH  47  71
ATOM     71  C   UNL A   1      42.437  26.390  27.666  1.00  0.00     0.064 A 
ATOM     72  C   UNL A   1      43.486  26.784  26.824  1.00  0.00     0.173 A 
ATOM     73  C   UNL A   1      41.813  25.163  27.403  1.00  0.00     0.173 A 
ATOM     74  F   UNL A   1      44.103  27.958  27.026  1.00  0.00    -0.203 F 
ATOM     75  C   UNL A   1      43.893  25.985  25.757  1.00  0.00     0.198 A 
ATOM     76  C   UNL A   1      42.237  24.352  26.351  1.00  0.00     0.198 A 
ATOM     77  F   UNL A   1      40.810  24.739  28.185  1.00  0.00    -0.203 F 
ATOM     78  F   UNL A   1      44.883  26.397  24.954  1.00  0.00    -0.200 F 
ATOM     79  C   UNL A   1      43.275  24.766  25.528  1.00  0.00     0.200 A 
ATOM     80  F   UNL A   1      41.649  23.167  26.142  1.00  0.00    -0.200 F 
ATOM     81  F   UNL A   1      43.678  23.989  24.514  1.00  0.00    -0.200 F 
ENDBRANCH  47  71
BRANCH  59  82
ATOM     82  C   UNL A   1      44.548  26.754  34.311  1.00  0.00     0.064 A 
ATOM     83  C   UNL A   1      45.828  27.299  34.479  1.00  0.00     0.173 A 
ATOM     84  C   UNL A   1      44.244  25.560  34.982  1.00  0.00     0.173 A 
ATOM     85  F   UNL A   1      46.167  28.434  33.849  1.00  0.00    -0.203 F 
ATOM     86  C   UNL A   1      46.769  26.671  35.290  1.00  0.00     0.198 A 
ATOM     87  C   UNL A   1      45.180  24.949  35.811  1.00  0.00     0.198 A 
ATOM     88  F   UNL A   1      43.029  25.006  34.859  1.00  0.00    -0.203 F 
ATOM     89  F   UNL A   1      47.995  27.198  35.422  1.00  0.00    -0.200 F 
ATOM     90  C   UNL A   1      46.441  25.504  35.963  1.00  0.00     0.200 A 
ATOM     91  F   UNL A   1      44.856  23.828  36.472  1.00  0.00    -0.200 F 
ATOM     92  F   UNL A   1      47.342  24.913  36.761  1.00  0.00    -0.200 F 
ENDBRANCH  59  82
ENDBRANCH  33  34
ENDBRANCH  26  28
ENDBRANCH  25  26
ENDBRANCH   1  25
TORSDOF 13
ENDMDL
MODEL 2
REMARK VINA RESULT:     -13.1      4.526      9.983
REMARK SMILES CC(C)(C)c1cc2c(cc1Cl)C=C(C(=O)OCCOC(=O)c1ccc(-c3c4nc(c(-c5c(F)c(F)c(F)c(F)c5F)c5ccc([nH]5)c(-c5c(F)c(F)c(F)c(F)c5F)c5nc(c(-c6c(F)c(F)c(F)c(F)c6F)c6ccc3[nH]6)C=C5)C=C4)cc1)[C@@H](C(F)(F)F)O2
REMARK SMILES IDX 18 1 17 2 16 3 14 4 15 5 13 6 5 7 6 8 10 9 7 10 9 11 11 12
REMARK SMILES IDX 8 13 90 14 12 15 85 16 2 17 1 18 3 19 4 20 86 21 87 22 88 23
REMARK SMILES IDX 89 24 19 25 20 26 21 27 22 28 23 29 84 30 24 31 83 32 25 33
REMARK SMILES IDX 26 34 27 35 77 36 28 37 82 38 76 39 78 40 29 41 81 42 75 43
REMARK SMILES IDX 74 44 30 46 62 47 42 48 61 49 43 50 46 51 60 52 79 53 44 54
REMARK SMILES IDX 45 55 59 57 80 58 47 59 31 60 32 61 40 62 33 63 34 64 38 65
REMARK SMILES IDX 41 66 35 67 36 68 39 69 37 70 63 71 64 72 72 73 65 74 66 75
REMARK SMILES IDX 70 76 73 77 67 78 68 79 71 80 69 81 48 82 49 83 57 84 50 85
REMARK SMILES IDX 51 86 55 87 58 88 52 89 53 90 56 91 54 92
REMARK H PARENT 78 45 46 56
REMARK Flexibility Score: inf
ROOT
ATOM      1  C   UNL A   1      37.537  20.175  24.822  1.00  0.00     0.275 C 
ENDROOT
BRANCH   1   2
ATOM      2  C   UNL A   1      36.019  20.163  25.009  1.00  0.00     0.275 C 
BRANCH   2   3
ATOM      3  O   UNL A   1      35.416  21.375  24.500  1.00  0.00    -0.459 OA
BRANCH   3   4
ATOM      4  C   UNL A   1      34.064  21.386  24.470  1.00  0.00     0.338 C 
ATOM      5  O   UNL A   1      33.333  20.455  24.162  1.00  0.00    -0.246 OA
BRANCH   4   6
ATOM      6  C   UNL A   1      33.544  22.683  24.943  1.00  0.00     0.087 C 
ATOM      7  C   UNL A   1      32.781  27.653  25.653  1.00  0.00    -0.020 A 
ATOM      8  C   UNL A   1      32.411  26.453  26.333  1.00  0.00     0.053 A 
ATOM      9  C   UNL A   1      33.520  27.488  24.463  1.00  0.00     0.045 A 
ATOM     10  C   UNL A   1      32.747  25.178  25.870  1.00  0.00     0.128 A 
ATOM     11  C   UNL A   1      33.854  26.207  24.002  1.00  0.00     0.032 A 
ATOM     12  Cl  UNL A   1      34.135  28.751  23.461  1.00  0.00    -0.084 Cl
ATOM     13  C   UNL A   1      33.485  25.064  24.709  1.00  0.00     0.019 A 
ATOM     14  O   UNL A   1      32.322  24.105  26.602  1.00  0.00    -0.475 OA
ATOM     15  C   UNL A   1      33.909  23.764  24.248  1.00  0.00     0.027 C 
ATOM     16  C   UNL A   1      32.760  22.763  26.222  1.00  0.00     0.316 C 
BRANCH   7  17
ATOM     17  C   UNL A   1      32.385  28.994  26.321  1.00  0.00    -0.012 C 
ATOM     18  C   UNL A   1      33.522  29.937  26.769  1.00  0.00     0.016 C 
ATOM     19  C   UNL A   1      31.555  28.668  27.584  1.00  0.00     0.016 C 
ATOM     20  C   UNL A   1      31.523  29.842  25.349  1.00  0.00     0.016 C 
ENDBRANCH   7  17
BRANCH  16  21
ATOM     21  C   UNL A   1      33.564  22.164  27.390  1.00  0.00     0.430 C 
ATOM     22  F   UNL A   1      33.627  20.814  27.308  1.00  0.00    -0.167 F 
ATOM     23  F   UNL A   1      34.842  22.614  27.394  1.00  0.00    -0.167 F 
ATOM     24  F   UNL A   1      33.023  22.476  28.589  1.00  0.00    -0.167 F 
ENDBRANCH  16  21
ENDBRANCH   4   6
ENDBRANCH   3   4
ENDBRANCH   2   3
ENDBRANCH   1   2
BRANCH   1  25
ATOM     25  O   UNL A   1      38.106  21.313  25.496  1.00  0.00    -0.458 OA
BRANCH  25  26
ATOM     26  C   UNL A   1      39.290  21.101  26.112  1.00  0.00     0.338 C 
ATOM     27  O   UNL A   1      39.961  20.083  26.107  1.00  0.00    -0.246 OA
BRANCH  26  28
ATOM     28  C   UNL A   1      39.741  22.343  26.759  1.00  0.00     0.060 A 
ATOM     29  C   UNL A   1      40.800  22.346  27.658  1.00  0.00     0.016 A 
ATOM     30  C   UNL A   1      39.213  23.547  26.313  1.00  0.00     0.016 A 
ATOM     31  C   UNL A   1      41.316  23.570  28.102  1.00  0.00     0.010 A 
ATOM     32  C   UNL A   1      39.837  24.754  26.621  1.00  0.00     0.010 A 
ATOM     33  C   UNL A   1      40.883  24.795  27.547  1.00  0.00    -0.014 A 
BRANCH  33  34
ATOM     34  C   UNL A   1      41.533  26.091  27.923  1.00  0.00     0.031 A 
ATOM     35  C   UNL A   1      42.920  26.457  27.443  1.00  0.00     0.074 A 
ATOM     36  C   UNL A   1      40.881  26.947  28.740  1.00  0.00     0.049 A 
ATOM     37  N   UNL A   1      43.592  27.569  27.633  1.00  0.00    -0.248 NA
ATOM     38  C   UNL A   1      43.676  25.438  26.700  1.00  0.00     0.031 C 
ATOM     39  C   UNL A   1      39.600  26.681  29.396  1.00  0.00     0.029 A 
ATOM     40  N   UNL A   1      41.189  28.229  29.134  1.00  0.00    -0.354 N 
ATOM     41  C   UNL A   1      44.843  27.363  27.062  1.00  0.00     0.074 A 
ATOM     42  C   UNL A   1      44.872  25.998  26.593  1.00  0.00     0.031 C 
ATOM     43  C   UNL A   1      39.182  27.793  30.019  1.00  0.00     0.029 A 
ATOM     44  C   UNL A   1      40.183  28.841  29.844  1.00  0.00     0.049 A 
ATOM     45  H   UNL A   1      42.047  28.665  28.928  1.00  0.00     0.167 HD
ATOM     46  C   UNL A   1      45.860  28.242  26.889  1.00  0.00     0.037 A 
ATOM     47  C   UNL A   1      40.058  30.111  30.275  1.00  0.00     0.037 A 
ATOM     48  C   UNL A   1      45.809  29.625  27.281  1.00  0.00     0.049 A 
ATOM     49  C   UNL A   1      41.155  31.099  29.993  1.00  0.00     0.074 A 
ATOM     50  C   UNL A   1      46.747  30.619  27.061  1.00  0.00     0.029 A 
ATOM     51  N   UNL A   1      44.755  30.211  27.963  1.00  0.00    -0.354 N 
ATOM     52  N   UNL A   1      42.286  30.916  29.359  1.00  0.00    -0.248 NA
ATOM     53  C   UNL A   1      40.956  32.471  30.483  1.00  0.00     0.031 C 
ATOM     54  C   UNL A   1      46.271  31.801  27.633  1.00  0.00     0.029 A 
ATOM     55  C   UNL A   1      45.020  31.554  28.175  1.00  0.00     0.049 A 
ATOM     56  H   UNL A   1      43.938  29.744  28.253  1.00  0.00     0.167 HD
ATOM     57  C   UNL A   1      42.926  32.148  29.355  1.00  0.00     0.074 A 
ATOM     58  C   UNL A   1      42.049  33.078  30.036  1.00  0.00     0.031 C 
ATOM     59  C   UNL A   1      44.134  32.473  28.839  1.00  0.00     0.037 A 
BRANCH  46  60
ATOM     60  C   UNL A   1      47.099  27.756  26.190  1.00  0.00     0.064 A 
ATOM     61  C   UNL A   1      48.196  27.259  26.912  1.00  0.00     0.173 A 
ATOM     62  C   UNL A   1      47.170  27.725  24.789  1.00  0.00     0.173 A 
ATOM     63  F   UNL A   1      48.182  27.269  28.254  1.00  0.00    -0.203 F 
ATOM     64  C   UNL A   1      49.328  26.780  26.259  1.00  0.00     0.198 A 
ATOM     65  C   UNL A   1      48.292  27.214  24.139  1.00  0.00     0.198 A 
ATOM     66  F   UNL A   1      46.145  28.172  24.048  1.00  0.00    -0.203 F 
ATOM     67  F   UNL A   1      50.381  26.356  26.973  1.00  0.00    -0.200 F 
ATOM     68  C   UNL A   1      49.373  26.750  24.874  1.00  0.00     0.200 A 
ATOM     69  F   UNL A   1      48.326  27.166  22.800  1.00  0.00    -0.200 F 
ATOM     70  F   UNL A   1      50.457  26.274  24.248  1.00  0.00    -0.200 F 
ENDBRANCH  46  60
BRANCH  47  71
ATOM     71  C   UNL A   1      38.794  30.538  30.932  1.00  0.00     0.064 A 
ATOM     72  C   UNL A   1      38.700  30.580  32.330  1.00  0.00     0.173 A 
ATOM     73  C   UNL A   1      37.681  30.956  30.190  1.00  0.00     0.173 A 
ATOM     74  F   UNL A   1      39.734  30.175  33.083  1.00  0.00    -0.203 F 
ATOM     75  C   UNL A   1      37.537  31.016  32.962  1.00  0.00     0.198 A 
ATOM     76  C   UNL A   1      36.527  31.416  30.822  1.00  0.00     0.198 A 
ATOM     77  F   UNL A   1      37.724  30.942  28.850  1.00  0.00    -0.203 F 
ATOM     78  F   UNL A   1      37.466  31.022  34.300  1.00  0.00    -0.200 F 
ATOM     79  C   UNL A   1      36.455  31.443  32.208  1.00  0.00     0.200 A 
ATOM     80  F   UNL A   1      35.489  31.844  30.091  1.00  0.00    -0.200 F 
ATOM     81  F   UNL A   1      35.344  31.880  32.815  1.00  0.00    -0.200 F 
ENDBRANCH  47  71
BRANCH  59  82
ATOM     82  C   UNL A   1      44.589  33.896  28.962  1.00  0.00     0.064 A 
ATOM     83  C   UNL A   1      45.415  34.307  30.018  1.00  0.00     0.173 A 
ATOM     84  C   UNL A   1      44.281  34.829  27.961  1.00  0.00     0.173 A 
ATOM     85  F   UNL A   1      45.729  33.453  31.003  1.00  0.00    -0.203 F 
ATOM     86  C   UNL A   1      45.913  35.607  30.069  1.00  0.00     0.198 A 
ATOM     87  C   UNL A   1      44.800  36.119  28.004  1.00  0.00     0.198 A 
ATOM     88  F   UNL A   1      43.503  34.478  26.927  1.00  0.00    -0.203 F 
ATOM     89  F   UNL A   1      46.684  35.986  31.097  1.00  0.00    -0.200 F 
ATOM     90  C   UNL A   1      45.614  36.507  29.057  1.00  0.00     0.200 A 
ATOM     91  F   UNL A   1      44.522  36.984  27.018  1.00  0.00    -0.200 F 
ATOM     92  F   UNL A   1      46.113  37.751  29.096  1.00  0.00    -0.200 F 
ENDBRANCH  59  82
ENDBRANCH  33  34
ENDBRANCH  26  28
ENDBRANCH  25  26
ENDBRANCH   1  25
TORSDOF 13
ENDMDL
MODEL 3
REMARK VINA RESULT:     -13.1      4.523     10.003
REMARK SMILES CC(C)(C)c1cc2c(cc1Cl)C=C(C(=O)OCCOC(=O)c1ccc(-c3c4nc(c(-c5c(F)c(F)c(F)c(F)c5F)c5ccc([nH]5)c(-c5c(F)c(F)c(F)c(F)c5F)c5nc(c(-c6c(F)c(F)c(F)c(F)c6F)c6ccc3[nH]6)C=C5)C=C4)cc1)[C@@H](C(F)(F)F)O2
REMARK SMILES IDX 18 1 17 2 16 3 14 4 15 5 13 6 5 7 6 8 10 9 7 10 9 11 11 12
REMARK SMILES IDX 8 13 90 14 12 15 85 16 2 17 1 18 3 19 4 20 86 21 87 22 88 23
REMARK SMILES IDX 89 24 19 25 20 26 21 27 22 28 23 29 84 30 24 31 83 32 25 33
REMARK SMILES IDX 26 34 27 35 77 36 28 37 82 38 76 39 78 40 29 41 81 42 75 43
REMARK SMILES IDX 74 44 30 46 62 47 42 48 61 49 43 50 46 51 60 52 79 53 44 54
REMARK SMILES IDX 45 55 59 57 80 58 47 59 31 60 32 61 40 62 33 63 34 64 38 65
REMARK SMILES IDX 41 66 35 67 36 68 39 69 37 70 63 71 64 72 72 73 65 74 66 75
REMARK SMILES IDX 70 76 73 77 67 78 68 79 71 80 69 81 48 82 49 83 57 84 50 85
REMARK SMILES IDX 51 86 55 87 58 88 52 89 53 90 56 91 54 92
REMARK H PARENT 78 45 46 56
REMARK Flexibility Score: inf
ROOT
ATOM      1  C   UNL A   1      37.532  20.178  24.820  1.00  0.00     0.275 C 
ENDROOT
BRANCH   1   2
ATOM      2  C   UNL A   1      36.016  20.149  25.021  1.00  0.00     0.275 C 
BRANCH   2   3
ATOM      3  O   UNL A   1      35.390  21.334  24.479  1.00  0.00    -0.459 OA
BRANCH   3   4
ATOM      4  C   UNL A   1      34.037  21.335  24.485  1.00  0.00     0.338 C 
ATOM      5  O   UNL A   1      33.306  20.393  24.218  1.00  0.00    -0.246 OA
BRANCH   4   6
ATOM      6  C   UNL A   1      33.521  22.639  24.942  1.00  0.00     0.087 C 
ATOM      7  C   UNL A   1      32.767  27.619  25.589  1.00  0.00    -0.020 A 
ATOM      8  C   UNL A   1      32.397  26.428  26.286  1.00  0.00     0.053 A 
ATOM      9  C   UNL A   1      33.502  27.438  24.399  1.00  0.00     0.045 A 
ATOM     10  C   UNL A   1      32.730  25.148  25.838  1.00  0.00     0.128 A 
ATOM     11  C   UNL A   1      33.834  26.150  23.954  1.00  0.00     0.032 A 
ATOM     12  Cl  UNL A   1      34.117  28.687  23.379  1.00  0.00    -0.084 Cl
ATOM     13  C   UNL A   1      33.464  25.017  24.677  1.00  0.00     0.019 A 
ATOM     14  O   UNL A   1      32.306  24.085  26.586  1.00  0.00    -0.475 OA
ATOM     15  C   UNL A   1      33.886  23.711  24.232  1.00  0.00     0.027 C 
ATOM     16  C   UNL A   1      32.741  22.737  26.223  1.00  0.00     0.316 C 
BRANCH   7  17
ATOM     17  C   UNL A   1      32.375  28.970  26.240  1.00  0.00    -0.012 C 
ATOM     18  C   UNL A   1      33.513  29.937  26.630  1.00  0.00     0.016 C 
ATOM     19  C   UNL A   1      31.592  28.661  27.537  1.00  0.00     0.016 C 
ATOM     20  C   UNL A   1      31.469  29.784  25.280  1.00  0.00     0.016 C 
ENDBRANCH   7  17
BRANCH  16  21
ATOM     21  C   UNL A   1      33.547  22.153  27.395  1.00  0.00     0.430 C 
ATOM     22  F   UNL A   1      34.816  22.623  27.407  1.00  0.00    -0.167 F 
ATOM     23  F   UNL A   1      32.998  22.483  28.589  1.00  0.00    -0.167 F 
ATOM     24  F   UNL A   1      33.613  20.803  27.342  1.00  0.00    -0.167 F 
ENDBRANCH  16  21
ENDBRANCH   4   6
ENDBRANCH   3   4
ENDBRANCH   2   3
ENDBRANCH   1   2
BRANCH   1  25
ATOM     25  O   UNL A   1      38.097  21.306  25.514  1.00  0.00    -0.458 OA
BRANCH  25  26
ATOM     26  C   UNL A   1      39.289  21.091  26.112  1.00  0.00     0.338 C 
ATOM     27  O   UNL A   1      39.957  20.072  26.101  1.00  0.00    -0.246 OA
BRANCH  26  28
ATOM     28  C   UNL A   1      39.756  22.334  26.748  1.00  0.00     0.060 A 
ATOM     29  C   UNL A   1      40.811  22.333  27.650  1.00  0.00     0.016 A 
ATOM     30  C   UNL A   1      39.244  23.540  26.287  1.00  0.00     0.016 A 
ATOM     31  C   UNL A   1      41.342  23.555  28.082  1.00  0.00     0.010 A 
ATOM     32  C   UNL A   1      39.883  24.743  26.584  1.00  0.00     0.010 A 
ATOM     33  C   UNL A   1      40.927  24.779  27.513  1.00  0.00    -0.014 A 
BRANCH  33  34
ATOM     34  C   UNL A   1      41.592  26.070  27.878  1.00  0.00     0.031 A 
ATOM     35  C   UNL A   1      42.973  26.427  27.373  1.00  0.00     0.074 A 
ATOM     36  C   UNL A   1      40.962  26.932  28.706  1.00  0.00     0.049 A 
ATOM     37  N   UNL A   1      43.657  27.534  27.550  1.00  0.00    -0.248 NA
ATOM     38  C   UNL A   1      43.708  25.403  26.616  1.00  0.00     0.031 C 
ATOM     39  C   UNL A   1      39.691  26.674  29.385  1.00  0.00     0.029 A 
ATOM     40  N   UNL A   1      41.286  28.210  29.095  1.00  0.00    -0.354 N 
ATOM     41  C   UNL A   1      44.896  27.319  26.957  1.00  0.00     0.074 A 
ATOM     42  C   UNL A   1      44.906  25.954  26.487  1.00  0.00     0.031 C 
ATOM     43  C   UNL A   1      39.293  27.788  30.017  1.00  0.00     0.029 A 
ATOM     44  C   UNL A   1      40.297  28.829  29.823  1.00  0.00     0.049 A 
ATOM     45  H   UNL A   1      42.143  28.640  28.873  1.00  0.00     0.167 HD
ATOM     46  C   UNL A   1      45.916  28.192  26.766  1.00  0.00     0.037 A 
ATOM     47  C   UNL A   1      40.189  30.100  30.257  1.00  0.00     0.037 A 
ATOM     48  C   UNL A   1      45.881  29.574  27.159  1.00  0.00     0.049 A 
ATOM     49  C   UNL A   1      41.288  31.081  29.955  1.00  0.00     0.074 A 
ATOM     50  C   UNL A   1      46.822  30.562  26.922  1.00  0.00     0.029 A 
ATOM     51  N   UNL A   1      44.844  30.168  27.860  1.00  0.00    -0.354 N 
ATOM     52  N   UNL A   1      42.406  30.890  29.301  1.00  0.00    -0.248 NA
ATOM     53  C   UNL A   1      41.108  32.454  30.448  1.00  0.00     0.031 C 
ATOM     54  C   UNL A   1      46.365  31.747  27.502  1.00  0.00     0.029 A 
ATOM     55  C   UNL A   1      45.123  31.508  28.067  1.00  0.00     0.049 A 
ATOM     56  H   UNL A   1      44.029  29.706  28.164  1.00  0.00     0.167 HD
ATOM     57  C   UNL A   1      43.054  32.117  29.285  1.00  0.00     0.074 A 
ATOM     58  C   UNL A   1      42.196  33.053  29.982  1.00  0.00     0.031 C 
ATOM     59  C   UNL A   1      44.255  32.434  28.747  1.00  0.00     0.037 A 
BRANCH  46  60
ATOM     60  C   UNL A   1      47.138  27.696  26.045  1.00  0.00     0.064 A 
ATOM     61  C   UNL A   1      47.219  27.720  24.644  1.00  0.00     0.173 A 
ATOM     62  C   UNL A   1      48.264  27.253  26.757  1.00  0.00     0.173 A 
ATOM     63  F   UNL A   1      46.170  28.130  23.914  1.00  0.00    -0.203 F 
ATOM     64  C   UNL A   1      48.366  27.289  23.983  1.00  0.00     0.198 A 
ATOM     65  C   UNL A   1      49.422  26.855  26.093  1.00  0.00     0.198 A 
ATOM     66  F   UNL A   1      48.249  27.224  28.098  1.00  0.00    -0.203 F 
ATOM     67  F   UNL A   1      48.398  27.277  22.642  1.00  0.00    -0.200 F 
ATOM     68  C   UNL A   1      49.469  26.866  24.706  1.00  0.00     0.200 A 
ATOM     69  F   UNL A   1      50.496  26.464  26.794  1.00  0.00    -0.200 F 
ATOM     70  F   UNL A   1      50.577  26.466  24.068  1.00  0.00    -0.200 F 
ENDBRANCH  46  60
BRANCH  47  71
ATOM     71  C   UNL A   1      38.940  30.537  30.936  1.00  0.00     0.064 A 
ATOM     72  C   UNL A   1      38.848  30.511  32.335  1.00  0.00     0.173 A 
ATOM     73  C   UNL A   1      37.842  31.028  30.218  1.00  0.00     0.173 A 
ATOM     74  F   UNL A   1      39.867  30.034  33.065  1.00  0.00    -0.203 F 
ATOM     75  C   UNL A   1      37.701  30.954  32.990  1.00  0.00     0.198 A 
ATOM     76  C   UNL A   1      36.704  31.494  30.875  1.00  0.00     0.198 A 
ATOM     77  F   UNL A   1      37.884  31.080  28.879  1.00  0.00    -0.203 F 
ATOM     78  F   UNL A   1      37.630  30.895  34.326  1.00  0.00    -0.200 F 
ATOM     79  C   UNL A   1      36.634  31.454  32.260  1.00  0.00     0.200 A 
ATOM     80  F   UNL A   1      35.681  31.993  30.168  1.00  0.00    -0.200 F 
ATOM     81  F   UNL A   1      35.538  31.897  32.890  1.00  0.00    -0.200 F 
ENDBRANCH  47  71
BRANCH  59  82
ATOM     82  C   UNL A   1      44.723  33.853  28.863  1.00  0.00     0.064 A 
ATOM     83  C   UNL A   1      44.388  34.812  27.897  1.00  0.00     0.173 A 
ATOM     84  C   UNL A   1      45.424  34.278  30.001  1.00  0.00     0.173 A 
ATOM     85  F   UNL A   1      43.726  34.451  26.787  1.00  0.00    -0.203 F 
ATOM     86  C   UNL A   1      44.743  36.148  28.065  1.00  0.00     0.198 A 
ATOM     87  C   UNL A   1      45.756  35.618  30.176  1.00  0.00     0.198 A 
ATOM     88  F   UNL A   1      45.758  33.399  30.957  1.00  0.00    -0.203 F 
ATOM     89  F   UNL A   1      44.431  37.045  27.120  1.00  0.00    -0.200 F 
ATOM     90  C   UNL A   1      45.416  36.551  29.208  1.00  0.00     0.200 A 
ATOM     91  F   UNL A   1      46.395  36.009  31.288  1.00  0.00    -0.200 F 
ATOM     92  F   UNL A   1      45.738  37.841  29.378  1.00  0.00    -0.200 F 
ENDBRANCH  59  82
ENDBRANCH  33  34
ENDBRANCH  26  28
ENDBRANCH  25  26
ENDBRANCH   1  25
TORSDOF 13
ENDMDL
