MODEL 1
REMARK VINA RESULT:     -12.7      0.000      0.000
REMARK SMILES Cc1ccc([C@@H](CC(=O)OCCOC(=O)c2ccc(-c3c4nc(c(-c5c(F)c(F)c(F)c(F)c5F)c5ccc([nH]5)c(-c5c(F)c(F)c(F)c(F)c5F)c5nc(c(-c6c(F)c(F)c(F)c(F)c6F)c6ccc3[nH]6)C=C5)C=C4)cc2)NC(=O)c2ccc(OC(F)F)cc2)cc1
REMARK SMILES IDX 10 1 8 2 9 3 7 4 6 5 5 6 1 7 2 8 3 9 93 10 4 11 92 12 79 13
REMARK SMILES IDX 80 14 81 16 82 17 83 18 91 19 84 20 90 21 85 22 86 23 87 24
REMARK SMILES IDX 88 25 89 26 11 27 12 28 13 29 14 30 15 31 16 32 17 33 78 34
REMARK SMILES IDX 18 35 77 36 19 37 20 38 21 39 71 40 22 41 76 42 70 43 72 44
REMARK SMILES IDX 23 45 75 46 69 47 68 48 24 50 56 51 36 52 55 53 37 54 40 55
REMARK SMILES IDX 54 56 73 57 38 58 39 59 53 61 74 62 41 63 25 64 26 65 34 66
REMARK SMILES IDX 27 67 28 68 32 69 35 70 29 71 30 72 33 73 31 74 57 75 58 76
REMARK SMILES IDX 66 77 59 78 60 79 64 80 67 81 61 82 62 83 65 84 63 85 42 86
REMARK SMILES IDX 43 87 51 88 44 89 45 90 49 91 52 92 46 93 47 94 50 95 48 96
REMARK H PARENT 79 15 72 49 40 60
REMARK Flexibility Score: inf
ROOT
ATOM      1  O   UNL A   1      32.408  28.497  26.299  1.00  0.00    -0.462 OA
ENDROOT
BRANCH   1   2
ATOM      2  C   UNL A   1      31.689  27.605  27.024  1.00  0.00     0.308 C 
ATOM      3  O   UNL A   1      31.041  27.895  28.019  1.00  0.00    -0.252 OA
BRANCH   2   4
ATOM      4  C   UNL A   1      31.826  26.211  26.443  1.00  0.00     0.152 C 
BRANCH   4   5
ATOM      5  C   UNL A   1      31.143  26.084  25.061  1.00  0.00     0.123 C 
BRANCH   5   6
ATOM      6  C   UNL A   1      30.865  24.576  24.876  1.00  0.00    -0.025 A 
ATOM      7  C   UNL A   1      32.635  20.792  23.944  1.00  0.00     0.044 C 
ATOM      8  C   UNL A   1      31.813  21.995  24.302  1.00  0.00    -0.051 A 
ATOM      9  C   UNL A   1      31.194  22.752  23.306  1.00  0.00     0.004 A 
ATOM     10  C   UNL A   1      31.786  22.460  25.620  1.00  0.00     0.004 A 
ATOM     11  C   UNL A   1      30.670  24.017  23.599  1.00  0.00     0.006 A 
ATOM     12  C   UNL A   1      31.300  23.734  25.911  1.00  0.00     0.006 A 
ENDBRANCH   5   6
BRANCH   5  13
ATOM     13  N   UNL A   1      31.919  26.686  23.982  1.00  0.00    -0.345 N 
ATOM     14  C   UNL A   1      33.251  26.561  23.670  1.00  0.00     0.251 C 
ATOM     15  H   UNL A   1      31.408  27.276  23.382  1.00  0.00     0.164 HD
ATOM     16  O   UNL A   1      33.822  27.499  23.118  1.00  0.00    -0.269 OA
BRANCH  14  17
ATOM     17  C   UNL A   1      34.018  25.318  23.946  1.00  0.00     0.040 A 
ATOM     18  C   UNL A   1      34.633  25.168  25.193  1.00  0.00     0.017 A 
ATOM     19  C   UNL A   1      34.297  24.385  22.945  1.00  0.00     0.017 A 
ATOM     20  C   UNL A   1      35.480  24.079  25.439  1.00  0.00     0.047 A 
ATOM     21  C   UNL A   1      35.138  23.291  23.194  1.00  0.00     0.047 A 
ATOM     22  C   UNL A   1      35.736  23.132  24.443  1.00  0.00     0.126 A 
BRANCH  22  23
ATOM     23  O   UNL A   1      36.593  22.132  24.807  1.00  0.00    -0.435 OA
BRANCH  23  24
ATOM     24  C   UNL A   1      36.063  20.832  25.028  1.00  0.00     0.542 C 
ATOM     25  F   UNL A   1      37.073  19.939  25.171  1.00  0.00    -0.167 F 
ATOM     26  F   UNL A   1      35.319  20.816  26.161  1.00  0.00    -0.167 F 
ENDBRANCH  23  24
ENDBRANCH  22  23
ENDBRANCH  14  17
ENDBRANCH   5  13
ENDBRANCH   4   5
ENDBRANCH   2   4
ENDBRANCH   1   2
BRANCH   1  27
ATOM     27  C   UNL A   1      31.689  29.609  25.771  1.00  0.00     0.274 C 
BRANCH  27  28
ATOM     28  C   UNL A   1      32.056  30.870  26.563  1.00  0.00     0.275 C 
BRANCH  28  29
ATOM     29  O   UNL A   1      33.242  30.897  27.435  1.00  0.00    -0.458 OA
BRANCH  29  30
ATOM     30  C   UNL A   1      33.960  31.971  27.882  1.00  0.00     0.338 C 
ATOM     31  O   UNL A   1      33.468  33.049  28.113  1.00  0.00    -0.246 OA
BRANCH  30  32
ATOM     32  C   UNL A   1      35.407  31.739  28.069  1.00  0.00     0.060 A 
ATOM     33  C   UNL A   1      36.320  32.809  28.164  1.00  0.00     0.016 A 
ATOM     34  C   UNL A   1      35.788  30.454  28.379  1.00  0.00     0.016 A 
ATOM     35  C   UNL A   1      37.590  32.590  28.696  1.00  0.00     0.010 A 
ATOM     36  C   UNL A   1      36.868  30.321  29.192  1.00  0.00     0.010 A 
ATOM     37  C   UNL A   1      37.834  31.334  29.235  1.00  0.00    -0.014 A 
BRANCH  37  38
ATOM     38  C   UNL A   1      39.123  30.794  29.635  1.00  0.00     0.031 A 
ATOM     39  C   UNL A   1      39.621  29.532  29.072  1.00  0.00     0.074 A 
ATOM     40  C   UNL A   1      39.815  31.726  30.345  1.00  0.00     0.049 A 
ATOM     41  N   UNL A   1      40.470  28.768  29.656  1.00  0.00    -0.248 NA
ATOM     42  C   UNL A   1      39.194  28.974  27.793  1.00  0.00     0.031 C 
ATOM     43  C   UNL A   1      41.209  31.927  30.681  1.00  0.00     0.029 A 
ATOM     44  N   UNL A   1      39.197  32.823  30.997  1.00  0.00    -0.354 N 
ATOM     45  C   UNL A   1      41.028  27.983  28.662  1.00  0.00     0.074 A 
ATOM     46  C   UNL A   1      40.073  27.984  27.590  1.00  0.00     0.031 C 
ATOM     47  C   UNL A   1      41.270  32.763  31.746  1.00  0.00     0.029 A 
ATOM     48  C   UNL A   1      39.901  33.040  32.175  1.00  0.00     0.049 A 
ATOM     49  H   UNL A   1      38.419  33.334  30.676  1.00  0.00     0.167 HD
ATOM     50  C   UNL A   1      42.350  27.663  28.759  1.00  0.00     0.037 A 
ATOM     51  C   UNL A   1      39.255  32.626  33.307  1.00  0.00     0.037 A 
ATOM     52  C   UNL A   1      42.907  28.320  29.944  1.00  0.00     0.049 A 
ATOM     53  C   UNL A   1      39.914  31.373  33.842  1.00  0.00     0.074 A 
ATOM     54  C   UNL A   1      43.649  29.474  30.134  1.00  0.00     0.029 A 
ATOM     55  N   UNL A   1      42.339  28.041  31.171  1.00  0.00    -0.354 N 
ATOM     56  N   UNL A   1      40.705  30.604  33.141  1.00  0.00    -0.248 NA
ATOM     57  C   UNL A   1      39.723  30.881  35.195  1.00  0.00     0.031 C 
ATOM     58  C   UNL A   1      43.540  29.852  31.508  1.00  0.00     0.029 A 
ATOM     59  C   UNL A   1      42.705  28.949  32.139  1.00  0.00     0.049 A 
ATOM     60  H   UNL A   1      41.740  27.277  31.337  1.00  0.00     0.167 HD
ATOM     61  C   UNL A   1      41.208  29.607  33.923  1.00  0.00     0.074 A 
ATOM     62  C   UNL A   1      40.481  29.770  35.176  1.00  0.00     0.031 C 
ATOM     63  C   UNL A   1      42.187  28.751  33.484  1.00  0.00     0.037 A 
BRANCH  50  64
ATOM     64  C   UNL A   1      43.205  27.035  27.681  1.00  0.00     0.064 A 
ATOM     65  C   UNL A   1      43.385  25.634  27.639  1.00  0.00     0.173 A 
ATOM     66  C   UNL A   1      43.838  27.739  26.636  1.00  0.00     0.173 A 
ATOM     67  F   UNL A   1      42.794  24.823  28.525  1.00  0.00    -0.203 F 
ATOM     68  C   UNL A   1      44.173  24.996  26.680  1.00  0.00     0.198 A 
ATOM     69  C   UNL A   1      44.649  27.100  25.685  1.00  0.00     0.198 A 
ATOM     70  F   UNL A   1      43.655  29.056  26.472  1.00  0.00    -0.203 F 
ATOM     71  F   UNL A   1      44.297  23.661  26.707  1.00  0.00    -0.200 F 
ATOM     72  C   UNL A   1      44.818  25.729  25.710  1.00  0.00     0.200 A 
ATOM     73  F   UNL A   1      45.258  27.821  24.732  1.00  0.00    -0.200 F 
ATOM     74  F   UNL A   1      45.579  25.115  24.793  1.00  0.00    -0.200 F 
ENDBRANCH  50  64
BRANCH  51  75
ATOM     75  C   UNL A   1      37.760  32.889  33.240  1.00  0.00     0.064 A 
ATOM     76  C   UNL A   1      37.293  34.217  33.435  1.00  0.00     0.173 A 
ATOM     77  C   UNL A   1      36.850  31.996  32.658  1.00  0.00     0.173 A 
ATOM     78  F   UNL A   1      38.105  35.142  33.974  1.00  0.00    -0.203 F 
ATOM     79  C   UNL A   1      36.054  34.650  32.954  1.00  0.00     0.198 A 
ATOM     80  C   UNL A   1      35.586  32.425  32.220  1.00  0.00     0.198 A 
ATOM     81  F   UNL A   1      37.202  30.726  32.418  1.00  0.00    -0.203 F 
ATOM     82  F   UNL A   1      35.732  35.952  33.005  1.00  0.00    -0.200 F 
ATOM     83  C   UNL A   1      35.204  33.754  32.338  1.00  0.00     0.200 A 
ATOM     84  F   UNL A   1      34.777  31.566  31.581  1.00  0.00    -0.200 F 
ATOM     85  F   UNL A   1      34.053  34.180  31.797  1.00  0.00    -0.200 F 
ENDBRANCH  51  75
BRANCH  63  86
ATOM     86  C   UNL A   1      42.740  27.594  34.277  1.00  0.00     0.064 A 
ATOM     87  C   UNL A   1      41.968  26.489  34.644  1.00  0.00     0.173 A 
ATOM     88  C   UNL A   1      44.078  27.579  34.753  1.00  0.00     0.173 A 
ATOM     89  F   UNL A   1      40.641  26.479  34.466  1.00  0.00    -0.203 F 
ATOM     90  C   UNL A   1      42.536  25.373  35.261  1.00  0.00     0.198 A 
ATOM     91  C   UNL A   1      44.626  26.493  35.420  1.00  0.00     0.198 A 
ATOM     92  F   UNL A   1      44.924  28.602  34.597  1.00  0.00    -0.203 F 
ATOM     93  F   UNL A   1      41.777  24.296  35.496  1.00  0.00    -0.200 F 
ATOM     94  C   UNL A   1      43.867  25.369  35.634  1.00  0.00     0.200 A 
ATOM     95  F   UNL A   1      45.899  26.550  35.837  1.00  0.00    -0.200 F 
ATOM     96  F   UNL A   1      44.411  24.296  36.220  1.00  0.00    -0.200 F 
ENDBRANCH  63  86
ENDBRANCH  37  38
ENDBRANCH  30  32
ENDBRANCH  29  30
ENDBRANCH  28  29
ENDBRANCH  27  28
ENDBRANCH   1  27
TORSDOF 17
ENDMDL
MODEL 2
REMARK VINA RESULT:     -12.6      3.060      9.180
REMARK SMILES Cc1ccc([C@@H](CC(=O)OCCOC(=O)c2ccc(-c3c4nc(c(-c5c(F)c(F)c(F)c(F)c5F)c5ccc([nH]5)c(-c5c(F)c(F)c(F)c(F)c5F)c5nc(c(-c6c(F)c(F)c(F)c(F)c6F)c6ccc3[nH]6)C=C5)C=C4)cc2)NC(=O)c2ccc(OC(F)F)cc2)cc1
REMARK SMILES IDX 10 1 8 2 9 3 7 4 6 5 5 6 1 7 2 8 3 9 93 10 4 11 92 12 79 13
REMARK SMILES IDX 80 14 81 16 82 17 83 18 91 19 84 20 90 21 85 22 86 23 87 24
REMARK SMILES IDX 88 25 89 26 11 27 12 28 13 29 14 30 15 31 16 32 17 33 78 34
REMARK SMILES IDX 18 35 77 36 19 37 20 38 21 39 71 40 22 41 76 42 70 43 72 44
REMARK SMILES IDX 23 45 75 46 69 47 68 48 24 50 56 51 36 52 55 53 37 54 40 55
REMARK SMILES IDX 54 56 73 57 38 58 39 59 53 61 74 62 41 63 25 64 26 65 34 66
REMARK SMILES IDX 27 67 28 68 32 69 35 70 29 71 30 72 33 73 31 74 57 75 58 76
REMARK SMILES IDX 66 77 59 78 60 79 64 80 67 81 61 82 62 83 65 84 63 85 42 86
REMARK SMILES IDX 43 87 51 88 44 89 45 90 49 91 52 92 46 93 47 94 50 95 48 96
REMARK H PARENT 79 15 72 49 40 60
REMARK Flexibility Score: inf
ROOT
ATOM      1  O   UNL A   1      36.020  22.132  24.361  1.00  0.00    -0.462 OA
ENDROOT
BRANCH   1   2
ATOM      2  C   UNL A   1      35.970  22.951  23.281  1.00  0.00     0.308 C 
ATOM      3  O   UNL A   1      36.800  22.953  22.384  1.00  0.00    -0.252 OA
BRANCH   2   4
ATOM      4  C   UNL A   1      34.765  23.869  23.363  1.00  0.00     0.152 C 
BRANCH   4   5
ATOM      5  C   UNL A   1      33.454  23.092  23.624  1.00  0.00     0.123 C 
BRANCH   5   6
ATOM      6  C   UNL A   1      32.338  23.937  22.973  1.00  0.00    -0.025 A 
ATOM      7  C   UNL A   1      29.974  27.484  23.357  1.00  0.00     0.044 C 
ATOM      8  C   UNL A   1      30.689  26.210  23.015  1.00  0.00    -0.051 A 
ATOM      9  C   UNL A   1      30.201  24.981  23.464  1.00  0.00     0.004 A 
ATOM     10  C   UNL A   1      31.931  26.252  22.377  1.00  0.00     0.004 A 
ATOM     11  C   UNL A   1      30.999  23.834  23.394  1.00  0.00     0.006 A 
ATOM     12  C   UNL A   1      32.745  25.120  22.338  1.00  0.00     0.006 A 
ENDBRANCH   5   6
BRANCH   5  13
ATOM     13  N   UNL A   1      33.236  22.798  25.037  1.00  0.00    -0.345 N 
ATOM     14  C   UNL A   1      33.309  23.619  26.135  1.00  0.00     0.251 C 
ATOM     15  H   UNL A   1      32.998  21.863  25.235  1.00  0.00     0.164 HD
ATOM     16  O   UNL A   1      33.627  23.133  27.219  1.00  0.00    -0.269 OA
BRANCH  14  17
ATOM     17  C   UNL A   1      32.985  25.068  26.068  1.00  0.00     0.040 A 
ATOM     18  C   UNL A   1      33.992  25.968  25.706  1.00  0.00     0.017 A 
ATOM     19  C   UNL A   1      31.768  25.575  26.527  1.00  0.00     0.017 A 
ATOM     20  C   UNL A   1      33.764  27.350  25.768  1.00  0.00     0.047 A 
ATOM     21  C   UNL A   1      31.537  26.957  26.582  1.00  0.00     0.047 A 
ATOM     22  C   UNL A   1      32.535  27.853  26.205  1.00  0.00     0.126 A 
BRANCH  22  23
ATOM     23  O   UNL A   1      32.452  29.216  26.236  1.00  0.00    -0.435 OA
BRANCH  23  24
ATOM     24  C   UNL A   1      33.272  29.925  27.155  1.00  0.00     0.542 C 
ATOM     25  F   UNL A   1      33.806  29.065  28.056  1.00  0.00    -0.167 F 
ATOM     26  F   UNL A   1      34.288  30.537  26.500  1.00  0.00    -0.167 F 
ENDBRANCH  23  24
ENDBRANCH  22  23
ENDBRANCH  14  17
ENDBRANCH   5  13
ENDBRANCH   4   5
ENDBRANCH   2   4
ENDBRANCH   1   2
BRANCH   1  27
ATOM     27  C   UNL A   1      37.230  22.153  25.113  1.00  0.00     0.274 C 
BRANCH  27  28
ATOM     28  C   UNL A   1      37.399  23.533  25.760  1.00  0.00     0.275 C 
BRANCH  28  29
ATOM     29  O   UNL A   1      38.141  23.691  27.022  1.00  0.00    -0.458 OA
BRANCH  29  30
ATOM     30  C   UNL A   1      39.477  23.909  27.217  1.00  0.00     0.338 C 
ATOM     31  O   UNL A   1      40.318  23.059  27.056  1.00  0.00    -0.246 OA
BRANCH  30  32
ATOM     32  C   UNL A   1      39.845  25.272  27.650  1.00  0.00     0.060 A 
ATOM     33  C   UNL A   1      40.217  26.266  26.721  1.00  0.00     0.016 A 
ATOM     34  C   UNL A   1      39.583  25.591  28.962  1.00  0.00     0.016 A 
ATOM     35  C   UNL A   1      40.202  27.608  27.101  1.00  0.00     0.010 A 
ATOM     36  C   UNL A   1      39.244  26.882  29.216  1.00  0.00     0.010 A 
ATOM     37  C   UNL A   1      39.680  27.897  28.354  1.00  0.00    -0.014 A 
BRANCH  37  38
ATOM     38  C   UNL A   1      39.761  29.166  29.059  1.00  0.00     0.031 A 
ATOM     39  C   UNL A   1      38.697  30.171  28.930  1.00  0.00     0.074 A 
ATOM     40  C   UNL A   1      40.769  29.125  29.971  1.00  0.00     0.049 A 
ATOM     41  N   UNL A   1      38.868  31.429  29.115  1.00  0.00    -0.248 NA
ATOM     42  C   UNL A   1      37.321  29.871  28.548  1.00  0.00     0.031 C 
ATOM     43  C   UNL A   1      41.101  29.880  31.162  1.00  0.00     0.029 A 
ATOM     44  N   UNL A   1      41.849  28.209  29.897  1.00  0.00    -0.354 N 
ATOM     45  C   UNL A   1      37.613  31.953  29.373  1.00  0.00     0.074 A 
ATOM     46  C   UNL A   1      36.683  31.021  28.802  1.00  0.00     0.031 C 
ATOM     47  C   UNL A   1      42.416  29.690  31.429  1.00  0.00     0.029 A 
ATOM     48  C   UNL A   1      42.978  28.880  30.351  1.00  0.00     0.049 A 
ATOM     49  H   UNL A   1      41.806  27.277  29.584  1.00  0.00     0.167 HD
ATOM     50  C   UNL A   1      37.511  32.965  30.282  1.00  0.00     0.037 A 
ATOM     51  C   UNL A   1      43.854  29.246  29.367  1.00  0.00     0.037 A 
ATOM     52  C   UNL A   1      38.839  33.229  30.842  1.00  0.00     0.049 A 
ATOM     53  C   UNL A   1      43.782  30.742  29.151  1.00  0.00     0.074 A 
ATOM     54  C   UNL A   1      39.468  32.858  32.018  1.00  0.00     0.029 A 
ATOM     55  N   UNL A   1      39.855  33.575  29.973  1.00  0.00    -0.354 N 
ATOM     56  N   UNL A   1      42.790  31.494  29.549  1.00  0.00    -0.248 NA
ATOM     57  C   UNL A   1      44.807  31.504  28.458  1.00  0.00     0.031 C 
ATOM     58  C   UNL A   1      40.876  33.028  31.843  1.00  0.00     0.029 A 
ATOM     59  C   UNL A   1      41.100  33.465  30.551  1.00  0.00     0.049 A 
ATOM     60  H   UNL A   1      39.707  33.869  29.045  1.00  0.00     0.167 HD
ATOM     61  C   UNL A   1      43.055  32.805  29.286  1.00  0.00     0.074 A 
ATOM     62  C   UNL A   1      44.288  32.744  28.511  1.00  0.00     0.031 C 
ATOM     63  C   UNL A   1      42.255  33.823  29.742  1.00  0.00     0.037 A 
BRANCH  50  64
ATOM     64  C   UNL A   1      36.234  33.507  30.885  1.00  0.00     0.064 A 
ATOM     65  C   UNL A   1      35.336  34.258  30.094  1.00  0.00     0.173 A 
ATOM     66  C   UNL A   1      35.809  33.290  32.211  1.00  0.00     0.173 A 
ATOM     67  F   UNL A   1      35.568  34.494  28.797  1.00  0.00    -0.203 F 
ATOM     68  C   UNL A   1      34.150  34.799  30.595  1.00  0.00     0.198 A 
ATOM     69  C   UNL A   1      34.628  33.853  32.721  1.00  0.00     0.198 A 
ATOM     70  F   UNL A   1      36.493  32.492  33.041  1.00  0.00    -0.203 F 
ATOM     71  F   UNL A   1      33.349  35.503  29.783  1.00  0.00    -0.200 F 
ATOM     72  C   UNL A   1      33.801  34.609  31.913  1.00  0.00     0.200 A 
ATOM     73  F   UNL A   1      34.287  33.646  34.002  1.00  0.00    -0.200 F 
ATOM     74  F   UNL A   1      32.665  35.133  32.393  1.00  0.00    -0.200 F 
ENDBRANCH  50  64
BRANCH  51  75
ATOM     75  C   UNL A   1      43.966  28.192  28.279  1.00  0.00     0.064 A 
ATOM     76  C   UNL A   1      43.363  28.449  27.018  1.00  0.00     0.173 A 
ATOM     77  C   UNL A   1      44.907  27.155  28.310  1.00  0.00     0.173 A 
ATOM     78  F   UNL A   1      42.460  29.436  26.894  1.00  0.00    -0.203 F 
ATOM     79  C   UNL A   1      43.777  27.805  25.849  1.00  0.00     0.198 A 
ATOM     80  C   UNL A   1      45.286  26.477  27.140  1.00  0.00     0.198 A 
ATOM     81  F   UNL A   1      45.544  26.847  29.449  1.00  0.00    -0.203 F 
ATOM     82  F   UNL A   1      43.304  28.206  24.658  1.00  0.00    -0.200 F 
ATOM     83  C   UNL A   1      44.746  26.824  25.910  1.00  0.00     0.200 A 
ATOM     84  F   UNL A   1      46.259  25.554  27.190  1.00  0.00    -0.200 F 
ATOM     85  F   UNL A   1      45.210  26.264  24.783  1.00  0.00    -0.200 F 
ENDBRANCH  51  75
BRANCH  63  86
ATOM     86  C   UNL A   1      42.461  35.285  29.434  1.00  0.00     0.064 A 
ATOM     87  C   UNL A   1      43.186  36.140  30.267  1.00  0.00     0.173 A 
ATOM     88  C   UNL A   1      41.880  35.903  28.295  1.00  0.00     0.173 A 
ATOM     89  F   UNL A   1      43.588  35.749  31.483  1.00  0.00    -0.203 F 
ATOM     90  C   UNL A   1      43.474  37.454  29.893  1.00  0.00     0.198 A 
ATOM     91  C   UNL A   1      42.118  37.227  27.956  1.00  0.00     0.198 A 
ATOM     92  F   UNL A   1      41.061  35.266  27.452  1.00  0.00    -0.203 F 
ATOM     93  F   UNL A   1      44.263  38.201  30.676  1.00  0.00    -0.200 F 
ATOM     94  C   UNL A   1      42.953  37.991  28.731  1.00  0.00     0.200 A 
ATOM     95  F   UNL A   1      41.537  37.741  26.862  1.00  0.00    -0.200 F 
ATOM     96  F   UNL A   1      43.236  39.249  28.372  1.00  0.00    -0.200 F 
ENDBRANCH  63  86
ENDBRANCH  37  38
ENDBRANCH  30  32
ENDBRANCH  29  30
ENDBRANCH  28  29
ENDBRANCH  27  28
ENDBRANCH   1  27
TORSDOF 17
ENDMDL
MODEL 3
REMARK VINA RESULT:     -12.6      2.578      4.140
REMARK SMILES Cc1ccc([C@@H](CC(=O)OCCOC(=O)c2ccc(-c3c4nc(c(-c5c(F)c(F)c(F)c(F)c5F)c5ccc([nH]5)c(-c5c(F)c(F)c(F)c(F)c5F)c5nc(c(-c6c(F)c(F)c(F)c(F)c6F)c6ccc3[nH]6)C=C5)C=C4)cc2)NC(=O)c2ccc(OC(F)F)cc2)cc1
REMARK SMILES IDX 10 1 8 2 9 3 7 4 6 5 5 6 1 7 2 8 3 9 93 10 4 11 92 12 79 13
REMARK SMILES IDX 80 14 81 16 82 17 83 18 91 19 84 20 90 21 85 22 86 23 87 24
REMARK SMILES IDX 88 25 89 26 11 27 12 28 13 29 14 30 15 31 16 32 17 33 78 34
REMARK SMILES IDX 18 35 77 36 19 37 20 38 21 39 71 40 22 41 76 42 70 43 72 44
REMARK SMILES IDX 23 45 75 46 69 47 68 48 24 50 56 51 36 52 55 53 37 54 40 55
REMARK SMILES IDX 54 56 73 57 38 58 39 59 53 61 74 62 41 63 25 64 26 65 34 66
REMARK SMILES IDX 27 67 28 68 32 69 35 70 29 71 30 72 33 73 31 74 57 75 58 76
REMARK SMILES IDX 66 77 59 78 60 79 64 80 67 81 61 82 62 83 65 84 63 85 42 86
REMARK SMILES IDX 43 87 51 88 44 89 45 90 49 91 52 92 46 93 47 94 50 95 48 96
REMARK H PARENT 79 15 72 49 40 60
REMARK Flexibility Score: inf
ROOT
ATOM      1  O   UNL A   1      32.040  30.030  25.993  1.00  0.00    -0.462 OA
ENDROOT
BRANCH   1   2
ATOM      2  C   UNL A   1      31.306  29.464  25.003  1.00  0.00     0.308 C 
ATOM      3  O   UNL A   1      30.624  30.095  24.210  1.00  0.00    -0.252 OA
BRANCH   2   4
ATOM      4  C   UNL A   1      31.433  27.953  25.042  1.00  0.00     0.152 C 
BRANCH   4   5
ATOM      5  C   UNL A   1      30.795  27.280  23.805  1.00  0.00     0.123 C 
BRANCH   5   6
ATOM      6  C   UNL A   1      30.382  25.867  24.271  1.00  0.00    -0.025 A 
ATOM      7  C   UNL A   1      31.834  21.994  25.371  1.00  0.00     0.044 C 
ATOM      8  C   UNL A   1      31.110  23.266  25.040  1.00  0.00    -0.051 A 
ATOM      9  C   UNL A   1      30.678  23.517  23.736  1.00  0.00     0.004 A 
ATOM     10  C   UNL A   1      30.996  24.278  25.997  1.00  0.00     0.004 A 
ATOM     11  C   UNL A   1      30.262  24.800  23.362  1.00  0.00     0.006 A 
ATOM     12  C   UNL A   1      30.618  25.567  25.622  1.00  0.00     0.006 A 
ENDBRANCH   5   6
BRANCH   5  13
ATOM     13  N   UNL A   1      31.666  27.293  22.634  1.00  0.00    -0.345 N 
ATOM     14  C   UNL A   1      32.980  26.915  22.502  1.00  0.00     0.251 C 
ATOM     15  H   UNL A   1      31.246  27.625  21.808  1.00  0.00     0.164 HD
ATOM     16  O   UNL A   1      33.675  27.473  21.655  1.00  0.00    -0.269 OA
BRANCH  14  17
ATOM     17  C   UNL A   1      33.582  25.833  23.323  1.00  0.00     0.040 A 
ATOM     18  C   UNL A   1      34.028  26.134  24.614  1.00  0.00     0.017 A 
ATOM     19  C   UNL A   1      33.883  24.579  22.786  1.00  0.00     0.017 A 
ATOM     20  C   UNL A   1      34.728  25.178  25.363  1.00  0.00     0.047 A 
ATOM     21  C   UNL A   1      34.576  23.620  23.539  1.00  0.00     0.047 A 
ATOM     22  C   UNL A   1      35.004  23.914  24.832  1.00  0.00     0.126 A 
BRANCH  22  23
ATOM     23  O   UNL A   1      35.708  23.086  25.659  1.00  0.00    -0.435 OA
BRANCH  23  24
ATOM     24  C   UNL A   1      37.084  22.859  25.380  1.00  0.00     0.542 C 
ATOM     25  F   UNL A   1      37.807  23.964  25.687  1.00  0.00    -0.167 F 
ATOM     26  F   UNL A   1      37.548  21.827  26.126  1.00  0.00    -0.167 F 
ENDBRANCH  23  24
ENDBRANCH  22  23
ENDBRANCH  14  17
ENDBRANCH   5  13
ENDBRANCH   4   5
ENDBRANCH   2   4
ENDBRANCH   1   2
BRANCH   1  27
ATOM     27  C   UNL A   1      33.406  29.632  26.072  1.00  0.00     0.274 C 
BRANCH  27  28
ATOM     28  C   UNL A   1      34.066  30.326  27.270  1.00  0.00     0.275 C 
BRANCH  28  29
ATOM     29  O   UNL A   1      35.133  29.660  28.037  1.00  0.00    -0.458 OA
BRANCH  29  30
ATOM     30  C   UNL A   1      36.313  30.173  28.499  1.00  0.00     0.338 C 
ATOM     31  O   UNL A   1      36.405  31.255  29.026  1.00  0.00    -0.246 OA
BRANCH  30  32
ATOM     32  C   UNL A   1      37.500  29.315  28.310  1.00  0.00     0.060 A 
ATOM     33  C   UNL A   1      38.394  29.518  27.238  1.00  0.00     0.016 A 
ATOM     34  C   UNL A   1      37.819  28.470  29.348  1.00  0.00     0.016 A 
ATOM     35  C   UNL A   1      39.668  28.954  27.285  1.00  0.00     0.010 A 
ATOM     36  C   UNL A   1      39.140  28.222  29.543  1.00  0.00     0.010 A 
ATOM     37  C   UNL A   1      40.034  28.329  28.470  1.00  0.00    -0.014 A 
BRANCH  37  38
ATOM     38  C   UNL A   1      41.197  27.485  28.686  1.00  0.00     0.031 A 
ATOM     39  C   UNL A   1      41.128  26.034  28.469  1.00  0.00     0.074 A 
ATOM     40  C   UNL A   1      42.306  28.257  28.845  1.00  0.00     0.049 A 
ATOM     41  N   UNL A   1      41.899  25.183  29.039  1.00  0.00    -0.248 NA
ATOM     42  C   UNL A   1      40.156  25.375  27.601  1.00  0.00     0.031 C 
ATOM     43  C   UNL A   1      43.731  28.033  28.730  1.00  0.00     0.029 A 
ATOM     44  N   UNL A   1      42.255  29.621  29.228  1.00  0.00    -0.354 N 
ATOM     45  C   UNL A   1      41.857  24.042  28.256  1.00  0.00     0.074 A 
ATOM     46  C   UNL A   1      40.625  24.123  27.525  1.00  0.00     0.031 C 
ATOM     47  C   UNL A   1      44.369  29.021  29.403  1.00  0.00     0.029 A 
ATOM     48  C   UNL A   1      43.354  29.850  30.048  1.00  0.00     0.049 A 
ATOM     49  H   UNL A   1      41.573  30.279  28.964  1.00  0.00     0.167 HD
ATOM     50  C   UNL A   1      43.003  23.314  28.116  1.00  0.00     0.037 A 
ATOM     51  C   UNL A   1      43.056  29.966  31.377  1.00  0.00     0.037 A 
ATOM     52  C   UNL A   1      44.083  23.995  28.831  1.00  0.00     0.049 A 
ATOM     53  C   UNL A   1      43.515  28.726  32.113  1.00  0.00     0.074 A 
ATOM     54  C   UNL A   1      45.115  24.829  28.432  1.00  0.00     0.029 A 
ATOM     55  N   UNL A   1      43.924  24.229  30.183  1.00  0.00    -0.354 N 
ATOM     56  N   UNL A   1      43.789  27.588  31.533  1.00  0.00    -0.248 NA
ATOM     57  C   UNL A   1      43.684  28.665  33.555  1.00  0.00     0.031 C 
ATOM     58  C   UNL A   1      45.589  25.533  29.581  1.00  0.00     0.029 A 
ATOM     59  C   UNL A   1      44.822  25.153  30.666  1.00  0.00     0.049 A 
ATOM     60  H   UNL A   1      43.245  23.783  30.740  1.00  0.00     0.167 HD
ATOM     61  C   UNL A   1      44.257  26.692  32.447  1.00  0.00     0.074 A 
ATOM     62  C   UNL A   1      44.077  27.388  33.715  1.00  0.00     0.031 C 
ATOM     63  C   UNL A   1      44.769  25.471  32.085  1.00  0.00     0.037 A 
BRANCH  50  64
ATOM     64  C   UNL A   1      43.240  22.192  27.128  1.00  0.00     0.064 A 
ATOM     65  C   UNL A   1      42.436  21.030  27.164  1.00  0.00     0.173 A 
ATOM     66  C   UNL A   1      44.202  22.210  26.099  1.00  0.00     0.173 A 
ATOM     67  F   UNL A   1      41.437  20.893  28.043  1.00  0.00    -0.203 F 
ATOM     68  C   UNL A   1      42.615  19.955  26.292  1.00  0.00     0.198 A 
ATOM     69  C   UNL A   1      44.396  21.119  25.237  1.00  0.00     0.198 A 
ATOM     70  F   UNL A   1      44.950  23.295  25.862  1.00  0.00    -0.203 F 
ATOM     71  F   UNL A   1      41.813  18.884  26.388  1.00  0.00    -0.200 F 
ATOM     72  C   UNL A   1      43.605  19.991  25.336  1.00  0.00     0.200 A 
ATOM     73  F   UNL A   1      45.351  21.172  24.295  1.00  0.00    -0.200 F 
ATOM     74  F   UNL A   1      43.778  18.956  24.503  1.00  0.00    -0.200 F 
ENDBRANCH  50  64
BRANCH  51  75
ATOM     75  C   UNL A   1      41.751  30.709  31.608  1.00  0.00     0.064 A 
ATOM     76  C   UNL A   1      40.656  30.001  32.173  1.00  0.00     0.173 A 
ATOM     77  C   UNL A   1      41.659  32.107  31.634  1.00  0.00     0.173 A 
ATOM     78  F   UNL A   1      40.668  28.658  32.202  1.00  0.00    -0.203 F 
ATOM     79  C   UNL A   1      39.613  30.650  32.838  1.00  0.00     0.198 A 
ATOM     80  C   UNL A   1      40.584  32.756  32.262  1.00  0.00     0.198 A 
ATOM     81  F   UNL A   1      42.649  32.864  31.142  1.00  0.00    -0.203 F 
ATOM     82  F   UNL A   1      38.695  29.934  33.507  1.00  0.00    -0.200 F 
ATOM     83  C   UNL A   1      39.582  32.029  32.890  1.00  0.00     0.200 A 
ATOM     84  F   UNL A   1      40.575  34.095  32.353  1.00  0.00    -0.200 F 
ATOM     85  F   UNL A   1      38.632  32.656  33.601  1.00  0.00    -0.200 F 
ENDBRANCH  51  75
BRANCH  63  86
ATOM     86  C   UNL A   1      45.246  24.416  33.051  1.00  0.00     0.064 A 
ATOM     87  C   UNL A   1      44.436  23.364  33.486  1.00  0.00     0.173 A 
ATOM     88  C   UNL A   1      46.544  24.453  33.627  1.00  0.00     0.173 A 
ATOM     89  F   UNL A   1      43.126  23.338  33.208  1.00  0.00    -0.203 F 
ATOM     90  C   UNL A   1      44.941  22.329  34.274  1.00  0.00     0.198 A 
ATOM     91  C   UNL A   1      47.026  23.454  34.459  1.00  0.00     0.198 A 
ATOM     92  F   UNL A   1      47.412  25.449  33.416  1.00  0.00    -0.203 F 
ATOM     93  F   UNL A   1      44.153  21.290  34.576  1.00  0.00    -0.200 F 
ATOM     94  C   UNL A   1      46.239  22.366  34.746  1.00  0.00     0.200 A 
ATOM     95  F   UNL A   1      48.264  23.556  34.963  1.00  0.00    -0.200 F 
ATOM     96  F   UNL A   1      46.724  21.369  35.496  1.00  0.00    -0.200 F 
ENDBRANCH  63  86
ENDBRANCH  37  38
ENDBRANCH  30  32
ENDBRANCH  29  30
ENDBRANCH  28  29
ENDBRANCH  27  28
ENDBRANCH   1  27
TORSDOF 17
ENDMDL
