MODEL 1
REMARK VINA RESULT:     -12.7      0.000      0.000
REMARK SMILES Cc1ccc(SCC[N@H+]2CC[C@@H](C(=O)OCCOC(=O)c3ccc(-c4c5nc(c(-c6c(F)c(F)c(F)c(F)c6F)c6ccc([nH]6)c(-c6c(F)c(F)c(F)c(F)c6F)c6nc(c(-c7c(F)c(F)c(F)c(F)c7F)c7ccc4[nH]7)C=C6)C=C5)cc3)[C@@H]2C)cc1
REMARK SMILES IDX 16 1 15 2 13 3 14 4 12 5 9 6 10 7 84 8 11 10 85 11 8 12 7 13
REMARK SMILES IDX 6 14 5 15 1 16 2 17 3 18 87 19 4 20 86 21 17 22 18 23 19 24
REMARK SMILES IDX 20 25 21 26 22 27 83 28 23 29 82 30 24 31 25 32 26 33 76 34
REMARK SMILES IDX 27 35 81 36 75 37 77 38 28 39 80 40 74 41 73 42 29 44 61 45
REMARK SMILES IDX 41 46 60 47 42 48 45 49 59 50 78 51 43 52 44 53 58 55 79 56
REMARK SMILES IDX 46 57 30 58 31 59 39 60 32 61 33 62 37 63 40 64 34 65 35 66
REMARK SMILES IDX 38 67 36 68 62 69 63 70 71 71 64 72 65 73 69 74 72 75 66 76
REMARK SMILES IDX 67 77 70 78 68 79 47 80 48 81 56 82 49 83 50 84 54 85 57 86
REMARK SMILES IDX 51 87 52 88 55 89 53 90
REMARK H PARENT 9 9 77 43 45 54
REMARK Flexibility Score: inf
ROOT
ATOM      1  C   UNL A   1      33.432  27.952  26.741  1.00  0.00     0.274 C 
ENDROOT
BRANCH   1   2
ATOM      2  O   UNL A   1      32.486  27.909  25.682  1.00  0.00    -0.462 OA
BRANCH   2   3
ATOM      3  C   UNL A   1      31.353  27.189  25.912  1.00  0.00     0.315 C 
ATOM      4  O   UNL A   1      31.005  26.763  26.994  1.00  0.00    -0.252 OA
BRANCH   3   5
ATOM      5  C   UNL A   1      30.626  27.059  24.597  1.00  0.00     0.162 C 
ATOM      6  N   UNL A   1      31.956  26.386  22.800  1.00  0.00    -0.331 N 
ATOM      7  C   UNL A   1      30.853  25.425  22.857  1.00  0.00     0.263 C 
ATOM      8  C   UNL A   1      31.537  27.588  23.515  1.00  0.00     0.195 C 
ATOM      9  H   UNL A   1      32.159  26.615  21.826  1.00  0.00     0.348 HD
ATOM     10  C   UNL A   1      30.171  25.670  24.183  1.00  0.00     0.083 C 
ATOM     11  C   UNL A   1      30.793  28.589  22.630  1.00  0.00     0.076 C 
BRANCH   6  12
ATOM     12  C   UNL A   1      33.214  25.836  23.317  1.00  0.00     0.273 C 
BRANCH  12  13
ATOM     13  C   UNL A   1      33.297  24.327  23.051  1.00  0.00     0.136 C 
BRANCH  13  14
ATOM     14  S   UNL A   1      33.289  23.250  24.556  1.00  0.00    -0.120 SA
BRANCH  14  15
ATOM     15  C   UNL A   1      35.000  22.751  24.774  1.00  0.00     0.007 A 
ATOM     16  C   UNL A   1      38.972  21.308  25.717  1.00  0.00     0.044 C 
ATOM     17  C   UNL A   1      37.609  21.806  25.342  1.00  0.00    -0.051 A 
ATOM     18  C   UNL A   1      36.583  20.912  25.025  1.00  0.00     0.004 A 
ATOM     19  C   UNL A   1      37.342  23.178  25.286  1.00  0.00     0.004 A 
ATOM     20  C   UNL A   1      35.288  21.379  24.756  1.00  0.00     0.015 A 
ATOM     21  C   UNL A   1      36.056  23.642  24.978  1.00  0.00     0.015 A 
ENDBRANCH  14  15
ENDBRANCH  13  14
ENDBRANCH  12  13
ENDBRANCH   6  12
ENDBRANCH   3   5
ENDBRANCH   2   3
ENDBRANCH   1   2
BRANCH   1  22
ATOM     22  C   UNL A   1      34.235  29.259  26.644  1.00  0.00     0.275 C 
BRANCH  22  23
ATOM     23  O   UNL A   1      34.990  29.711  27.827  1.00  0.00    -0.458 OA
BRANCH  23  24
ATOM     24  C   UNL A   1      36.115  30.464  27.986  1.00  0.00     0.338 C 
ATOM     25  O   UNL A   1      36.099  31.682  27.865  1.00  0.00    -0.246 OA
BRANCH  24  26
ATOM     26  C   UNL A   1      37.368  29.798  28.389  1.00  0.00     0.060 A 
ATOM     27  C   UNL A   1      37.445  29.013  29.555  1.00  0.00     0.016 A 
ATOM     28  C   UNL A   1      38.423  29.823  27.505  1.00  0.00     0.016 A 
ATOM     29  C   UNL A   1      38.498  28.104  29.714  1.00  0.00     0.010 A 
ATOM     30  C   UNL A   1      39.294  28.773  27.520  1.00  0.00     0.010 A 
ATOM     31  C   UNL A   1      39.387  27.953  28.651  1.00  0.00    -0.014 A 
BRANCH  31  32
ATOM     32  C   UNL A   1      40.660  27.245  28.700  1.00  0.00     0.031 A 
ATOM     33  C   UNL A   1      40.782  25.814  28.406  1.00  0.00     0.074 A 
ATOM     34  C   UNL A   1      41.682  28.114  28.859  1.00  0.00     0.049 A 
ATOM     35  N   UNL A   1      41.564  24.981  28.997  1.00  0.00    -0.248 NA
ATOM     36  C   UNL A   1      39.942  25.171  27.407  1.00  0.00     0.031 C 
ATOM     37  C   UNL A   1      43.116  27.988  28.744  1.00  0.00     0.029 A 
ATOM     38  N   UNL A   1      41.509  29.430  29.335  1.00  0.00    -0.354 N 
ATOM     39  C   UNL A   1      41.592  23.848  28.193  1.00  0.00     0.074 A 
ATOM     40  C   UNL A   1      40.383  23.910  27.422  1.00  0.00     0.031 C 
ATOM     41  C   UNL A   1      43.668  28.973  29.490  1.00  0.00     0.029 A 
ATOM     42  C   UNL A   1      42.583  29.673  30.184  1.00  0.00     0.049 A 
ATOM     43  H   UNL A   1      40.777  30.050  29.112  1.00  0.00     0.167 HD
ATOM     44  C   UNL A   1      42.768  23.171  28.021  1.00  0.00     0.037 A 
ATOM     45  C   UNL A   1      42.278  29.644  31.518  1.00  0.00     0.037 A 
ATOM     46  C   UNL A   1      43.829  23.889  28.732  1.00  0.00     0.049 A 
ATOM     47  C   UNL A   1      42.850  28.406  32.177  1.00  0.00     0.074 A 
ATOM     48  C   UNL A   1      44.803  24.786  28.326  1.00  0.00     0.029 A 
ATOM     49  N   UNL A   1      43.726  24.034  30.100  1.00  0.00    -0.354 N 
ATOM     50  N   UNL A   1      43.291  27.363  31.524  1.00  0.00    -0.248 NA
ATOM     51  C   UNL A   1      42.927  28.228  33.622  1.00  0.00     0.031 C 
ATOM     52  C   UNL A   1      45.247  25.504  29.482  1.00  0.00     0.029 A 
ATOM     53  C   UNL A   1      44.545  25.036  30.578  1.00  0.00     0.049 A 
ATOM     54  H   UNL A   1      43.137  23.487  30.668  1.00  0.00     0.167 HD
ATOM     55  C   UNL A   1      43.799  26.450  32.398  1.00  0.00     0.074 A 
ATOM     56  C   UNL A   1      43.466  26.999  33.703  1.00  0.00     0.031 C 
ATOM     57  C   UNL A   1      44.477  25.332  31.998  1.00  0.00     0.037 A 
BRANCH  44  58
ATOM     58  C   UNL A   1      43.073  22.093  26.986  1.00  0.00     0.064 A 
ATOM     59  C   UNL A   1      42.393  20.853  27.038  1.00  0.00     0.173 A 
ATOM     60  C   UNL A   1      44.000  22.191  25.926  1.00  0.00     0.173 A 
ATOM     61  F   UNL A   1      41.392  20.643  27.905  1.00  0.00    -0.203 F 
ATOM     62  C   UNL A   1      42.691  19.782  26.188  1.00  0.00     0.198 A 
ATOM     63  C   UNL A   1      44.321  21.108  25.093  1.00  0.00     0.198 A 
ATOM     64  F   UNL A   1      44.587  23.346  25.603  1.00  0.00    -0.203 F 
ATOM     65  F   UNL A   1      42.013  18.631  26.306  1.00  0.00    -0.200 F 
ATOM     66  C   UNL A   1      43.676  19.900  25.232  1.00  0.00     0.200 A 
ATOM     67  F   UNL A   1      45.257  21.256  24.143  1.00  0.00    -0.200 F 
ATOM     68  F   UNL A   1      43.975  18.870  24.429  1.00  0.00    -0.200 F 
ENDBRANCH  44  58
BRANCH  45  69
ATOM     69  C   UNL A   1      40.940  30.278  31.851  1.00  0.00     0.064 A 
ATOM     70  C   UNL A   1      39.888  29.456  32.333  1.00  0.00     0.173 A 
ATOM     71  C   UNL A   1      40.741  31.660  31.974  1.00  0.00     0.173 A 
ATOM     72  F   UNL A   1      39.985  28.118  32.247  1.00  0.00    -0.203 F 
ATOM     73  C   UNL A   1      38.781  29.976  33.008  1.00  0.00     0.198 A 
ATOM     74  C   UNL A   1      39.602  32.182  32.609  1.00  0.00     0.198 A 
ATOM     75  F   UNL A   1      41.673  32.528  31.558  1.00  0.00    -0.203 F 
ATOM     76  F   UNL A   1      37.894  29.147  33.579  1.00  0.00    -0.200 F 
ATOM     77  C   UNL A   1      38.644  31.341  33.153  1.00  0.00     0.200 A 
ATOM     78  F   UNL A   1      39.483  33.508  32.774  1.00  0.00    -0.200 F 
ATOM     79  F   UNL A   1      37.622  31.845  33.859  1.00  0.00    -0.200 F 
ENDBRANCH  45  69
BRANCH  57  80
ATOM     80  C   UNL A   1      45.111  24.379  32.970  1.00  0.00     0.064 A 
ATOM     81  C   UNL A   1      46.412  24.567  33.455  1.00  0.00     0.173 A 
ATOM     82  C   UNL A   1      44.460  23.199  33.397  1.00  0.00     0.173 A 
ATOM     83  F   UNL A   1      47.190  25.552  32.982  1.00  0.00    -0.203 F 
ATOM     84  C   UNL A   1      46.956  23.732  34.428  1.00  0.00     0.198 A 
ATOM     85  C   UNL A   1      45.032  22.331  34.317  1.00  0.00     0.198 A 
ATOM     86  F   UNL A   1      43.244  22.851  32.960  1.00  0.00    -0.203 F 
ATOM     87  F   UNL A   1      48.157  24.017  34.945  1.00  0.00    -0.200 F 
ATOM     88  C   UNL A   1      46.261  22.619  34.864  1.00  0.00     0.200 A 
ATOM     89  F   UNL A   1      44.368  21.224  34.680  1.00  0.00    -0.200 F 
ATOM     90  F   UNL A   1      46.781  21.821  35.805  1.00  0.00    -0.200 F 
ENDBRANCH  57  80
ENDBRANCH  31  32
ENDBRANCH  24  26
ENDBRANCH  23  24
ENDBRANCH  22  23
ENDBRANCH   1  22
TORSDOF 15
ENDMDL
MODEL 2
REMARK VINA RESULT:     -12.6      0.674      1.827
REMARK SMILES Cc1ccc(SCC[N@H+]2CC[C@@H](C(=O)OCCOC(=O)c3ccc(-c4c5nc(c(-c6c(F)c(F)c(F)c(F)c6F)c6ccc([nH]6)c(-c6c(F)c(F)c(F)c(F)c6F)c6nc(c(-c7c(F)c(F)c(F)c(F)c7F)c7ccc4[nH]7)C=C6)C=C5)cc3)[C@@H]2C)cc1
REMARK SMILES IDX 16 1 15 2 13 3 14 4 12 5 9 6 10 7 84 8 11 10 85 11 8 12 7 13
REMARK SMILES IDX 6 14 5 15 1 16 2 17 3 18 87 19 4 20 86 21 17 22 18 23 19 24
REMARK SMILES IDX 20 25 21 26 22 27 83 28 23 29 82 30 24 31 25 32 26 33 76 34
REMARK SMILES IDX 27 35 81 36 75 37 77 38 28 39 80 40 74 41 73 42 29 44 61 45
REMARK SMILES IDX 41 46 60 47 42 48 45 49 59 50 78 51 43 52 44 53 58 55 79 56
REMARK SMILES IDX 46 57 30 58 31 59 39 60 32 61 33 62 37 63 40 64 34 65 35 66
REMARK SMILES IDX 38 67 36 68 62 69 63 70 71 71 64 72 65 73 69 74 72 75 66 76
REMARK SMILES IDX 67 77 70 78 68 79 47 80 48 81 56 82 49 83 50 84 54 85 57 86
REMARK SMILES IDX 51 87 52 88 55 89 53 90
REMARK H PARENT 9 9 77 43 45 54
REMARK Flexibility Score: inf
ROOT
ATOM      1  C   UNL A   1      33.130  29.348  26.667  1.00  0.00     0.274 C 
ENDROOT
BRANCH   1   2
ATOM      2  O   UNL A   1      32.786  28.311  25.760  1.00  0.00    -0.462 OA
BRANCH   2   3
ATOM      3  C   UNL A   1      31.658  27.604  26.048  1.00  0.00     0.315 C 
ATOM      4  O   UNL A   1      31.360  27.183  27.147  1.00  0.00    -0.252 OA
BRANCH   3   5
ATOM      5  C   UNL A   1      30.863  27.482  24.771  1.00  0.00     0.162 C 
ATOM      6  N   UNL A   1      32.058  26.652  22.945  1.00  0.00    -0.331 N 
ATOM      7  C   UNL A   1      30.893  25.776  23.087  1.00  0.00     0.263 C 
ATOM      8  C   UNL A   1      31.758  27.905  23.632  1.00  0.00     0.195 C 
ATOM      9  H   UNL A   1      32.231  26.831  21.956  1.00  0.00     0.348 HD
ATOM     10  C   UNL A   1      30.293  26.115  24.431  1.00  0.00     0.083 C 
ATOM     11  C   UNL A   1      31.047  28.926  22.743  1.00  0.00     0.076 C 
BRANCH   6  12
ATOM     12  C   UNL A   1      33.296  26.030  23.427  1.00  0.00     0.273 C 
BRANCH  12  13
ATOM     13  C   UNL A   1      33.295  24.523  23.141  1.00  0.00     0.136 C 
BRANCH  13  14
ATOM     14  S   UNL A   1      33.287  23.428  24.634  1.00  0.00    -0.120 SA
BRANCH  14  15
ATOM     15  C   UNL A   1      35.003  22.958  24.869  1.00  0.00     0.007 A 
ATOM     16  C   UNL A   1      38.982  21.532  25.813  1.00  0.00     0.044 C 
ATOM     17  C   UNL A   1      37.618  22.031  25.439  1.00  0.00    -0.051 A 
ATOM     18  C   UNL A   1      36.641  21.152  24.963  1.00  0.00     0.004 A 
ATOM     19  C   UNL A   1      37.304  23.389  25.542  1.00  0.00     0.004 A 
ATOM     20  C   UNL A   1      35.343  21.610  24.693  1.00  0.00     0.015 A 
ATOM     21  C   UNL A   1      36.016  23.848  25.234  1.00  0.00     0.015 A 
ENDBRANCH  14  15
ENDBRANCH  13  14
ENDBRANCH  12  13
ENDBRANCH   6  12
ENDBRANCH   3   5
ENDBRANCH   2   3
ENDBRANCH   1   2
BRANCH   1  22
ATOM     22  C   UNL A   1      34.592  29.166  27.106  1.00  0.00     0.275 C 
BRANCH  22  23
ATOM     23  O   UNL A   1      35.200  30.192  27.973  1.00  0.00    -0.458 OA
BRANCH  23  24
ATOM     24  C   UNL A   1      36.208  30.162  28.890  1.00  0.00     0.338 C 
ATOM     25  O   UNL A   1      36.115  30.734  29.968  1.00  0.00    -0.246 OA
BRANCH  24  26
ATOM     26  C   UNL A   1      37.409  29.355  28.604  1.00  0.00     0.060 A 
ATOM     27  C   UNL A   1      38.289  29.686  27.556  1.00  0.00     0.016 A 
ATOM     28  C   UNL A   1      37.744  28.362  29.497  1.00  0.00     0.016 A 
ATOM     29  C   UNL A   1      39.585  29.155  27.541  1.00  0.00     0.010 A 
ATOM     30  C   UNL A   1      39.065  28.051  29.640  1.00  0.00     0.010 A 
ATOM     31  C   UNL A   1      39.978  28.381  28.631  1.00  0.00    -0.014 A 
BRANCH  31  32
ATOM     32  C   UNL A   1      41.180  27.560  28.702  1.00  0.00     0.031 A 
ATOM     33  C   UNL A   1      41.173  26.121  28.423  1.00  0.00     0.074 A 
ATOM     34  C   UNL A   1      42.276  28.333  28.864  1.00  0.00     0.049 A 
ATOM     35  N   UNL A   1      41.870  25.227  29.032  1.00  0.00    -0.248 NA
ATOM     36  C   UNL A   1      40.289  25.546  27.421  1.00  0.00     0.031 C 
ATOM     37  C   UNL A   1      43.693  28.076  28.767  1.00  0.00     0.029 A 
ATOM     38  N   UNL A   1      42.218  29.665  29.325  1.00  0.00    -0.354 N 
ATOM     39  C   UNL A   1      41.802  24.087  28.240  1.00  0.00     0.074 A 
ATOM     40  C   UNL A   1      40.613  24.251  27.454  1.00  0.00     0.031 C 
ATOM     41  C   UNL A   1      44.325  29.014  29.510  1.00  0.00     0.029 A 
ATOM     42  C   UNL A   1      43.302  29.818  30.184  1.00  0.00     0.049 A 
ATOM     43  H   UNL A   1      41.549  30.347  29.087  1.00  0.00     0.167 HD
ATOM     44  C   UNL A   1      42.913  23.303  28.089  1.00  0.00     0.037 A 
ATOM     45  C   UNL A   1      42.980  29.832  31.514  1.00  0.00     0.037 A 
ATOM     46  C   UNL A   1      44.027  23.929  28.805  1.00  0.00     0.049 A 
ATOM     47  C   UNL A   1      43.430  28.554  32.193  1.00  0.00     0.074 A 
ATOM     48  C   UNL A   1      45.084  24.729  28.401  1.00  0.00     0.029 A 
ATOM     49  N   UNL A   1      43.924  24.097  30.170  1.00  0.00    -0.354 N 
ATOM     50  N   UNL A   1      43.780  27.468  31.555  1.00  0.00    -0.248 NA
ATOM     51  C   UNL A   1      43.474  28.385  33.640  1.00  0.00     0.031 C 
ATOM     52  C   UNL A   1      45.579  25.416  29.555  1.00  0.00     0.029 A 
ATOM     53  C   UNL A   1      44.826  25.025  30.647  1.00  0.00     0.049 A 
ATOM     54  H   UNL A   1      43.281  23.613  30.737  1.00  0.00     0.167 HD
ATOM     55  C   UNL A   1      44.193  26.522  32.444  1.00  0.00     0.074 A 
ATOM     56  C   UNL A   1      43.898  27.114  33.740  1.00  0.00     0.031 C 
ATOM     57  C   UNL A   1      44.770  25.342  32.064  1.00  0.00     0.037 A 
BRANCH  44  58
ATOM     58  C   UNL A   1      43.130  22.191  27.067  1.00  0.00     0.064 A 
ATOM     59  C   UNL A   1      42.368  21.001  27.150  1.00  0.00     0.173 A 
ATOM     60  C   UNL A   1      44.045  22.208  25.994  1.00  0.00     0.173 A 
ATOM     61  F   UNL A   1      41.368  20.873  28.033  1.00  0.00    -0.203 F 
ATOM     62  C   UNL A   1      42.580  19.898  26.314  1.00  0.00     0.198 A 
ATOM     63  C   UNL A   1      44.280  21.093  25.175  1.00  0.00     0.198 A 
ATOM     64  F   UNL A   1      44.704  23.315  25.643  1.00  0.00    -0.203 F 
ATOM     65  F   UNL A   1      41.827  18.798  26.461  1.00  0.00    -0.200 F 
ATOM     66  C   UNL A   1      43.557  19.934  25.344  1.00  0.00     0.200 A 
ATOM     67  F   UNL A   1      45.210  21.162  24.210  1.00  0.00    -0.200 F 
ATOM     68  F   UNL A   1      43.774  18.873  24.554  1.00  0.00    -0.200 F 
ENDBRANCH  44  58
BRANCH  45  69
ATOM     69  C   UNL A   1      41.703  30.589  31.825  1.00  0.00     0.064 A 
ATOM     70  C   UNL A   1      41.635  31.977  31.532  1.00  0.00     0.173 A 
ATOM     71  C   UNL A   1      40.484  29.970  32.135  1.00  0.00     0.173 A 
ATOM     72  F   UNL A   1      42.754  32.658  31.235  1.00  0.00    -0.203 F 
ATOM     73  C   UNL A   1      40.422  32.661  31.426  1.00  0.00     0.198 A 
ATOM     74  C   UNL A   1      39.270  30.673  32.077  1.00  0.00     0.198 A 
ATOM     75  F   UNL A   1      40.432  28.662  32.420  1.00  0.00    -0.203 F 
ATOM     76  F   UNL A   1      40.404  33.931  30.995  1.00  0.00    -0.200 F 
ATOM     77  C   UNL A   1      39.237  32.004  31.690  1.00  0.00     0.200 A 
ATOM     78  F   UNL A   1      38.117  30.027  32.306  1.00  0.00    -0.200 F 
ATOM     79  F   UNL A   1      38.065  32.633  31.524  1.00  0.00    -0.200 F 
ENDBRANCH  45  69
BRANCH  57  80
ATOM     80  C   UNL A   1      45.304  24.345  33.052  1.00  0.00     0.064 A 
ATOM     81  C   UNL A   1      44.541  23.257  33.496  1.00  0.00     0.173 A 
ATOM     82  C   UNL A   1      46.579  24.487  33.646  1.00  0.00     0.173 A 
ATOM     83  F   UNL A   1      43.255  23.123  33.139  1.00  0.00    -0.203 F 
ATOM     84  C   UNL A   1      45.077  22.286  34.338  1.00  0.00     0.198 A 
ATOM     85  C   UNL A   1      47.086  23.552  34.538  1.00  0.00     0.198 A 
ATOM     86  F   UNL A   1      47.388  25.517  33.373  1.00  0.00    -0.203 F 
ATOM     87  F   UNL A   1      44.349  21.205  34.644  1.00  0.00    -0.200 F 
ATOM     88  C   UNL A   1      46.352  22.430  34.851  1.00  0.00     0.200 A 
ATOM     89  F   UNL A   1      48.300  23.742  35.073  1.00  0.00    -0.200 F 
ATOM     90  F   UNL A   1      46.870  21.492  35.654  1.00  0.00    -0.200 F 
ENDBRANCH  57  80
ENDBRANCH  31  32
ENDBRANCH  24  26
ENDBRANCH  23  24
ENDBRANCH  22  23
ENDBRANCH   1  22
TORSDOF 15
ENDMDL
MODEL 3
REMARK VINA RESULT:     -12.5      3.878     10.321
REMARK SMILES Cc1ccc(SCC[N@H+]2CC[C@@H](C(=O)OCCOC(=O)c3ccc(-c4c5nc(c(-c6c(F)c(F)c(F)c(F)c6F)c6ccc([nH]6)c(-c6c(F)c(F)c(F)c(F)c6F)c6nc(c(-c7c(F)c(F)c(F)c(F)c7F)c7ccc4[nH]7)C=C6)C=C5)cc3)[C@@H]2C)cc1
REMARK SMILES IDX 16 1 15 2 13 3 14 4 12 5 9 6 10 7 84 8 11 10 85 11 8 12 7 13
REMARK SMILES IDX 6 14 5 15 1 16 2 17 3 18 87 19 4 20 86 21 17 22 18 23 19 24
REMARK SMILES IDX 20 25 21 26 22 27 83 28 23 29 82 30 24 31 25 32 26 33 76 34
REMARK SMILES IDX 27 35 81 36 75 37 77 38 28 39 80 40 74 41 73 42 29 44 61 45
REMARK SMILES IDX 41 46 60 47 42 48 45 49 59 50 78 51 43 52 44 53 58 55 79 56
REMARK SMILES IDX 46 57 30 58 31 59 39 60 32 61 33 62 37 63 40 64 34 65 35 66
REMARK SMILES IDX 38 67 36 68 62 69 63 70 71 71 64 72 65 73 69 74 72 75 66 76
REMARK SMILES IDX 67 77 70 78 68 79 47 80 48 81 56 82 49 83 50 84 54 85 57 86
REMARK SMILES IDX 51 87 52 88 55 89 53 90
REMARK H PARENT 9 9 77 43 45 54
REMARK Flexibility Score: inf
ROOT
ATOM      1  C   UNL A   1      37.139  22.644  24.308  1.00  0.00     0.274 C 
ENDROOT
BRANCH   1   2
ATOM      2  O   UNL A   1      35.979  23.464  24.348  1.00  0.00    -0.462 OA
BRANCH   2   3
ATOM      3  C   UNL A   1      34.896  23.013  23.657  1.00  0.00     0.315 C 
ATOM      4  O   UNL A   1      34.613  23.328  22.520  1.00  0.00    -0.252 OA
BRANCH   3   5
ATOM      5  C   UNL A   1      34.158  22.049  24.553  1.00  0.00     0.162 C 
ATOM      6  N   UNL A   1      32.456  23.003  25.836  1.00  0.00    -0.331 N 
ATOM      7  C   UNL A   1      31.826  21.910  25.092  1.00  0.00     0.263 C 
ATOM      8  C   UNL A   1      33.895  22.751  25.863  1.00  0.00     0.195 C 
ATOM      9  H   UNL A   1      32.090  23.024  26.788  1.00  0.00     0.348 HD
ATOM     10  C   UNL A   1      32.836  21.496  24.048  1.00  0.00     0.083 C 
ATOM     11  C   UNL A   1      34.332  21.875  27.038  1.00  0.00     0.076 C 
BRANCH   6  12
ATOM     12  C   UNL A   1      32.129  24.324  25.288  1.00  0.00     0.273 C 
BRANCH  12  13
ATOM     13  C   UNL A   1      30.688  24.716  25.639  1.00  0.00     0.136 C 
BRANCH  13  14
ATOM     14  S   UNL A   1      30.035  26.215  24.772  1.00  0.00    -0.120 SA
BRANCH  14  15
ATOM     15  C   UNL A   1      31.003  27.581  25.420  1.00  0.00     0.007 A 
ATOM     16  C   UNL A   1      32.999  30.901  27.355  1.00  0.00     0.044 C 
ATOM     17  C   UNL A   1      32.352  29.736  26.668  1.00  0.00    -0.051 A 
ATOM     18  C   UNL A   1      32.248  28.498  27.308  1.00  0.00     0.004 A 
ATOM     19  C   UNL A   1      31.856  29.861  25.367  1.00  0.00     0.004 A 
ATOM     20  C   UNL A   1      31.569  27.434  26.694  1.00  0.00     0.015 A 
ATOM     21  C   UNL A   1      31.213  28.784  24.742  1.00  0.00     0.015 A 
ENDBRANCH  14  15
ENDBRANCH  13  14
ENDBRANCH  12  13
ENDBRANCH   6  12
ENDBRANCH   3   5
ENDBRANCH   2   3
ENDBRANCH   1   2
BRANCH   1  22
ATOM     22  C   UNL A   1      37.753  22.575  25.715  1.00  0.00     0.275 C 
BRANCH  22  23
ATOM     23  O   UNL A   1      38.435  23.770  26.245  1.00  0.00    -0.458 OA
BRANCH  23  24
ATOM     24  C   UNL A   1      39.466  23.947  27.119  1.00  0.00     0.338 C 
ATOM     25  O   UNL A   1      40.209  23.026  27.434  1.00  0.00    -0.246 OA
BRANCH  24  26
ATOM     26  C   UNL A   1      39.738  25.300  27.638  1.00  0.00     0.060 A 
ATOM     27  C   UNL A   1      40.162  26.344  26.793  1.00  0.00     0.016 A 
ATOM     28  C   UNL A   1      39.403  25.567  28.946  1.00  0.00     0.016 A 
ATOM     29  C   UNL A   1      40.047  27.674  27.218  1.00  0.00     0.010 A 
ATOM     30  C   UNL A   1      39.044  26.844  29.267  1.00  0.00     0.010 A 
ATOM     31  C   UNL A   1      39.426  27.908  28.443  1.00  0.00    -0.014 A 
BRANCH  31  32
ATOM     32  C   UNL A   1      39.414  29.177  29.161  1.00  0.00     0.031 A 
ATOM     33  C   UNL A   1      38.407  30.214  28.920  1.00  0.00     0.074 A 
ATOM     34  C   UNL A   1      40.314  29.161  30.169  1.00  0.00     0.049 A 
ATOM     35  N   UNL A   1      38.608  31.485  28.929  1.00  0.00    -0.248 NA
ATOM     36  C   UNL A   1      37.035  29.874  28.577  1.00  0.00     0.031 C 
ATOM     37  C   UNL A   1      40.551  30.028  31.299  1.00  0.00     0.029 A 
ATOM     38  N   UNL A   1      41.383  28.243  30.234  1.00  0.00    -0.354 N 
ATOM     39  C   UNL A   1      37.350  32.070  28.987  1.00  0.00     0.074 A 
ATOM     40  C   UNL A   1      36.452  31.072  28.478  1.00  0.00     0.031 C 
ATOM     41  C   UNL A   1      41.842  29.863  31.670  1.00  0.00     0.029 A 
ATOM     42  C   UNL A   1      42.477  28.964  30.702  1.00  0.00     0.049 A 
ATOM     43  H   UNL A   1      41.360  27.288  29.998  1.00  0.00     0.167 HD
ATOM     44  C   UNL A   1      37.157  33.184  29.757  1.00  0.00     0.037 A 
ATOM     45  C   UNL A   1      43.409  29.274  29.749  1.00  0.00     0.037 A 
ATOM     46  C   UNL A   1      38.410  33.493  30.451  1.00  0.00     0.049 A 
ATOM     47  C   UNL A   1      43.375  30.752  29.419  1.00  0.00     0.074 A 
ATOM     48  C   UNL A   1      38.875  33.234  31.730  1.00  0.00     0.029 A 
ATOM     49  N   UNL A   1      39.524  33.800  29.697  1.00  0.00    -0.354 N 
ATOM     50  N   UNL A   1      42.398  31.556  29.749  1.00  0.00    -0.248 NA
ATOM     51  C   UNL A   1      44.414  31.428  28.653  1.00  0.00     0.031 C 
ATOM     52  C   UNL A   1      40.302  33.349  31.709  1.00  0.00     0.029 A 
ATOM     53  C   UNL A   1      40.690  33.680  30.423  1.00  0.00     0.049 A 
ATOM     54  H   UNL A   1      39.490  34.072  28.751  1.00  0.00     0.167 HD
ATOM     55  C   UNL A   1      42.697  32.829  29.366  1.00  0.00     0.074 A 
ATOM     56  C   UNL A   1      43.929  32.681  28.606  1.00  0.00     0.031 C 
ATOM     57  C   UNL A   1      41.940  33.911  29.720  1.00  0.00     0.037 A 
BRANCH  44  58
ATOM     58  C   UNL A   1      35.827  33.804  30.172  1.00  0.00     0.064 A 
ATOM     59  C   UNL A   1      34.973  34.361  29.191  1.00  0.00     0.173 A 
ATOM     60  C   UNL A   1      35.320  33.893  31.486  1.00  0.00     0.173 A 
ATOM     61  F   UNL A   1      35.246  34.247  27.883  1.00  0.00    -0.203 F 
ATOM     62  C   UNL A   1      33.787  35.037  29.504  1.00  0.00     0.198 A 
ATOM     63  C   UNL A   1      34.148  34.597  31.804  1.00  0.00     0.198 A 
ATOM     64  F   UNL A   1      35.890  33.254  32.510  1.00  0.00    -0.203 F 
ATOM     65  F   UNL A   1      33.036  35.550  28.519  1.00  0.00    -0.200 F 
ATOM     66  C   UNL A   1      33.389  35.180  30.814  1.00  0.00     0.200 A 
ATOM     67  F   UNL A   1      33.757  34.691  33.084  1.00  0.00    -0.200 F 
ATOM     68  F   UNL A   1      32.264  35.841  31.118  1.00  0.00    -0.200 F 
ENDBRANCH  44  58
BRANCH  45  69
ATOM     69  C   UNL A   1      43.656  28.157  28.753  1.00  0.00     0.064 A 
ATOM     70  C   UNL A   1      43.303  28.355  27.392  1.00  0.00     0.173 A 
ATOM     71  C   UNL A   1      44.455  27.036  29.019  1.00  0.00     0.173 A 
ATOM     72  F   UNL A   1      42.530  29.397  27.042  1.00  0.00    -0.203 F 
ATOM     73  C   UNL A   1      43.822  27.568  26.362  1.00  0.00     0.198 A 
ATOM     74  C   UNL A   1      44.935  26.216  27.985  1.00  0.00     0.198 A 
ATOM     75  F   UNL A   1      44.853  26.759  30.268  1.00  0.00    -0.203 F 
ATOM     76  F   UNL A   1      43.580  27.893  25.083  1.00  0.00    -0.200 F 
ATOM     77  C   UNL A   1      44.647  26.502  26.659  1.00  0.00     0.200 A 
ATOM     78  F   UNL A   1      45.759  25.198  28.273  1.00  0.00    -0.200 F 
ATOM     79  F   UNL A   1      45.204  25.784  25.674  1.00  0.00    -0.200 F 
ENDBRANCH  45  69
BRANCH  57  80
ATOM     80  C   UNL A   1      42.327  35.320  29.371  1.00  0.00     0.064 A 
ATOM     81  C   UNL A   1      43.157  36.089  30.196  1.00  0.00     0.173 A 
ATOM     82  C   UNL A   1      41.820  35.974  28.225  1.00  0.00     0.173 A 
ATOM     83  F   UNL A   1      43.551  35.636  31.395  1.00  0.00    -0.203 F 
ATOM     84  C   UNL A   1      43.587  37.358  29.818  1.00  0.00     0.198 A 
ATOM     85  C   UNL A   1      42.198  37.266  27.884  1.00  0.00     0.198 A 
ATOM     86  F   UNL A   1      40.960  35.388  27.384  1.00  0.00    -0.203 F 
ATOM     87  F   UNL A   1      44.471  38.011  30.584  1.00  0.00    -0.200 F 
ATOM     88  C   UNL A   1      43.115  37.942  28.657  1.00  0.00     0.200 A 
ATOM     89  F   UNL A   1      41.679  37.837  26.788  1.00  0.00    -0.200 F 
ATOM     90  F   UNL A   1      43.535  39.158  28.289  1.00  0.00    -0.200 F 
ENDBRANCH  57  80
ENDBRANCH  31  32
ENDBRANCH  24  26
ENDBRANCH  23  24
ENDBRANCH  22  23
ENDBRANCH   1  22
TORSDOF 15
ENDMDL
