MODEL 1
REMARK VINA RESULT:     -10.6      0.000      0.000
REMARK SMILES O=C(CCC(=O)N1CCN(S(=O)(=O)c2cccs2)CC1)OCCOC(=O)c1ccc(-c2c3nc(c(-c4c(F)c(F)c(F)c(F)c4F)c4ccc([nH]4)c(-c4c(F)c(F)c(F)c(F)c4F)c4nc(c(-c5c(F)c(F)c(F)c(F)c5F)c5ccc2[nH]5)C=C4)C=C3)cc1
REMARK SMILES IDX 22 1 21 2 2 3 1 4 3 5 4 6 5 7 6 8 7 9 8 10 20 11 9 12 19 13
REMARK SMILES IDX 10 14 11 15 12 16 13 17 14 18 15 19 18 20 16 21 17 22 23 23
REMARK SMILES IDX 24 24 25 25 26 26 27 27 28 28 89 29 29 30 88 31 30 32 31 33
REMARK SMILES IDX 32 34 82 35 33 36 87 37 81 38 83 39 34 40 86 41 80 42 79 43
REMARK SMILES IDX 35 45 67 46 47 47 66 48 48 49 51 50 65 51 84 52 49 53 50 54
REMARK SMILES IDX 64 56 85 57 52 58 36 59 37 60 45 61 38 62 39 63 43 64 46 65
REMARK SMILES IDX 40 66 41 67 44 68 42 69 68 70 69 71 77 72 70 73 71 74 75 75
REMARK SMILES IDX 78 76 72 77 73 78 76 79 74 80 53 81 54 82 62 83 55 84 56 85
REMARK SMILES IDX 60 86 63 87 57 88 58 89 61 90 59 91
REMARK H PARENT 83 44 51 55
REMARK Flexibility Score: inf
ROOT
ATOM      1  C   UNL A   1      34.173  34.479  29.258  1.00  0.00     0.274 C 
ENDROOT
BRANCH   1   2
ATOM      2  O   UNL A   1      32.951  34.946  29.873  1.00  0.00    -0.462 OA
BRANCH   2   3
ATOM      3  C   UNL A   1      32.821  36.057  30.630  1.00  0.00     0.306 C 
ATOM      4  O   UNL A   1      32.896  37.167  30.104  1.00  0.00    -0.252 OA
BRANCH   3   5
ATOM      5  C   UNL A   1      32.493  35.935  32.092  1.00  0.00     0.132 C 
BRANCH   5   6
ATOM      6  C   UNL A   1      33.745  35.653  32.909  1.00  0.00     0.112 C 
BRANCH   6   7
ATOM      7  C   UNL A   1      34.099  34.179  32.971  1.00  0.00     0.223 C 
ATOM      8  O   UNL A   1      33.205  33.359  33.194  1.00  0.00    -0.275 OA
ATOM      9  N   UNL A   1      35.418  33.792  32.755  1.00  0.00    -0.340 N 
ATOM     10  C   UNL A   1      35.677  32.343  32.710  1.00  0.00     0.136 C 
ATOM     11  C   UNL A   1      36.565  34.663  33.050  1.00  0.00     0.136 C 
ATOM     12  C   UNL A   1      37.051  31.965  32.131  1.00  0.00     0.124 C 
ATOM     13  C   UNL A   1      37.914  34.204  32.500  1.00  0.00     0.124 C 
ATOM     14  N   UNL A   1      38.159  32.762  32.754  1.00  0.00    -0.194 NA
BRANCH  14  15
ATOM     15  S   UNL A   1      38.534  32.275  34.349  1.00  0.00     0.252 S 
ATOM     16  O   UNL A   1      39.389  33.284  34.941  1.00  0.00    -0.206 OA
ATOM     17  O   UNL A   1      37.294  31.901  34.993  1.00  0.00    -0.206 OA
BRANCH  15  18
ATOM     18  C   UNL A   1      39.576  30.832  34.317  1.00  0.00     0.135 A 
ATOM     19  C   UNL A   1      39.843  29.933  33.298  1.00  0.00     0.033 A 
ATOM     20  S   UNL A   1      40.453  30.450  35.732  1.00  0.00    -0.131 S 
ATOM     21  C   UNL A   1      40.815  28.961  33.669  1.00  0.00     0.013 A 
ATOM     22  C   UNL A   1      41.249  29.143  34.963  1.00  0.00     0.066 A 
ENDBRANCH  15  18
ENDBRANCH  14  15
ENDBRANCH   6   7
ENDBRANCH   5   6
ENDBRANCH   3   5
ENDBRANCH   2   3
ENDBRANCH   1   2
BRANCH   1  23
ATOM     23  C   UNL A   1      33.902  33.229  28.424  1.00  0.00     0.275 C 
BRANCH  23  24
ATOM     24  O   UNL A   1      34.518  32.088  29.042  1.00  0.00    -0.458 OA
BRANCH  24  25
ATOM     25  C   UNL A   1      34.485  30.953  28.293  1.00  0.00     0.338 C 
ATOM     26  O   UNL A   1      33.599  30.587  27.549  1.00  0.00    -0.246 OA
BRANCH  25  27
ATOM     27  C   UNL A   1      35.810  30.304  28.367  1.00  0.00     0.060 A 
ATOM     28  C   UNL A   1      36.173  29.688  29.571  1.00  0.00     0.016 A 
ATOM     29  C   UNL A   1      36.683  30.298  27.274  1.00  0.00     0.016 A 
ATOM     30  C   UNL A   1      37.432  29.108  29.705  1.00  0.00     0.010 A 
ATOM     31  C   UNL A   1      37.949  29.727  27.412  1.00  0.00     0.010 A 
ATOM     32  C   UNL A   1      38.341  29.172  28.641  1.00  0.00    -0.014 A 
BRANCH  32  33
ATOM     33  C   UNL A   1      39.770  28.886  28.891  1.00  0.00     0.031 A 
ATOM     34  C   UNL A   1      40.584  29.948  29.577  1.00  0.00     0.074 A 
ATOM     35  C   UNL A   1      40.324  27.714  28.537  1.00  0.00     0.049 A 
ATOM     36  N   UNL A   1      41.851  29.950  29.898  1.00  0.00    -0.248 NA
ATOM     37  C   UNL A   1      39.866  31.179  29.950  1.00  0.00     0.031 C 
ATOM     38  C   UNL A   1      39.626  26.609  27.888  1.00  0.00     0.029 A 
ATOM     39  N   UNL A   1      41.615  27.269  28.671  1.00  0.00    -0.354 N 
ATOM     40  C   UNL A   1      42.076  31.170  30.523  1.00  0.00     0.074 A 
ATOM     41  C   UNL A   1      40.832  31.905  30.490  1.00  0.00     0.031 C 
ATOM     42  C   UNL A   1      40.502  25.615  27.661  1.00  0.00     0.029 A 
ATOM     43  C   UNL A   1      41.824  26.023  28.135  1.00  0.00     0.049 A 
ATOM     44  H   UNL A   1      42.324  27.793  29.110  1.00  0.00     0.167 HD
ATOM     45  C   UNL A   1      43.215  31.629  31.091  1.00  0.00     0.037 A 
ATOM     46  C   UNL A   1      42.961  25.308  28.032  1.00  0.00     0.037 A 
ATOM     47  C   UNL A   1      44.457  30.907  31.096  1.00  0.00     0.049 A 
ATOM     48  C   UNL A   1      44.235  25.874  28.610  1.00  0.00     0.074 A 
ATOM     49  C   UNL A   1      45.678  31.287  31.624  1.00  0.00     0.029 A 
ATOM     50  N   UNL A   1      44.634  29.650  30.536  1.00  0.00    -0.354 N 
ATOM     51  N   UNL A   1      44.434  27.013  29.228  1.00  0.00    -0.248 NA
ATOM     52  C   UNL A   1      45.442  25.044  28.489  1.00  0.00     0.031 C 
ATOM     53  C   UNL A   1      46.604  30.276  31.346  1.00  0.00     0.029 A 
ATOM     54  C   UNL A   1      45.949  29.244  30.692  1.00  0.00     0.049 A 
ATOM     55  H   UNL A   1      43.930  29.124  30.092  1.00  0.00     0.167 HD
ATOM     56  C   UNL A   1      45.774  27.024  29.594  1.00  0.00     0.074 A 
ATOM     57  C   UNL A   1      46.337  25.768  29.145  1.00  0.00     0.031 C 
ATOM     58  C   UNL A   1      46.479  27.983  30.243  1.00  0.00     0.037 A 
BRANCH  45  59
ATOM     59  C   UNL A   1      43.161  32.980  31.741  1.00  0.00     0.064 A 
ATOM     60  C   UNL A   1      43.375  34.155  31.003  1.00  0.00     0.173 A 
ATOM     61  C   UNL A   1      42.884  33.105  33.110  1.00  0.00     0.173 A 
ATOM     62  F   UNL A   1      43.665  34.087  29.695  1.00  0.00    -0.203 F 
ATOM     63  C   UNL A   1      43.337  35.403  31.618  1.00  0.00     0.198 A 
ATOM     64  C   UNL A   1      42.821  34.357  33.715  1.00  0.00     0.198 A 
ATOM     65  F   UNL A   1      42.677  32.013  33.861  1.00  0.00    -0.203 F 
ATOM     66  F   UNL A   1      43.593  36.508  30.902  1.00  0.00    -0.200 F 
ATOM     67  C   UNL A   1      43.053  35.504  32.971  1.00  0.00     0.200 A 
ATOM     68  F   UNL A   1      42.538  34.454  35.022  1.00  0.00    -0.200 F 
ATOM     69  F   UNL A   1      43.013  36.707  33.560  1.00  0.00    -0.200 F 
ENDBRANCH  45  59
BRANCH  46  70
ATOM     70  C   UNL A   1      42.957  23.986  27.353  1.00  0.00     0.064 A 
ATOM     71  C   UNL A   1      43.293  23.865  25.998  1.00  0.00     0.173 A 
ATOM     72  C   UNL A   1      42.579  22.821  28.036  1.00  0.00     0.173 A 
ATOM     73  F   UNL A   1      43.638  24.953  25.293  1.00  0.00    -0.203 F 
ATOM     74  C   UNL A   1      43.223  22.635  25.345  1.00  0.00     0.198 A 
ATOM     75  C   UNL A   1      42.536  21.587  27.390  1.00  0.00     0.198 A 
ATOM     76  F   UNL A   1      42.246  22.882  29.334  1.00  0.00    -0.203 F 
ATOM     77  F   UNL A   1      43.494  22.558  24.034  1.00  0.00    -0.200 F 
ATOM     78  C   UNL A   1      42.848  21.497  26.042  1.00  0.00     0.200 A 
ATOM     79  F   UNL A   1      42.185  20.489  28.071  1.00  0.00    -0.200 F 
ATOM     80  F   UNL A   1      42.776  20.316  25.414  1.00  0.00    -0.200 F 
ENDBRANCH  46  70
BRANCH  58  81
ATOM     81  C   UNL A   1      47.923  27.693  30.538  1.00  0.00     0.064 A 
ATOM     82  C   UNL A   1      48.939  28.000  29.622  1.00  0.00     0.173 A 
ATOM     83  C   UNL A   1      48.295  27.134  31.771  1.00  0.00     0.173 A 
ATOM     84  F   UNL A   1      48.633  28.526  28.426  1.00  0.00    -0.203 F 
ATOM     85  C   UNL A   1      50.272  27.727  29.915  1.00  0.00     0.198 A 
ATOM     86  C   UNL A   1      49.631  26.892  32.072  1.00  0.00     0.198 A 
ATOM     87  F   UNL A   1      47.363  26.832  32.686  1.00  0.00    -0.203 F 
ATOM     88  F   UNL A   1      51.222  27.980  29.003  1.00  0.00    -0.200 F 
ATOM     89  C   UNL A   1      50.618  27.180  31.142  1.00  0.00     0.200 A 
ATOM     90  F   UNL A   1      49.965  26.376  33.264  1.00  0.00    -0.200 F 
ATOM     91  F   UNL A   1      51.902  26.922  31.423  1.00  0.00    -0.200 F 
ENDBRANCH  58  81
ENDBRANCH  32  33
ENDBRANCH  25  27
ENDBRANCH  24  25
ENDBRANCH  23  24
ENDBRANCH   1  23
TORSDOF 15
ENDMDL
MODEL 2
REMARK VINA RESULT:     -10.5      5.053      7.770
REMARK SMILES O=C(CCC(=O)N1CCN(S(=O)(=O)c2cccs2)CC1)OCCOC(=O)c1ccc(-c2c3nc(c(-c4c(F)c(F)c(F)c(F)c4F)c4ccc([nH]4)c(-c4c(F)c(F)c(F)c(F)c4F)c4nc(c(-c5c(F)c(F)c(F)c(F)c5F)c5ccc2[nH]5)C=C4)C=C3)cc1
REMARK SMILES IDX 22 1 21 2 2 3 1 4 3 5 4 6 5 7 6 8 7 9 8 10 20 11 9 12 19 13
REMARK SMILES IDX 10 14 11 15 12 16 13 17 14 18 15 19 18 20 16 21 17 22 23 23
REMARK SMILES IDX 24 24 25 25 26 26 27 27 28 28 89 29 29 30 88 31 30 32 31 33
REMARK SMILES IDX 32 34 82 35 33 36 87 37 81 38 83 39 34 40 86 41 80 42 79 43
REMARK SMILES IDX 35 45 67 46 47 47 66 48 48 49 51 50 65 51 84 52 49 53 50 54
REMARK SMILES IDX 64 56 85 57 52 58 36 59 37 60 45 61 38 62 39 63 43 64 46 65
REMARK SMILES IDX 40 66 41 67 44 68 42 69 68 70 69 71 77 72 70 73 71 74 75 75
REMARK SMILES IDX 78 76 72 77 73 78 76 79 74 80 53 81 54 82 62 83 55 84 56 85
REMARK SMILES IDX 60 86 63 87 57 88 58 89 61 90 59 91
REMARK H PARENT 83 44 51 55
REMARK Flexibility Score: inf
ROOT
ATOM      1  C   UNL A   1      31.059  31.753  26.141  1.00  0.00     0.274 C 
ENDROOT
BRANCH   1   2
ATOM      2  O   UNL A   1      31.790  30.529  26.386  1.00  0.00    -0.462 OA
BRANCH   2   3
ATOM      3  C   UNL A   1      32.095  29.593  25.461  1.00  0.00     0.306 C 
ATOM      4  O   UNL A   1      31.263  29.282  24.610  1.00  0.00    -0.252 OA
BRANCH   3   5
ATOM      5  C   UNL A   1      33.478  29.005  25.416  1.00  0.00     0.132 C 
BRANCH   5   6
ATOM      6  C   UNL A   1      33.457  27.535  25.806  1.00  0.00     0.112 C 
BRANCH   6   7
ATOM      7  C   UNL A   1      33.656  26.601  24.628  1.00  0.00     0.223 C 
ATOM      8  O   UNL A   1      33.666  27.071  23.487  1.00  0.00    -0.275 OA
ATOM      9  N   UNL A   1      33.842  25.243  24.867  1.00  0.00    -0.340 N 
ATOM     10  C   UNL A   1      34.147  24.406  23.695  1.00  0.00     0.136 C 
ATOM     11  C   UNL A   1      33.296  24.557  26.048  1.00  0.00     0.136 C 
ATOM     12  C   UNL A   1      34.682  23.006  24.041  1.00  0.00     0.124 C 
ATOM     13  C   UNL A   1      33.819  23.146  26.306  1.00  0.00     0.124 C 
ATOM     14  N   UNL A   1      33.832  22.321  25.071  1.00  0.00    -0.194 NA
BRANCH  14  15
ATOM     15  S   UNL A   1      32.339  21.760  24.458  1.00  0.00     0.252 S 
ATOM     16  O   UNL A   1      31.380  21.750  25.544  1.00  0.00    -0.206 OA
ATOM     17  O   UNL A   1      32.061  22.499  23.246  1.00  0.00    -0.206 OA
BRANCH  15  18
ATOM     18  C   UNL A   1      32.469  20.040  24.017  1.00  0.00     0.135 A 
ATOM     19  C   UNL A   1      32.277  19.401  22.804  1.00  0.00     0.033 A 
ATOM     20  S   UNL A   1      32.940  18.939  25.235  1.00  0.00    -0.131 S 
ATOM     21  C   UNL A   1      32.573  18.010  22.867  1.00  0.00     0.013 A 
ATOM     22  C   UNL A   1      32.970  17.630  24.130  1.00  0.00     0.066 A 
ENDBRANCH  15  18
ENDBRANCH  14  15
ENDBRANCH   6   7
ENDBRANCH   5   6
ENDBRANCH   3   5
ENDBRANCH   2   3
ENDBRANCH   1   2
BRANCH   1  23
ATOM     23  C   UNL A   1      31.773  32.935  26.793  1.00  0.00     0.275 C 
BRANCH  23  24
ATOM     24  O   UNL A   1      32.845  32.457  27.622  1.00  0.00    -0.458 OA
BRANCH  24  25
ATOM     25  C   UNL A   1      33.806  33.383  27.890  1.00  0.00     0.338 C 
ATOM     26  O   UNL A   1      33.662  34.582  28.004  1.00  0.00    -0.246 OA
BRANCH  25  27
ATOM     27  C   UNL A   1      35.058  32.673  28.228  1.00  0.00     0.060 A 
ATOM     28  C   UNL A   1      34.990  31.289  28.440  1.00  0.00     0.016 A 
ATOM     29  C   UNL A   1      36.277  33.350  28.333  1.00  0.00     0.016 A 
ATOM     30  C   UNL A   1      36.134  30.585  28.810  1.00  0.00     0.010 A 
ATOM     31  C   UNL A   1      37.420  32.646  28.714  1.00  0.00     0.010 A 
ATOM     32  C   UNL A   1      37.340  31.273  28.997  1.00  0.00    -0.014 A 
BRANCH  32  33
ATOM     33  C   UNL A   1      38.446  30.610  29.721  1.00  0.00     0.031 A 
ATOM     34  C   UNL A   1      38.668  30.994  31.159  1.00  0.00     0.074 A 
ATOM     35  C   UNL A   1      39.218  29.683  29.130  1.00  0.00     0.049 A 
ATOM     36  N   UNL A   1      39.570  30.574  32.005  1.00  0.00    -0.248 NA
ATOM     37  C   UNL A   1      37.741  31.996  31.715  1.00  0.00     0.031 C 
ATOM     38  C   UNL A   1      39.079  29.221  27.752  1.00  0.00     0.029 A 
ATOM     39  N   UNL A   1      40.284  28.974  29.621  1.00  0.00    -0.354 N 
ATOM     40  C   UNL A   1      39.310  31.244  33.193  1.00  0.00     0.074 A 
ATOM     41  C   UNL A   1      38.201  32.138  32.947  1.00  0.00     0.031 C 
ATOM     42  C   UNL A   1      40.039  28.314  27.500  1.00  0.00     0.029 A 
ATOM     43  C   UNL A   1      40.867  28.147  28.694  1.00  0.00     0.049 A 
ATOM     44  H   UNL A   1      40.600  29.049  30.551  1.00  0.00     0.167 HD
ATOM     45  C   UNL A   1      39.929  31.112  34.389  1.00  0.00     0.037 A 
ATOM     46  C   UNL A   1      41.954  27.359  28.804  1.00  0.00     0.037 A 
ATOM     47  C   UNL A   1      41.048  30.243  34.622  1.00  0.00     0.049 A 
ATOM     48  C   UNL A   1      42.671  27.283  30.130  1.00  0.00     0.074 A 
ATOM     49  C   UNL A   1      41.766  30.046  35.787  1.00  0.00     0.029 A 
ATOM     50  N   UNL A   1      41.618  29.425  33.655  1.00  0.00    -0.354 N 
ATOM     51  N   UNL A   1      42.400  27.895  31.258  1.00  0.00    -0.248 NA
ATOM     52  C   UNL A   1      43.839  26.393  30.200  1.00  0.00     0.031 C 
ATOM     53  C   UNL A   1      42.796  29.140  35.516  1.00  0.00     0.029 A 
ATOM     54  C   UNL A   1      42.689  28.732  34.195  1.00  0.00     0.049 A 
ATOM     55  H   UNL A   1      41.308  29.349  32.724  1.00  0.00     0.167 HD
ATOM     56  C   UNL A   1      43.341  27.443  32.176  1.00  0.00     0.074 A 
ATOM     57  C   UNL A   1      44.178  26.491  31.477  1.00  0.00     0.031 C 
ATOM     58  C   UNL A   1      43.499  27.782  33.479  1.00  0.00     0.037 A 
BRANCH  45  59
ATOM     59  C   UNL A   1      39.406  31.939  35.527  1.00  0.00     0.064 A 
ATOM     60  C   UNL A   1      39.807  33.272  35.705  1.00  0.00     0.173 A 
ATOM     61  C   UNL A   1      38.491  31.398  36.442  1.00  0.00     0.173 A 
ATOM     62  F   UNL A   1      40.697  33.827  34.869  1.00  0.00    -0.203 F 
ATOM     63  C   UNL A   1      39.328  34.026  36.772  1.00  0.00     0.198 A 
ATOM     64  C   UNL A   1      37.994  32.166  37.492  1.00  0.00     0.198 A 
ATOM     65  F   UNL A   1      38.080  30.128  36.318  1.00  0.00    -0.203 F 
ATOM     66  F   UNL A   1      39.762  35.282  36.950  1.00  0.00    -0.200 F 
ATOM     67  C   UNL A   1      38.417  33.475  37.660  1.00  0.00     0.200 A 
ATOM     68  F   UNL A   1      37.107  31.635  38.345  1.00  0.00    -0.200 F 
ATOM     69  F   UNL A   1      37.954  34.205  38.684  1.00  0.00    -0.200 F 
ENDBRANCH  45  59
BRANCH  46  70
ATOM     70  C   UNL A   1      42.439  26.584  27.633  1.00  0.00     0.064 A 
ATOM     71  C   UNL A   1      41.960  25.293  27.367  1.00  0.00     0.173 A 
ATOM     72  C   UNL A   1      43.422  27.101  26.776  1.00  0.00     0.173 A 
ATOM     73  F   UNL A   1      41.037  24.743  28.171  1.00  0.00    -0.203 F 
ATOM     74  C   UNL A   1      42.464  24.540  26.308  1.00  0.00     0.198 A 
ATOM     75  C   UNL A   1      43.905  26.359  25.701  1.00  0.00     0.198 A 
ATOM     76  F   UNL A   1      43.915  28.330  26.986  1.00  0.00    -0.203 F 
ATOM     77  F   UNL A   1      42.029  23.287  26.112  1.00  0.00    -0.200 F 
ATOM     78  C   UNL A   1      43.434  25.075  25.474  1.00  0.00     0.200 A 
ATOM     79  F   UNL A   1      44.834  26.884  24.891  1.00  0.00    -0.200 F 
ATOM     80  F   UNL A   1      43.923  24.350  24.459  1.00  0.00    -0.200 F 
ENDBRANCH  46  70
BRANCH  58  81
ATOM     81  C   UNL A   1      44.595  27.091  34.240  1.00  0.00     0.064 A 
ATOM     82  C   UNL A   1      45.879  27.642  34.347  1.00  0.00     0.173 A 
ATOM     83  C   UNL A   1      44.341  25.878  34.900  1.00  0.00     0.173 A 
ATOM     84  F   UNL A   1      46.173  28.794  33.725  1.00  0.00    -0.203 F 
ATOM     85  C   UNL A   1      46.881  26.988  35.059  1.00  0.00     0.198 A 
ATOM     86  C   UNL A   1      45.336  25.243  35.637  1.00  0.00     0.198 A 
ATOM     87  F   UNL A   1      43.126  25.315  34.837  1.00  0.00    -0.203 F 
ATOM     88  F   UNL A   1      48.116  27.507  35.104  1.00  0.00    -0.200 F 
ATOM     89  C   UNL A   1      46.607  25.793  35.709  1.00  0.00     0.200 A 
ATOM     90  F   UNL A   1      45.065  24.096  36.276  1.00  0.00    -0.200 F 
ATOM     91  F   UNL A   1      47.570  25.168  36.398  1.00  0.00    -0.200 F 
ENDBRANCH  58  81
ENDBRANCH  32  33
ENDBRANCH  25  27
ENDBRANCH  24  25
ENDBRANCH  23  24
ENDBRANCH   1  23
TORSDOF 15
ENDMDL
MODEL 3
REMARK VINA RESULT:     -10.3      5.126      7.803
REMARK SMILES O=C(CCC(=O)N1CCN(S(=O)(=O)c2cccs2)CC1)OCCOC(=O)c1ccc(-c2c3nc(c(-c4c(F)c(F)c(F)c(F)c4F)c4ccc([nH]4)c(-c4c(F)c(F)c(F)c(F)c4F)c4nc(c(-c5c(F)c(F)c(F)c(F)c5F)c5ccc2[nH]5)C=C4)C=C3)cc1
REMARK SMILES IDX 22 1 21 2 2 3 1 4 3 5 4 6 5 7 6 8 7 9 8 10 20 11 9 12 19 13
REMARK SMILES IDX 10 14 11 15 12 16 13 17 14 18 15 19 18 20 16 21 17 22 23 23
REMARK SMILES IDX 24 24 25 25 26 26 27 27 28 28 89 29 29 30 88 31 30 32 31 33
REMARK SMILES IDX 32 34 82 35 33 36 87 37 81 38 83 39 34 40 86 41 80 42 79 43
REMARK SMILES IDX 35 45 67 46 47 47 66 48 48 49 51 50 65 51 84 52 49 53 50 54
REMARK SMILES IDX 64 56 85 57 52 58 36 59 37 60 45 61 38 62 39 63 43 64 46 65
REMARK SMILES IDX 40 66 41 67 44 68 42 69 68 70 69 71 77 72 70 73 71 74 75 75
REMARK SMILES IDX 78 76 72 77 73 78 76 79 74 80 53 81 54 82 62 83 55 84 56 85
REMARK SMILES IDX 60 86 63 87 57 88 58 89 61 90 59 91
REMARK H PARENT 83 44 51 55
REMARK Flexibility Score: inf
ROOT
ATOM      1  C   UNL A   1      31.028  31.542  26.106  1.00  0.00     0.274 C 
ENDROOT
BRANCH   1   2
ATOM      2  O   UNL A   1      31.877  30.374  26.032  1.00  0.00    -0.462 OA
BRANCH   2   3
ATOM      3  C   UNL A   1      31.941  29.508  24.997  1.00  0.00     0.306 C 
ATOM      4  O   UNL A   1      30.940  29.299  24.313  1.00  0.00    -0.252 OA
BRANCH   3   5
ATOM      5  C   UNL A   1      33.254  28.877  24.626  1.00  0.00     0.132 C 
BRANCH   5   6
ATOM      6  C   UNL A   1      33.348  27.459  25.168  1.00  0.00     0.112 C 
BRANCH   6   7
ATOM      7  C   UNL A   1      33.605  26.423  24.089  1.00  0.00     0.223 C 
ATOM      8  O   UNL A   1      33.643  26.784  22.910  1.00  0.00    -0.275 OA
ATOM      9  N   UNL A   1      33.809  25.098  24.461  1.00  0.00    -0.340 N 
ATOM     10  C   UNL A   1      34.169  24.162  23.383  1.00  0.00     0.136 C 
ATOM     11  C   UNL A   1      33.237  24.513  25.684  1.00  0.00     0.136 C 
ATOM     12  C   UNL A   1      34.719  22.813  23.876  1.00  0.00     0.124 C 
ATOM     13  C   UNL A   1      33.780  23.145  26.090  1.00  0.00     0.124 C 
ATOM     14  N   UNL A   1      33.850  22.208  24.939  1.00  0.00    -0.194 NA
BRANCH  14  15
ATOM     15  S   UNL A   1      32.388  21.559  24.336  1.00  0.00     0.252 S 
ATOM     16  O   UNL A   1      31.400  21.609  25.394  1.00  0.00    -0.206 OA
ATOM     17  O   UNL A   1      32.125  22.191  23.062  1.00  0.00    -0.206 OA
BRANCH  15  18
ATOM     18  C   UNL A   1      32.574  19.813  24.039  1.00  0.00     0.135 A 
ATOM     19  C   UNL A   1      32.528  19.087  22.861  1.00  0.00     0.033 A 
ATOM     20  S   UNL A   1      32.904  18.808  25.380  1.00  0.00    -0.131 S 
ATOM     21  C   UNL A   1      32.819  17.708  23.059  1.00  0.00     0.013 A 
ATOM     22  C   UNL A   1      33.067  17.424  24.384  1.00  0.00     0.066 A 
ENDBRANCH  15  18
ENDBRANCH  14  15
ENDBRANCH   6   7
ENDBRANCH   5   6
ENDBRANCH   3   5
ENDBRANCH   2   3
ENDBRANCH   1   2
BRANCH   1  23
ATOM     23  C   UNL A   1      31.734  32.660  26.871  1.00  0.00     0.275 C 
BRANCH  23  24
ATOM     24  O   UNL A   1      32.904  32.140  27.523  1.00  0.00    -0.458 OA
BRANCH  24  25
ATOM     25  C   UNL A   1      33.830  33.080  27.856  1.00  0.00     0.338 C 
ATOM     26  O   UNL A   1      33.651  34.271  28.000  1.00  0.00    -0.246 OA
BRANCH  25  27
ATOM     27  C   UNL A   1      35.086  32.391  28.219  1.00  0.00     0.060 A 
ATOM     28  C   UNL A   1      35.036  31.007  28.435  1.00  0.00     0.016 A 
ATOM     29  C   UNL A   1      36.292  33.087  28.343  1.00  0.00     0.016 A 
ATOM     30  C   UNL A   1      36.184  30.323  28.829  1.00  0.00     0.010 A 
ATOM     31  C   UNL A   1      37.439  32.403  28.749  1.00  0.00     0.010 A 
ATOM     32  C   UNL A   1      37.375  31.030  29.035  1.00  0.00    -0.014 A 
BRANCH  32  33
ATOM     33  C   UNL A   1      38.478  30.387  29.782  1.00  0.00     0.031 A 
ATOM     34  C   UNL A   1      38.690  30.806  31.211  1.00  0.00     0.074 A 
ATOM     35  C   UNL A   1      39.255  29.448  29.218  1.00  0.00     0.049 A 
ATOM     36  N   UNL A   1      39.588  30.408  32.073  1.00  0.00    -0.248 NA
ATOM     37  C   UNL A   1      37.757  31.819  31.737  1.00  0.00     0.031 C 
ATOM     38  C   UNL A   1      39.126  28.952  27.851  1.00  0.00     0.029 A 
ATOM     39  N   UNL A   1      40.320  28.753  29.733  1.00  0.00    -0.354 N 
ATOM     40  C   UNL A   1      39.319  31.106  33.243  1.00  0.00     0.074 A 
ATOM     41  C   UNL A   1      38.209  31.991  32.969  1.00  0.00     0.031 C 
ATOM     42  C   UNL A   1      40.090  28.042  27.627  1.00  0.00     0.029 A 
ATOM     43  C   UNL A   1      40.910  27.906  28.830  1.00  0.00     0.049 A 
ATOM     44  H   UNL A   1      40.630  28.852  30.662  1.00  0.00     0.167 HD
ATOM     45  C   UNL A   1      39.930  31.004  34.445  1.00  0.00     0.037 A 
ATOM     46  C   UNL A   1      41.999  27.123  28.965  1.00  0.00     0.037 A 
ATOM     47  C   UNL A   1      41.050  30.143  34.706  1.00  0.00     0.049 A 
ATOM     48  C   UNL A   1      42.707  27.080  30.297  1.00  0.00     0.074 A 
ATOM     49  C   UNL A   1      41.761  29.976  35.881  1.00  0.00     0.029 A 
ATOM     50  N   UNL A   1      41.628  29.304  33.763  1.00  0.00    -0.354 N 
ATOM     51  N   UNL A   1      42.428  27.718  31.408  1.00  0.00    -0.248 NA
ATOM     52  C   UNL A   1      43.877  26.195  30.396  1.00  0.00     0.031 C 
ATOM     53  C   UNL A   1      42.794  29.066  35.638  1.00  0.00     0.029 A 
ATOM     54  C   UNL A   1      42.696  28.626  34.327  1.00  0.00     0.049 A 
ATOM     55  H   UNL A   1      41.324  29.205  32.833  1.00  0.00     0.167 HD
ATOM     56  C   UNL A   1      43.364  27.291  32.343  1.00  0.00     0.074 A 
ATOM     57  C   UNL A   1      44.208  26.325  31.672  1.00  0.00     0.031 C 
ATOM     58  C   UNL A   1      43.513  27.662  33.638  1.00  0.00     0.037 A 
BRANCH  45  59
ATOM     59  C   UNL A   1      39.398  31.856  35.560  1.00  0.00     0.064 A 
ATOM     60  C   UNL A   1      39.822  33.183  35.730  1.00  0.00     0.173 A 
ATOM     61  C   UNL A   1      38.451  31.347  36.460  1.00  0.00     0.173 A 
ATOM     62  F   UNL A   1      40.743  33.709  34.908  1.00  0.00    -0.203 F 
ATOM     63  C   UNL A   1      39.334  33.962  36.776  1.00  0.00     0.198 A 
ATOM     64  C   UNL A   1      37.946  32.139  37.488  1.00  0.00     0.198 A 
ATOM     65  F   UNL A   1      38.018  30.084  36.344  1.00  0.00    -0.203 F 
ATOM     66  F   UNL A   1      39.790  35.211  36.947  1.00  0.00    -0.200 F 
ATOM     67  C   UNL A   1      38.392  33.442  37.649  1.00  0.00     0.200 A 
ATOM     68  F   UNL A   1      37.029  31.638  38.328  1.00  0.00    -0.200 F 
ATOM     69  F   UNL A   1      37.920  34.194  38.653  1.00  0.00    -0.200 F 
ENDBRANCH  45  59
BRANCH  46  70
ATOM     70  C   UNL A   1      42.493  26.321  27.816  1.00  0.00     0.064 A 
ATOM     71  C   UNL A   1      43.476  26.820  26.951  1.00  0.00     0.173 A 
ATOM     72  C   UNL A   1      41.965  25.052  27.536  1.00  0.00     0.173 A 
ATOM     73  F   UNL A   1      43.997  28.039  27.161  1.00  0.00    -0.203 F 
ATOM     74  C   UNL A   1      43.890  26.096  25.835  1.00  0.00     0.198 A 
ATOM     75  C   UNL A   1      42.400  24.316  26.436  1.00  0.00     0.198 A 
ATOM     76  F   UNL A   1      41.021  24.528  28.332  1.00  0.00    -0.203 F 
ATOM     77  F   UNL A   1      44.790  26.623  24.991  1.00  0.00    -0.200 F 
ATOM     78  C   UNL A   1      43.355  24.842  25.580  1.00  0.00     0.200 A 
ATOM     79  F   UNL A   1      41.887  23.101  26.201  1.00  0.00    -0.200 F 
ATOM     80  F   UNL A   1      43.749  24.148  24.505  1.00  0.00    -0.200 F 
ENDBRANCH  46  70
BRANCH  58  81
ATOM     81  C   UNL A   1      44.605  26.991  34.422  1.00  0.00     0.064 A 
ATOM     82  C   UNL A   1      45.887  27.550  34.528  1.00  0.00     0.173 A 
ATOM     83  C   UNL A   1      44.351  25.792  35.106  1.00  0.00     0.173 A 
ATOM     84  F   UNL A   1      46.182  28.689  33.883  1.00  0.00    -0.203 F 
ATOM     85  C   UNL A   1      46.885  26.915  35.262  1.00  0.00     0.198 A 
ATOM     86  C   UNL A   1      45.342  25.177  35.865  1.00  0.00     0.198 A 
ATOM     87  F   UNL A   1      43.139  25.222  35.046  1.00  0.00    -0.203 F 
ATOM     88  F   UNL A   1      48.118  27.440  35.305  1.00  0.00    -0.200 F 
ATOM     89  C   UNL A   1      46.611  25.734  35.935  1.00  0.00     0.200 A 
ATOM     90  F   UNL A   1      45.071  24.043  36.527  1.00  0.00    -0.200 F 
ATOM     91  F   UNL A   1      47.571  25.127  36.645  1.00  0.00    -0.200 F 
ENDBRANCH  58  81
ENDBRANCH  32  33
ENDBRANCH  25  27
ENDBRANCH  24  25
ENDBRANCH  23  24
ENDBRANCH   1  23
TORSDOF 15
ENDMDL
