MODEL 1
REMARK VINA RESULT:     -13.4      0.000      0.000
REMARK SMILES COc1ccc(CC(=O)Nc2ccc(N3CC[NH+](C)CC3)cc2C(=O)OCCOC(=O)c2ccc(-c3c4nc(c(-c5c(F)c(F)c(F)c(F)c5F)c5ccc([nH]5)c(-c5c(F)c(F)c(F)c(F)c5F)c5nc(c(-c6c(F)c(F)c(F)c(F)c6F)c6ccc3[nH]6)C=C5)C=C4)cc2)cc1
REMARK SMILES IDX 27 1 26 2 24 3 25 4 23 5 11 6 12 7 13 8 22 9 14 10 10 11
REMARK SMILES IDX 8 12 9 13 7 15 6 16 3 17 4 18 96 19 5 20 95 21 2 22 1 23
REMARK SMILES IDX 15 24 16 25 21 26 17 27 20 28 18 29 19 30 28 32 29 33 30 34
REMARK SMILES IDX 31 35 32 36 33 37 94 38 34 39 93 40 35 41 36 42 37 43 87 44
REMARK SMILES IDX 38 45 92 46 86 47 88 48 39 49 91 50 85 51 84 52 40 54 72 55
REMARK SMILES IDX 52 56 71 57 53 58 56 59 70 60 89 61 54 62 55 63 69 65 90 66
REMARK SMILES IDX 57 67 41 68 42 69 50 70 43 71 44 72 48 73 51 74 45 75 46 76
REMARK SMILES IDX 49 77 47 78 73 79 74 80 82 81 75 82 76 83 80 84 83 85 77 86
REMARK SMILES IDX 78 87 81 88 79 89 58 90 59 91 67 92 60 93 61 94 65 95 68 96
REMARK SMILES IDX 62 97 63 98 66 99 64 100
REMARK H PARENT 10 14 18 31 88 53 56 64
REMARK Flexibility Score: inf
ROOT
ATOM      1  C   UNL A   1      31.265  27.430  26.463  1.00  0.00     0.275 C 
ENDROOT
BRANCH   1   2
ATOM      2  O   UNL A   1      32.186  26.340  26.218  1.00  0.00    -0.458 OA
BRANCH   2   3
ATOM      3  C   UNL A   1      31.599  25.307  25.589  1.00  0.00     0.340 C 
ATOM      4  O   UNL A   1      30.438  24.949  25.761  1.00  0.00    -0.246 OA
BRANCH   3   5
ATOM      5  C   UNL A   1      32.445  24.496  24.722  1.00  0.00     0.085 A 
ATOM      6  C   UNL A   1      33.409  25.103  23.918  1.00  0.00     0.055 A 
ATOM      7  C   UNL A   1      34.216  24.290  23.133  1.00  0.00     0.029 A 
ATOM      8  C   UNL A   1      34.222  22.899  23.345  1.00  0.00     0.028 A 
ATOM      9  C   UNL A   1      32.452  23.098  24.908  1.00  0.00     0.043 A 
ATOM     10  C   UNL A   1      33.416  22.276  24.314  1.00  0.00     0.038 A 
BRANCH   6  11
ATOM     11  N   UNL A   1      33.604  26.496  23.876  1.00  0.00    -0.325 N 
ATOM     12  C   UNL A   1      33.268  27.332  22.825  1.00  0.00     0.228 C 
ATOM     13  O   UNL A   1      33.972  28.322  22.612  1.00  0.00    -0.274 OA
ATOM     14  H   UNL A   1      34.016  26.914  24.665  1.00  0.00     0.169 HD
BRANCH  12  15
ATOM     15  C   UNL A   1      31.949  27.100  22.077  1.00  0.00     0.135 C 
BRANCH  15  16
ATOM     16  C   UNL A   1      30.751  27.937  22.471  1.00  0.00    -0.038 A 
ATOM     17  C   UNL A   1      28.385  29.393  23.035  1.00  0.00     0.118 A 
ATOM     18  C   UNL A   1      29.492  30.019  22.457  1.00  0.00     0.047 A 
ATOM     19  C   UNL A   1      28.491  28.056  23.411  1.00  0.00     0.047 A 
ATOM     20  C   UNL A   1      30.672  29.308  22.191  1.00  0.00     0.008 A 
ATOM     21  C   UNL A   1      29.663  27.334  23.127  1.00  0.00     0.008 A 
BRANCH  17  22
ATOM     22  O   UNL A   1      27.279  30.189  23.164  1.00  0.00    -0.497 OA
ATOM     23  C   UNL A   1      27.474  31.556  23.497  1.00  0.00     0.278 C 
ENDBRANCH  17  22
ENDBRANCH  15  16
ENDBRANCH  12  15
ENDBRANCH   6  11
BRANCH  10  24
ATOM     24  N   UNL A   1      33.633  20.975  24.733  1.00  0.00    -0.360 N 
ATOM     25  C   UNL A   1      34.953  20.426  25.111  1.00  0.00     0.178 C 
ATOM     26  C   UNL A   1      32.502  20.079  25.053  1.00  0.00     0.178 C 
ATOM     27  C   UNL A   1      35.126  18.958  24.626  1.00  0.00     0.283 C 
ATOM     28  C   UNL A   1      32.753  18.643  24.535  1.00  0.00     0.283 C 
ATOM     29  N   UNL A   1      34.018  18.066  25.026  1.00  0.00    -0.334 N 
ATOM     30  C   UNL A   1      34.217  16.722  24.481  1.00  0.00     0.332 C 
ATOM     31  H   UNL A   1      33.991  17.988  26.043  1.00  0.00     0.347 HD
ENDBRANCH  10  24
ENDBRANCH   3   5
ENDBRANCH   2   3
ENDBRANCH   1   2
BRANCH   1  32
ATOM     32  C   UNL A   1      31.804  28.849  26.198  1.00  0.00     0.275 C 
BRANCH  32  33
ATOM     33  O   UNL A   1      32.255  29.536  27.385  1.00  0.00    -0.458 OA
BRANCH  33  34
ATOM     34  C   UNL A   1      32.864  30.727  27.187  1.00  0.00     0.338 C 
ATOM     35  O   UNL A   1      32.329  31.779  26.876  1.00  0.00    -0.246 OA
BRANCH  34  36
ATOM     36  C   UNL A   1      34.322  30.675  27.449  1.00  0.00     0.060 A 
ATOM     37  C   UNL A   1      34.973  29.448  27.416  1.00  0.00     0.016 A 
ATOM     38  C   UNL A   1      34.979  31.761  28.020  1.00  0.00     0.016 A 
ATOM     39  C   UNL A   1      36.192  29.251  28.049  1.00  0.00     0.010 A 
ATOM     40  C   UNL A   1      36.253  31.587  28.593  1.00  0.00     0.010 A 
ATOM     41  C   UNL A   1      36.841  30.310  28.679  1.00  0.00    -0.014 A 
BRANCH  41  42
ATOM     42  C   UNL A   1      38.009  30.023  29.562  1.00  0.00     0.031 A 
ATOM     43  C   UNL A   1      39.149  29.196  29.021  1.00  0.00     0.074 A 
ATOM     44  C   UNL A   1      38.131  30.571  30.789  1.00  0.00     0.049 A 
ATOM     45  N   UNL A   1      40.175  28.681  29.650  1.00  0.00    -0.248 NA
ATOM     46  C   UNL A   1      39.129  28.909  27.577  1.00  0.00     0.031 C 
ATOM     47  C   UNL A   1      37.182  31.493  31.412  1.00  0.00     0.029 A 
ATOM     48  N   UNL A   1      39.125  30.444  31.732  1.00  0.00    -0.354 N 
ATOM     49  C   UNL A   1      40.866  27.940  28.700  1.00  0.00     0.074 A 
ATOM     50  C   UNL A   1      40.160  28.087  27.447  1.00  0.00     0.031 C 
ATOM     51  C   UNL A   1      37.642  31.862  32.617  1.00  0.00     0.029 A 
ATOM     52  C   UNL A   1      38.880  31.141  32.891  1.00  0.00     0.049 A 
ATOM     53  H   UNL A   1      39.936  29.904  31.590  1.00  0.00     0.167 HD
ATOM     54  C   UNL A   1      41.986  27.196  28.861  1.00  0.00     0.037 A 
ATOM     55  C   UNL A   1      39.549  31.166  34.061  1.00  0.00     0.037 A 
ATOM     56  C   UNL A   1      42.748  27.128  30.079  1.00  0.00     0.049 A 
ATOM     57  C   UNL A   1      40.785  30.321  34.219  1.00  0.00     0.074 A 
ATOM     58  C   UNL A   1      43.906  26.413  30.332  1.00  0.00     0.029 A 
ATOM     59  N   UNL A   1      42.444  27.824  31.237  1.00  0.00    -0.354 N 
ATOM     60  N   UNL A   1      41.382  29.556  33.340  1.00  0.00    -0.248 NA
ATOM     61  C   UNL A   1      41.428  30.332  35.542  1.00  0.00     0.031 C 
ATOM     62  C   UNL A   1      44.286  26.653  31.657  1.00  0.00     0.029 A 
ATOM     63  C   UNL A   1      43.387  27.547  32.214  1.00  0.00     0.049 A 
ATOM     64  H   UNL A   1      41.674  28.426  31.350  1.00  0.00     0.167 HD
ATOM     65  C   UNL A   1      42.472  29.002  33.997  1.00  0.00     0.074 A 
ATOM     66  C   UNL A   1      42.475  29.547  35.339  1.00  0.00     0.031 C 
ATOM     67  C   UNL A   1      43.381  28.107  33.538  1.00  0.00     0.037 A 
BRANCH  54  68
ATOM     68  C   UNL A   1      42.431  26.348  27.707  1.00  0.00     0.064 A 
ATOM     69  C   UNL A   1      43.423  26.765  26.810  1.00  0.00     0.173 A 
ATOM     70  C   UNL A   1      41.875  25.072  27.530  1.00  0.00     0.173 A 
ATOM     71  F   UNL A   1      43.970  27.984  26.926  1.00  0.00    -0.203 F 
ATOM     72  C   UNL A   1      43.834  25.938  25.766  1.00  0.00     0.198 A 
ATOM     73  C   UNL A   1      42.306  24.239  26.502  1.00  0.00     0.198 A 
ATOM     74  F   UNL A   1      40.923  24.628  28.364  1.00  0.00    -0.203 F 
ATOM     75  F   UNL A   1      44.758  26.369  24.897  1.00  0.00    -0.200 F 
ATOM     76  C   UNL A   1      43.281  24.674  25.618  1.00  0.00     0.200 A 
ATOM     77  F   UNL A   1      41.778  23.014  26.369  1.00  0.00    -0.200 F 
ATOM     78  F   UNL A   1      43.687  23.876  24.621  1.00  0.00    -0.200 F 
ENDBRANCH  54  68
BRANCH  55  79
ATOM     79  C   UNL A   1      39.038  31.972  35.203  1.00  0.00     0.064 A 
ATOM     80  C   UNL A   1      39.336  33.337  35.317  1.00  0.00     0.173 A 
ATOM     81  C   UNL A   1      38.282  31.384  36.228  1.00  0.00     0.173 A 
ATOM     82  F   UNL A   1      40.074  33.942  34.374  1.00  0.00    -0.203 F 
ATOM     83  C   UNL A   1      38.922  34.074  36.425  1.00  0.00     0.198 A 
ATOM     84  C   UNL A   1      37.839  32.129  37.318  1.00  0.00     0.198 A 
ATOM     85  F   UNL A   1      37.971  30.081  36.169  1.00  0.00    -0.203 F 
ATOM     86  F   UNL A   1      39.273  35.363  36.538  1.00  0.00    -0.200 F 
ATOM     87  C   UNL A   1      38.170  33.471  37.422  1.00  0.00     0.200 A 
ATOM     88  F   UNL A   1      37.100  31.545  38.270  1.00  0.00    -0.200 F 
ATOM     89  F   UNL A   1      37.775  34.180  38.488  1.00  0.00    -0.200 F 
ENDBRANCH  55  79
BRANCH  67  90
ATOM     90  C   UNL A   1      44.464  27.682  34.486  1.00  0.00     0.064 A 
ATOM     91  C   UNL A   1      45.666  28.396  34.591  1.00  0.00     0.173 A 
ATOM     92  C   UNL A   1      44.284  26.568  35.319  1.00  0.00     0.173 A 
ATOM     93  F   UNL A   1      45.890  29.459  33.803  1.00  0.00    -0.203 F 
ATOM     94  C   UNL A   1      46.662  27.994  35.476  1.00  0.00     0.198 A 
ATOM     95  C   UNL A   1      45.270  26.185  36.223  1.00  0.00     0.198 A 
ATOM     96  F   UNL A   1      43.149  25.855  35.261  1.00  0.00    -0.203 F 
ATOM     97  F   UNL A   1      47.822  28.661  35.524  1.00  0.00    -0.200 F 
ATOM     98  C   UNL A   1      46.460  26.893  36.295  1.00  0.00     0.200 A 
ATOM     99  F   UNL A   1      45.071  25.128  37.023  1.00  0.00    -0.200 F 
ATOM    100  F   UNL A   1      47.420  26.508  37.149  1.00  0.00    -0.200 F 
ENDBRANCH  67  90
ENDBRANCH  41  42
ENDBRANCH  34  36
ENDBRANCH  33  34
ENDBRANCH  32  33
ENDBRANCH   1  32
TORSDOF 16
ENDMDL
MODEL 2
REMARK VINA RESULT:     -13.4      1.442      2.144
REMARK SMILES COc1ccc(CC(=O)Nc2ccc(N3CC[NH+](C)CC3)cc2C(=O)OCCOC(=O)c2ccc(-c3c4nc(c(-c5c(F)c(F)c(F)c(F)c5F)c5ccc([nH]5)c(-c5c(F)c(F)c(F)c(F)c5F)c5nc(c(-c6c(F)c(F)c(F)c(F)c6F)c6ccc3[nH]6)C=C5)C=C4)cc2)cc1
REMARK SMILES IDX 27 1 26 2 24 3 25 4 23 5 11 6 12 7 13 8 22 9 14 10 10 11
REMARK SMILES IDX 8 12 9 13 7 15 6 16 3 17 4 18 96 19 5 20 95 21 2 22 1 23
REMARK SMILES IDX 15 24 16 25 21 26 17 27 20 28 18 29 19 30 28 32 29 33 30 34
REMARK SMILES IDX 31 35 32 36 33 37 94 38 34 39 93 40 35 41 36 42 37 43 87 44
REMARK SMILES IDX 38 45 92 46 86 47 88 48 39 49 91 50 85 51 84 52 40 54 72 55
REMARK SMILES IDX 52 56 71 57 53 58 56 59 70 60 89 61 54 62 55 63 69 65 90 66
REMARK SMILES IDX 57 67 41 68 42 69 50 70 43 71 44 72 48 73 51 74 45 75 46 76
REMARK SMILES IDX 49 77 47 78 73 79 74 80 82 81 75 82 76 83 80 84 83 85 77 86
REMARK SMILES IDX 78 87 81 88 79 89 58 90 59 91 67 92 60 93 61 94 65 95 68 96
REMARK SMILES IDX 62 97 63 98 66 99 64 100
REMARK H PARENT 10 14 18 31 88 53 56 64
REMARK Flexibility Score: inf
ROOT
ATOM      1  C   UNL A   1      32.064  27.903  25.881  1.00  0.00     0.275 C 
ENDROOT
BRANCH   1   2
ATOM      2  O   UNL A   1      33.422  27.400  25.891  1.00  0.00    -0.458 OA
BRANCH   2   3
ATOM      3  C   UNL A   1      33.868  27.111  24.657  1.00  0.00     0.340 C 
ATOM      4  O   UNL A   1      34.001  27.926  23.749  1.00  0.00    -0.246 OA
BRANCH   3   5
ATOM      5  C   UNL A   1      34.109  25.705  24.356  1.00  0.00     0.085 A 
ATOM      6  C   UNL A   1      33.756  25.184  23.112  1.00  0.00     0.055 A 
ATOM      7  C   UNL A   1      34.035  23.848  22.856  1.00  0.00     0.029 A 
ATOM      8  C   UNL A   1      34.872  23.130  23.730  1.00  0.00     0.028 A 
ATOM      9  C   UNL A   1      34.933  24.963  25.230  1.00  0.00     0.043 A 
ATOM     10  C   UNL A   1      35.430  23.702  24.886  1.00  0.00     0.038 A 
BRANCH   6  11
ATOM     11  N   UNL A   1      33.141  25.954  22.108  1.00  0.00    -0.325 N 
ATOM     12  C   UNL A   1      31.784  26.002  21.837  1.00  0.00     0.228 C 
ATOM     13  O   UNL A   1      31.422  26.170  20.670  1.00  0.00    -0.274 OA
ATOM     14  H   UNL A   1      33.728  26.508  21.546  1.00  0.00     0.169 HD
BRANCH  12  15
ATOM     15  C   UNL A   1      30.789  26.018  23.005  1.00  0.00     0.135 C 
BRANCH  15  16
ATOM     16  C   UNL A   1      29.844  27.194  23.117  1.00  0.00    -0.038 A 
ATOM     17  C   UNL A   1      27.958  29.312  23.135  1.00  0.00     0.118 A 
ATOM     18  C   UNL A   1      29.293  29.542  22.790  1.00  0.00     0.047 A 
ATOM     19  C   UNL A   1      27.585  28.037  23.556  1.00  0.00     0.047 A 
ATOM     20  C   UNL A   1      30.234  28.501  22.795  1.00  0.00     0.008 A 
ATOM     21  C   UNL A   1      28.519  26.988  23.543  1.00  0.00     0.008 A 
BRANCH  17  22
ATOM     22  O   UNL A   1      27.138  30.400  23.010  1.00  0.00    -0.497 OA
ATOM     23  C   UNL A   1      27.647  31.669  23.397  1.00  0.00     0.278 C 
ENDBRANCH  17  22
ENDBRANCH  15  16
ENDBRANCH  12  15
ENDBRANCH   6  11
BRANCH  10  24
ATOM     24  N   UNL A   1      36.478  23.112  25.573  1.00  0.00    -0.360 N 
ATOM     25  C   UNL A   1      37.464  23.850  26.391  1.00  0.00     0.178 C 
ATOM     26  C   UNL A   1      36.560  21.644  25.722  1.00  0.00     0.178 C 
ATOM     27  C   UNL A   1      38.894  23.257  26.242  1.00  0.00     0.283 C 
ATOM     28  C   UNL A   1      38.012  21.138  25.557  1.00  0.00     0.283 C 
ATOM     29  N   UNL A   1      38.960  21.799  26.473  1.00  0.00    -0.334 N 
ATOM     30  C   UNL A   1      40.320  21.304  26.251  1.00  0.00     0.332 C 
ATOM     31  H   UNL A   1      38.708  21.593  27.440  1.00  0.00     0.347 HD
ENDBRANCH  10  24
ENDBRANCH   3   5
ENDBRANCH   2   3
ENDBRANCH   1   2
BRANCH   1  32
ATOM     32  C   UNL A   1      31.898  29.420  26.098  1.00  0.00     0.275 C 
BRANCH  32  33
ATOM     33  O   UNL A   1      32.433  29.895  27.353  1.00  0.00    -0.458 OA
BRANCH  33  34
ATOM     34  C   UNL A   1      33.095  31.072  27.308  1.00  0.00     0.338 C 
ATOM     35  O   UNL A   1      32.607  32.179  27.143  1.00  0.00    -0.246 OA
BRANCH  34  36
ATOM     36  C   UNL A   1      34.550  30.921  27.547  1.00  0.00     0.060 A 
ATOM     37  C   UNL A   1      35.088  29.646  27.661  1.00  0.00     0.016 A 
ATOM     38  C   UNL A   1      35.318  32.007  27.958  1.00  0.00     0.016 A 
ATOM     39  C   UNL A   1      36.304  29.421  28.292  1.00  0.00     0.010 A 
ATOM     40  C   UNL A   1      36.588  31.791  28.524  1.00  0.00     0.010 A 
ATOM     41  C   UNL A   1      37.063  30.487  28.766  1.00  0.00    -0.014 A 
BRANCH  41  42
ATOM     42  C   UNL A   1      38.227  30.210  29.657  1.00  0.00     0.031 A 
ATOM     43  C   UNL A   1      39.392  29.421  29.113  1.00  0.00     0.074 A 
ATOM     44  C   UNL A   1      38.323  30.736  30.896  1.00  0.00     0.049 A 
ATOM     45  N   UNL A   1      40.424  28.918  29.743  1.00  0.00    -0.248 NA
ATOM     46  C   UNL A   1      39.396  29.163  27.663  1.00  0.00     0.031 C 
ATOM     47  C   UNL A   1      37.345  31.623  31.525  1.00  0.00     0.029 A 
ATOM     48  N   UNL A   1      39.309  30.614  31.847  1.00  0.00    -0.354 N 
ATOM     49  C   UNL A   1      41.143  28.212  28.787  1.00  0.00     0.074 A 
ATOM     50  C   UNL A   1      40.447  28.368  27.529  1.00  0.00     0.031 C 
ATOM     51  C   UNL A   1      37.783  31.978  32.743  1.00  0.00     0.029 A 
ATOM     52  C   UNL A   1      39.034  31.281  33.018  1.00  0.00     0.049 A 
ATOM     53  H   UNL A   1      40.134  30.096  31.704  1.00  0.00     0.167 HD
ATOM     54  C   UNL A   1      42.278  27.492  28.947  1.00  0.00     0.037 A 
ATOM     55  C   UNL A   1      39.689  31.298  34.195  1.00  0.00     0.037 A 
ATOM     56  C   UNL A   1      43.028  27.417  30.171  1.00  0.00     0.049 A 
ATOM     57  C   UNL A   1      40.943  30.479  34.351  1.00  0.00     0.074 A 
ATOM     58  C   UNL A   1      44.199  26.725  30.424  1.00  0.00     0.029 A 
ATOM     59  N   UNL A   1      42.694  28.083  31.339  1.00  0.00    -0.354 N 
ATOM     60  N   UNL A   1      41.568  29.747  33.464  1.00  0.00    -0.248 NA
ATOM     61  C   UNL A   1      41.571  30.479  35.681  1.00  0.00     0.031 C 
ATOM     62  C   UNL A   1      44.558  26.947  31.758  1.00  0.00     0.029 A 
ATOM     63  C   UNL A   1      43.633  27.808  32.321  1.00  0.00     0.049 A 
ATOM     64  H   UNL A   1      41.909  28.664  31.455  1.00  0.00     0.167 HD
ATOM     65  C   UNL A   1      42.664  29.205  34.123  1.00  0.00     0.074 A 
ATOM     66  C   UNL A   1      42.639  29.723  35.475  1.00  0.00     0.031 C 
ATOM     67  C   UNL A   1      43.598  28.341  33.657  1.00  0.00     0.037 A 
BRANCH  54  68
ATOM     68  C   UNL A   1      42.756  26.678  27.781  1.00  0.00     0.064 A 
ATOM     69  C   UNL A   1      42.323  25.365  27.555  1.00  0.00     0.173 A 
ATOM     70  C   UNL A   1      43.634  27.252  26.849  1.00  0.00     0.173 A 
ATOM     71  F   UNL A   1      41.499  24.766  28.428  1.00  0.00    -0.203 F 
ATOM     72  C   UNL A   1      42.765  24.649  26.445  1.00  0.00     0.198 A 
ATOM     73  C   UNL A   1      44.053  26.544  25.727  1.00  0.00     0.198 A 
ATOM     74  F   UNL A   1      44.075  28.508  27.020  1.00  0.00    -0.203 F 
ATOM     75  F   UNL A   1      42.369  23.382  26.266  1.00  0.00    -0.200 F 
ATOM     76  C   UNL A   1      43.622  25.242  25.528  1.00  0.00     0.200 A 
ATOM     77  F   UNL A   1      44.872  27.123  24.838  1.00  0.00    -0.200 F 
ATOM     78  F   UNL A   1      44.035  24.555  24.454  1.00  0.00    -0.200 F 
ENDBRANCH  54  68
BRANCH  55  79
ATOM     79  C   UNL A   1      39.147  32.069  35.347  1.00  0.00     0.064 A 
ATOM     80  C   UNL A   1      39.415  33.436  35.494  1.00  0.00     0.173 A 
ATOM     81  C   UNL A   1      38.389  31.443  36.348  1.00  0.00     0.173 A 
ATOM     82  F   UNL A   1      40.153  34.076  34.575  1.00  0.00    -0.203 F 
ATOM     83  C   UNL A   1      38.971  34.141  36.612  1.00  0.00     0.198 A 
ATOM     84  C   UNL A   1      37.916  32.156  37.447  1.00  0.00     0.198 A 
ATOM     85  F   UNL A   1      38.105  30.136  36.257  1.00  0.00    -0.203 F 
ATOM     86  F   UNL A   1      39.294  35.434  36.757  1.00  0.00    -0.200 F 
ATOM     87  C   UNL A   1      38.218  33.501  37.585  1.00  0.00     0.200 A 
ATOM     88  F   UNL A   1      37.176  31.536  38.377  1.00  0.00    -0.200 F 
ATOM     89  F   UNL A   1      37.794  34.179  38.660  1.00  0.00    -0.200 F 
ENDBRANCH  55  79
BRANCH  67  90
ATOM     90  C   UNL A   1      44.680  27.922  34.609  1.00  0.00     0.064 A 
ATOM     91  C   UNL A   1      45.875  28.647  34.722  1.00  0.00     0.173 A 
ATOM     92  C   UNL A   1      44.506  26.804  35.437  1.00  0.00     0.173 A 
ATOM     93  F   UNL A   1      46.094  29.714  33.938  1.00  0.00    -0.203 F 
ATOM     94  C   UNL A   1      46.870  28.250  35.610  1.00  0.00     0.198 A 
ATOM     95  C   UNL A   1      45.491  26.427  36.345  1.00  0.00     0.198 A 
ATOM     96  F   UNL A   1      43.378  26.082  35.372  1.00  0.00    -0.203 F 
ATOM     97  F   UNL A   1      48.024  28.928  35.666  1.00  0.00    -0.200 F 
ATOM     98  C   UNL A   1      46.675  27.145  36.425  1.00  0.00     0.200 A 
ATOM     99  F   UNL A   1      45.297  25.366  37.140  1.00  0.00    -0.200 F 
ATOM    100  F   UNL A   1      47.633  26.767  37.282  1.00  0.00    -0.200 F 
ENDBRANCH  67  90
ENDBRANCH  41  42
ENDBRANCH  34  36
ENDBRANCH  33  34
ENDBRANCH  32  33
ENDBRANCH   1  32
TORSDOF 16
ENDMDL
MODEL 3
REMARK VINA RESULT:     -13.3      4.292     10.080
REMARK SMILES COc1ccc(CC(=O)Nc2ccc(N3CC[NH+](C)CC3)cc2C(=O)OCCOC(=O)c2ccc(-c3c4nc(c(-c5c(F)c(F)c(F)c(F)c5F)c5ccc([nH]5)c(-c5c(F)c(F)c(F)c(F)c5F)c5nc(c(-c6c(F)c(F)c(F)c(F)c6F)c6ccc3[nH]6)C=C5)C=C4)cc2)cc1
REMARK SMILES IDX 27 1 26 2 24 3 25 4 23 5 11 6 12 7 13 8 22 9 14 10 10 11
REMARK SMILES IDX 8 12 9 13 7 15 6 16 3 17 4 18 96 19 5 20 95 21 2 22 1 23
REMARK SMILES IDX 15 24 16 25 21 26 17 27 20 28 18 29 19 30 28 32 29 33 30 34
REMARK SMILES IDX 31 35 32 36 33 37 94 38 34 39 93 40 35 41 36 42 37 43 87 44
REMARK SMILES IDX 38 45 92 46 86 47 88 48 39 49 91 50 85 51 84 52 40 54 72 55
REMARK SMILES IDX 52 56 71 57 53 58 56 59 70 60 89 61 54 62 55 63 69 65 90 66
REMARK SMILES IDX 57 67 41 68 42 69 50 70 43 71 44 72 48 73 51 74 45 75 46 76
REMARK SMILES IDX 49 77 47 78 73 79 74 80 82 81 75 82 76 83 80 84 83 85 77 86
REMARK SMILES IDX 78 87 81 88 79 89 58 90 59 91 67 92 60 93 61 94 65 95 68 96
REMARK SMILES IDX 62 97 63 98 66 99 64 100
REMARK H PARENT 10 14 18 31 88 53 56 64
REMARK Flexibility Score: inf
ROOT
ATOM      1  C   UNL A   1      36.612  22.853  23.145  1.00  0.00     0.275 C 
ENDROOT
BRANCH   1   2
ATOM      2  O   UNL A   1      35.767  23.886  23.706  1.00  0.00    -0.458 OA
BRANCH   2   3
ATOM      3  C   UNL A   1      34.498  23.799  23.271  1.00  0.00     0.340 C 
ATOM      4  O   UNL A   1      34.153  23.292  22.208  1.00  0.00    -0.246 OA
BRANCH   3   5
ATOM      5  C   UNL A   1      33.478  24.453  24.081  1.00  0.00     0.085 A 
ATOM      6  C   UNL A   1      33.366  24.159  25.439  1.00  0.00     0.055 A 
ATOM      7  C   UNL A   1      32.402  24.830  26.179  1.00  0.00     0.029 A 
ATOM      8  C   UNL A   1      31.747  25.945  25.625  1.00  0.00     0.028 A 
ATOM      9  C   UNL A   1      32.798  25.564  23.536  1.00  0.00     0.043 A 
ATOM     10  C   UNL A   1      32.007  26.407  24.322  1.00  0.00     0.038 A 
BRANCH   6  11
ATOM     11  N   UNL A   1      34.189  23.221  26.089  1.00  0.00    -0.325 N 
ATOM     12  C   UNL A   1      33.925  21.870  26.234  1.00  0.00     0.228 C 
ATOM     13  O   UNL A   1      34.322  21.299  27.252  1.00  0.00    -0.274 OA
ATOM     14  H   UNL A   1      35.030  23.556  26.475  1.00  0.00     0.169 HD
BRANCH  12  15
ATOM     15  C   UNL A   1      33.306  21.099  25.062  1.00  0.00     0.135 C 
BRANCH  15  16
ATOM     16  C   UNL A   1      33.450  19.592  25.047  1.00  0.00    -0.038 A 
ATOM     17  C   UNL A   1      33.698  16.780  24.779  1.00  0.00     0.118 A 
ATOM     18  C   UNL A   1      32.557  17.349  25.349  1.00  0.00     0.047 A 
ATOM     19  C   UNL A   1      34.755  17.615  24.420  1.00  0.00     0.047 A 
ATOM     20  C   UNL A   1      32.435  18.739  25.500  1.00  0.00     0.008 A 
ATOM     21  C   UNL A   1      34.630  19.008  24.550  1.00  0.00     0.008 A 
BRANCH  17  22
ATOM     22  O   UNL A   1      33.646  15.422  24.623  1.00  0.00    -0.497 OA
ATOM     23  C   UNL A   1      32.812  14.680  25.502  1.00  0.00     0.278 C 
ENDBRANCH  17  22
ENDBRANCH  15  16
ENDBRANCH  12  15
ENDBRANCH   6  11
BRANCH  10  24
ATOM     24  N   UNL A   1      31.604  27.657  23.885  1.00  0.00    -0.360 N 
ATOM     25  C   UNL A   1      31.884  28.923  24.596  1.00  0.00     0.178 C 
ATOM     26  C   UNL A   1      31.041  27.846  22.532  1.00  0.00     0.178 C 
ATOM     27  C   UNL A   1      30.680  29.904  24.521  1.00  0.00     0.283 C 
ATOM     28  C   UNL A   1      29.848  28.831  22.546  1.00  0.00     0.283 C 
ATOM     29  N   UNL A   1      30.187  30.135  23.147  1.00  0.00    -0.334 N 
ATOM     30  C   UNL A   1      29.016  31.014  23.162  1.00  0.00     0.332 C 
ATOM     31  H   UNL A   1      30.912  30.593  22.594  1.00  0.00     0.347 HD
ENDBRANCH  10  24
ENDBRANCH   3   5
ENDBRANCH   2   3
ENDBRANCH   1   2
BRANCH   1  32
ATOM     32  C   UNL A   1      37.018  21.713  24.100  1.00  0.00     0.275 C 
BRANCH  32  33
ATOM     33  O   UNL A   1      37.313  22.151  25.444  1.00  0.00    -0.458 OA
BRANCH  33  34
ATOM     34  C   UNL A   1      38.568  21.913  25.885  1.00  0.00     0.338 C 
ATOM     35  O   UNL A   1      39.286  20.975  25.574  1.00  0.00    -0.246 OA
BRANCH  34  36
ATOM     36  C   UNL A   1      39.070  22.974  26.789  1.00  0.00     0.060 A 
ATOM     37  C   UNL A   1      38.511  24.244  26.718  1.00  0.00     0.016 A 
ATOM     38  C   UNL A   1      40.270  22.813  27.475  1.00  0.00     0.016 A 
ATOM     39  C   UNL A   1      39.180  25.363  27.193  1.00  0.00     0.010 A 
ATOM     40  C   UNL A   1      40.915  23.934  28.032  1.00  0.00     0.010 A 
ATOM     41  C   UNL A   1      40.411  25.234  27.830  1.00  0.00    -0.014 A 
BRANCH  41  42
ATOM     42  C   UNL A   1      41.221  26.458  28.099  1.00  0.00     0.031 A 
ATOM     43  C   UNL A   1      40.620  27.563  28.932  1.00  0.00     0.074 A 
ATOM     44  C   UNL A   1      42.511  26.561  27.719  1.00  0.00     0.049 A 
ATOM     45  N   UNL A   1      41.064  28.775  29.151  1.00  0.00    -0.248 NA
ATOM     46  C   UNL A   1      39.347  27.264  29.608  1.00  0.00     0.031 C 
ATOM     47  C   UNL A   1      43.281  25.534  27.018  1.00  0.00     0.029 A 
ATOM     48  N   UNL A   1      43.415  27.585  27.886  1.00  0.00    -0.354 N 
ATOM     49  C   UNL A   1      40.085  29.404  29.909  1.00  0.00     0.074 A 
ATOM     50  C   UNL A   1      39.033  28.438  30.134  1.00  0.00     0.031 C 
ATOM     51  C   UNL A   1      44.537  25.966  26.832  1.00  0.00     0.029 A 
ATOM     52  C   UNL A   1      44.645  27.334  27.326  1.00  0.00     0.049 A 
ATOM     53  H   UNL A   1      43.201  28.420  28.362  1.00  0.00     0.167 HD
ATOM     54  C   UNL A   1      40.062  30.677  30.369  1.00  0.00     0.037 A 
ATOM     55  C   UNL A   1      45.726  28.126  27.185  1.00  0.00     0.037 A 
ATOM     56  C   UNL A   1      41.148  31.609  30.235  1.00  0.00     0.049 A 
ATOM     57  C   UNL A   1      45.672  29.541  27.695  1.00  0.00     0.074 A 
ATOM     58  C   UNL A   1      41.223  32.917  30.684  1.00  0.00     0.029 A 
ATOM     59  N   UNL A   1      42.362  31.322  29.632  1.00  0.00    -0.354 N 
ATOM     60  N   UNL A   1      44.708  30.153  28.335  1.00  0.00    -0.248 NA
ATOM     61  C   UNL A   1      46.854  30.380  27.445  1.00  0.00     0.031 C 
ATOM     62  C   UNL A   1      42.473  33.431  30.323  1.00  0.00     0.029 A 
ATOM     63  C   UNL A   1      43.189  32.432  29.687  1.00  0.00     0.049 A 
ATOM     64  H   UNL A   1      42.601  30.458  29.226  1.00  0.00     0.167 HD
ATOM     65  C   UNL A   1      45.166  31.443  28.571  1.00  0.00     0.074 A 
ATOM     66  C   UNL A   1      46.511  31.514  28.037  1.00  0.00     0.031 C 
ATOM     67  C   UNL A   1      44.526  32.482  29.161  1.00  0.00     0.037 A 
BRANCH  54  68
ATOM     68  C   UNL A   1      38.799  31.161  31.018  1.00  0.00     0.064 A 
ATOM     69  C   UNL A   1      37.729  31.684  30.279  1.00  0.00     0.173 A 
ATOM     70  C   UNL A   1      38.649  31.052  32.409  1.00  0.00     0.173 A 
ATOM     71  F   UNL A   1      37.833  31.826  28.949  1.00  0.00    -0.203 F 
ATOM     72  C   UNL A   1      36.558  32.095  30.912  1.00  0.00     0.198 A 
ATOM     73  C   UNL A   1      37.469  31.440  33.036  1.00  0.00     0.198 A 
ATOM     74  F   UNL A   1      39.644  30.556  33.159  1.00  0.00    -0.203 F 
ATOM     75  F   UNL A   1      35.561  32.627  30.193  1.00  0.00    -0.200 F 
ATOM     76  C   UNL A   1      36.426  31.965  32.287  1.00  0.00     0.200 A 
ATOM     77  F   UNL A   1      37.340  31.302  34.362  1.00  0.00    -0.200 F 
ATOM     78  F   UNL A   1      35.295  32.350  32.893  1.00  0.00    -0.200 F 
ENDBRANCH  54  68
BRANCH  55  79
ATOM     79  C   UNL A   1      46.938  27.627  26.479  1.00  0.00     0.064 A 
ATOM     80  C   UNL A   1      47.066  27.746  25.089  1.00  0.00     0.173 A 
ATOM     81  C   UNL A   1      47.970  26.980  27.174  1.00  0.00     0.173 A 
ATOM     82  F   UNL A   1      46.096  28.338  24.376  1.00  0.00    -0.203 F 
ATOM     83  C   UNL A   1      48.165  27.212  24.419  1.00  0.00     0.198 A 
ATOM     84  C   UNL A   1      49.085  26.477  26.508  1.00  0.00     0.198 A 
ATOM     85  F   UNL A   1      47.897  26.838  28.506  1.00  0.00    -0.203 F 
ATOM     86  F   UNL A   1      48.233  27.286  23.082  1.00  0.00    -0.200 F 
ATOM     87  C   UNL A   1      49.176  26.581  25.129  1.00  0.00     0.200 A 
ATOM     88  F   UNL A   1      50.065  25.883  27.202  1.00  0.00    -0.200 F 
ATOM     89  F   UNL A   1      50.231  26.067  24.484  1.00  0.00    -0.200 F 
ENDBRANCH  55  79
BRANCH  67  90
ATOM     90  C   UNL A   1      45.281  33.773  29.279  1.00  0.00     0.064 A 
ATOM     91  C   UNL A   1      46.104  34.041  30.382  1.00  0.00     0.173 A 
ATOM     92  C   UNL A   1      45.204  34.739  28.264  1.00  0.00     0.173 A 
ATOM     93  F   UNL A   1      46.196  33.155  31.386  1.00  0.00    -0.203 F 
ATOM     94  C   UNL A   1      46.801  35.242  30.479  1.00  0.00     0.198 A 
ATOM     95  C   UNL A   1      45.924  35.926  28.351  1.00  0.00     0.198 A 
ATOM     96  F   UNL A   1      44.436  34.527  27.185  1.00  0.00    -0.203 F 
ATOM     97  F   UNL A   1      47.542  35.498  31.565  1.00  0.00    -0.200 F 
ATOM     98  C   UNL A   1      46.716  36.180  29.461  1.00  0.00     0.200 A 
ATOM     99  F   UNL A   1      45.851  36.827  27.361  1.00  0.00    -0.200 F 
ATOM    100  F   UNL A   1      47.390  37.334  29.555  1.00  0.00    -0.200 F 
ENDBRANCH  67  90
ENDBRANCH  41  42
ENDBRANCH  34  36
ENDBRANCH  33  34
ENDBRANCH  32  33
ENDBRANCH   1  32
TORSDOF 16
ENDMDL
