MODEL 1
REMARK VINA RESULT:     -12.4      0.000      0.000
REMARK SMILES C[C@H](Oc1ccccc1Cl)C(=O)N1CCCC[C@H]1C(=O)OCCOC(=O)c1ccc(-c2c3nc(c(-c4c(F)c(F)c(F)c(F)c4F)c4ccc([nH]4)c(-c4c(F)c(F)c(F)c(F)c4F)c4nc(c(-c5c(F)c(F)c(F)c(F)c5F)c5ccc2[nH]5)C=C4)C=C3)cc1
REMARK SMILES IDX 22 1 21 2 19 3 20 4 18 5 13 6 14 7 15 8 17 9 16 10 11 11
REMARK SMILES IDX 12 12 2 13 1 14 3 15 4 16 5 17 9 18 6 19 8 20 10 21 7 22
REMARK SMILES IDX 23 23 24 24 25 25 26 26 27 27 28 28 89 29 29 30 88 31 30 32
REMARK SMILES IDX 31 33 32 34 82 35 33 36 87 37 81 38 83 39 34 40 86 41 80 42
REMARK SMILES IDX 79 43 35 45 67 46 47 47 66 48 48 49 51 50 65 51 84 52 49 53
REMARK SMILES IDX 50 54 64 56 85 57 52 58 36 59 37 60 45 61 38 62 39 63 43 64
REMARK SMILES IDX 46 65 40 66 41 67 44 68 42 69 68 70 69 71 77 72 70 73 71 74
REMARK SMILES IDX 75 75 78 76 72 77 73 78 76 79 74 80 53 81 54 82 62 83 55 84
REMARK SMILES IDX 56 85 60 86 63 87 57 88 58 89 61 90 59 91
REMARK H PARENT 83 44 51 55
REMARK Flexibility Score: inf
ROOT
ATOM      1  C   UNL A   1      31.275  29.402  24.236  1.00  0.00     0.274 C 
ENDROOT
BRANCH   1   2
ATOM      2  O   UNL A   1      30.531  28.167  24.234  1.00  0.00    -0.461 OA
BRANCH   2   3
ATOM      3  C   UNL A   1      30.861  27.263  23.263  1.00  0.00     0.328 C 
ATOM      4  O   UNL A   1      30.703  27.443  22.063  1.00  0.00    -0.250 OA
BRANCH   3   5
ATOM      5  C   UNL A   1      31.399  25.967  23.901  1.00  0.00     0.195 C 
ATOM      6  N   UNL A   1      32.858  25.791  23.720  1.00  0.00    -0.326 N 
ATOM      7  C   UNL A   1      33.697  26.611  24.595  1.00  0.00     0.120 C 
ATOM      8  C   UNL A   1      33.386  26.334  26.059  1.00  0.00     0.022 C 
ATOM      9  C   UNL A   1      31.002  25.779  25.371  1.00  0.00     0.037 C 
ATOM     10  C   UNL A   1      31.903  26.518  26.355  1.00  0.00     0.005 C 
BRANCH   6  11
ATOM     11  C   UNL A   1      33.478  24.918  22.829  1.00  0.00     0.264 C 
ATOM     12  O   UNL A   1      33.829  25.297  21.705  1.00  0.00    -0.271 OA
BRANCH  11  13
ATOM     13  C   UNL A   1      33.658  23.421  23.186  1.00  0.00     0.259 C 
ATOM     14  C   UNL A   1      32.392  22.685  22.737  1.00  0.00     0.064 C 
BRANCH  13  15
ATOM     15  O   UNL A   1      33.994  23.280  24.565  1.00  0.00    -0.479 OA
BRANCH  15  16
ATOM     16  C   UNL A   1      35.276  22.994  24.943  1.00  0.00     0.139 A 
ATOM     17  C   UNL A   1      36.238  23.959  25.245  1.00  0.00     0.048 A 
ATOM     18  C   UNL A   1      35.624  21.635  25.050  1.00  0.00     0.083 A 
ATOM     19  C   UNL A   1      37.542  23.578  25.576  1.00  0.00     0.004 A 
ATOM     20  C   UNL A   1      36.926  21.257  25.390  1.00  0.00     0.024 A 
ATOM     21  Cl  UNL A   1      34.476  20.375  24.758  1.00  0.00    -0.080 Cl
ATOM     22  C   UNL A   1      37.889  22.231  25.640  1.00  0.00     0.002 A 
ENDBRANCH  15  16
ENDBRANCH  13  15
ENDBRANCH  11  13
ENDBRANCH   6  11
ENDBRANCH   3   5
ENDBRANCH   2   3
ENDBRANCH   1   2
BRANCH   1  23
ATOM     23  C   UNL A   1      31.478  29.918  25.656  1.00  0.00     0.275 C 
BRANCH  23  24
ATOM     24  O   UNL A   1      32.884  30.078  25.904  1.00  0.00    -0.458 OA
BRANCH  24  25
ATOM     25  C   UNL A   1      33.210  30.936  26.895  1.00  0.00     0.338 C 
ATOM     26  O   UNL A   1      32.494  31.779  27.408  1.00  0.00    -0.246 OA
BRANCH  25  27
ATOM     27  C   UNL A   1      34.603  30.709  27.326  1.00  0.00     0.060 A 
ATOM     28  C   UNL A   1      35.080  29.418  27.539  1.00  0.00     0.016 A 
ATOM     29  C   UNL A   1      35.391  31.805  27.674  1.00  0.00     0.016 A 
ATOM     30  C   UNL A   1      36.279  29.222  28.229  1.00  0.00     0.010 A 
ATOM     31  C   UNL A   1      36.645  31.600  28.258  1.00  0.00     0.010 A 
ATOM     32  C   UNL A   1      37.084  30.307  28.598  1.00  0.00    -0.014 A 
BRANCH  32  33
ATOM     33  C   UNL A   1      38.332  30.133  29.400  1.00  0.00     0.031 A 
ATOM     34  C   UNL A   1      39.464  29.310  28.839  1.00  0.00     0.074 A 
ATOM     35  C   UNL A   1      38.487  30.687  30.620  1.00  0.00     0.049 A 
ATOM     36  N   UNL A   1      40.445  28.709  29.463  1.00  0.00    -0.248 NA
ATOM     37  C   UNL A   1      39.480  29.120  27.379  1.00  0.00     0.031 C 
ATOM     38  C   UNL A   1      37.548  31.593  31.277  1.00  0.00     0.029 A 
ATOM     39  N   UNL A   1      39.511  30.557  31.530  1.00  0.00    -0.354 N 
ATOM     40  C   UNL A   1      41.126  27.986  28.490  1.00  0.00     0.074 A 
ATOM     41  C   UNL A   1      40.473  28.255  27.227  1.00  0.00     0.031 C 
ATOM     42  C   UNL A   1      38.054  31.972  32.461  1.00  0.00     0.029 A 
ATOM     43  C   UNL A   1      39.287  31.233  32.705  1.00  0.00     0.049 A 
ATOM     44  H   UNL A   1      40.324  30.030  31.358  1.00  0.00     0.167 HD
ATOM     45  C   UNL A   1      42.183  27.155  28.651  1.00  0.00     0.037 A 
ATOM     46  C   UNL A   1      39.950  31.207  33.878  1.00  0.00     0.037 A 
ATOM     47  C   UNL A   1      42.887  26.973  29.893  1.00  0.00     0.049 A 
ATOM     48  C   UNL A   1      41.122  30.281  34.043  1.00  0.00     0.074 A 
ATOM     49  C   UNL A   1      43.958  26.141  30.170  1.00  0.00     0.029 A 
ATOM     50  N   UNL A   1      42.615  27.675  31.058  1.00  0.00    -0.354 N 
ATOM     51  N   UNL A   1      41.659  29.464  33.170  1.00  0.00    -0.248 NA
ATOM     52  C   UNL A   1      41.754  30.242  35.369  1.00  0.00     0.031 C 
ATOM     53  C   UNL A   1      44.327  26.332  31.507  1.00  0.00     0.029 A 
ATOM     54  C   UNL A   1      43.505  27.305  32.051  1.00  0.00     0.049 A 
ATOM     55  H   UNL A   1      41.895  28.338  31.162  1.00  0.00     0.167 HD
ATOM     56  C   UNL A   1      42.689  28.817  33.838  1.00  0.00     0.074 A 
ATOM     57  C   UNL A   1      42.717  29.349  35.184  1.00  0.00     0.031 C 
ATOM     58  C   UNL A   1      43.528  27.858  33.378  1.00  0.00     0.037 A 
BRANCH  45  59
ATOM     59  C   UNL A   1      42.616  26.335  27.474  1.00  0.00     0.064 A 
ATOM     60  C   UNL A   1      43.656  26.733  26.624  1.00  0.00     0.173 A 
ATOM     61  C   UNL A   1      42.007  25.092  27.230  1.00  0.00     0.173 A 
ATOM     62  F   UNL A   1      44.258  27.918  26.805  1.00  0.00    -0.203 F 
ATOM     63  C   UNL A   1      44.062  25.925  25.564  1.00  0.00     0.198 A 
ATOM     64  C   UNL A   1      42.433  24.275  26.186  1.00  0.00     0.198 A 
ATOM     65  F   UNL A   1      41.010  24.662  28.018  1.00  0.00    -0.203 F 
ATOM     66  F   UNL A   1      45.038  26.339  24.743  1.00  0.00    -0.200 F 
ATOM     67  C   UNL A   1      43.456  24.694  25.351  1.00  0.00     0.200 A 
ATOM     68  F   UNL A   1      41.853  23.083  25.991  1.00  0.00    -0.200 F 
ATOM     69  F   UNL A   1      43.858  23.913  24.339  1.00  0.00    -0.200 F 
ENDBRANCH  45  59
BRANCH  46  70
ATOM     70  C   UNL A   1      39.464  32.032  35.014  1.00  0.00     0.064 A 
ATOM     71  C   UNL A   1      39.792  33.390  35.109  1.00  0.00     0.173 A 
ATOM     72  C   UNL A   1      38.642  31.486  36.012  1.00  0.00     0.173 A 
ATOM     73  F   UNL A   1      40.600  33.950  34.197  1.00  0.00    -0.203 F 
ATOM     74  C   UNL A   1      39.313  34.173  36.160  1.00  0.00     0.198 A 
ATOM     75  C   UNL A   1      38.139  32.275  37.042  1.00  0.00     0.198 A 
ATOM     76  F   UNL A   1      38.304  30.189  35.967  1.00  0.00    -0.203 F 
ATOM     77  F   UNL A   1      39.667  35.461  36.247  1.00  0.00    -0.200 F 
ATOM     78  C   UNL A   1      38.478  33.617  37.118  1.00  0.00     0.200 A 
ATOM     79  F   UNL A   1      37.320  31.737  37.956  1.00  0.00    -0.200 F 
ATOM     80  F   UNL A   1      38.004  34.374  38.116  1.00  0.00    -0.200 F 
ENDBRANCH  46  70
BRANCH  58  81
ATOM     81  C   UNL A   1      44.572  27.351  34.324  1.00  0.00     0.064 A 
ATOM     82  C   UNL A   1      45.812  27.990  34.456  1.00  0.00     0.173 A 
ATOM     83  C   UNL A   1      44.305  26.244  35.143  1.00  0.00     0.173 A 
ATOM     84  F   UNL A   1      46.113  29.043  33.682  1.00  0.00    -0.203 F 
ATOM     85  C   UNL A   1      46.758  27.528  35.366  1.00  0.00     0.198 A 
ATOM     86  C   UNL A   1      45.247  25.796  36.065  1.00  0.00     0.198 A 
ATOM     87  F   UNL A   1      43.131  25.604  35.054  1.00  0.00    -0.203 F 
ATOM     88  F   UNL A   1      47.949  28.134  35.457  1.00  0.00    -0.200 F 
ATOM     89  C   UNL A   1      46.473  26.437  36.173  1.00  0.00     0.200 A 
ATOM     90  F   UNL A   1      44.969  24.745  36.848  1.00  0.00    -0.200 F 
ATOM     91  F   UNL A   1      47.383  25.997  37.053  1.00  0.00    -0.200 F 
ENDBRANCH  58  81
ENDBRANCH  32  33
ENDBRANCH  25  27
ENDBRANCH  24  25
ENDBRANCH  23  24
ENDBRANCH   1  23
TORSDOF 15
ENDMDL
MODEL 2
REMARK VINA RESULT:     -12.2      1.027      2.267
REMARK SMILES C[C@H](Oc1ccccc1Cl)C(=O)N1CCCC[C@H]1C(=O)OCCOC(=O)c1ccc(-c2c3nc(c(-c4c(F)c(F)c(F)c(F)c4F)c4ccc([nH]4)c(-c4c(F)c(F)c(F)c(F)c4F)c4nc(c(-c5c(F)c(F)c(F)c(F)c5F)c5ccc2[nH]5)C=C4)C=C3)cc1
REMARK SMILES IDX 22 1 21 2 19 3 20 4 18 5 13 6 14 7 15 8 17 9 16 10 11 11
REMARK SMILES IDX 12 12 2 13 1 14 3 15 4 16 5 17 9 18 6 19 8 20 10 21 7 22
REMARK SMILES IDX 23 23 24 24 25 25 26 26 27 27 28 28 89 29 29 30 88 31 30 32
REMARK SMILES IDX 31 33 32 34 82 35 33 36 87 37 81 38 83 39 34 40 86 41 80 42
REMARK SMILES IDX 79 43 35 45 67 46 47 47 66 48 48 49 51 50 65 51 84 52 49 53
REMARK SMILES IDX 50 54 64 56 85 57 52 58 36 59 37 60 45 61 38 62 39 63 43 64
REMARK SMILES IDX 46 65 40 66 41 67 44 68 42 69 68 70 69 71 77 72 70 73 71 74
REMARK SMILES IDX 75 75 78 76 72 77 73 78 76 79 74 80 53 81 54 82 62 83 55 84
REMARK SMILES IDX 56 85 60 86 63 87 57 88 58 89 61 90 59 91
REMARK H PARENT 83 44 51 55
REMARK Flexibility Score: inf
ROOT
ATOM      1  C   UNL A   1      32.135  28.315  25.357  1.00  0.00     0.274 C 
ENDROOT
BRANCH   1   2
ATOM      2  O   UNL A   1      31.122  27.870  24.431  1.00  0.00    -0.461 OA
BRANCH   2   3
ATOM      3  C   UNL A   1      31.525  26.983  23.472  1.00  0.00     0.328 C 
ATOM      4  O   UNL A   1      31.275  27.089  22.279  1.00  0.00    -0.250 OA
BRANCH   3   5
ATOM      5  C   UNL A   1      32.282  25.806  24.117  1.00  0.00     0.195 C 
ATOM      6  N   UNL A   1      31.390  24.704  24.544  1.00  0.00    -0.326 N 
ATOM      7  C   UNL A   1      30.903  23.844  23.464  1.00  0.00     0.120 C 
ATOM      8  C   UNL A   1      32.063  23.218  22.705  1.00  0.00     0.022 C 
ATOM      9  C   UNL A   1      33.448  25.272  23.277  1.00  0.00     0.037 C 
ATOM     10  C   UNL A   1      33.030  24.280  22.196  1.00  0.00     0.005 C 
BRANCH   6  11
ATOM     11  C   UNL A   1      31.007  24.413  25.851  1.00  0.00     0.264 C 
ATOM     12  O   UNL A   1      30.811  25.315  26.675  1.00  0.00    -0.271 OA
BRANCH  11  13
ATOM     13  C   UNL A   1      30.910  22.945  26.338  1.00  0.00     0.259 C 
ATOM     14  C   UNL A   1      29.629  22.817  27.167  1.00  0.00     0.064 C 
BRANCH  13  15
ATOM     15  O   UNL A   1      32.114  22.568  27.005  1.00  0.00    -0.479 OA
BRANCH  15  16
ATOM     16  C   UNL A   1      33.310  22.584  26.343  1.00  0.00     0.139 A 
ATOM     17  C   UNL A   1      34.294  23.556  26.529  1.00  0.00     0.048 A 
ATOM     18  C   UNL A   1      33.557  21.536  25.438  1.00  0.00     0.083 A 
ATOM     19  C   UNL A   1      35.470  23.525  25.773  1.00  0.00     0.004 A 
ATOM     20  C   UNL A   1      34.737  21.502  24.690  1.00  0.00     0.024 A 
ATOM     21  Cl  UNL A   1      32.420  20.255  25.196  1.00  0.00    -0.080 Cl
ATOM     22  C   UNL A   1      35.689  22.506  24.850  1.00  0.00     0.002 A 
ENDBRANCH  15  16
ENDBRANCH  13  15
ENDBRANCH  11  13
ENDBRANCH   6  11
ENDBRANCH   3   5
ENDBRANCH   2   3
ENDBRANCH   1   2
BRANCH   1  23
ATOM     23  C   UNL A   1      32.027  29.813  25.611  1.00  0.00     0.275 C 
BRANCH  23  24
ATOM     24  O   UNL A   1      32.365  30.086  26.980  1.00  0.00    -0.458 OA
BRANCH  24  25
ATOM     25  C   UNL A   1      33.013  31.250  27.203  1.00  0.00     0.338 C 
ATOM     26  O   UNL A   1      32.557  32.378  27.115  1.00  0.00    -0.246 OA
BRANCH  25  27
ATOM     27  C   UNL A   1      34.406  30.987  27.612  1.00  0.00     0.060 A 
ATOM     28  C   UNL A   1      34.841  29.688  27.861  1.00  0.00     0.016 A 
ATOM     29  C   UNL A   1      35.241  32.065  27.904  1.00  0.00     0.016 A 
ATOM     30  C   UNL A   1      36.048  29.472  28.531  1.00  0.00     0.010 A 
ATOM     31  C   UNL A   1      36.499  31.835  28.467  1.00  0.00     0.010 A 
ATOM     32  C   UNL A   1      36.899  30.539  28.844  1.00  0.00    -0.014 A 
BRANCH  32  33
ATOM     33  C   UNL A   1      38.158  30.348  29.625  1.00  0.00     0.031 A 
ATOM     34  C   UNL A   1      39.274  29.520  29.039  1.00  0.00     0.074 A 
ATOM     35  C   UNL A   1      38.338  30.891  30.846  1.00  0.00     0.049 A 
ATOM     36  N   UNL A   1      40.259  28.905  29.643  1.00  0.00    -0.248 NA
ATOM     37  C   UNL A   1      39.264  29.341  27.578  1.00  0.00     0.031 C 
ATOM     38  C   UNL A   1      37.417  31.800  31.526  1.00  0.00     0.029 A 
ATOM     39  N   UNL A   1      39.374  30.744  31.739  1.00  0.00    -0.354 N 
ATOM     40  C   UNL A   1      40.918  28.183  28.654  1.00  0.00     0.074 A 
ATOM     41  C   UNL A   1      40.247  28.469  27.403  1.00  0.00     0.031 C 
ATOM     42  C   UNL A   1      37.945  32.165  32.704  1.00  0.00     0.029 A 
ATOM     43  C   UNL A   1      39.175  31.413  32.922  1.00  0.00     0.049 A 
ATOM     44  H   UNL A   1      40.180  30.212  31.549  1.00  0.00     0.167 HD
ATOM     45  C   UNL A   1      41.969  27.342  28.791  1.00  0.00     0.037 A 
ATOM     46  C   UNL A   1      39.857  31.372  34.084  1.00  0.00     0.037 A 
ATOM     47  C   UNL A   1      42.692  27.144  30.020  1.00  0.00     0.049 A 
ATOM     48  C   UNL A   1      41.023  30.434  34.223  1.00  0.00     0.074 A 
ATOM     49  C   UNL A   1      43.760  26.301  30.274  1.00  0.00     0.029 A 
ATOM     50  N   UNL A   1      42.445  27.839  31.195  1.00  0.00    -0.354 N 
ATOM     51  N   UNL A   1      41.538  29.620  33.336  1.00  0.00    -0.248 NA
ATOM     52  C   UNL A   1      41.675  30.379  35.539  1.00  0.00     0.031 C 
ATOM     53  C   UNL A   1      44.151  26.477  31.606  1.00  0.00     0.029 A 
ATOM     54  C   UNL A   1      43.347  27.453  32.170  1.00  0.00     0.049 A 
ATOM     55  H   UNL A   1      41.732  28.508  31.316  1.00  0.00     0.167 HD
ATOM     56  C   UNL A   1      42.573  28.958  33.982  1.00  0.00     0.074 A 
ATOM     57  C   UNL A   1      42.627  29.479  35.331  1.00  0.00     0.031 C 
ATOM     58  C   UNL A   1      43.396  27.995  33.501  1.00  0.00     0.037 A 
BRANCH  45  59
ATOM     59  C   UNL A   1      42.377  26.528  27.601  1.00  0.00     0.064 A 
ATOM     60  C   UNL A   1      43.408  26.923  26.738  1.00  0.00     0.173 A 
ATOM     61  C   UNL A   1      41.752  25.293  27.356  1.00  0.00     0.173 A 
ATOM     62  F   UNL A   1      44.024  28.101  26.920  1.00  0.00    -0.203 F 
ATOM     63  C   UNL A   1      43.790  26.120  25.665  1.00  0.00     0.198 A 
ATOM     64  C   UNL A   1      42.154  24.481  26.299  1.00  0.00     0.198 A 
ATOM     65  F   UNL A   1      40.763  24.866  28.156  1.00  0.00    -0.203 F 
ATOM     66  F   UNL A   1      44.756  26.531  24.833  1.00  0.00    -0.200 F 
ATOM     67  C   UNL A   1      43.168  24.896  25.452  1.00  0.00     0.200 A 
ATOM     68  F   UNL A   1      41.560  23.296  26.103  1.00  0.00    -0.200 F 
ATOM     69  F   UNL A   1      43.547  24.120  24.427  1.00  0.00    -0.200 F 
ENDBRANCH  45  59
BRANCH  46  70
ATOM     70  C   UNL A   1      39.396  32.192  35.234  1.00  0.00     0.064 A 
ATOM     71  C   UNL A   1      38.572  31.643  36.225  1.00  0.00     0.173 A 
ATOM     72  C   UNL A   1      39.789  33.532  35.378  1.00  0.00     0.173 A 
ATOM     73  F   UNL A   1      38.144  30.377  36.115  1.00  0.00    -0.203 F 
ATOM     74  C   UNL A   1      38.161  32.403  37.320  1.00  0.00     0.198 A 
ATOM     75  C   UNL A   1      39.404  34.279  36.487  1.00  0.00     0.198 A 
ATOM     76  F   UNL A   1      40.573  34.104  34.453  1.00  0.00    -0.203 F 
ATOM     77  F   UNL A   1      37.348  31.865  38.238  1.00  0.00    -0.200 F 
ATOM     78  C   UNL A   1      38.587  33.716  37.456  1.00  0.00     0.200 A 
ATOM     79  F   UNL A   1      39.831  35.542  36.622  1.00  0.00    -0.200 F 
ATOM     80  F   UNL A   1      38.207  34.440  38.516  1.00  0.00    -0.200 F 
ENDBRANCH  46  70
BRANCH  58  81
ATOM     81  C   UNL A   1      44.450  27.472  34.427  1.00  0.00     0.064 A 
ATOM     82  C   UNL A   1      44.235  26.329  35.209  1.00  0.00     0.173 A 
ATOM     83  C   UNL A   1      45.706  28.093  34.491  1.00  0.00     0.173 A 
ATOM     84  F   UNL A   1      43.044  25.712  35.188  1.00  0.00    -0.203 F 
ATOM     85  C   UNL A   1      45.238  25.834  36.037  1.00  0.00     0.198 A 
ATOM     86  C   UNL A   1      46.712  27.584  35.307  1.00  0.00     0.198 A 
ATOM     87  F   UNL A   1      45.957  29.187  33.758  1.00  0.00    -0.203 F 
ATOM     88  F   UNL A   1      45.003  24.757  36.800  1.00  0.00    -0.200 F 
ATOM     89  C   UNL A   1      46.476  26.457  36.081  1.00  0.00     0.200 A 
ATOM     90  F   UNL A   1      47.909  28.184  35.346  1.00  0.00    -0.200 F 
ATOM     91  F   UNL A   1      47.442  25.975  36.875  1.00  0.00    -0.200 F 
ENDBRANCH  58  81
ENDBRANCH  32  33
ENDBRANCH  25  27
ENDBRANCH  24  25
ENDBRANCH  23  24
ENDBRANCH   1  23
TORSDOF 15
ENDMDL
MODEL 3
REMARK VINA RESULT:     -12.2      4.001      9.475
REMARK SMILES C[C@H](Oc1ccccc1Cl)C(=O)N1CCCC[C@H]1C(=O)OCCOC(=O)c1ccc(-c2c3nc(c(-c4c(F)c(F)c(F)c(F)c4F)c4ccc([nH]4)c(-c4c(F)c(F)c(F)c(F)c4F)c4nc(c(-c5c(F)c(F)c(F)c(F)c5F)c5ccc2[nH]5)C=C4)C=C3)cc1
REMARK SMILES IDX 22 1 21 2 19 3 20 4 18 5 13 6 14 7 15 8 17 9 16 10 11 11
REMARK SMILES IDX 12 12 2 13 1 14 3 15 4 16 5 17 9 18 6 19 8 20 10 21 7 22
REMARK SMILES IDX 23 23 24 24 25 25 26 26 27 27 28 28 89 29 29 30 88 31 30 32
REMARK SMILES IDX 31 33 32 34 82 35 33 36 87 37 81 38 83 39 34 40 86 41 80 42
REMARK SMILES IDX 79 43 35 45 67 46 47 47 66 48 48 49 51 50 65 51 84 52 49 53
REMARK SMILES IDX 50 54 64 56 85 57 52 58 36 59 37 60 45 61 38 62 39 63 43 64
REMARK SMILES IDX 46 65 40 66 41 67 44 68 42 69 68 70 69 71 77 72 70 73 71 74
REMARK SMILES IDX 75 75 78 76 72 77 73 78 76 79 74 80 53 81 54 82 62 83 55 84
REMARK SMILES IDX 56 85 60 86 63 87 57 88 58 89 61 90 59 91
REMARK H PARENT 83 44 51 55
REMARK Flexibility Score: inf
ROOT
ATOM      1  C   UNL A   1      34.863  20.816  25.510  1.00  0.00     0.274 C 
ENDROOT
BRANCH   1   2
ATOM      2  O   UNL A   1      33.937  21.139  24.452  1.00  0.00    -0.461 OA
BRANCH   2   3
ATOM      3  C   UNL A   1      32.714  21.610  24.841  1.00  0.00     0.328 C 
ATOM      4  O   UNL A   1      31.843  20.930  25.366  1.00  0.00    -0.250 OA
BRANCH   3   5
ATOM      5  C   UNL A   1      32.571  23.098  24.466  1.00  0.00     0.195 C 
ATOM      6  N   UNL A   1      32.694  24.006  25.629  1.00  0.00    -0.326 N 
ATOM      7  C   UNL A   1      34.061  24.222  26.107  1.00  0.00     0.120 C 
ATOM      8  C   UNL A   1      34.941  24.784  24.999  1.00  0.00     0.022 C 
ATOM      9  C   UNL A   1      33.486  23.548  23.320  1.00  0.00     0.037 C 
ATOM     10  C   UNL A   1      34.903  23.898  23.760  1.00  0.00     0.005 C 
BRANCH   6  11
ATOM     11  C   UNL A   1      31.652  24.670  26.271  1.00  0.00     0.264 C 
ATOM     12  O   UNL A   1      31.102  24.183  27.266  1.00  0.00    -0.271 OA
BRANCH  11  13
ATOM     13  C   UNL A   1      31.087  25.994  25.697  1.00  0.00     0.259 C 
ATOM     14  C   UNL A   1      29.932  25.634  24.758  1.00  0.00     0.064 C 
BRANCH  13  15
ATOM     15  O   UNL A   1      32.136  26.765  25.114  1.00  0.00    -0.479 OA
BRANCH  15  16
ATOM     16  C   UNL A   1      32.617  27.877  25.747  1.00  0.00     0.139 A 
ATOM     17  C   UNL A   1      33.677  27.864  26.654  1.00  0.00     0.048 A 
ATOM     18  C   UNL A   1      32.008  29.106  25.436  1.00  0.00     0.083 A 
ATOM     19  C   UNL A   1      34.074  29.042  27.295  1.00  0.00     0.004 A 
ATOM     20  C   UNL A   1      32.412  30.284  26.072  1.00  0.00     0.024 A 
ATOM     21  Cl  UNL A   1      30.731  29.222  24.275  1.00  0.00    -0.080 Cl
ATOM     22  C   UNL A   1      33.438  30.248  27.011  1.00  0.00     0.002 A 
ENDBRANCH  15  16
ENDBRANCH  13  15
ENDBRANCH  11  13
ENDBRANCH   6  11
ENDBRANCH   3   5
ENDBRANCH   2   3
ENDBRANCH   1   2
BRANCH   1  23
ATOM     23  C   UNL A   1      36.266  20.588  24.960  1.00  0.00     0.275 C 
BRANCH  23  24
ATOM     24  O   UNL A   1      37.091  21.716  25.290  1.00  0.00    -0.458 OA
BRANCH  24  25
ATOM     25  C   UNL A   1      38.351  21.426  25.683  1.00  0.00     0.338 C 
ATOM     26  O   UNL A   1      38.975  20.402  25.465  1.00  0.00    -0.246 OA
BRANCH  25  27
ATOM     27  C   UNL A   1      38.927  22.564  26.425  1.00  0.00     0.060 A 
ATOM     28  C   UNL A   1      38.444  23.856  26.235  1.00  0.00     0.016 A 
ATOM     29  C   UNL A   1      40.067  22.359  27.200  1.00  0.00     0.016 A 
ATOM     30  C   UNL A   1      39.178  24.951  26.697  1.00  0.00     0.010 A 
ATOM     31  C   UNL A   1      40.732  23.453  27.761  1.00  0.00     0.010 A 
ATOM     32  C   UNL A   1      40.331  24.771  27.469  1.00  0.00    -0.014 A 
BRANCH  32  33
ATOM     33  C   UNL A   1      41.177  25.919  27.914  1.00  0.00     0.031 A 
ATOM     34  C   UNL A   1      40.575  26.984  28.797  1.00  0.00     0.074 A 
ATOM     35  C   UNL A   1      42.470  26.045  27.552  1.00  0.00     0.049 A 
ATOM     36  N   UNL A   1      40.958  28.220  28.989  1.00  0.00    -0.248 NA
ATOM     37  C   UNL A   1      39.365  26.610  29.547  1.00  0.00     0.031 C 
ATOM     38  C   UNL A   1      43.248  25.069  26.792  1.00  0.00     0.029 A 
ATOM     39  N   UNL A   1      43.361  27.068  27.782  1.00  0.00    -0.354 N 
ATOM     40  C   UNL A   1      39.980  28.799  29.791  1.00  0.00     0.074 A 
ATOM     41  C   UNL A   1      39.008  27.768  30.085  1.00  0.00     0.031 C 
ATOM     42  C   UNL A   1      44.505  25.515  26.655  1.00  0.00     0.029 A 
ATOM     43  C   UNL A   1      44.589  26.865  27.200  1.00  0.00     0.049 A 
ATOM     44  H   UNL A   1      43.141  27.868  28.312  1.00  0.00     0.167 HD
ATOM     45  C   UNL A   1      39.897  30.082  30.216  1.00  0.00     0.037 A 
ATOM     46  C   UNL A   1      45.640  27.694  27.048  1.00  0.00     0.037 A 
ATOM     47  C   UNL A   1      40.920  31.072  30.003  1.00  0.00     0.049 A 
ATOM     48  C   UNL A   1      45.536  29.114  27.525  1.00  0.00     0.074 A 
ATOM     49  C   UNL A   1      40.928  32.405  30.374  1.00  0.00     0.029 A 
ATOM     50  N   UNL A   1      42.142  30.819  29.398  1.00  0.00    -0.354 N 
ATOM     51  N   UNL A   1      44.538  29.712  28.129  1.00  0.00    -0.248 NA
ATOM     52  C   UNL A   1      46.687  29.989  27.260  1.00  0.00     0.031 C 
ATOM     53  C   UNL A   1      42.151  32.962  29.983  1.00  0.00     0.029 A 
ATOM     54  C   UNL A   1      42.915  31.966  29.397  1.00  0.00     0.049 A 
ATOM     55  H   UNL A   1      42.418  29.951  29.024  1.00  0.00     0.167 HD
ATOM     56  C   UNL A   1      44.940  31.026  28.318  1.00  0.00     0.074 A 
ATOM     57  C   UNL A   1      46.281  31.138  27.783  1.00  0.00     0.031 C 
ATOM     58  C   UNL A   1      44.253  32.052  28.876  1.00  0.00     0.037 A 
BRANCH  45  59
ATOM     59  C   UNL A   1      38.640  30.512  30.909  1.00  0.00     0.064 A 
ATOM     60  C   UNL A   1      38.541  30.590  32.304  1.00  0.00     0.173 A 
ATOM     61  C   UNL A   1      37.527  30.908  30.148  1.00  0.00     0.173 A 
ATOM     62  F   UNL A   1      39.570  30.207  33.075  1.00  0.00    -0.203 F 
ATOM     63  C   UNL A   1      37.370  31.035  32.914  1.00  0.00     0.198 A 
ATOM     64  C   UNL A   1      36.368  31.377  30.759  1.00  0.00     0.198 A 
ATOM     65  F   UNL A   1      37.573  30.858  28.808  1.00  0.00    -0.203 F 
ATOM     66  F   UNL A   1      37.285  31.072  34.251  1.00  0.00    -0.200 F 
ATOM     67  C   UNL A   1      36.288  31.436  32.141  1.00  0.00     0.200 A 
ATOM     68  F   UNL A   1      35.330  31.775  30.010  1.00  0.00    -0.200 F 
ATOM     69  F   UNL A   1      35.168  31.877  32.731  1.00  0.00    -0.200 F 
ENDBRANCH  45  59
BRANCH  46  70
ATOM     70  C   UNL A   1      46.855  27.214  26.339  1.00  0.00     0.064 A 
ATOM     71  C   UNL A   1      46.989  27.370  24.953  1.00  0.00     0.173 A 
ATOM     72  C   UNL A   1      47.916  26.614  27.035  1.00  0.00     0.173 A 
ATOM     73  F   UNL A   1      45.989  27.909  24.241  1.00  0.00    -0.203 F 
ATOM     74  C   UNL A   1      48.140  26.946  24.290  1.00  0.00     0.198 A 
ATOM     75  C   UNL A   1      49.077  26.220  26.376  1.00  0.00     0.198 A 
ATOM     76  F   UNL A   1      47.833  26.437  28.362  1.00  0.00    -0.203 F 
ATOM     77  F   UNL A   1      48.230  27.077  22.961  1.00  0.00    -0.200 F 
ATOM     78  C   UNL A   1      49.187  26.382  25.004  1.00  0.00     0.200 A 
ATOM     79  F   UNL A   1      50.092  25.691  27.073  1.00  0.00    -0.200 F 
ATOM     80  F   UNL A   1      50.300  25.993  24.369  1.00  0.00    -0.200 F 
ENDBRANCH  46  70
BRANCH  58  81
ATOM     81  C   UNL A   1      44.952  33.373  28.970  1.00  0.00     0.064 A 
ATOM     82  C   UNL A   1      44.815  34.346  27.972  1.00  0.00     0.173 A 
ATOM     83  C   UNL A   1      45.726  33.683  30.098  1.00  0.00     0.173 A 
ATOM     84  F   UNL A   1      44.095  34.086  26.871  1.00  0.00    -0.203 F 
ATOM     85  C   UNL A   1      45.442  35.583  28.092  1.00  0.00     0.198 A 
ATOM     86  C   UNL A   1      46.337  34.927  30.223  1.00  0.00     0.198 A 
ATOM     87  F   UNL A   1      45.882  32.783  31.079  1.00  0.00    -0.203 F 
ATOM     88  F   UNL A   1      45.323  36.490  27.113  1.00  0.00    -0.200 F 
ATOM     89  C   UNL A   1      46.196  35.874  29.219  1.00  0.00     0.200 A 
ATOM     90  F   UNL A   1      47.062  35.211  31.314  1.00  0.00    -0.200 F 
ATOM     91  F   UNL A   1      46.795  37.068  29.335  1.00  0.00    -0.200 F 
ENDBRANCH  58  81
ENDBRANCH  32  33
ENDBRANCH  25  27
ENDBRANCH  24  25
ENDBRANCH  23  24
ENDBRANCH   1  23
TORSDOF 15
ENDMDL
