MODEL 1
REMARK VINA RESULT:     -10.8      0.000      0.000
REMARK SMILES CC1([C@@]2(C)C[C@@H]2C(=O)OCCOC(=O)c2ccc(-c3c4nc(c(-c5c(F)c(F)c(F)c(F)c5F)c5ccc([nH]5)c(-c5c(F)c(F)c(F)c(F)c5F)c5nc(c(-c6c(F)c(F)c(F)c(F)c6F)c6ccc3[nH]6)C=C5)C=C4)cc2)CC1
REMARK SMILES IDX 11 1 10 2 9 3 7 4 8 5 6 6 3 7 4 8 5 9 2 10 1 11 78 12 79 13
REMARK SMILES IDX 12 14 13 15 14 16 15 17 16 18 77 19 17 20 76 21 18 22 19 23
REMARK SMILES IDX 20 24 70 25 21 26 75 27 69 28 71 29 22 30 74 31 68 32 67 33
REMARK SMILES IDX 23 35 55 36 35 37 54 38 36 39 39 40 53 41 72 42 37 43 38 44
REMARK SMILES IDX 52 46 73 47 40 48 24 49 25 50 33 51 26 52 27 53 31 54 34 55
REMARK SMILES IDX 28 56 29 57 32 58 30 59 56 60 57 61 65 62 58 63 59 64 63 65
REMARK SMILES IDX 66 66 60 67 61 68 64 69 62 70 41 71 42 72 50 73 43 74 44 75
REMARK SMILES IDX 48 76 51 77 45 78 46 79 49 80 47 81
REMARK H PARENT 71 34 39 45
REMARK Flexibility Score: inf
ROOT
ATOM      1  C   UNL A   1      31.559  30.333  25.752  1.00  0.00     0.275 C 
ENDROOT
BRANCH   1   2
ATOM      2  C   UNL A   1      31.391  29.367  24.583  1.00  0.00     0.274 C 
BRANCH   2   3
ATOM      3  O   UNL A   1      32.655  28.793  24.193  1.00  0.00    -0.462 OA
BRANCH   3   4
ATOM      4  C   UNL A   1      32.597  27.518  23.725  1.00  0.00     0.309 C 
ATOM      5  O   UNL A   1      31.942  27.130  22.768  1.00  0.00    -0.252 OA
BRANCH   4   6
ATOM      6  C   UNL A   1      33.335  26.560  24.574  1.00  0.00     0.106 C 
ATOM      7  C   UNL A   1      32.756  25.794  25.769  1.00  0.00    -0.013 C 
ATOM      8  C   UNL A   1      31.333  26.060  26.210  1.00  0.00     0.013 C 
ATOM      9  C   UNL A   1      33.736  26.935  25.976  1.00  0.00     0.024 C 
BRANCH   7  10
ATOM     10  C   UNL A   1      33.181  24.302  25.930  1.00  0.00    -0.026 C 
ATOM     11  C   UNL A   1      32.250  23.502  26.812  1.00  0.00     0.012 C 
ATOM     12  C   UNL A   1      34.655  23.936  26.009  1.00  0.00     0.008 C 
ATOM     13  C   UNL A   1      33.864  23.542  24.802  1.00  0.00     0.008 C 
ENDBRANCH   7  10
ENDBRANCH   4   6
ENDBRANCH   3   4
ENDBRANCH   2   3
ENDBRANCH   1   2
BRANCH   1  14
ATOM     14  O   UNL A   1      32.951  30.426  26.093  1.00  0.00    -0.458 OA
BRANCH  14  15
ATOM     15  C   UNL A   1      33.278  31.391  26.981  1.00  0.00     0.338 C 
ATOM     16  O   UNL A   1      32.622  32.375  27.282  1.00  0.00    -0.246 OA
BRANCH  15  17
ATOM     17  C   UNL A   1      34.581  31.080  27.605  1.00  0.00     0.060 A 
ATOM     18  C   UNL A   1      34.900  29.770  27.963  1.00  0.00     0.016 A 
ATOM     19  C   UNL A   1      35.440  32.121  27.953  1.00  0.00     0.016 A 
ATOM     20  C   UNL A   1      36.019  29.509  28.748  1.00  0.00     0.010 A 
ATOM     21  C   UNL A   1      36.626  31.841  28.641  1.00  0.00     0.010 A 
ATOM     22  C   UNL A   1      36.916  30.535  29.072  1.00  0.00    -0.014 A 
BRANCH  22  23
ATOM     23  C   UNL A   1      38.154  30.245  29.851  1.00  0.00     0.031 A 
ATOM     24  C   UNL A   1      39.234  29.370  29.274  1.00  0.00     0.074 A 
ATOM     25  C   UNL A   1      38.304  30.754  31.091  1.00  0.00     0.049 A 
ATOM     26  N   UNL A   1      40.274  28.837  29.865  1.00  0.00    -0.248 NA
ATOM     27  C   UNL A   1      39.122  29.035  27.846  1.00  0.00     0.031 C 
ATOM     28  C   UNL A   1      37.357  31.644  31.764  1.00  0.00     0.029 A 
ATOM     29  N   UNL A   1      39.310  30.589  32.012  1.00  0.00    -0.354 N 
ATOM     30  C   UNL A   1      40.905  28.061  28.901  1.00  0.00     0.074 A 
ATOM     31  C   UNL A   1      40.132  28.190  27.684  1.00  0.00     0.031 C 
ATOM     32  C   UNL A   1      37.840  31.975  32.970  1.00  0.00     0.029 A 
ATOM     33  C   UNL A   1      39.079  31.242  33.198  1.00  0.00     0.049 A 
ATOM     34  H   UNL A   1      40.120  30.055  31.838  1.00  0.00     0.167 HD
ATOM     35  C   UNL A   1      42.026  27.309  29.023  1.00  0.00     0.037 A 
ATOM     36  C   UNL A   1      39.755  31.217  34.363  1.00  0.00     0.037 A 
ATOM     37  C   UNL A   1      42.823  27.227  30.221  1.00  0.00     0.049 A 
ATOM     38  C   UNL A   1      40.977  30.351  34.480  1.00  0.00     0.074 A 
ATOM     39  C   UNL A   1      43.993  26.516  30.435  1.00  0.00     0.029 A 
ATOM     40  N   UNL A   1      42.540  27.889  31.406  1.00  0.00    -0.354 N 
ATOM     41  N   UNL A   1      41.540  29.587  33.577  1.00  0.00    -0.248 NA
ATOM     42  C   UNL A   1      41.646  30.332  35.788  1.00  0.00     0.031 C 
ATOM     43  C   UNL A   1      44.393  26.716  31.760  1.00  0.00     0.029 A 
ATOM     44  C   UNL A   1      43.502  27.589  32.360  1.00  0.00     0.049 A 
ATOM     45  H   UNL A   1      41.768  28.485  31.550  1.00  0.00     0.167 HD
ATOM     46  C   UNL A   1      42.634  29.005  34.200  1.00  0.00     0.074 A 
ATOM     47  C   UNL A   1      42.671  29.525  35.552  1.00  0.00     0.031 C 
ATOM     48  C   UNL A   1      43.523  28.112  33.701  1.00  0.00     0.037 A 
BRANCH  35  49
ATOM     49  C   UNL A   1      42.451  26.484  27.842  1.00  0.00     0.064 A 
ATOM     50  C   UNL A   1      41.928  25.206  27.598  1.00  0.00     0.173 A 
ATOM     51  C   UNL A   1      43.360  27.009  26.907  1.00  0.00     0.173 A 
ATOM     52  F   UNL A   1      41.067  24.654  28.466  1.00  0.00    -0.203 F 
ATOM     53  C   UNL A   1      42.313  24.476  26.475  1.00  0.00     0.198 A 
ATOM     54  C   UNL A   1      43.720  26.288  25.772  1.00  0.00     0.198 A 
ATOM     55  F   UNL A   1      43.885  28.230  27.089  1.00  0.00    -0.203 F 
ATOM     56  F   UNL A   1      41.829  23.241  26.283  1.00  0.00    -0.200 F 
ATOM     57  C   UNL A   1      43.201  25.021  25.559  1.00  0.00     0.200 A 
ATOM     58  F   UNL A   1      44.566  26.824  24.881  1.00  0.00    -0.200 F 
ATOM     59  F   UNL A   1      43.560  24.323  24.473  1.00  0.00    -0.200 F 
ENDBRANCH  35  49
BRANCH  36  60
ATOM     60  C   UNL A   1      39.259  32.002  35.522  1.00  0.00     0.064 A 
ATOM     61  C   UNL A   1      39.603  33.352  35.679  1.00  0.00     0.173 A 
ATOM     62  C   UNL A   1      38.428  31.423  36.493  1.00  0.00     0.173 A 
ATOM     63  F   UNL A   1      40.416  33.943  34.791  1.00  0.00    -0.203 F 
ATOM     64  C   UNL A   1      39.143  34.088  36.769  1.00  0.00     0.198 A 
ATOM     65  C   UNL A   1      37.942  32.169  37.564  1.00  0.00     0.198 A 
ATOM     66  F   UNL A   1      38.070  30.134  36.390  1.00  0.00    -0.203 F 
ATOM     67  F   UNL A   1      39.523  35.364  36.919  1.00  0.00    -0.200 F 
ATOM     68  C   UNL A   1      38.307  33.499  37.705  1.00  0.00     0.200 A 
ATOM     69  F   UNL A   1      37.120  31.600  38.455  1.00  0.00    -0.200 F 
ATOM     70  F   UNL A   1      37.857  34.211  38.747  1.00  0.00    -0.200 F 
ENDBRANCH  36  60
BRANCH  48  71
ATOM     71  C   UNL A   1      44.623  27.665  34.618  1.00  0.00     0.064 A 
ATOM     72  C   UNL A   1      45.833  28.369  34.712  1.00  0.00     0.173 A 
ATOM     73  C   UNL A   1      44.462  26.523  35.416  1.00  0.00     0.173 A 
ATOM     74  F   UNL A   1      46.041  29.456  33.954  1.00  0.00    -0.203 F 
ATOM     75  C   UNL A   1      46.854  27.927  35.549  1.00  0.00     0.198 A 
ATOM     76  C   UNL A   1      45.474  26.101  36.274  1.00  0.00     0.198 A 
ATOM     77  F   UNL A   1      43.322  25.818  35.366  1.00  0.00    -0.203 F 
ATOM     78  F   UNL A   1      48.022  28.582  35.580  1.00  0.00    -0.200 F 
ATOM     79  C   UNL A   1      46.672  26.797  36.332  1.00  0.00     0.200 A 
ATOM     80  F   UNL A   1      45.293  25.015  37.038  1.00  0.00    -0.200 F 
ATOM     81  F   UNL A   1      47.656  26.372  37.136  1.00  0.00    -0.200 F 
ENDBRANCH  48  71
ENDBRANCH  22  23
ENDBRANCH  15  17
ENDBRANCH  14  15
ENDBRANCH   1  14
TORSDOF 12
ENDMDL
MODEL 2
REMARK VINA RESULT:     -10.7      2.820      4.762
REMARK SMILES CC1([C@@]2(C)C[C@@H]2C(=O)OCCOC(=O)c2ccc(-c3c4nc(c(-c5c(F)c(F)c(F)c(F)c5F)c5ccc([nH]5)c(-c5c(F)c(F)c(F)c(F)c5F)c5nc(c(-c6c(F)c(F)c(F)c(F)c6F)c6ccc3[nH]6)C=C5)C=C4)cc2)CC1
REMARK SMILES IDX 11 1 10 2 9 3 7 4 8 5 6 6 3 7 4 8 5 9 2 10 1 11 78 12 79 13
REMARK SMILES IDX 12 14 13 15 14 16 15 17 16 18 77 19 17 20 76 21 18 22 19 23
REMARK SMILES IDX 20 24 70 25 21 26 75 27 69 28 71 29 22 30 74 31 68 32 67 33
REMARK SMILES IDX 23 35 55 36 35 37 54 38 36 39 39 40 53 41 72 42 37 43 38 44
REMARK SMILES IDX 52 46 73 47 40 48 24 49 25 50 33 51 26 52 27 53 31 54 34 55
REMARK SMILES IDX 28 56 29 57 32 58 30 59 56 60 57 61 65 62 58 63 59 64 63 65
REMARK SMILES IDX 66 66 60 67 61 68 64 69 62 70 41 71 42 72 50 73 43 74 44 75
REMARK SMILES IDX 48 76 51 77 45 78 46 79 49 80 47 81
REMARK H PARENT 71 34 39 45
REMARK Flexibility Score: inf
ROOT
ATOM      1  C   UNL A   1      33.278  33.726  28.018  1.00  0.00     0.275 C 
ENDROOT
BRANCH   1   2
ATOM      2  C   UNL A   1      33.684  34.635  29.175  1.00  0.00     0.274 C 
BRANCH   2   3
ATOM      3  O   UNL A   1      32.561  34.916  30.037  1.00  0.00    -0.462 OA
BRANCH   3   4
ATOM      4  C   UNL A   1      32.809  35.784  31.052  1.00  0.00     0.309 C 
ATOM      5  O   UNL A   1      32.102  36.725  31.387  1.00  0.00    -0.252 OA
BRANCH   4   6
ATOM      6  C   UNL A   1      34.126  35.568  31.686  1.00  0.00     0.106 C 
ATOM      7  C   UNL A   1      34.455  34.480  32.717  1.00  0.00    -0.013 C 
ATOM      8  C   UNL A   1      33.356  33.571  33.221  1.00  0.00     0.013 C 
ATOM      9  C   UNL A   1      34.348  35.938  33.129  1.00  0.00     0.024 C 
BRANCH   7  10
ATOM     10  C   UNL A   1      35.832  33.763  32.576  1.00  0.00    -0.026 C 
ATOM     11  C   UNL A   1      35.742  32.418  31.891  1.00  0.00     0.012 C 
ATOM     12  C   UNL A   1      36.868  33.880  33.683  1.00  0.00     0.008 C 
ATOM     13  C   UNL A   1      37.121  34.544  32.366  1.00  0.00     0.008 C 
ENDBRANCH   7  10
ENDBRANCH   4   6
ENDBRANCH   3   4
ENDBRANCH   2   3
ENDBRANCH   1   2
BRANCH   1  14
ATOM     14  O   UNL A   1      34.430  33.001  27.559  1.00  0.00    -0.458 OA
BRANCH  14  15
ATOM     15  C   UNL A   1      34.397  31.662  27.748  1.00  0.00     0.338 C 
ATOM     16  O   UNL A   1      33.457  30.910  27.557  1.00  0.00    -0.246 OA
BRANCH  15  17
ATOM     17  C   UNL A   1      35.720  31.188  28.204  1.00  0.00     0.060 A 
ATOM     18  C   UNL A   1      35.892  29.871  28.630  1.00  0.00     0.016 A 
ATOM     19  C   UNL A   1      36.768  32.098  28.332  1.00  0.00     0.016 A 
ATOM     20  C   UNL A   1      37.068  29.485  29.268  1.00  0.00     0.010 A 
ATOM     21  C   UNL A   1      37.991  31.677  28.865  1.00  0.00     0.010 A 
ATOM     22  C   UNL A   1      38.147  30.373  29.366  1.00  0.00    -0.014 A 
BRANCH  22  23
ATOM     23  C   UNL A   1      39.434  29.941  29.983  1.00  0.00     0.031 A 
ATOM     24  C   UNL A   1      40.264  28.860  29.344  1.00  0.00     0.074 A 
ATOM     25  C   UNL A   1      39.853  30.506  31.134  1.00  0.00     0.049 A 
ATOM     26  N   UNL A   1      41.291  28.207  29.828  1.00  0.00    -0.248 NA
ATOM     27  C   UNL A   1      39.879  28.445  27.986  1.00  0.00     0.031 C 
ATOM     28  C   UNL A   1      39.170  31.588  31.847  1.00  0.00     0.029 A 
ATOM     29  N   UNL A   1      40.955  30.245  31.912  1.00  0.00    -0.354 N 
ATOM     30  C   UNL A   1      41.637  27.270  28.863  1.00  0.00     0.074 A 
ATOM     31  C   UNL A   1      40.710  27.436  27.763  1.00  0.00     0.031 C 
ATOM     32  C   UNL A   1      39.881  31.920  32.933  1.00  0.00     0.029 A 
ATOM     33  C   UNL A   1      41.015  31.012  33.050  1.00  0.00     0.049 A 
ATOM     34  H   UNL A   1      41.636  29.574  31.675  1.00  0.00     0.167 HD
ATOM     35  C   UNL A   1      42.636  26.354  28.894  1.00  0.00     0.037 A 
ATOM     36  C   UNL A   1      41.854  30.960  34.102  1.00  0.00     0.037 A 
ATOM     37  C   UNL A   1      43.590  26.229  29.968  1.00  0.00     0.049 A 
ATOM     38  C   UNL A   1      42.934  29.916  34.125  1.00  0.00     0.074 A 
ATOM     39  C   UNL A   1      44.657  25.353  30.079  1.00  0.00     0.029 A 
ATOM     40  N   UNL A   1      43.601  27.014  31.112  1.00  0.00    -0.354 N 
ATOM     41  N   UNL A   1      43.225  29.006  33.229  1.00  0.00    -0.248 NA
ATOM     42  C   UNL A   1      43.790  29.882  35.319  1.00  0.00     0.031 C 
ATOM     43  C   UNL A   1      45.286  25.580  31.307  1.00  0.00     0.029 A 
ATOM     44  C   UNL A   1      44.644  26.629  31.941  1.00  0.00     0.049 A 
ATOM     45  H   UNL A   1      42.961  27.737  31.307  1.00  0.00     0.167 HD
ATOM     46  C   UNL A   1      44.302  28.299  33.742  1.00  0.00     0.074 A 
ATOM     47  C   UNL A   1      44.630  28.902  35.017  1.00  0.00     0.031 C 
ATOM     48  C   UNL A   1      44.955  27.238  33.208  1.00  0.00     0.037 A 
BRANCH  35  49
ATOM     49  C   UNL A   1      42.740  25.388  27.750  1.00  0.00     0.064 A 
ATOM     50  C   UNL A   1      41.966  24.220  27.689  1.00  0.00     0.173 A 
ATOM     51  C   UNL A   1      43.591  25.666  26.668  1.00  0.00     0.173 A 
ATOM     52  F   UNL A   1      41.146  23.900  28.701  1.00  0.00    -0.203 F 
ATOM     53  C   UNL A   1      42.055  23.357  26.598  1.00  0.00     0.198 A 
ATOM     54  C   UNL A   1      43.656  24.817  25.567  1.00  0.00     0.198 A 
ATOM     55  F   UNL A   1      44.348  26.774  26.672  1.00  0.00    -0.203 F 
ATOM     56  F   UNL A   1      41.335  22.226  26.579  1.00  0.00    -0.200 F 
ATOM     57  C   UNL A   1      42.893  23.660  25.535  1.00  0.00     0.200 A 
ATOM     58  F   UNL A   1      44.455  25.121  24.535  1.00  0.00    -0.200 F 
ATOM     59  F   UNL A   1      42.968  22.836  24.481  1.00  0.00    -0.200 F 
ENDBRANCH  35  49
BRANCH  36  60
ATOM     60  C   UNL A   1      41.672  31.899  35.239  1.00  0.00     0.064 A 
ATOM     61  C   UNL A   1      42.505  33.015  35.393  1.00  0.00     0.173 A 
ATOM     62  C   UNL A   1      40.659  31.702  36.191  1.00  0.00     0.173 A 
ATOM     63  F   UNL A   1      43.503  33.231  34.524  1.00  0.00    -0.203 F 
ATOM     64  C   UNL A   1      42.339  33.892  36.463  1.00  0.00     0.198 A 
ATOM     65  C   UNL A   1      40.474  32.599  37.241  1.00  0.00     0.198 A 
ATOM     66  F   UNL A   1      39.836  30.649  36.090  1.00  0.00    -0.203 F 
ATOM     67  F   UNL A   1      43.177  34.927  36.612  1.00  0.00    -0.200 F 
ATOM     68  C   UNL A   1      41.319  33.689  37.380  1.00  0.00     0.200 A 
ATOM     69  F   UNL A   1      39.476  32.408  38.113  1.00  0.00    -0.200 F 
ATOM     70  F   UNL A   1      41.154  34.540  38.402  1.00  0.00    -0.200 F 
ENDBRANCH  36  60
BRANCH  48  71
ATOM     71  C   UNL A   1      46.105  26.684  33.996  1.00  0.00     0.064 A 
ATOM     72  C   UNL A   1      47.410  27.172  33.835  1.00  0.00     0.173 A 
ATOM     73  C   UNL A   1      45.898  25.656  34.929  1.00  0.00     0.173 A 
ATOM     74  F   UNL A   1      47.662  28.140  32.941  1.00  0.00    -0.203 F 
ATOM     75  C   UNL A   1      48.471  26.629  34.555  1.00  0.00     0.198 A 
ATOM     76  C   UNL A   1      46.956  25.137  35.669  1.00  0.00     0.198 A 
ATOM     77  F   UNL A   1      44.668  25.158  35.124  1.00  0.00    -0.203 F 
ATOM     78  F   UNL A   1      49.718  27.071  34.343  1.00  0.00    -0.200 F 
ATOM     79  C   UNL A   1      48.243  25.616  35.474  1.00  0.00     0.200 A 
ATOM     80  F   UNL A   1      46.732  24.165  36.565  1.00  0.00    -0.200 F 
ATOM     81  F   UNL A   1      49.265  25.094  36.165  1.00  0.00    -0.200 F 
ENDBRANCH  48  71
ENDBRANCH  22  23
ENDBRANCH  15  17
ENDBRANCH  14  15
ENDBRANCH   1  14
TORSDOF 12
ENDMDL
MODEL 3
REMARK VINA RESULT:     -10.7      1.384      2.556
REMARK SMILES CC1([C@@]2(C)C[C@@H]2C(=O)OCCOC(=O)c2ccc(-c3c4nc(c(-c5c(F)c(F)c(F)c(F)c5F)c5ccc([nH]5)c(-c5c(F)c(F)c(F)c(F)c5F)c5nc(c(-c6c(F)c(F)c(F)c(F)c6F)c6ccc3[nH]6)C=C5)C=C4)cc2)CC1
REMARK SMILES IDX 11 1 10 2 9 3 7 4 8 5 6 6 3 7 4 8 5 9 2 10 1 11 78 12 79 13
REMARK SMILES IDX 12 14 13 15 14 16 15 17 16 18 77 19 17 20 76 21 18 22 19 23
REMARK SMILES IDX 20 24 70 25 21 26 75 27 69 28 71 29 22 30 74 31 68 32 67 33
REMARK SMILES IDX 23 35 55 36 35 37 54 38 36 39 39 40 53 41 72 42 37 43 38 44
REMARK SMILES IDX 52 46 73 47 40 48 24 49 25 50 33 51 26 52 27 53 31 54 34 55
REMARK SMILES IDX 28 56 29 57 32 58 30 59 56 60 57 61 65 62 58 63 59 64 63 65
REMARK SMILES IDX 66 66 60 67 61 68 64 69 62 70 41 71 42 72 50 73 43 74 44 75
REMARK SMILES IDX 48 76 51 77 45 78 46 79 49 80 47 81
REMARK H PARENT 71 34 39 45
REMARK Flexibility Score: inf
ROOT
ATOM      1  C   UNL A   1      31.807  30.403  26.755  1.00  0.00     0.275 C 
ENDROOT
BRANCH   1   2
ATOM      2  C   UNL A   1      31.795  28.911  27.077  1.00  0.00     0.274 C 
BRANCH   2   3
ATOM      3  O   UNL A   1      31.045  28.170  26.093  1.00  0.00    -0.462 OA
BRANCH   3   4
ATOM      4  C   UNL A   1      31.567  28.171  24.839  1.00  0.00     0.309 C 
ATOM      5  O   UNL A   1      32.690  27.801  24.524  1.00  0.00    -0.252 OA
BRANCH   4   6
ATOM      6  C   UNL A   1      30.671  28.793  23.842  1.00  0.00     0.106 C 
ATOM      7  C   UNL A   1      29.418  28.146  23.239  1.00  0.00    -0.013 C 
ATOM      8  C   UNL A   1      29.064  26.721  23.601  1.00  0.00     0.013 C 
ATOM      9  C   UNL A   1      30.679  28.324  22.412  1.00  0.00     0.024 C 
BRANCH   7  10
ATOM     10  C   UNL A   1      28.170  29.061  23.046  1.00  0.00    -0.026 C 
ATOM     11  C   UNL A   1      26.881  28.427  23.519  1.00  0.00     0.012 C 
ATOM     12  C   UNL A   1      28.065  29.955  21.821  1.00  0.00     0.008 C 
ATOM     13  C   UNL A   1      28.264  30.574  23.169  1.00  0.00     0.008 C 
ENDBRANCH   7  10
ENDBRANCH   4   6
ENDBRANCH   3   4
ENDBRANCH   2   3
ENDBRANCH   1   2
BRANCH   1  14
ATOM     14  O   UNL A   1      33.156  30.822  26.498  1.00  0.00    -0.458 OA
BRANCH  14  15
ATOM     15  C   UNL A   1      33.620  31.826  27.277  1.00  0.00     0.338 C 
ATOM     16  O   UNL A   1      33.086  32.900  27.497  1.00  0.00    -0.246 OA
BRANCH  15  17
ATOM     17  C   UNL A   1      34.905  31.432  27.890  1.00  0.00     0.060 A 
ATOM     18  C   UNL A   1      35.098  30.132  28.359  1.00  0.00     0.016 A 
ATOM     19  C   UNL A   1      35.881  32.401  28.119  1.00  0.00     0.016 A 
ATOM     20  C   UNL A   1      36.213  29.822  29.134  1.00  0.00     0.010 A 
ATOM     21  C   UNL A   1      37.055  32.057  28.797  1.00  0.00     0.010 A 
ATOM     22  C   UNL A   1      37.223  30.771  29.338  1.00  0.00    -0.014 A 
BRANCH  22  23
ATOM     23  C   UNL A   1      38.452  30.419  30.106  1.00  0.00     0.031 A 
ATOM     24  C   UNL A   1      39.500  29.521  29.505  1.00  0.00     0.074 A 
ATOM     25  C   UNL A   1      38.622  30.891  31.358  1.00  0.00     0.049 A 
ATOM     26  N   UNL A   1      40.522  28.939  30.079  1.00  0.00    -0.248 NA
ATOM     27  C   UNL A   1      39.374  29.226  28.069  1.00  0.00     0.031 C 
ATOM     28  C   UNL A   1      37.707  31.797  32.055  1.00  0.00     0.029 A 
ATOM     29  N   UNL A   1      39.623  30.669  32.271  1.00  0.00    -0.354 N 
ATOM     30  C   UNL A   1      41.124  28.166  29.095  1.00  0.00     0.074 A 
ATOM     31  C   UNL A   1      40.353  28.351  27.883  1.00  0.00     0.031 C 
ATOM     32  C   UNL A   1      38.203  32.081  33.268  1.00  0.00     0.029 A 
ATOM     33  C   UNL A   1      39.417  31.300  33.473  1.00  0.00     0.049 A 
ATOM     34  H   UNL A   1      40.413  30.113  32.082  1.00  0.00     0.167 HD
ATOM     35  C   UNL A   1      42.219  27.373  29.195  1.00  0.00     0.037 A 
ATOM     36  C   UNL A   1      40.094  31.223  34.635  1.00  0.00     0.037 A 
ATOM     37  C   UNL A   1      43.015  27.234  30.389  1.00  0.00     0.049 A 
ATOM     38  C   UNL A   1      41.285  30.314  34.728  1.00  0.00     0.074 A 
ATOM     39  C   UNL A   1      44.160  26.478  30.582  1.00  0.00     0.029 A 
ATOM     40  N   UNL A   1      42.756  27.876  31.591  1.00  0.00    -0.354 N 
ATOM     41  N   UNL A   1      41.820  29.554  33.805  1.00  0.00    -0.248 NA
ATOM     42  C   UNL A   1      41.956  30.239  36.033  1.00  0.00     0.031 C 
ATOM     43  C   UNL A   1      44.569  26.631  31.910  1.00  0.00     0.029 A 
ATOM     44  C   UNL A   1      43.710  27.520  32.534  1.00  0.00     0.049 A 
ATOM     45  H   UNL A   1      42.006  28.494  31.752  1.00  0.00     0.167 HD
ATOM     46  C   UNL A   1      42.894  28.919  34.411  1.00  0.00     0.074 A 
ATOM     47  C   UNL A   1      42.951  29.404  35.775  1.00  0.00     0.031 C 
ATOM     48  C   UNL A   1      43.751  28.008  33.887  1.00  0.00     0.037 A 
BRANCH  35  49
ATOM     49  C   UNL A   1      42.613  26.563  27.993  1.00  0.00     0.064 A 
ATOM     50  C   UNL A   1      42.068  25.298  27.735  1.00  0.00     0.173 A 
ATOM     51  C   UNL A   1      43.514  27.091  27.054  1.00  0.00     0.173 A 
ATOM     52  F   UNL A   1      41.212  24.742  28.607  1.00  0.00    -0.203 F 
ATOM     53  C   UNL A   1      42.424  24.582  26.593  1.00  0.00     0.198 A 
ATOM     54  C   UNL A   1      43.845  26.386  25.900  1.00  0.00     0.198 A 
ATOM     55  F   UNL A   1      44.060  28.301  27.248  1.00  0.00    -0.203 F 
ATOM     56  F   UNL A   1      41.919  23.358  26.388  1.00  0.00    -0.200 F 
ATOM     57  C   UNL A   1      43.305  25.130  25.673  1.00  0.00     0.200 A 
ATOM     58  F   UNL A   1      44.685  26.925  25.005  1.00  0.00    -0.200 F 
ATOM     59  F   UNL A   1      43.636  24.447  24.569  1.00  0.00    -0.200 F 
ENDBRANCH  35  49
BRANCH  36  60
ATOM     60  C   UNL A   1      39.627  31.997  35.815  1.00  0.00     0.064 A 
ATOM     61  C   UNL A   1      38.592  31.515  36.629  1.00  0.00     0.173 A 
ATOM     62  C   UNL A   1      40.207  33.228  36.155  1.00  0.00     0.173 A 
ATOM     63  F   UNL A   1      37.989  30.356  36.330  1.00  0.00    -0.203 F 
ATOM     64  C   UNL A   1      38.150  32.242  37.732  1.00  0.00     0.198 A 
ATOM     65  C   UNL A   1      39.786  33.938  37.278  1.00  0.00     0.198 A 
ATOM     66  F   UNL A   1      41.199  33.734  35.408  1.00  0.00    -0.203 F 
ATOM     67  F   UNL A   1      37.129  31.781  38.468  1.00  0.00    -0.200 F 
ATOM     68  C   UNL A   1      38.752  33.448  38.060  1.00  0.00     0.200 A 
ATOM     69  F   UNL A   1      40.382  35.092  37.600  1.00  0.00    -0.200 F 
ATOM     70  F   UNL A   1      38.332  34.141  39.128  1.00  0.00    -0.200 F 
ENDBRANCH  36  60
BRANCH  48  71
ATOM     71  C   UNL A   1      44.837  27.502  34.790  1.00  0.00     0.064 A 
ATOM     72  C   UNL A   1      46.076  28.152  34.887  1.00  0.00     0.173 A 
ATOM     73  C   UNL A   1      44.633  26.355  35.572  1.00  0.00     0.173 A 
ATOM     74  F   UNL A   1      46.325  29.241  34.145  1.00  0.00    -0.203 F 
ATOM     75  C   UNL A   1      47.082  27.654  35.711  1.00  0.00     0.198 A 
ATOM     76  C   UNL A   1      45.631  25.877  36.417  1.00  0.00     0.198 A 
ATOM     77  F   UNL A   1      43.464  25.699  35.519  1.00  0.00    -0.203 F 
ATOM     78  F   UNL A   1      48.277  28.259  35.744  1.00  0.00    -0.200 F 
ATOM     79  C   UNL A   1      46.858  26.521  36.477  1.00  0.00     0.200 A 
ATOM     80  F   UNL A   1      45.409  24.788  37.165  1.00  0.00    -0.200 F 
ATOM     81  F   UNL A   1      47.828  26.043  37.268  1.00  0.00    -0.200 F 
ENDBRANCH  48  71
ENDBRANCH  22  23
ENDBRANCH  15  17
ENDBRANCH  14  15
ENDBRANCH   1  14
TORSDOF 12
ENDMDL
