MODEL 1
REMARK VINA RESULT:     -11.1      0.000      0.000
REMARK SMILES O=C(CNc1nc(-c2ccccc2)c(-c2ccccc2)s1)OCCOC(=O)c1ccc(-c2c3nc(c(-c4c(F)c(F)c(F)c(F)c4F)c4ccc([nH]4)c(-c4c(F)c(F)c(F)c(F)c4F)c4nc(c(-c5c(F)c(F)c(F)c(F)c5F)c5ccc2[nH]5)C=C4)C=C3)cc1
REMARK SMILES IDX 23 1 22 2 2 3 1 4 3 5 4 6 5 8 6 9 21 10 7 11 14 12 8 13 9 14
REMARK SMILES IDX 13 15 10 16 12 17 11 18 15 19 16 20 20 21 17 22 19 23 18 24
REMARK SMILES IDX 24 25 25 26 26 27 27 28 28 29 29 30 90 31 30 32 89 33 31 34
REMARK SMILES IDX 32 35 33 36 83 37 34 38 88 39 82 40 84 41 35 42 87 43 81 44
REMARK SMILES IDX 80 45 36 47 68 48 48 49 67 50 49 51 52 52 66 53 85 54 50 55
REMARK SMILES IDX 51 56 65 58 86 59 53 60 37 61 38 62 46 63 39 64 40 65 44 66
REMARK SMILES IDX 47 67 41 68 42 69 45 70 43 71 69 72 70 73 78 74 71 75 72 76
REMARK SMILES IDX 76 77 79 78 73 79 74 80 77 81 75 82 54 83 55 84 63 85 56 86
REMARK SMILES IDX 57 87 61 88 64 89 58 90 59 91 62 92 60 93
REMARK H PARENT 4 7 84 46 52 57
REMARK Flexibility Score: inf
ROOT
ATOM      1  C   UNL A   1      40.995  19.718  26.301  1.00  0.00     0.274 C 
ENDROOT
BRANCH   1   2
ATOM      2  O   UNL A   1      41.936  19.086  25.406  1.00  0.00    -0.461 OA
BRANCH   2   3
ATOM      3  C   UNL A   1      43.105  18.497  25.758  1.00  0.00     0.325 C 
ATOM      4  O   UNL A   1      43.121  17.673  26.675  1.00  0.00    -0.250 OA
BRANCH   3   5
ATOM      5  C   UNL A   1      44.389  18.855  25.020  1.00  0.00     0.238 C 
BRANCH   5   6
ATOM      6  N   UNL A   1      44.284  20.109  24.297  1.00  0.00    -0.351 N 
ATOM      7  H   UNL A   1      44.002  20.108  23.354  1.00  0.00     0.163 HD
BRANCH   6   8
ATOM      8  C   UNL A   1      44.569  21.274  24.909  1.00  0.00     0.184 A 
ATOM      9  N   UNL A   1      44.328  21.544  26.171  1.00  0.00    -0.220 NA
ATOM     10  S   UNL A   1      45.191  22.579  23.988  1.00  0.00    -0.096 S 
ATOM     11  C   UNL A   1      44.591  22.880  26.435  1.00  0.00     0.091 A 
ATOM     12  C   UNL A   1      45.020  23.620  25.344  1.00  0.00     0.064 A 
BRANCH  11  13
ATOM     13  C   UNL A   1      44.451  23.421  27.781  1.00  0.00     0.002 A 
ATOM     14  C   UNL A   1      45.514  24.070  28.424  1.00  0.00     0.010 A 
ATOM     15  C   UNL A   1      43.246  23.237  28.471  1.00  0.00     0.010 A 
ATOM     16  C   UNL A   1      45.388  24.484  29.752  1.00  0.00     0.001 A 
ATOM     17  C   UNL A   1      43.124  23.648  29.801  1.00  0.00     0.001 A 
ATOM     18  C   UNL A   1      44.198  24.263  30.443  1.00  0.00     0.000 A 
ENDBRANCH  11  13
BRANCH  12  19
ATOM     19  C   UNL A   1      45.377  25.027  25.202  1.00  0.00    -0.006 A 
ATOM     20  C   UNL A   1      44.387  26.018  25.264  1.00  0.00     0.009 A 
ATOM     21  C   UNL A   1      46.711  25.402  25.006  1.00  0.00     0.009 A 
ATOM     22  C   UNL A   1      44.727  27.363  25.114  1.00  0.00     0.001 A 
ATOM     23  C   UNL A   1      47.048  26.747  24.854  1.00  0.00     0.001 A 
ATOM     24  C   UNL A   1      46.056  27.726  24.904  1.00  0.00     0.000 A 
ENDBRANCH  12  19
ENDBRANCH   6   8
ENDBRANCH   5   6
ENDBRANCH   3   5
ENDBRANCH   2   3
ENDBRANCH   1   2
BRANCH   1  25
ATOM     25  C   UNL A   1      40.963  21.236  26.138  1.00  0.00     0.275 C 
BRANCH  25  26
ATOM     26  O   UNL A   1      40.012  21.812  27.047  1.00  0.00    -0.458 OA
BRANCH  26  27
ATOM     27  C   UNL A   1      39.145  22.696  26.499  1.00  0.00     0.338 C 
ATOM     28  O   UNL A   1      38.168  22.440  25.818  1.00  0.00    -0.246 OA
BRANCH  27  29
ATOM     29  C   UNL A   1      39.445  24.046  27.021  1.00  0.00     0.060 A 
ATOM     30  C   UNL A   1      40.092  24.948  26.166  1.00  0.00     0.016 A 
ATOM     31  C   UNL A   1      39.069  24.443  28.308  1.00  0.00     0.016 A 
ATOM     32  C   UNL A   1      40.388  26.237  26.606  1.00  0.00     0.010 A 
ATOM     33  C   UNL A   1      39.370  25.735  28.749  1.00  0.00     0.010 A 
ATOM     34  C   UNL A   1      40.050  26.631  27.908  1.00  0.00    -0.014 A 
BRANCH  34  35
ATOM     35  C   UNL A   1      40.502  27.943  28.427  1.00  0.00     0.031 A 
ATOM     36  C   UNL A   1      41.968  28.174  28.652  1.00  0.00     0.074 A 
ATOM     37  C   UNL A   1      39.616  28.919  28.691  1.00  0.00     0.049 A 
ATOM     38  N   UNL A   1      42.582  29.241  29.095  1.00  0.00    -0.248 NA
ATOM     39  C   UNL A   1      42.864  27.049  28.338  1.00  0.00     0.031 C 
ATOM     40  C   UNL A   1      38.169  28.821  28.506  1.00  0.00     0.029 A 
ATOM     41  N   UNL A   1      39.809  30.187  29.181  1.00  0.00    -0.354 N 
ATOM     42  C   UNL A   1      43.933  28.921  29.104  1.00  0.00     0.074 A 
ATOM     43  C   UNL A   1      44.049  27.550  28.657  1.00  0.00     0.031 C 
ATOM     44  C   UNL A   1      37.603  29.979  28.890  1.00  0.00     0.029 A 
ATOM     45  C   UNL A   1      38.645  30.890  29.363  1.00  0.00     0.049 A 
ATOM     46  H   UNL A   1      40.699  30.557  29.384  1.00  0.00     0.167 HD
ATOM     47  C   UNL A   1      44.982  29.707  29.442  1.00  0.00     0.037 A 
ATOM     48  C   UNL A   1      38.445  32.123  29.867  1.00  0.00     0.037 A 
ATOM     49  C   UNL A   1      44.872  31.067  29.894  1.00  0.00     0.049 A 
ATOM     50  C   UNL A   1      39.629  32.952  30.297  1.00  0.00     0.074 A 
ATOM     51  C   UNL A   1      45.883  31.950  30.229  1.00  0.00     0.029 A 
ATOM     52  N   UNL A   1      43.674  31.739  30.084  1.00  0.00    -0.354 N 
ATOM     53  N   UNL A   1      40.906  32.664  30.243  1.00  0.00    -0.248 NA
ATOM     54  C   UNL A   1      39.339  34.283  30.852  1.00  0.00     0.031 C 
ATOM     55  C   UNL A   1      45.297  33.142  30.666  1.00  0.00     0.029 A 
ATOM     56  C   UNL A   1      43.921  33.017  30.561  1.00  0.00     0.049 A 
ATOM     57  H   UNL A   1      42.781  31.364  29.909  1.00  0.00     0.167 HD
ATOM     58  C   UNL A   1      41.571  33.784  30.725  1.00  0.00     0.074 A 
ATOM     59  C   UNL A   1      40.558  34.762  31.059  1.00  0.00     0.031 C 
ATOM     60  C   UNL A   1      42.903  33.985  30.876  1.00  0.00     0.037 A 
BRANCH  47  61
ATOM     61  C   UNL A   1      46.352  29.106  29.343  1.00  0.00     0.064 A 
ATOM     62  C   UNL A   1      46.897  28.355  30.395  1.00  0.00     0.173 A 
ATOM     63  C   UNL A   1      47.106  29.241  28.169  1.00  0.00     0.173 A 
ATOM     64  F   UNL A   1      46.218  28.208  31.543  1.00  0.00    -0.203 F 
ATOM     65  C   UNL A   1      48.157  27.774  30.280  1.00  0.00     0.198 A 
ATOM     66  C   UNL A   1      48.356  28.640  28.049  1.00  0.00     0.198 A 
ATOM     67  F   UNL A   1      46.626  29.948  27.134  1.00  0.00    -0.203 F 
ATOM     68  F   UNL A   1      48.673  27.088  31.309  1.00  0.00    -0.200 F 
ATOM     69  C   UNL A   1      48.882  27.911  29.105  1.00  0.00     0.200 A 
ATOM     70  F   UNL A   1      49.051  28.765  26.910  1.00  0.00    -0.200 F 
ATOM     71  F   UNL A   1      50.090  27.344  28.993  1.00  0.00    -0.200 F 
ENDBRANCH  47  61
BRANCH  48  72
ATOM     72  C   UNL A   1      37.067  32.659  30.001  1.00  0.00     0.064 A 
ATOM     73  C   UNL A   1      36.503  33.460  28.998  1.00  0.00     0.173 A 
ATOM     74  C   UNL A   1      36.304  32.420  31.153  1.00  0.00     0.173 A 
ATOM     75  F   UNL A   1      37.206  33.740  27.892  1.00  0.00    -0.203 F 
ATOM     76  C   UNL A   1      35.236  34.019  29.153  1.00  0.00     0.198 A 
ATOM     77  C   UNL A   1      35.028  32.958  31.295  1.00  0.00     0.198 A 
ATOM     78  F   UNL A   1      36.802  31.666  32.145  1.00  0.00    -0.203 F 
ATOM     79  F   UNL A   1      34.741  34.824  28.203  1.00  0.00    -0.200 F 
ATOM     80  C   UNL A   1      34.498  33.765  30.299  1.00  0.00     0.200 A 
ATOM     81  F   UNL A   1      34.316  32.707  32.402  1.00  0.00    -0.200 F 
ATOM     82  F   UNL A   1      33.284  34.310  30.451  1.00  0.00    -0.200 F 
ENDBRANCH  48  72
BRANCH  60  83
ATOM     83  C   UNL A   1      43.349  35.322  31.392  1.00  0.00     0.064 A 
ATOM     84  C   UNL A   1      43.705  36.364  30.523  1.00  0.00     0.173 A 
ATOM     85  C   UNL A   1      43.375  35.578  32.772  1.00  0.00     0.173 A 
ATOM     86  F   UNL A   1      43.710  36.163  29.196  1.00  0.00    -0.203 F 
ATOM     87  C   UNL A   1      44.088  37.608  31.016  1.00  0.00     0.198 A 
ATOM     88  C   UNL A   1      43.733  36.832  33.260  1.00  0.00     0.198 A 
ATOM     89  F   UNL A   1      43.037  34.618  33.644  1.00  0.00    -0.203 F 
ATOM     90  F   UNL A   1      44.462  38.576  30.169  1.00  0.00    -0.200 F 
ATOM     91  C   UNL A   1      44.095  37.843  32.384  1.00  0.00     0.200 A 
ATOM     92  F   UNL A   1      43.728  37.060  34.581  1.00  0.00    -0.200 F 
ATOM     93  F   UNL A   1      44.456  39.044  32.856  1.00  0.00    -0.200 F 
ENDBRANCH  60  83
ENDBRANCH  34  35
ENDBRANCH  27  29
ENDBRANCH  26  27
ENDBRANCH  25  26
ENDBRANCH   1  25
TORSDOF 15
ENDMDL
MODEL 2
REMARK VINA RESULT:     -10.6      4.653     11.442
REMARK SMILES O=C(CNc1nc(-c2ccccc2)c(-c2ccccc2)s1)OCCOC(=O)c1ccc(-c2c3nc(c(-c4c(F)c(F)c(F)c(F)c4F)c4ccc([nH]4)c(-c4c(F)c(F)c(F)c(F)c4F)c4nc(c(-c5c(F)c(F)c(F)c(F)c5F)c5ccc2[nH]5)C=C4)C=C3)cc1
REMARK SMILES IDX 23 1 22 2 2 3 1 4 3 5 4 6 5 8 6 9 21 10 7 11 14 12 8 13 9 14
REMARK SMILES IDX 13 15 10 16 12 17 11 18 15 19 16 20 20 21 17 22 19 23 18 24
REMARK SMILES IDX 24 25 25 26 26 27 27 28 28 29 29 30 90 31 30 32 89 33 31 34
REMARK SMILES IDX 32 35 33 36 83 37 34 38 88 39 82 40 84 41 35 42 87 43 81 44
REMARK SMILES IDX 80 45 36 47 68 48 48 49 67 50 49 51 52 52 66 53 85 54 50 55
REMARK SMILES IDX 51 56 65 58 86 59 53 60 37 61 38 62 46 63 39 64 40 65 44 66
REMARK SMILES IDX 47 67 41 68 42 69 45 70 43 71 69 72 70 73 78 74 71 75 72 76
REMARK SMILES IDX 76 77 79 78 73 79 74 80 77 81 75 82 54 83 55 84 63 85 56 86
REMARK SMILES IDX 57 87 61 88 64 89 58 90 59 91 62 92 60 93
REMARK H PARENT 4 7 84 46 52 57
REMARK Flexibility Score: inf
ROOT
ATOM      1  C   UNL A   1      33.892  34.152  27.968  1.00  0.00     0.274 C 
ENDROOT
BRANCH   1   2
ATOM      2  O   UNL A   1      33.052  34.411  29.115  1.00  0.00    -0.461 OA
BRANCH   2   3
ATOM      3  C   UNL A   1      32.713  35.630  29.600  1.00  0.00     0.325 C 
ATOM      4  O   UNL A   1      32.189  36.459  28.854  1.00  0.00    -0.250 OA
BRANCH   3   5
ATOM      5  C   UNL A   1      32.979  35.969  31.061  1.00  0.00     0.238 C 
BRANCH   5   6
ATOM      6  N   UNL A   1      33.213  34.787  31.872  1.00  0.00    -0.351 N 
ATOM      7  H   UNL A   1      32.449  34.279  32.228  1.00  0.00     0.163 HD
BRANCH   6   8
ATOM      8  C   UNL A   1      34.469  34.382  32.138  1.00  0.00     0.184 A 
ATOM      9  N   UNL A   1      35.525  34.662  31.409  1.00  0.00    -0.220 NA
ATOM     10  S   UNL A   1      34.751  33.321  33.455  1.00  0.00    -0.096 S 
ATOM     11  C   UNL A   1      36.627  33.959  31.870  1.00  0.00     0.091 A 
ATOM     12  C   UNL A   1      36.382  33.126  32.951  1.00  0.00     0.064 A 
BRANCH  11  13
ATOM     13  C   UNL A   1      37.939  34.135  31.260  1.00  0.00     0.002 A 
ATOM     14  C   UNL A   1      39.062  34.479  32.025  1.00  0.00     0.010 A 
ATOM     15  C   UNL A   1      38.070  34.015  29.870  1.00  0.00     0.010 A 
ATOM     16  C   UNL A   1      40.284  34.746  31.403  1.00  0.00     0.001 A 
ATOM     17  C   UNL A   1      39.292  34.288  29.251  1.00  0.00     0.001 A 
ATOM     18  C   UNL A   1      40.396  34.662  30.016  1.00  0.00     0.000 A 
ENDBRANCH  11  13
BRANCH  12  19
ATOM     19  C   UNL A   1      37.249  32.226  33.704  1.00  0.00    -0.006 A 
ATOM     20  C   UNL A   1      37.897  32.675  34.864  1.00  0.00     0.009 A 
ATOM     21  C   UNL A   1      37.439  30.907  33.280  1.00  0.00     0.009 A 
ATOM     22  C   UNL A   1      38.738  31.820  35.576  1.00  0.00     0.001 A 
ATOM     23  C   UNL A   1      38.282  30.054  33.992  1.00  0.00     0.001 A 
ATOM     24  C   UNL A   1      38.934  30.512  35.137  1.00  0.00     0.000 A 
ENDBRANCH  12  19
ENDBRANCH   6   8
ENDBRANCH   5   6
ENDBRANCH   3   5
ENDBRANCH   2   3
ENDBRANCH   1   2
BRANCH   1  25
ATOM     25  C   UNL A   1      34.959  33.097  28.252  1.00  0.00     0.275 C 
BRANCH  25  26
ATOM     26  O   UNL A   1      34.350  31.904  28.769  1.00  0.00    -0.458 OA
BRANCH  26  27
ATOM     27  C   UNL A   1      34.554  30.783  28.037  1.00  0.00     0.338 C 
ATOM     28  O   UNL A   1      33.847  30.352  27.143  1.00  0.00    -0.246 OA
BRANCH  27  29
ATOM     29  C   UNL A   1      35.894  30.244  28.350  1.00  0.00     0.060 A 
ATOM     30  C   UNL A   1      36.095  29.692  29.621  1.00  0.00     0.016 A 
ATOM     31  C   UNL A   1      36.929  30.240  27.409  1.00  0.00     0.016 A 
ATOM     32  C   UNL A   1      37.339  29.161  29.963  1.00  0.00     0.010 A 
ATOM     33  C   UNL A   1      38.176  29.711  27.754  1.00  0.00     0.010 A 
ATOM     34  C   UNL A   1      38.393  29.188  29.039  1.00  0.00    -0.014 A 
BRANCH  34  35
ATOM     35  C   UNL A   1      39.752  28.768  29.453  1.00  0.00     0.031 A 
ATOM     36  C   UNL A   1      40.533  29.642  30.391  1.00  0.00     0.074 A 
ATOM     37  C   UNL A   1      40.282  27.618  29.001  1.00  0.00     0.049 A 
ATOM     38  N   UNL A   1      41.733  29.468  30.883  1.00  0.00    -0.248 NA
ATOM     39  C   UNL A   1      39.874  30.882  30.833  1.00  0.00     0.031 C 
ATOM     40  C   UNL A   1      39.622  26.681  28.095  1.00  0.00     0.029 A 
ATOM     41  N   UNL A   1      41.509  27.051  29.240  1.00  0.00    -0.354 N 
ATOM     42  C   UNL A   1      41.969  30.567  31.698  1.00  0.00     0.074 A 
ATOM     43  C   UNL A   1      40.805  31.421  31.608  1.00  0.00     0.031 C 
ATOM     44  C   UNL A   1      40.458  25.657  27.846  1.00  0.00     0.029 A 
ATOM     45  C   UNL A   1      41.715  25.877  28.559  1.00  0.00     0.049 A 
ATOM     46  H   UNL A   1      42.179  27.447  29.844  1.00  0.00     0.167 HD
ATOM     47  C   UNL A   1      43.054  30.831  32.462  1.00  0.00     0.037 A 
ATOM     48  C   UNL A   1      42.801  25.081  28.509  1.00  0.00     0.037 A 
ATOM     49  C   UNL A   1      44.216  29.990  32.549  1.00  0.00     0.049 A 
ATOM     50  C   UNL A   1      44.020  25.435  29.321  1.00  0.00     0.074 A 
ATOM     51  C   UNL A   1      45.351  30.162  33.322  1.00  0.00     0.029 A 
ATOM     52  N   UNL A   1      44.397  28.819  31.829  1.00  0.00    -0.354 N 
ATOM     53  N   UNL A   1      44.211  26.443  30.136  1.00  0.00    -0.248 NA
ATOM     54  C   UNL A   1      45.176  24.532  29.208  1.00  0.00     0.031 C 
ATOM     55  C   UNL A   1      46.239  29.120  33.036  1.00  0.00     0.029 A 
ATOM     56  C   UNL A   1      45.638  28.274  32.118  1.00  0.00     0.049 A 
ATOM     57  H   UNL A   1      43.742  28.432  31.204  1.00  0.00     0.167 HD
ATOM     58  C   UNL A   1      45.488  26.280  30.656  1.00  0.00     0.074 A 
ATOM     59  C   UNL A   1      46.027  25.070  30.072  1.00  0.00     0.031 C 
ATOM     60  C   UNL A   1      46.155  27.062  31.539  1.00  0.00     0.037 A 
BRANCH  47  61
ATOM     61  C   UNL A   1      43.039  32.097  33.265  1.00  0.00     0.064 A 
ATOM     62  C   UNL A   1      42.624  32.107  34.605  1.00  0.00     0.173 A 
ATOM     63  C   UNL A   1      43.489  33.301  32.704  1.00  0.00     0.173 A 
ATOM     64  F   UNL A   1      42.174  30.982  35.181  1.00  0.00    -0.203 F 
ATOM     65  C   UNL A   1      42.646  33.282  35.351  1.00  0.00     0.198 A 
ATOM     66  C   UNL A   1      43.530  34.469  33.460  1.00  0.00     0.198 A 
ATOM     67  F   UNL A   1      43.898  33.341  31.427  1.00  0.00    -0.203 F 
ATOM     68  F   UNL A   1      42.214  33.277  36.619  1.00  0.00    -0.200 F 
ATOM     69  C   UNL A   1      43.104  34.460  34.780  1.00  0.00     0.200 A 
ATOM     70  F   UNL A   1      43.983  35.604  32.910  1.00  0.00    -0.200 F 
ATOM     71  F   UNL A   1      43.133  35.589  35.502  1.00  0.00    -0.200 F 
ENDBRANCH  47  61
BRANCH  48  72
ATOM     72  C   UNL A   1      42.795  23.866  27.656  1.00  0.00     0.064 A 
ATOM     73  C   UNL A   1      43.158  23.931  26.303  1.00  0.00     0.173 A 
ATOM     74  C   UNL A   1      42.385  22.625  28.164  1.00  0.00     0.173 A 
ATOM     75  F   UNL A   1      43.528  25.103  25.766  1.00  0.00    -0.203 F 
ATOM     76  C   UNL A   1      43.088  22.806  25.486  1.00  0.00     0.198 A 
ATOM     77  C   UNL A   1      42.340  21.495  27.351  1.00  0.00     0.198 A 
ATOM     78  F   UNL A   1      42.022  22.512  29.450  1.00  0.00    -0.203 F 
ATOM     79  F   UNL A   1      43.389  22.907  24.183  1.00  0.00    -0.200 F 
ATOM     80  C   UNL A   1      42.682  21.588  26.011  1.00  0.00     0.200 A 
ATOM     81  F   UNL A   1      41.952  20.319  27.863  1.00  0.00    -0.200 F 
ATOM     82  F   UNL A   1      42.607  20.508  25.221  1.00  0.00    -0.200 F 
ENDBRANCH  48  72
BRANCH  60  83
ATOM     83  C   UNL A   1      47.527  26.619  31.959  1.00  0.00     0.064 A 
ATOM     84  C   UNL A   1      47.718  25.731  33.027  1.00  0.00     0.173 A 
ATOM     85  C   UNL A   1      48.660  27.053  31.253  1.00  0.00     0.173 A 
ATOM     86  F   UNL A   1      46.667  25.299  33.742  1.00  0.00    -0.203 F 
ATOM     87  C   UNL A   1      48.995  25.307  33.386  1.00  0.00     0.198 A 
ATOM     88  C   UNL A   1      49.932  26.606  31.598  1.00  0.00     0.198 A 
ATOM     89  F   UNL A   1      48.531  27.897  30.220  1.00  0.00    -0.203 F 
ATOM     90  F   UNL A   1      49.157  24.490  34.435  1.00  0.00    -0.200 F 
ATOM     91  C   UNL A   1      50.100  25.739  32.667  1.00  0.00     0.200 A 
ATOM     92  F   UNL A   1      50.997  27.015  30.895  1.00  0.00    -0.200 F 
ATOM     93  F   UNL A   1      51.327  25.323  33.009  1.00  0.00    -0.200 F 
ENDBRANCH  60  83
ENDBRANCH  34  35
ENDBRANCH  27  29
ENDBRANCH  26  27
ENDBRANCH  25  26
ENDBRANCH   1  25
TORSDOF 15
ENDMDL
MODEL 3
REMARK VINA RESULT:     -10.4      0.474      7.194
REMARK SMILES O=C(CNc1nc(-c2ccccc2)c(-c2ccccc2)s1)OCCOC(=O)c1ccc(-c2c3nc(c(-c4c(F)c(F)c(F)c(F)c4F)c4ccc([nH]4)c(-c4c(F)c(F)c(F)c(F)c4F)c4nc(c(-c5c(F)c(F)c(F)c(F)c5F)c5ccc2[nH]5)C=C4)C=C3)cc1
REMARK SMILES IDX 23 1 22 2 2 3 1 4 3 5 4 6 5 8 6 9 21 10 7 11 14 12 8 13 9 14
REMARK SMILES IDX 13 15 10 16 12 17 11 18 15 19 16 20 20 21 17 22 19 23 18 24
REMARK SMILES IDX 24 25 25 26 26 27 27 28 28 29 29 30 90 31 30 32 89 33 31 34
REMARK SMILES IDX 32 35 33 36 83 37 34 38 88 39 82 40 84 41 35 42 87 43 81 44
REMARK SMILES IDX 80 45 36 47 68 48 48 49 67 50 49 51 52 52 66 53 85 54 50 55
REMARK SMILES IDX 51 56 65 58 86 59 53 60 37 61 38 62 46 63 39 64 40 65 44 66
REMARK SMILES IDX 47 67 41 68 42 69 45 70 43 71 69 72 70 73 78 74 71 75 72 76
REMARK SMILES IDX 76 77 79 78 73 79 74 80 77 81 75 82 54 83 55 84 63 85 56 86
REMARK SMILES IDX 57 87 61 88 64 89 58 90 59 91 62 92 60 93
REMARK H PARENT 4 7 84 46 52 57
REMARK Flexibility Score: inf
ROOT
ATOM      1  C   UNL A   1      41.194  19.779  26.725  1.00  0.00     0.274 C 
ENDROOT
BRANCH   1   2
ATOM      2  O   UNL A   1      41.920  19.040  25.719  1.00  0.00    -0.461 OA
BRANCH   2   3
ATOM      3  C   UNL A   1      43.146  18.480  25.865  1.00  0.00     0.325 C 
ATOM      4  O   UNL A   1      43.344  17.675  26.777  1.00  0.00    -0.250 OA
BRANCH   3   5
ATOM      5  C   UNL A   1      44.270  18.846  24.904  1.00  0.00     0.238 C 
BRANCH   5   6
ATOM      6  N   UNL A   1      44.055  20.131  24.262  1.00  0.00    -0.351 N 
ATOM      7  H   UNL A   1      43.625  20.170  23.377  1.00  0.00     0.163 HD
BRANCH   6   8
ATOM      8  C   UNL A   1      44.441  21.269  24.869  1.00  0.00     0.184 A 
ATOM      9  N   UNL A   1      44.173  21.590  26.114  1.00  0.00    -0.220 NA
ATOM     10  S   UNL A   1      45.250  22.477  23.961  1.00  0.00    -0.096 S 
ATOM     11  C   UNL A   1      44.574  22.893  26.370  1.00  0.00     0.091 A 
ATOM     12  C   UNL A   1      45.134  23.557  25.290  1.00  0.00     0.064 A 
BRANCH  11  13
ATOM     13  C   UNL A   1      44.432  23.473  27.700  1.00  0.00     0.002 A 
ATOM     14  C   UNL A   1      45.529  24.017  28.382  1.00  0.00     0.010 A 
ATOM     15  C   UNL A   1      43.184  23.436  28.335  1.00  0.00     0.010 A 
ATOM     16  C   UNL A   1      45.390  24.470  29.696  1.00  0.00     0.001 A 
ATOM     17  C   UNL A   1      43.048  23.885  29.651  1.00  0.00     0.001 A 
ATOM     18  C   UNL A   1      44.152  24.393  30.333  1.00  0.00     0.000 A 
ENDBRANCH  11  13
BRANCH  12  19
ATOM     19  C   UNL A   1      45.655  24.912  25.145  1.00  0.00    -0.006 A 
ATOM     20  C   UNL A   1      47.035  25.129  25.022  1.00  0.00     0.009 A 
ATOM     21  C   UNL A   1      44.785  26.007  25.123  1.00  0.00     0.009 A 
ATOM     22  C   UNL A   1      47.536  26.426  24.897  1.00  0.00     0.001 A 
ATOM     23  C   UNL A   1      45.287  27.303  25.001  1.00  0.00     0.001 A 
ATOM     24  C   UNL A   1      46.661  27.511  24.892  1.00  0.00     0.000 A 
ENDBRANCH  12  19
ENDBRANCH   6   8
ENDBRANCH   5   6
ENDBRANCH   3   5
ENDBRANCH   2   3
ENDBRANCH   1   2
BRANCH   1  25
ATOM     25  C   UNL A   1      40.108  20.670  26.125  1.00  0.00     0.275 C 
BRANCH  25  26
ATOM     26  O   UNL A   1      40.359  22.045  26.453  1.00  0.00    -0.458 OA
BRANCH  26  27
ATOM     27  C   UNL A   1      39.280  22.862  26.403  1.00  0.00     0.338 C 
ATOM     28  O   UNL A   1      38.136  22.549  26.127  1.00  0.00    -0.246 OA
BRANCH  27  29
ATOM     29  C   UNL A   1      39.658  24.187  26.937  1.00  0.00     0.060 A 
ATOM     30  C   UNL A   1      40.252  25.100  26.057  1.00  0.00     0.016 A 
ATOM     31  C   UNL A   1      39.402  24.552  28.263  1.00  0.00     0.016 A 
ATOM     32  C   UNL A   1      40.618  26.368  26.508  1.00  0.00     0.010 A 
ATOM     33  C   UNL A   1      39.773  25.822  28.714  1.00  0.00     0.010 A 
ATOM     34  C   UNL A   1      40.401  26.728  27.845  1.00  0.00    -0.014 A 
BRANCH  34  35
ATOM     35  C   UNL A   1      40.929  28.013  28.361  1.00  0.00     0.031 A 
ATOM     36  C   UNL A   1      39.967  29.113  28.703  1.00  0.00     0.074 A 
ATOM     37  C   UNL A   1      42.251  28.195  28.527  1.00  0.00     0.049 A 
ATOM     38  N   UNL A   1      40.208  30.312  29.169  1.00  0.00    -0.248 NA
ATOM     39  C   UNL A   1      38.540  28.826  28.488  1.00  0.00     0.031 C 
ATOM     40  C   UNL A   1      43.284  27.202  28.240  1.00  0.00     0.029 A 
ATOM     41  N   UNL A   1      42.948  29.291  28.971  1.00  0.00    -0.354 N 
ATOM     42  C   UNL A   1      38.967  30.917  29.312  1.00  0.00     0.074 A 
ATOM     43  C   UNL A   1      37.976  29.969  28.851  1.00  0.00     0.031 C 
ATOM     44  C   UNL A   1      44.488  27.739  28.505  1.00  0.00     0.029 A 
ATOM     45  C   UNL A   1      44.309  29.117  28.963  1.00  0.00     0.049 A 
ATOM     46  H   UNL A   1      42.514  30.123  29.268  1.00  0.00     0.167 HD
ATOM     47  C   UNL A   1      38.680  32.147  29.799  1.00  0.00     0.037 A 
ATOM     48  C   UNL A   1      45.297  29.978  29.277  1.00  0.00     0.037 A 
ATOM     49  C   UNL A   1      39.661  33.095  30.251  1.00  0.00     0.049 A 
ATOM     50  C   UNL A   1      44.950  31.365  29.753  1.00  0.00     0.074 A 
ATOM     51  C   UNL A   1      39.461  34.354  30.789  1.00  0.00     0.029 A 
ATOM     52  N   UNL A   1      41.032  32.891  30.209  1.00  0.00    -0.354 N 
ATOM     53  N   UNL A   1      43.772  31.907  29.945  1.00  0.00    -0.248 NA
ATOM     54  C   UNL A   1      46.075  32.260  30.065  1.00  0.00     0.031 C 
ATOM     55  C   UNL A   1      40.712  34.932  31.030  1.00  0.00     0.029 A 
ATOM     56  C   UNL A   1      41.691  34.014  30.684  1.00  0.00     0.049 A 
ATOM     57  H   UNL A   1      41.472  32.071  29.888  1.00  0.00     0.167 HD
ATOM     58  C   UNL A   1      44.012  33.187  30.427  1.00  0.00     0.074 A 
ATOM     59  C   UNL A   1      45.449  33.342  30.508  1.00  0.00     0.031 C 
ATOM     60  C   UNL A   1      43.122  34.148  30.772  1.00  0.00     0.037 A 
BRANCH  47  61
ATOM     61  C   UNL A   1      37.236  32.545  29.858  1.00  0.00     0.064 A 
ATOM     62  C   UNL A   1      36.462  32.314  31.004  1.00  0.00     0.173 A 
ATOM     63  C   UNL A   1      36.635  33.206  28.777  1.00  0.00     0.173 A 
ATOM     64  F   UNL A   1      36.989  31.674  32.059  1.00  0.00    -0.203 F 
ATOM     65  C   UNL A   1      35.130  32.717  31.060  1.00  0.00     0.198 A 
ATOM     66  C   UNL A   1      35.311  33.628  28.846  1.00  0.00     0.198 A 
ATOM     67  F   UNL A   1      37.336  33.452  27.660  1.00  0.00    -0.203 F 
ATOM     68  F   UNL A   1      34.399  32.458  32.152  1.00  0.00    -0.200 F 
ATOM     69  C   UNL A   1      34.559  33.380  29.984  1.00  0.00     0.200 A 
ATOM     70  F   UNL A   1      34.762  34.276  27.809  1.00  0.00    -0.200 F 
ATOM     71  F   UNL A   1      33.280  33.776  30.043  1.00  0.00    -0.200 F 
ENDBRANCH  47  61
BRANCH  48  72
ATOM     72  C   UNL A   1      46.717  29.563  29.149  1.00  0.00     0.064 A 
ATOM     73  C   UNL A   1      47.391  29.663  27.925  1.00  0.00     0.173 A 
ATOM     74  C   UNL A   1      47.413  29.016  30.237  1.00  0.00     0.173 A 
ATOM     75  F   UNL A   1      46.757  30.152  26.849  1.00  0.00    -0.203 F 
ATOM     76  C   UNL A   1      48.702  29.211  27.788  1.00  0.00     0.198 A 
ATOM     77  C   UNL A   1      48.732  28.588  30.105  1.00  0.00     0.198 A 
ATOM     78  F   UNL A   1      46.809  28.893  31.428  1.00  0.00    -0.203 F 
ATOM     79  F   UNL A   1      49.307  29.269  26.593  1.00  0.00    -0.200 F 
ATOM     80  C   UNL A   1      49.372  28.677  28.878  1.00  0.00     0.200 A 
ATOM     81  F   UNL A   1      49.378  28.077  31.162  1.00  0.00    -0.200 F 
ATOM     82  F   UNL A   1      50.629  28.235  28.743  1.00  0.00    -0.200 F 
ENDBRANCH  48  72
BRANCH  60  83
ATOM     83  C   UNL A   1      43.669  35.441  31.304  1.00  0.00     0.064 A 
ATOM     84  C   UNL A   1      43.946  36.526  30.460  1.00  0.00     0.173 A 
ATOM     85  C   UNL A   1      43.873  35.611  32.683  1.00  0.00     0.173 A 
ATOM     86  F   UNL A   1      43.780  36.407  29.133  1.00  0.00    -0.203 F 
ATOM     87  C   UNL A   1      44.426  37.728  30.973  1.00  0.00     0.198 A 
ATOM     88  C   UNL A   1      44.327  36.823  33.194  1.00  0.00     0.198 A 
ATOM     89  F   UNL A   1      43.616  34.607  33.533  1.00  0.00    -0.203 F 
ATOM     90  F   UNL A   1      44.722  38.737  30.143  1.00  0.00    -0.200 F 
ATOM     91  C   UNL A   1      44.609  37.878  32.340  1.00  0.00     0.200 A 
ATOM     92  F   UNL A   1      44.492  36.971  34.516  1.00  0.00    -0.200 F 
ATOM     93  F   UNL A   1      45.062  39.039  32.832  1.00  0.00    -0.200 F 
ENDBRANCH  60  83
ENDBRANCH  34  35
ENDBRANCH  27  29
ENDBRANCH  26  27
ENDBRANCH  25  26
ENDBRANCH   1  25
TORSDOF 15
ENDMDL
