MODEL 1
REMARK VINA RESULT:     -10.4      0.000      0.000
REMARK SMILES C[C@@H](CC(=O)NC(=O)N(C)C[C@@H]1CCC[N@H+]1C)CC(=O)OCCOC(=O)c1ccc(-c2c3nc(c(-c4c(F)c(F)c(F)c(F)c4F)c4ccc([nH]4)c(-c4c(F)c(F)c(F)c(F)c4F)c4nc(c(-c5c(F)c(F)c(F)c(F)c5F)c5ccc2[nH]5)C=C4)C=C3)cc1
REMARK SMILES IDX 19 1 20 2 18 3 2 4 1 5 3 6 4 7 5 8 6 9 7 10 8 12 9 13 10 14
REMARK SMILES IDX 11 15 12 16 13 17 16 18 14 19 15 20 17 21 21 23 22 24 23 25
REMARK SMILES IDX 24 26 25 27 26 28 27 29 28 30 89 31 29 32 88 33 30 34 31 35
REMARK SMILES IDX 32 36 82 37 33 38 87 39 81 40 83 41 34 42 86 43 80 44 79 45
REMARK SMILES IDX 35 47 67 48 47 49 66 50 48 51 51 52 65 53 84 54 49 55 50 56
REMARK SMILES IDX 64 58 85 59 52 60 36 61 37 62 45 63 38 64 39 65 43 66 46 67
REMARK SMILES IDX 40 68 41 69 44 70 42 71 68 72 69 73 77 74 70 75 71 76 75 77
REMARK SMILES IDX 78 78 72 79 73 80 76 81 74 82 53 83 54 84 62 85 55 86 56 87
REMARK SMILES IDX 60 88 63 89 57 90 58 91 61 92 59 93
REMARK H PARENT 6 11 16 22 83 46 51 57
REMARK Flexibility Score: inf
ROOT
ATOM      1  C   UNL A   1      34.948  33.304  28.725  1.00  0.00     0.306 C 
ATOM      2  O   UNL A   1      36.092  33.724  28.821  1.00  0.00    -0.252 OA
ENDROOT
BRANCH   1   3
ATOM      3  C   UNL A   1      34.564  31.850  28.936  1.00  0.00     0.126 C 
BRANCH   3   4
ATOM      4  C   UNL A   1      34.642  31.002  27.652  1.00  0.00     0.006 C 
ATOM      5  C   UNL A   1      35.918  30.196  27.590  1.00  0.00     0.009 C 
BRANCH   4   6
ATOM      6  C   UNL A   1      33.433  30.083  27.426  1.00  0.00     0.104 C 
BRANCH   6   7
ATOM      7  C   UNL A   1      32.355  30.595  26.492  1.00  0.00     0.228 C 
ATOM      8  O   UNL A   1      31.655  31.553  26.831  1.00  0.00    -0.275 OA
ATOM      9  N   UNL A   1      32.212  30.082  25.221  1.00  0.00    -0.278 N 
ATOM     10  C   UNL A   1      31.735  28.853  24.829  1.00  0.00     0.323 C 
ATOM     11  H   UNL A   1      32.491  30.680  24.491  1.00  0.00     0.174 HD
ATOM     12  O   UNL A   1      30.671  28.829  24.211  1.00  0.00    -0.248 OA
BRANCH  10  13
ATOM     13  N   UNL A   1      32.478  27.723  25.087  1.00  0.00    -0.322 N 
ATOM     14  C   UNL A   1      33.297  27.146  24.026  1.00  0.00     0.149 C 
BRANCH  13  15
ATOM     15  C   UNL A   1      31.990  26.765  26.108  1.00  0.00     0.185 C 
BRANCH  15  16
ATOM     16  C   UNL A   1      31.788  25.264  25.704  1.00  0.00     0.203 C 
ATOM     17  C   UNL A   1      30.300  24.887  25.896  1.00  0.00     0.073 C 
ATOM     18  N   UNL A   1      32.501  24.234  26.490  1.00  0.00    -0.333 N 
ATOM     19  C   UNL A   1      30.280  23.536  26.590  1.00  0.00     0.068 C 
ATOM     20  C   UNL A   1      31.686  23.016  26.420  1.00  0.00     0.262 C 
ATOM     21  C   UNL A   1      33.850  23.921  26.030  1.00  0.00     0.333 C 
ATOM     22  H   UNL A   1      32.621  24.600  27.435  1.00  0.00     0.348 HD
ENDBRANCH  15  16
ENDBRANCH  13  15
ENDBRANCH  10  13
ENDBRANCH   6   7
ENDBRANCH   4   6
ENDBRANCH   3   4
ENDBRANCH   1   3
BRANCH   1  23
ATOM     23  O   UNL A   1      33.846  34.064  28.476  1.00  0.00    -0.462 OA
BRANCH  23  24
ATOM     24  C   UNL A   1      34.025  35.497  28.455  1.00  0.00     0.274 C 
BRANCH  24  25
ATOM     25  C   UNL A   1      32.903  36.197  29.227  1.00  0.00     0.275 C 
BRANCH  25  26
ATOM     26  O   UNL A   1      32.462  35.340  30.295  1.00  0.00    -0.458 OA
BRANCH  26  27
ATOM     27  C   UNL A   1      32.714  35.752  31.555  1.00  0.00     0.338 C 
ATOM     28  O   UNL A   1      32.115  36.586  32.209  1.00  0.00    -0.246 OA
BRANCH  27  29
ATOM     29  C   UNL A   1      33.865  34.993  32.066  1.00  0.00     0.060 A 
ATOM     30  C   UNL A   1      35.142  35.549  31.991  1.00  0.00     0.016 A 
ATOM     31  C   UNL A   1      33.685  33.704  32.560  1.00  0.00     0.016 A 
ATOM     32  C   UNL A   1      36.256  34.801  32.350  1.00  0.00     0.010 A 
ATOM     33  C   UNL A   1      34.797  32.981  33.000  1.00  0.00     0.010 A 
ATOM     34  C   UNL A   1      36.092  33.517  32.877  1.00  0.00    -0.014 A 
BRANCH  34  35
ATOM     35  C   UNL A   1      37.282  32.738  33.293  1.00  0.00     0.031 A 
ATOM     36  C   UNL A   1      37.920  33.001  34.625  1.00  0.00     0.074 A 
ATOM     37  C   UNL A   1      37.771  31.784  32.479  1.00  0.00     0.049 A 
ATOM     38  N   UNL A   1      39.030  32.518  35.121  1.00  0.00    -0.248 NA
ATOM     39  C   UNL A   1      37.219  33.936  35.517  1.00  0.00     0.031 C 
ATOM     40  C   UNL A   1      37.203  31.404  31.183  1.00  0.00     0.029 A 
ATOM     41  N   UNL A   1      38.857  30.957  32.622  1.00  0.00    -0.354 N 
ATOM     42  C   UNL A   1      39.178  33.113  36.365  1.00  0.00     0.074 A 
ATOM     43  C   UNL A   1      38.050  34.003  36.547  1.00  0.00     0.031 C 
ATOM     44  C   UNL A   1      37.933  30.408  30.659  1.00  0.00     0.029 A 
ATOM     45  C   UNL A   1      39.056  30.126  31.547  1.00  0.00     0.049 A 
ATOM     46  H   UNL A   1      39.436  30.959  33.417  1.00  0.00     0.167 HD
ATOM     47  C   UNL A   1      40.168  32.932  37.271  1.00  0.00     0.037 A 
ATOM     48  C   UNL A   1      40.053  29.260  31.290  1.00  0.00     0.037 A 
ATOM     49  C   UNL A   1      41.272  32.026  37.091  1.00  0.00     0.049 A 
ATOM     50  C   UNL A   1      41.164  29.113  32.291  1.00  0.00     0.074 A 
ATOM     51  C   UNL A   1      42.327  31.766  37.948  1.00  0.00     0.029 A 
ATOM     52  N   UNL A   1      41.457  31.223  35.974  1.00  0.00    -0.354 N 
ATOM     53  N   UNL A   1      41.316  29.707  33.450  1.00  0.00    -0.248 NA
ATOM     54  C   UNL A   1      42.251  28.189  31.941  1.00  0.00     0.031 C 
ATOM     55  C   UNL A   1      43.167  30.831  37.335  1.00  0.00     0.029 A 
ATOM     56  C   UNL A   1      42.616  30.478  36.114  1.00  0.00     0.049 A 
ATOM     57  H   UNL A   1      40.852  31.188  35.198  1.00  0.00     0.167 HD
ATOM     58  C   UNL A   1      42.504  29.220  33.975  1.00  0.00     0.074 A 
ATOM     59  C   UNL A   1      43.025  28.267  33.015  1.00  0.00     0.031 C 
ATOM     60  C   UNL A   1      43.111  29.534  35.145  1.00  0.00     0.037 A 
BRANCH  47  61
ATOM     61  C   UNL A   1      40.119  33.758  38.521  1.00  0.00     0.064 A 
ATOM     62  C   UNL A   1      39.325  33.392  39.618  1.00  0.00     0.173 A 
ATOM     63  C   UNL A   1      40.894  34.922  38.629  1.00  0.00     0.173 A 
ATOM     64  F   UNL A   1      38.551  32.298  39.555  1.00  0.00    -0.203 F 
ATOM     65  C   UNL A   1      39.291  34.175  40.769  1.00  0.00     0.198 A 
ATOM     66  C   UNL A   1      40.877  35.690  39.791  1.00  0.00     0.198 A 
ATOM     67  F   UNL A   1      41.670  35.316  37.609  1.00  0.00    -0.203 F 
ATOM     68  F   UNL A   1      38.492  33.831  41.788  1.00  0.00    -0.200 F 
ATOM     69  C   UNL A   1      40.071  35.320  40.857  1.00  0.00     0.200 A 
ATOM     70  F   UNL A   1      41.635  36.791  39.877  1.00  0.00    -0.200 F 
ATOM     71  F   UNL A   1      40.038  36.071  41.967  1.00  0.00    -0.200 F 
ENDBRANCH  47  61
BRANCH  48  72
ATOM     72  C   UNL A   1      40.054  28.489  30.021  1.00  0.00     0.064 A 
ATOM     73  C   UNL A   1      40.674  28.994  28.871  1.00  0.00     0.173 A 
ATOM     74  C   UNL A   1      39.445  27.228  29.935  1.00  0.00     0.173 A 
ATOM     75  F   UNL A   1      41.248  30.206  28.898  1.00  0.00    -0.203 F 
ATOM     76  C   UNL A   1      40.675  28.272  27.680  1.00  0.00     0.198 A 
ATOM     77  C   UNL A   1      39.471  26.496  28.751  1.00  0.00     0.198 A 
ATOM     78  F   UNL A   1      38.837  26.701  31.009  1.00  0.00    -0.203 F 
ATOM     79  F   UNL A   1      41.242  28.795  26.584  1.00  0.00    -0.200 F 
ATOM     80  C   UNL A   1      40.081  27.020  27.622  1.00  0.00     0.200 A 
ATOM     81  F   UNL A   1      38.905  25.282  28.705  1.00  0.00    -0.200 F 
ATOM     82  F   UNL A   1      40.090  26.324  26.478  1.00  0.00    -0.200 F 
ENDBRANCH  48  72
BRANCH  60  83
ATOM     83  C   UNL A   1      44.392  28.822  35.458  1.00  0.00     0.064 A 
ATOM     84  C   UNL A   1      45.635  29.354  35.084  1.00  0.00     0.173 A 
ATOM     85  C   UNL A   1      44.376  27.613  36.166  1.00  0.00     0.173 A 
ATOM     86  F   UNL A   1      45.697  30.501  34.390  1.00  0.00    -0.203 F 
ATOM     87  C   UNL A   1      46.816  28.688  35.393  1.00  0.00     0.198 A 
ATOM     88  C   UNL A   1      45.561  26.961  36.494  1.00  0.00     0.198 A 
ATOM     89  F   UNL A   1      43.211  27.068  36.549  1.00  0.00    -0.203 F 
ATOM     90  F   UNL A   1      47.992  29.191  34.991  1.00  0.00    -0.200 F 
ATOM     91  C   UNL A   1      46.780  27.496  36.102  1.00  0.00     0.200 A 
ATOM     92  F   UNL A   1      45.525  25.815  37.187  1.00  0.00    -0.200 F 
ATOM     93  F   UNL A   1      47.919  26.858  36.401  1.00  0.00    -0.200 F 
ENDBRANCH  60  83
ENDBRANCH  34  35
ENDBRANCH  27  29
ENDBRANCH  26  27
ENDBRANCH  25  26
ENDBRANCH  24  25
ENDBRANCH  23  24
ENDBRANCH   1  23
TORSDOF 17
ENDMDL
MODEL 2
REMARK VINA RESULT:     -10.3      1.761      7.822
REMARK SMILES C[C@@H](CC(=O)NC(=O)N(C)C[C@@H]1CCC[N@H+]1C)CC(=O)OCCOC(=O)c1ccc(-c2c3nc(c(-c4c(F)c(F)c(F)c(F)c4F)c4ccc([nH]4)c(-c4c(F)c(F)c(F)c(F)c4F)c4nc(c(-c5c(F)c(F)c(F)c(F)c5F)c5ccc2[nH]5)C=C4)C=C3)cc1
REMARK SMILES IDX 19 1 20 2 18 3 2 4 1 5 3 6 4 7 5 8 6 9 7 10 8 12 9 13 10 14
REMARK SMILES IDX 11 15 12 16 13 17 16 18 14 19 15 20 17 21 21 23 22 24 23 25
REMARK SMILES IDX 24 26 25 27 26 28 27 29 28 30 89 31 29 32 88 33 30 34 31 35
REMARK SMILES IDX 32 36 82 37 33 38 87 39 81 40 83 41 34 42 86 43 80 44 79 45
REMARK SMILES IDX 35 47 67 48 47 49 66 50 48 51 51 52 65 53 84 54 49 55 50 56
REMARK SMILES IDX 64 58 85 59 52 60 36 61 37 62 45 63 38 64 39 65 43 66 46 67
REMARK SMILES IDX 40 68 41 69 44 70 42 71 68 72 69 73 77 74 70 75 71 76 75 77
REMARK SMILES IDX 78 78 72 79 73 80 76 81 74 82 53 83 54 84 62 85 55 86 56 87
REMARK SMILES IDX 60 88 63 89 57 90 58 91 61 92 59 93
REMARK H PARENT 6 11 16 22 83 46 51 57
REMARK Flexibility Score: inf
ROOT
ATOM      1  C   UNL A   1      32.988  29.876  26.309  1.00  0.00     0.306 C 
ATOM      2  O   UNL A   1      34.088  29.341  26.290  1.00  0.00    -0.252 OA
ENDROOT
BRANCH   1   3
ATOM      3  C   UNL A   1      31.856  29.507  25.368  1.00  0.00     0.126 C 
BRANCH   3   4
ATOM      4  C   UNL A   1      31.599  27.990  25.281  1.00  0.00     0.006 C 
ATOM      5  C   UNL A   1      31.136  27.424  26.603  1.00  0.00     0.009 C 
BRANCH   4   6
ATOM      6  C   UNL A   1      30.628  27.575  24.167  1.00  0.00     0.104 C 
BRANCH   6   7
ATOM      7  C   UNL A   1      31.091  27.800  22.742  1.00  0.00     0.228 C 
ATOM      8  O   UNL A   1      30.355  28.386  21.943  1.00  0.00    -0.275 OA
ATOM      9  N   UNL A   1      32.368  27.462  22.347  1.00  0.00    -0.278 N 
ATOM     10  C   UNL A   1      32.915  26.215  22.152  1.00  0.00     0.323 C 
ATOM     11  H   UNL A   1      32.973  28.221  22.181  1.00  0.00     0.174 HD
ATOM     12  O   UNL A   1      33.220  25.905  21.000  1.00  0.00    -0.248 OA
BRANCH  10  13
ATOM     13  N   UNL A   1      33.147  25.399  23.235  1.00  0.00    -0.322 N 
ATOM     14  C   UNL A   1      34.086  25.828  24.266  1.00  0.00     0.149 C 
BRANCH  13  15
ATOM     15  C   UNL A   1      33.011  23.932  23.067  1.00  0.00     0.185 C 
BRANCH  15  16
ATOM     16  C   UNL A   1      33.127  23.011  24.330  1.00  0.00     0.203 C 
ATOM     17  C   UNL A   1      34.250  21.972  24.093  1.00  0.00     0.073 C 
ATOM     18  N   UNL A   1      31.961  22.172  24.684  1.00  0.00    -0.333 N 
ATOM     19  C   UNL A   1      33.703  20.631  24.552  1.00  0.00     0.068 C 
ATOM     20  C   UNL A   1      32.490  20.990  25.373  1.00  0.00     0.262 C 
ATOM     21  C   UNL A   1      30.972  22.813  25.545  1.00  0.00     0.333 C 
ATOM     22  H   UNL A   1      31.464  21.961  23.819  1.00  0.00     0.348 HD
ENDBRANCH  15  16
ENDBRANCH  13  15
ENDBRANCH  10  13
ENDBRANCH   6   7
ENDBRANCH   4   6
ENDBRANCH   3   4
ENDBRANCH   1   3
BRANCH   1  23
ATOM     23  O   UNL A   1      32.590  30.830  27.195  1.00  0.00    -0.462 OA
BRANCH  23  24
ATOM     24  C   UNL A   1      31.565  31.748  26.759  1.00  0.00     0.274 C 
BRANCH  24  25
ATOM     25  C   UNL A   1      32.055  33.196  26.853  1.00  0.00     0.275 C 
BRANCH  25  26
ATOM     26  O   UNL A   1      32.092  33.590  28.236  1.00  0.00    -0.458 OA
BRANCH  26  27
ATOM     27  C   UNL A   1      32.950  34.578  28.567  1.00  0.00     0.338 C 
ATOM     28  O   UNL A   1      32.793  35.780  28.459  1.00  0.00    -0.246 OA
BRANCH  27  29
ATOM     29  C   UNL A   1      34.161  33.966  29.134  1.00  0.00     0.060 A 
ATOM     30  C   UNL A   1      34.042  32.865  29.982  1.00  0.00     0.016 A 
ATOM     31  C   UNL A   1      35.411  34.524  28.874  1.00  0.00     0.016 A 
ATOM     32  C   UNL A   1      35.159  32.352  30.628  1.00  0.00     0.010 A 
ATOM     33  C   UNL A   1      36.546  33.956  29.458  1.00  0.00     0.010 A 
ATOM     34  C   UNL A   1      36.425  32.879  30.355  1.00  0.00    -0.014 A 
BRANCH  34  35
ATOM     35  C   UNL A   1      37.617  32.302  31.019  1.00  0.00     0.031 A 
ATOM     36  C   UNL A   1      38.426  31.249  30.320  1.00  0.00     0.074 A 
ATOM     37  C   UNL A   1      37.979  32.742  32.239  1.00  0.00     0.049 A 
ATOM     38  N   UNL A   1      39.425  30.536  30.773  1.00  0.00    -0.248 NA
ATOM     39  C   UNL A   1      38.060  30.955  28.927  1.00  0.00     0.031 C 
ATOM     40  C   UNL A   1      37.299  33.797  32.993  1.00  0.00     0.029 A 
ATOM     41  N   UNL A   1      39.009  32.357  33.059  1.00  0.00    -0.354 N 
ATOM     42  C   UNL A   1      39.785  29.688  29.736  1.00  0.00     0.074 A 
ATOM     43  C   UNL A   1      38.890  29.966  28.631  1.00  0.00     0.031 C 
ATOM     44  C   UNL A   1      37.942  33.989  34.155  1.00  0.00     0.029 A 
ATOM     45  C   UNL A   1      39.033  33.026  34.258  1.00  0.00     0.049 A 
ATOM     46  H   UNL A   1      39.668  31.669  32.812  1.00  0.00     0.167 HD
ATOM     47  C   UNL A   1      40.771  28.761  29.712  1.00  0.00     0.037 A 
ATOM     48  C   UNL A   1      39.824  32.857  35.333  1.00  0.00     0.037 A 
ATOM     49  C   UNL A   1      41.671  28.511  30.806  1.00  0.00     0.049 A 
ATOM     50  C   UNL A   1      40.880  31.789  35.297  1.00  0.00     0.074 A 
ATOM     51  C   UNL A   1      42.707  27.596  30.884  1.00  0.00     0.029 A 
ATOM     52  N   UNL A   1      41.644  29.188  32.018  1.00  0.00    -0.354 N 
ATOM     53  N   UNL A   1      41.191  30.967  34.325  1.00  0.00    -0.248 NA
ATOM     54  C   UNL A   1      41.686  31.616  36.513  1.00  0.00     0.031 C 
ATOM     55  C   UNL A   1      43.285  27.697  32.154  1.00  0.00     0.029 A 
ATOM     56  C   UNL A   1      42.636  28.702  32.854  1.00  0.00     0.049 A 
ATOM     57  H   UNL A   1      41.014  29.908  32.248  1.00  0.00     0.167 HD
ATOM     58  C   UNL A   1      42.235  30.188  34.803  1.00  0.00     0.074 A 
ATOM     59  C   UNL A   1      42.517  30.649  36.148  1.00  0.00     0.031 C 
ATOM     60  C   UNL A   1      42.899  29.180  34.187  1.00  0.00     0.037 A 
BRANCH  47  61
ATOM     61  C   UNL A   1      40.903  27.927  28.474  1.00  0.00     0.064 A 
ATOM     62  C   UNL A   1      40.228  26.706  28.329  1.00  0.00     0.173 A 
ATOM     63  C   UNL A   1      41.702  28.367  27.407  1.00  0.00     0.173 A 
ATOM     64  F   UNL A   1      39.467  26.233  29.328  1.00  0.00    -0.203 F 
ATOM     65  C   UNL A   1      40.366  25.945  27.170  1.00  0.00     0.198 A 
ATOM     66  C   UNL A   1      41.819  27.616  26.241  1.00  0.00     0.198 A 
ATOM     67  F   UNL A   1      42.368  29.528  27.496  1.00  0.00    -0.203 F 
ATOM     68  F   UNL A   1      39.748  24.761  27.071  1.00  0.00    -0.200 F 
ATOM     69  C   UNL A   1      41.157  26.403  26.126  1.00  0.00     0.200 A 
ATOM     70  F   UNL A   1      42.577  28.063  25.231  1.00  0.00    -0.200 F 
ATOM     71  F   UNL A   1      41.287  25.670  25.012  1.00  0.00    -0.200 F 
ENDBRANCH  47  61
BRANCH  48  72
ATOM     72  C   UNL A   1      39.625  33.702  36.538  1.00  0.00     0.064 A 
ATOM     73  C   UNL A   1      38.810  33.272  37.593  1.00  0.00     0.173 A 
ATOM     74  C   UNL A   1      40.252  34.951  36.662  1.00  0.00     0.173 A 
ATOM     75  F   UNL A   1      38.169  32.097  37.508  1.00  0.00    -0.203 F 
ATOM     76  C   UNL A   1      38.622  34.064  38.723  1.00  0.00     0.198 A 
ATOM     77  C   UNL A   1      40.085  35.729  37.805  1.00  0.00     0.198 A 
ATOM     78  F   UNL A   1      41.042  35.407  35.678  1.00  0.00    -0.203 F 
ATOM     79  F   UNL A   1      37.807  33.647  39.702  1.00  0.00    -0.200 F 
ATOM     80  C   UNL A   1      39.265  35.288  38.833  1.00  0.00     0.200 A 
ATOM     81  F   UNL A   1      40.718  36.905  37.910  1.00  0.00    -0.200 F 
ATOM     82  F   UNL A   1      39.090  36.045  39.923  1.00  0.00    -0.200 F 
ENDBRANCH  48  72
BRANCH  60  83
ATOM     83  C   UNL A   1      44.008  28.528  34.955  1.00  0.00     0.064 A 
ATOM     84  C   UNL A   1      45.315  29.036  34.926  1.00  0.00     0.173 A 
ATOM     85  C   UNL A   1      43.752  27.404  35.754  1.00  0.00     0.173 A 
ATOM     86  F   UNL A   1      45.609  30.099  34.163  1.00  0.00    -0.203 F 
ATOM     87  C   UNL A   1      46.331  28.427  35.654  1.00  0.00     0.198 A 
ATOM     88  C   UNL A   1      44.767  26.813  36.499  1.00  0.00     0.198 A 
ATOM     89  F   UNL A   1      42.516  26.886  35.817  1.00  0.00    -0.203 F 
ATOM     90  F   UNL A   1      47.583  28.902  35.581  1.00  0.00    -0.200 F 
ATOM     91  C   UNL A   1      46.056  27.321  36.445  1.00  0.00     0.200 A 
ATOM     92  F   UNL A   1      44.498  25.750  37.270  1.00  0.00    -0.200 F 
ATOM     93  F   UNL A   1      47.036  26.738  37.149  1.00  0.00    -0.200 F 
ENDBRANCH  60  83
ENDBRANCH  34  35
ENDBRANCH  27  29
ENDBRANCH  26  27
ENDBRANCH  25  26
ENDBRANCH  24  25
ENDBRANCH  23  24
ENDBRANCH   1  23
TORSDOF 17
ENDMDL
MODEL 3
REMARK VINA RESULT:     -10.2      5.375      9.600
REMARK SMILES C[C@@H](CC(=O)NC(=O)N(C)C[C@@H]1CCC[N@H+]1C)CC(=O)OCCOC(=O)c1ccc(-c2c3nc(c(-c4c(F)c(F)c(F)c(F)c4F)c4ccc([nH]4)c(-c4c(F)c(F)c(F)c(F)c4F)c4nc(c(-c5c(F)c(F)c(F)c(F)c5F)c5ccc2[nH]5)C=C4)C=C3)cc1
REMARK SMILES IDX 19 1 20 2 18 3 2 4 1 5 3 6 4 7 5 8 6 9 7 10 8 12 9 13 10 14
REMARK SMILES IDX 11 15 12 16 13 17 16 18 14 19 15 20 17 21 21 23 22 24 23 25
REMARK SMILES IDX 24 26 25 27 26 28 27 29 28 30 89 31 29 32 88 33 30 34 31 35
REMARK SMILES IDX 32 36 82 37 33 38 87 39 81 40 83 41 34 42 86 43 80 44 79 45
REMARK SMILES IDX 35 47 67 48 47 49 66 50 48 51 51 52 65 53 84 54 49 55 50 56
REMARK SMILES IDX 64 58 85 59 52 60 36 61 37 62 45 63 38 64 39 65 43 66 46 67
REMARK SMILES IDX 40 68 41 69 44 70 42 71 68 72 69 73 77 74 70 75 71 76 75 77
REMARK SMILES IDX 78 78 72 79 73 80 76 81 74 82 53 83 54 84 62 85 55 86 56 87
REMARK SMILES IDX 60 88 63 89 57 90 58 91 61 92 59 93
REMARK H PARENT 6 11 16 22 83 46 51 57
REMARK Flexibility Score: inf
ROOT
ATOM      1  C   UNL A   1      34.892  22.903  23.648  1.00  0.00     0.306 C 
ATOM      2  O   UNL A   1      35.680  23.208  22.764  1.00  0.00    -0.252 OA
ENDROOT
BRANCH   1   3
ATOM      3  C   UNL A   1      33.384  22.937  23.481  1.00  0.00     0.126 C 
BRANCH   3   4
ATOM      4  C   UNL A   1      32.736  24.230  24.012  1.00  0.00     0.006 C 
ATOM      5  C   UNL A   1      33.750  25.134  24.673  1.00  0.00     0.009 C 
BRANCH   4   6
ATOM      6  C   UNL A   1      31.942  25.018  22.961  1.00  0.00     0.104 C 
BRANCH   6   7
ATOM      7  C   UNL A   1      32.736  25.951  22.069  1.00  0.00     0.228 C 
ATOM      8  O   UNL A   1      33.662  25.506  21.386  1.00  0.00    -0.275 OA
ATOM      9  N   UNL A   1      32.372  27.272  21.918  1.00  0.00    -0.278 N 
ATOM     10  C   UNL A   1      32.477  28.309  22.815  1.00  0.00     0.323 C 
ATOM     11  H   UNL A   1      31.982  27.505  21.045  1.00  0.00     0.174 HD
ATOM     12  O   UNL A   1      33.266  29.214  22.544  1.00  0.00    -0.248 OA
BRANCH  10  13
ATOM     13  N   UNL A   1      31.673  28.325  23.931  1.00  0.00    -0.322 N 
ATOM     14  C   UNL A   1      30.386  29.010  23.877  1.00  0.00     0.149 C 
BRANCH  13  15
ATOM     15  C   UNL A   1      32.307  28.264  25.271  1.00  0.00     0.185 C 
BRANCH  15  16
ATOM     16  C   UNL A   1      33.125  29.500  25.779  1.00  0.00     0.203 C 
ATOM     17  C   UNL A   1      34.486  29.010  26.330  1.00  0.00     0.073 C 
ATOM     18  N   UNL A   1      32.570  30.285  26.902  1.00  0.00    -0.333 N 
ATOM     19  C   UNL A   1      34.709  29.738  27.644  1.00  0.00     0.068 C 
ATOM     20  C   UNL A   1      33.713  30.870  27.610  1.00  0.00     0.262 C 
ATOM     21  C   UNL A   1      31.655  31.357  26.521  1.00  0.00     0.333 C 
ATOM     22  H   UNL A   1      32.011  29.649  27.471  1.00  0.00     0.348 HD
ENDBRANCH  15  16
ENDBRANCH  13  15
ENDBRANCH  10  13
ENDBRANCH   6   7
ENDBRANCH   4   6
ENDBRANCH   3   4
ENDBRANCH   1   3
BRANCH   1  23
ATOM     23  O   UNL A   1      35.232  22.438  24.882  1.00  0.00    -0.462 OA
BRANCH  23  24
ATOM     24  C   UNL A   1      35.477  21.020  25.007  1.00  0.00     0.274 C 
BRANCH  24  25
ATOM     25  C   UNL A   1      36.978  20.721  24.954  1.00  0.00     0.275 C 
BRANCH  25  26
ATOM     26  O   UNL A   1      37.681  21.700  25.739  1.00  0.00    -0.458 OA
BRANCH  26  27
ATOM     27  C   UNL A   1      38.929  21.381  26.141  1.00  0.00     0.338 C 
ATOM     28  O   UNL A   1      39.465  20.288  26.139  1.00  0.00    -0.246 OA
BRANCH  27  29
ATOM     29  C   UNL A   1      39.599  22.612  26.586  1.00  0.00     0.060 A 
ATOM     30  C   UNL A   1      39.154  23.845  26.111  1.00  0.00     0.016 A 
ATOM     31  C   UNL A   1      40.709  22.537  27.424  1.00  0.00     0.016 A 
ATOM     32  C   UNL A   1      39.850  25.008  26.416  1.00  0.00     0.010 A 
ATOM     33  C   UNL A   1      41.360  23.716  27.799  1.00  0.00     0.010 A 
ATOM     34  C   UNL A   1      40.947  24.956  27.281  1.00  0.00    -0.014 A 
BRANCH  34  35
ATOM     35  C   UNL A   1      41.662  26.205  27.632  1.00  0.00     0.031 A 
ATOM     36  C   UNL A   1      40.979  27.250  28.464  1.00  0.00     0.074 A 
ATOM     37  C   UNL A   1      42.931  26.386  27.220  1.00  0.00     0.049 A 
ATOM     38  N   UNL A   1      41.383  28.455  28.777  1.00  0.00    -0.248 NA
ATOM     39  C   UNL A   1      39.662  26.896  29.013  1.00  0.00     0.031 C 
ATOM     40  C   UNL A   1      43.716  25.418  26.450  1.00  0.00     0.029 A 
ATOM     41  N   UNL A   1      43.786  27.445  27.391  1.00  0.00    -0.354 N 
ATOM     42  C   UNL A   1      40.359  29.013  29.528  1.00  0.00     0.074 A 
ATOM     43  C   UNL A   1      39.308  28.021  29.618  1.00  0.00     0.031 C 
ATOM     44  C   UNL A   1      44.941  25.919  26.233  1.00  0.00     0.029 A 
ATOM     45  C   UNL A   1      45.005  27.268  26.785  1.00  0.00     0.049 A 
ATOM     46  H   UNL A   1      43.547  28.254  27.898  1.00  0.00     0.167 HD
ATOM     47  C   UNL A   1      40.304  30.244  30.091  1.00  0.00     0.037 A 
ATOM     48  C   UNL A   1      46.045  28.112  26.661  1.00  0.00     0.037 A 
ATOM     49  C   UNL A   1      41.365  31.213  30.018  1.00  0.00     0.049 A 
ATOM     50  C   UNL A   1      45.940  29.489  27.253  1.00  0.00     0.074 A 
ATOM     51  C   UNL A   1      41.412  32.487  30.555  1.00  0.00     0.029 A 
ATOM     52  N   UNL A   1      42.576  31.008  29.369  1.00  0.00    -0.354 N 
ATOM     53  N   UNL A   1      44.953  30.022  27.933  1.00  0.00    -0.248 NA
ATOM     54  C   UNL A   1      47.085  30.386  27.049  1.00  0.00     0.031 C 
ATOM     55  C   UNL A   1      42.636  33.066  30.203  1.00  0.00     0.029 A 
ATOM     56  C   UNL A   1      43.369  32.138  29.480  1.00  0.00     0.049 A 
ATOM     57  H   UNL A   1      42.831  30.181  28.900  1.00  0.00     0.167 HD
ATOM     58  C   UNL A   1      45.361  31.309  28.250  1.00  0.00     0.074 A 
ATOM     59  C   UNL A   1      46.694  31.472  27.702  1.00  0.00     0.031 C 
ATOM     60  C   UNL A   1      44.694  32.273  28.930  1.00  0.00     0.037 A 
BRANCH  47  61
ATOM     61  C   UNL A   1      39.041  30.620  30.803  1.00  0.00     0.064 A 
ATOM     62  C   UNL A   1      37.926  31.123  30.116  1.00  0.00     0.173 A 
ATOM     63  C   UNL A   1      38.937  30.455  32.193  1.00  0.00     0.173 A 
ATOM     64  F   UNL A   1      37.982  31.317  28.790  1.00  0.00    -0.203 F 
ATOM     65  C   UNL A   1      36.762  31.469  30.798  1.00  0.00     0.198 A 
ATOM     66  C   UNL A   1      37.763  30.779  32.868  1.00  0.00     0.198 A 
ATOM     67  F   UNL A   1      39.974  29.977  32.896  1.00  0.00    -0.203 F 
ATOM     68  F   UNL A   1      35.725  31.989  30.128  1.00  0.00    -0.200 F 
ATOM     69  C   UNL A   1      36.679  31.291  32.172  1.00  0.00     0.200 A 
ATOM     70  F   UNL A   1      37.683  30.600  34.193  1.00  0.00    -0.200 F 
ATOM     71  F   UNL A   1      35.558  31.624  32.825  1.00  0.00    -0.200 F 
ENDBRANCH  47  61
BRANCH  48  72
ATOM     72  C   UNL A   1      47.260  27.684  25.921  1.00  0.00     0.064 A 
ATOM     73  C   UNL A   1      47.309  27.736  24.523  1.00  0.00     0.173 A 
ATOM     74  C   UNL A   1      48.399  27.224  26.598  1.00  0.00     0.173 A 
ATOM     75  F   UNL A   1      46.235  28.145  23.830  1.00  0.00    -0.203 F 
ATOM     76  C   UNL A   1      48.447  27.335  23.828  1.00  0.00     0.198 A 
ATOM     77  C   UNL A   1      49.547  26.849  25.904  1.00  0.00     0.198 A 
ATOM     78  F   UNL A   1      48.402  27.155  27.938  1.00  0.00    -0.203 F 
ATOM     79  F   UNL A   1      48.454  27.359  22.488  1.00  0.00    -0.200 F 
ATOM     80  C   UNL A   1      49.569  26.899  24.519  1.00  0.00     0.200 A 
ATOM     81  F   UNL A   1      50.630  26.440  26.577  1.00  0.00    -0.200 F 
ATOM     82  F   UNL A   1      50.665  26.520  23.850  1.00  0.00    -0.200 F 
ENDBRANCH  48  72
BRANCH  60  83
ATOM     83  C   UNL A   1      45.405  33.575  29.138  1.00  0.00     0.064 A 
ATOM     84  C   UNL A   1      45.273  34.635  28.229  1.00  0.00     0.173 A 
ATOM     85  C   UNL A   1      46.201  33.774  30.275  1.00  0.00     0.173 A 
ATOM     86  F   UNL A   1      44.535  34.483  27.118  1.00  0.00    -0.203 F 
ATOM     87  C   UNL A   1      45.930  35.842  28.442  1.00  0.00     0.198 A 
ATOM     88  C   UNL A   1      46.837  34.991  30.497  1.00  0.00     0.198 A 
ATOM     89  F   UNL A   1      46.353  32.790  31.175  1.00  0.00    -0.203 F 
ATOM     90  F   UNL A   1      45.824  36.828  27.541  1.00  0.00    -0.200 F 
ATOM     91  C   UNL A   1      46.706  36.022  29.578  1.00  0.00     0.200 A 
ATOM     92  F   UNL A   1      47.579  35.166  31.599  1.00  0.00    -0.200 F 
ATOM     93  F   UNL A   1      47.336  37.187  29.783  1.00  0.00    -0.200 F 
ENDBRANCH  60  83
ENDBRANCH  34  35
ENDBRANCH  27  29
ENDBRANCH  26  27
ENDBRANCH  25  26
ENDBRANCH  24  25
ENDBRANCH  23  24
ENDBRANCH   1  23
TORSDOF 17
ENDMDL
