MODEL 1
REMARK VINA RESULT:     -12.5      0.000      0.000
REMARK SMILES O=C(C[C@@H](C(=O)N(c1ccccc1)c1ccccc1)[NH+]1CCOCC1)OCCOC(=O)c1ccc(-c2c3nc(c(-c4c(F)c(F)c(F)c(F)c4F)c4ccc([nH]4)c(-c4c(F)c(F)c(F)c(F)c4F)c4nc(c(-c5c(F)c(F)c(F)c(F)c5F)c5ccc2[nH]5)C=C4)C=C3)cc1
REMARK SMILES IDX 27 1 26 2 2 3 1 4 3 5 4 6 5 7 6 8 7 9 8 10 9 11 13 12 10 13
REMARK SMILES IDX 12 14 11 15 14 16 15 17 19 18 16 19 18 20 17 21 20 22 21 23
REMARK SMILES IDX 25 24 22 26 24 27 23 28 28 29 29 30 30 31 31 32 32 33 33 34
REMARK SMILES IDX 94 35 34 36 93 37 35 38 36 39 37 40 87 41 38 42 92 43 86 44
REMARK SMILES IDX 88 45 39 46 91 47 85 48 84 49 40 51 72 52 52 53 71 54 53 55
REMARK SMILES IDX 56 56 70 57 89 58 54 59 55 60 69 62 90 63 57 64 41 65 42 66
REMARK SMILES IDX 50 67 43 68 44 69 48 70 51 71 45 72 46 73 49 74 47 75 73 76
REMARK SMILES IDX 74 77 82 78 75 79 76 80 80 81 83 82 77 83 78 84 81 85 79 86
REMARK SMILES IDX 58 87 59 88 67 89 60 90 61 91 65 92 68 93 62 94 63 95 66 96
REMARK SMILES IDX 64 97
REMARK H PARENT 20 25 88 50 56 61
REMARK Flexibility Score: inf
ROOT
ATOM      1  C   UNL A   1      36.052  20.997  24.820  1.00  0.00     0.274 C 
ENDROOT
BRANCH   1   2
ATOM      2  O   UNL A   1      36.078  22.420  24.574  1.00  0.00    -0.462 OA
BRANCH   2   3
ATOM      3  C   UNL A   1      35.750  22.982  23.394  1.00  0.00     0.312 C 
ATOM      4  O   UNL A   1      36.558  23.005  22.466  1.00  0.00    -0.252 OA
BRANCH   3   5
ATOM      5  C   UNL A   1      34.423  23.671  23.244  1.00  0.00     0.198 C 
BRANCH   5   6
ATOM      6  C   UNL A   1      33.645  24.293  24.413  1.00  0.00     0.286 C 
BRANCH   6   7
ATOM      7  C   UNL A   1      32.448  25.208  23.986  1.00  0.00     0.290 C 
ATOM      8  O   UNL A   1      31.829  24.859  22.964  1.00  0.00    -0.267 OA
ATOM      9  N   UNL A   1      32.071  26.434  24.579  1.00  0.00    -0.276 N 
BRANCH   9  10
ATOM     10  C   UNL A   1      32.596  27.186  25.714  1.00  0.00     0.049 A 
ATOM     11  C   UNL A   1      31.729  27.606  26.754  1.00  0.00     0.027 A 
ATOM     12  C   UNL A   1      33.917  27.602  25.859  1.00  0.00     0.027 A 
ATOM     13  C   UNL A   1      32.075  28.598  27.681  1.00  0.00     0.002 A 
ATOM     14  C   UNL A   1      34.275  28.611  26.775  1.00  0.00     0.002 A 
ATOM     15  C   UNL A   1      33.341  29.148  27.649  1.00  0.00     0.000 A 
ENDBRANCH   9  10
BRANCH   9  16
ATOM     16  C   UNL A   1      31.127  27.180  23.753  1.00  0.00     0.049 A 
ATOM     17  C   UNL A   1      29.746  26.928  23.856  1.00  0.00     0.027 A 
ATOM     18  C   UNL A   1      31.554  28.269  22.977  1.00  0.00     0.027 A 
ATOM     19  C   UNL A   1      28.821  27.733  23.190  1.00  0.00     0.002 A 
ATOM     20  C   UNL A   1      30.624  29.088  22.330  1.00  0.00     0.002 A 
ATOM     21  C   UNL A   1      29.260  28.819  22.437  1.00  0.00     0.000 A 
ENDBRANCH   9  16
ENDBRANCH   6   7
BRANCH   6  22
ATOM     22  N   UNL A   1      33.329  23.211  25.475  1.00  0.00    -0.320 N 
ATOM     23  C   UNL A   1      32.538  22.009  25.090  1.00  0.00     0.291 C 
ATOM     24  C   UNL A   1      32.836  23.615  26.812  1.00  0.00     0.291 C 
ATOM     25  H   UNL A   1      34.317  22.966  25.538  1.00  0.00     0.348 HD
ATOM     26  C   UNL A   1      31.003  22.164  25.228  1.00  0.00     0.221 C 
ATOM     27  C   UNL A   1      31.299  23.802  26.876  1.00  0.00     0.221 C 
ATOM     28  O   UNL A   1      30.634  22.572  26.549  1.00  0.00    -0.370 OA
ENDBRANCH   6  22
ENDBRANCH   5   6
ENDBRANCH   3   5
ENDBRANCH   2   3
ENDBRANCH   1   2
BRANCH   1  29
ATOM     29  C   UNL A   1      37.438  20.462  25.183  1.00  0.00     0.275 C 
BRANCH  29  30
ATOM     30  O   UNL A   1      38.355  21.555  25.379  1.00  0.00    -0.458 OA
BRANCH  30  31
ATOM     31  C   UNL A   1      39.462  21.277  26.116  1.00  0.00     0.338 C 
ATOM     32  O   UNL A   1      40.105  20.252  26.107  1.00  0.00    -0.246 OA
BRANCH  31  33
ATOM     33  C   UNL A   1      39.886  22.517  26.814  1.00  0.00     0.060 A 
ATOM     34  C   UNL A   1      39.200  23.700  26.514  1.00  0.00     0.016 A 
ATOM     35  C   UNL A   1      40.918  22.525  27.759  1.00  0.00     0.016 A 
ATOM     36  C   UNL A   1      39.580  24.899  27.115  1.00  0.00     0.010 A 
ATOM     37  C   UNL A   1      41.297  23.728  28.365  1.00  0.00     0.010 A 
ATOM     38  C   UNL A   1      40.658  24.928  28.009  1.00  0.00    -0.014 A 
BRANCH  38  39
ATOM     39  C   UNL A   1      41.254  26.243  28.360  1.00  0.00     0.031 A 
ATOM     40  C   UNL A   1      42.667  26.514  27.915  1.00  0.00     0.074 A 
ATOM     41  C   UNL A   1      40.539  27.204  28.970  1.00  0.00     0.049 A 
ATOM     42  N   UNL A   1      43.377  27.609  28.008  1.00  0.00    -0.248 NA
ATOM     43  C   UNL A   1      43.374  25.394  27.270  1.00  0.00     0.031 C 
ATOM     44  C   UNL A   1      39.159  27.071  29.428  1.00  0.00     0.029 A 
ATOM     45  N   UNL A   1      40.880  28.494  29.297  1.00  0.00    -0.354 N 
ATOM     46  C   UNL A   1      44.597  27.316  27.412  1.00  0.00     0.074 A 
ATOM     47  C   UNL A   1      44.558  25.927  27.017  1.00  0.00     0.031 C 
ATOM     48  C   UNL A   1      38.768  28.237  29.976  1.00  0.00     0.029 A 
ATOM     49  C   UNL A   1      39.873  29.192  29.915  1.00  0.00     0.049 A 
ATOM     50  H   UNL A   1      41.766  28.881  29.104  1.00  0.00     0.167 HD
ATOM     51  C   UNL A   1      45.648  28.139  27.186  1.00  0.00     0.037 A 
ATOM     52  C   UNL A   1      39.853  30.460  30.376  1.00  0.00     0.037 A 
ATOM     53  C   UNL A   1      45.700  29.514  27.598  1.00  0.00     0.049 A 
ATOM     54  C   UNL A   1      41.065  31.337  30.173  1.00  0.00     0.074 A 
ATOM     55  C   UNL A   1      46.730  30.425  27.445  1.00  0.00     0.029 A 
ATOM     56  N   UNL A   1      44.673  30.176  28.255  1.00  0.00    -0.354 N 
ATOM     57  N   UNL A   1      42.202  31.060  29.580  1.00  0.00    -0.248 NA
ATOM     58  C   UNL A   1      40.983  32.710  30.690  1.00  0.00     0.031 C 
ATOM     59  C   UNL A   1      46.341  31.627  28.048  1.00  0.00     0.029 A 
ATOM     60  C   UNL A   1      45.049  31.479  28.528  1.00  0.00     0.049 A 
ATOM     61  H   UNL A   1      43.804  29.777  28.490  1.00  0.00     0.167 HD
ATOM     62  C   UNL A   1      42.957  32.226  29.633  1.00  0.00     0.074 A 
ATOM     63  C   UNL A   1      42.137  33.222  30.290  1.00  0.00     0.031 C 
ATOM     64  C   UNL A   1      44.217  32.454  29.185  1.00  0.00     0.037 A 
BRANCH  51  65
ATOM     65  C   UNL A   1      46.830  27.554  26.470  1.00  0.00     0.064 A 
ATOM     66  C   UNL A   1      46.954  27.639  25.073  1.00  0.00     0.173 A 
ATOM     67  C   UNL A   1      47.851  26.909  27.182  1.00  0.00     0.173 A 
ATOM     68  F   UNL A   1      45.992  28.227  24.345  1.00  0.00    -0.203 F 
ATOM     69  C   UNL A   1      48.042  27.073  24.415  1.00  0.00     0.198 A 
ATOM     70  C   UNL A   1      48.953  26.371  26.522  1.00  0.00     0.198 A 
ATOM     71  F   UNL A   1      47.779  26.799  28.516  1.00  0.00    -0.203 F 
ATOM     72  F   UNL A   1      48.113  27.119  23.078  1.00  0.00    -0.200 F 
ATOM     73  C   UNL A   1      49.044  26.446  25.140  1.00  0.00     0.200 A 
ATOM     74  F   UNL A   1      49.924  25.770  27.224  1.00  0.00    -0.200 F 
ATOM     75  F   UNL A   1      50.093  25.903  24.506  1.00  0.00    -0.200 F 
ENDBRANCH  51  65
BRANCH  52  76
ATOM     76  C   UNL A   1      38.649  30.985  31.078  1.00  0.00     0.064 A 
ATOM     77  C   UNL A   1      38.558  30.984  32.476  1.00  0.00     0.173 A 
ATOM     78  C   UNL A   1      37.540  31.450  30.355  1.00  0.00     0.173 A 
ATOM     79  F   UNL A   1      39.579  30.524  33.215  1.00  0.00    -0.203 F 
ATOM     80  C   UNL A   1      37.394  31.399  33.124  1.00  0.00     0.198 A 
ATOM     81  C   UNL A   1      36.389  31.894  31.004  1.00  0.00     0.198 A 
ATOM     82  F   UNL A   1      37.571  31.468  29.015  1.00  0.00    -0.203 F 
ATOM     83  F   UNL A   1      37.313  31.328  34.461  1.00  0.00    -0.200 F 
ATOM     84  C   UNL A   1      36.313  31.857  32.388  1.00  0.00     0.200 A 
ATOM     85  F   UNL A   1      35.350  32.344  30.290  1.00  0.00    -0.200 F 
ATOM     86  F   UNL A   1      35.193  32.250  33.011  1.00  0.00    -0.200 F 
ENDBRANCH  52  76
BRANCH  64  87
ATOM     87  C   UNL A   1      44.773  33.838  29.372  1.00  0.00     0.064 A 
ATOM     88  C   UNL A   1      44.580  34.845  28.413  1.00  0.00     0.173 A 
ATOM     89  C   UNL A   1      45.486  34.169  30.534  1.00  0.00     0.173 A 
ATOM     90  F   UNL A   1      43.915  34.578  27.278  1.00  0.00    -0.203 F 
ATOM     91  C   UNL A   1      45.115  36.118  28.594  1.00  0.00     0.198 A 
ATOM     92  C   UNL A   1      45.989  35.453  30.727  1.00  0.00     0.198 A 
ATOM     93  F   UNL A   1      45.688  33.248  31.489  1.00  0.00    -0.203 F 
ATOM     94  F   UNL A   1      44.970  37.044  27.635  1.00  0.00    -0.200 F 
ATOM     95  C   UNL A   1      45.813  36.422  29.752  1.00  0.00     0.200 A 
ATOM     96  F   UNL A   1      46.650  35.749  31.855  1.00  0.00    -0.200 F 
ATOM     97  F   UNL A   1      46.327  37.648  29.923  1.00  0.00    -0.200 F 
ENDBRANCH  64  87
ENDBRANCH  38  39
ENDBRANCH  31  33
ENDBRANCH  30  31
ENDBRANCH  29  30
ENDBRANCH   1  29
TORSDOF 16
ENDMDL
MODEL 2
REMARK VINA RESULT:     -12.5      0.105      1.554
REMARK SMILES O=C(C[C@@H](C(=O)N(c1ccccc1)c1ccccc1)[NH+]1CCOCC1)OCCOC(=O)c1ccc(-c2c3nc(c(-c4c(F)c(F)c(F)c(F)c4F)c4ccc([nH]4)c(-c4c(F)c(F)c(F)c(F)c4F)c4nc(c(-c5c(F)c(F)c(F)c(F)c5F)c5ccc2[nH]5)C=C4)C=C3)cc1
REMARK SMILES IDX 27 1 26 2 2 3 1 4 3 5 4 6 5 7 6 8 7 9 8 10 9 11 13 12 10 13
REMARK SMILES IDX 12 14 11 15 14 16 15 17 19 18 16 19 18 20 17 21 20 22 21 23
REMARK SMILES IDX 25 24 22 26 24 27 23 28 28 29 29 30 30 31 31 32 32 33 33 34
REMARK SMILES IDX 94 35 34 36 93 37 35 38 36 39 37 40 87 41 38 42 92 43 86 44
REMARK SMILES IDX 88 45 39 46 91 47 85 48 84 49 40 51 72 52 52 53 71 54 53 55
REMARK SMILES IDX 56 56 70 57 89 58 54 59 55 60 69 62 90 63 57 64 41 65 42 66
REMARK SMILES IDX 50 67 43 68 44 69 48 70 51 71 45 72 46 73 49 74 47 75 73 76
REMARK SMILES IDX 74 77 82 78 75 79 76 80 80 81 83 82 77 83 78 84 81 85 79 86
REMARK SMILES IDX 58 87 59 88 67 89 60 90 61 91 65 92 68 93 62 94 63 95 66 96
REMARK SMILES IDX 64 97
REMARK H PARENT 20 25 88 50 56 61
REMARK Flexibility Score: inf
ROOT
ATOM      1  C   UNL A   1      36.128  20.861  24.894  1.00  0.00     0.274 C 
ENDROOT
BRANCH   1   2
ATOM      2  O   UNL A   1      36.027  22.295  24.751  1.00  0.00    -0.462 OA
BRANCH   2   3
ATOM      3  C   UNL A   1      35.737  22.913  23.589  1.00  0.00     0.312 C 
ATOM      4  O   UNL A   1      36.586  23.017  22.706  1.00  0.00    -0.252 OA
BRANCH   3   5
ATOM      5  C   UNL A   1      34.394  23.565  23.412  1.00  0.00     0.198 C 
BRANCH   5   6
ATOM      6  C   UNL A   1      33.612  24.235  24.551  1.00  0.00     0.286 C 
BRANCH   6   7
ATOM      7  C   UNL A   1      32.448  25.172  24.079  1.00  0.00     0.290 C 
ATOM      8  O   UNL A   1      31.840  24.817  23.053  1.00  0.00    -0.267 OA
ATOM      9  N   UNL A   1      32.094  26.422  24.637  1.00  0.00    -0.276 N 
BRANCH   9  10
ATOM     10  C   UNL A   1      32.617  27.186  25.764  1.00  0.00     0.049 A 
ATOM     11  C   UNL A   1      31.752  27.601  26.808  1.00  0.00     0.027 A 
ATOM     12  C   UNL A   1      33.935  27.617  25.898  1.00  0.00     0.027 A 
ATOM     13  C   UNL A   1      32.092  28.601  27.727  1.00  0.00     0.002 A 
ATOM     14  C   UNL A   1      34.286  28.635  26.807  1.00  0.00     0.002 A 
ATOM     15  C   UNL A   1      33.352  29.166  27.684  1.00  0.00     0.000 A 
ENDBRANCH   9  10
BRANCH   9  16
ATOM     16  C   UNL A   1      31.187  27.174  23.775  1.00  0.00     0.049 A 
ATOM     17  C   UNL A   1      29.798  26.962  23.856  1.00  0.00     0.027 A 
ATOM     18  C   UNL A   1      31.658  28.232  22.982  1.00  0.00     0.027 A 
ATOM     19  C   UNL A   1      28.908  27.776  23.153  1.00  0.00     0.002 A 
ATOM     20  C   UNL A   1      30.764  29.060  22.299  1.00  0.00     0.002 A 
ATOM     21  C   UNL A   1      29.392  28.831  22.384  1.00  0.00     0.000 A 
ENDBRANCH   9  16
ENDBRANCH   6   7
BRANCH   6  22
ATOM     22  N   UNL A   1      33.246  23.189  25.632  1.00  0.00    -0.320 N 
ATOM     23  C   UNL A   1      32.560  21.928  25.234  1.00  0.00     0.291 C 
ATOM     24  C   UNL A   1      32.601  23.627  26.892  1.00  0.00     0.291 C 
ATOM     25  H   UNL A   1      34.234  23.002  25.804  1.00  0.00     0.348 HD
ATOM     26  C   UNL A   1      31.013  22.003  25.213  1.00  0.00     0.221 C 
ATOM     27  C   UNL A   1      31.058  23.731  26.795  1.00  0.00     0.221 C 
ATOM     28  O   UNL A   1      30.493  22.452  26.469  1.00  0.00    -0.370 OA
ENDBRANCH   6  22
ENDBRANCH   5   6
ENDBRANCH   3   5
ENDBRANCH   2   3
ENDBRANCH   1   2
BRANCH   1  29
ATOM     29  C   UNL A   1      37.583  20.404  24.998  1.00  0.00     0.275 C 
BRANCH  29  30
ATOM     30  O   UNL A   1      38.428  21.520  25.338  1.00  0.00    -0.458 OA
BRANCH  30  31
ATOM     31  C   UNL A   1      39.498  21.235  26.126  1.00  0.00     0.338 C 
ATOM     32  O   UNL A   1      40.121  20.198  26.163  1.00  0.00    -0.246 OA
BRANCH  31  33
ATOM     33  C   UNL A   1      39.918  22.481  26.817  1.00  0.00     0.060 A 
ATOM     34  C   UNL A   1      39.240  23.663  26.497  1.00  0.00     0.016 A 
ATOM     35  C   UNL A   1      40.939  22.495  27.774  1.00  0.00     0.016 A 
ATOM     36  C   UNL A   1      39.616  24.867  27.090  1.00  0.00     0.010 A 
ATOM     37  C   UNL A   1      41.314  23.703  28.373  1.00  0.00     0.010 A 
ATOM     38  C   UNL A   1      40.683  24.901  27.998  1.00  0.00    -0.014 A 
BRANCH  38  39
ATOM     39  C   UNL A   1      41.280  26.217  28.342  1.00  0.00     0.031 A 
ATOM     40  C   UNL A   1      42.689  26.490  27.888  1.00  0.00     0.074 A 
ATOM     41  C   UNL A   1      40.566  27.178  28.955  1.00  0.00     0.049 A 
ATOM     42  N   UNL A   1      43.398  27.587  27.976  1.00  0.00    -0.248 NA
ATOM     43  C   UNL A   1      43.394  25.370  27.240  1.00  0.00     0.031 C 
ATOM     44  C   UNL A   1      39.189  27.045  29.422  1.00  0.00     0.029 A 
ATOM     45  N   UNL A   1      40.908  28.469  29.278  1.00  0.00    -0.354 N 
ATOM     46  C   UNL A   1      44.614  27.295  27.372  1.00  0.00     0.074 A 
ATOM     47  C   UNL A   1      44.576  25.904  26.980  1.00  0.00     0.031 C 
ATOM     48  C   UNL A   1      38.800  28.210  29.971  1.00  0.00     0.029 A 
ATOM     49  C   UNL A   1      39.904  29.167  29.901  1.00  0.00     0.049 A 
ATOM     50  H   UNL A   1      41.791  28.857  29.079  1.00  0.00     0.167 HD
ATOM     51  C   UNL A   1      45.663  28.118  27.139  1.00  0.00     0.037 A 
ATOM     52  C   UNL A   1      39.884  30.435  30.360  1.00  0.00     0.037 A 
ATOM     53  C   UNL A   1      45.716  29.494  27.548  1.00  0.00     0.049 A 
ATOM     54  C   UNL A   1      41.093  31.314  30.148  1.00  0.00     0.074 A 
ATOM     55  C   UNL A   1      46.743  30.407  27.388  1.00  0.00     0.029 A 
ATOM     56  N   UNL A   1      44.691  30.156  28.210  1.00  0.00    -0.354 N 
ATOM     57  N   UNL A   1      42.227  31.038  29.549  1.00  0.00    -0.248 NA
ATOM     58  C   UNL A   1      41.012  32.688  30.664  1.00  0.00     0.031 C 
ATOM     59  C   UNL A   1      46.356  31.609  27.990  1.00  0.00     0.029 A 
ATOM     60  C   UNL A   1      45.067  31.460  28.479  1.00  0.00     0.049 A 
ATOM     61  H   UNL A   1      43.824  29.756  28.451  1.00  0.00     0.167 HD
ATOM     62  C   UNL A   1      42.981  32.205  29.595  1.00  0.00     0.074 A 
ATOM     63  C   UNL A   1      42.163  33.201  30.256  1.00  0.00     0.031 C 
ATOM     64  C   UNL A   1      44.237  32.435  29.139  1.00  0.00     0.037 A 
BRANCH  51  65
ATOM     65  C   UNL A   1      46.842  27.534  26.416  1.00  0.00     0.064 A 
ATOM     66  C   UNL A   1      47.880  26.891  27.109  1.00  0.00     0.173 A 
ATOM     67  C   UNL A   1      46.934  27.613  25.020  1.00  0.00     0.173 A 
ATOM     68  F   UNL A   1      47.849  26.810  28.448  1.00  0.00    -0.203 F 
ATOM     69  C   UNL A   1      48.980  26.374  26.432  1.00  0.00     0.198 A 
ATOM     70  C   UNL A   1      48.022  27.067  24.343  1.00  0.00     0.198 A 
ATOM     71  F   UNL A   1      45.971  28.219  24.311  1.00  0.00    -0.203 F 
ATOM     72  F   UNL A   1      49.985  25.811  27.118  1.00  0.00    -0.200 F 
ATOM     73  C   UNL A   1      49.048  26.456  25.049  1.00  0.00     0.200 A 
ATOM     74  F   UNL A   1      48.084  27.141  23.006  1.00  0.00    -0.200 F 
ATOM     75  F   UNL A   1      50.107  25.955  24.398  1.00  0.00    -0.200 F 
ENDBRANCH  51  65
BRANCH  52  76
ATOM     76  C   UNL A   1      38.684  30.960  31.068  1.00  0.00     0.064 A 
ATOM     77  C   UNL A   1      38.580  30.917  32.465  1.00  0.00     0.173 A 
ATOM     78  C   UNL A   1      37.589  31.466  30.352  1.00  0.00     0.173 A 
ATOM     79  F   UNL A   1      39.587  30.416  33.197  1.00  0.00    -0.203 F 
ATOM     80  C   UNL A   1      37.419  31.333  33.117  1.00  0.00     0.198 A 
ATOM     81  C   UNL A   1      36.441  31.911  31.005  1.00  0.00     0.198 A 
ATOM     82  F   UNL A   1      37.631  31.525  29.013  1.00  0.00    -0.203 F 
ATOM     83  F   UNL A   1      37.324  31.221  34.449  1.00  0.00    -0.200 F 
ATOM     84  C   UNL A   1      36.352  31.832  32.386  1.00  0.00     0.200 A 
ATOM     85  F   UNL A   1      35.415  32.402  30.296  1.00  0.00    -0.200 F 
ATOM     86  F   UNL A   1      35.234  32.226  33.012  1.00  0.00    -0.200 F 
ENDBRANCH  52  76
BRANCH  64  87
ATOM     87  C   UNL A   1      44.792  33.820  29.320  1.00  0.00     0.064 A 
ATOM     88  C   UNL A   1      45.536  34.173  30.457  1.00  0.00     0.173 A 
ATOM     89  C   UNL A   1      44.599  34.800  28.334  1.00  0.00     0.173 A 
ATOM     90  F   UNL A   1      45.740  33.275  31.435  1.00  0.00    -0.203 F 
ATOM     91  C   UNL A   1      46.030  35.464  30.618  1.00  0.00     0.198 A 
ATOM     92  C   UNL A   1      45.124  36.081  28.482  1.00  0.00     0.198 A 
ATOM     93  F   UNL A   1      43.906  34.513  27.221  1.00  0.00    -0.203 F 
ATOM     94  F   UNL A   1      46.683  35.793  31.741  1.00  0.00    -0.200 F 
ATOM     95  C   UNL A   1      45.829  36.415  29.628  1.00  0.00     0.200 A 
ATOM     96  F   UNL A   1      44.942  36.993  27.518  1.00  0.00    -0.200 F 
ATOM     97  F   UNL A   1      46.305  37.658  29.786  1.00  0.00    -0.200 F 
ENDBRANCH  64  87
ENDBRANCH  38  39
ENDBRANCH  31  33
ENDBRANCH  30  31
ENDBRANCH  29  30
ENDBRANCH   1  29
TORSDOF 16
ENDMDL
MODEL 3
REMARK VINA RESULT:     -12.4      4.057      9.598
REMARK SMILES O=C(C[C@@H](C(=O)N(c1ccccc1)c1ccccc1)[NH+]1CCOCC1)OCCOC(=O)c1ccc(-c2c3nc(c(-c4c(F)c(F)c(F)c(F)c4F)c4ccc([nH]4)c(-c4c(F)c(F)c(F)c(F)c4F)c4nc(c(-c5c(F)c(F)c(F)c(F)c5F)c5ccc2[nH]5)C=C4)C=C3)cc1
REMARK SMILES IDX 27 1 26 2 2 3 1 4 3 5 4 6 5 7 6 8 7 9 8 10 9 11 13 12 10 13
REMARK SMILES IDX 12 14 11 15 14 16 15 17 19 18 16 19 18 20 17 21 20 22 21 23
REMARK SMILES IDX 25 24 22 26 24 27 23 28 28 29 29 30 30 31 31 32 32 33 33 34
REMARK SMILES IDX 94 35 34 36 93 37 35 38 36 39 37 40 87 41 38 42 92 43 86 44
REMARK SMILES IDX 88 45 39 46 91 47 85 48 84 49 40 51 72 52 52 53 71 54 53 55
REMARK SMILES IDX 56 56 70 57 89 58 54 59 55 60 69 62 90 63 57 64 41 65 42 66
REMARK SMILES IDX 50 67 43 68 44 69 48 70 51 71 45 72 46 73 49 74 47 75 73 76
REMARK SMILES IDX 74 77 82 78 75 79 76 80 80 81 83 82 77 83 78 84 81 85 79 86
REMARK SMILES IDX 58 87 59 88 67 89 60 90 61 91 65 92 68 93 62 94 63 95 66 96
REMARK SMILES IDX 64 97
REMARK H PARENT 20 25 88 50 56 61
REMARK Flexibility Score: inf
ROOT
ATOM      1  C   UNL A   1      32.354  29.544  25.703  1.00  0.00     0.274 C 
ENDROOT
BRANCH   1   2
ATOM      2  O   UNL A   1      31.317  28.555  25.884  1.00  0.00    -0.462 OA
BRANCH   2   3
ATOM      3  C   UNL A   1      31.375  27.567  26.799  1.00  0.00     0.312 C 
ATOM      4  O   UNL A   1      31.403  27.828  28.001  1.00  0.00    -0.252 OA
BRANCH   3   5
ATOM      5  C   UNL A   1      31.503  26.141  26.343  1.00  0.00     0.198 C 
BRANCH   5   6
ATOM      6  C   UNL A   1      32.408  25.691  25.186  1.00  0.00     0.286 C 
BRANCH   6   7
ATOM      7  C   UNL A   1      32.312  24.166  24.840  1.00  0.00     0.290 C 
ATOM      8  O   UNL A   1      31.168  23.679  24.819  1.00  0.00    -0.267 OA
ATOM      9  N   UNL A   1      33.394  23.275  24.656  1.00  0.00    -0.276 N 
BRANCH   9  10
ATOM     10  C   UNL A   1      34.841  23.457  24.685  1.00  0.00     0.049 A 
ATOM     11  C   UNL A   1      35.638  23.023  23.595  1.00  0.00     0.027 A 
ATOM     12  C   UNL A   1      35.562  23.990  25.751  1.00  0.00     0.027 A 
ATOM     13  C   UNL A   1      37.024  22.851  23.684  1.00  0.00     0.002 A 
ATOM     14  C   UNL A   1      36.954  23.809  25.861  1.00  0.00     0.002 A 
ATOM     15  C   UNL A   1      37.678  23.190  24.852  1.00  0.00     0.000 A 
ENDBRANCH   9  10
BRANCH   9  16
ATOM     16  C   UNL A   1      32.967  21.879  24.664  1.00  0.00     0.049 A 
ATOM     17  C   UNL A   1      32.528  21.268  23.474  1.00  0.00     0.027 A 
ATOM     18  C   UNL A   1      33.146  21.078  25.802  1.00  0.00     0.027 A 
ATOM     19  C   UNL A   1      32.263  19.898  23.430  1.00  0.00     0.002 A 
ATOM     20  C   UNL A   1      32.903  19.703  25.749  1.00  0.00     0.002 A 
ATOM     21  C   UNL A   1      32.461  19.116  24.564  1.00  0.00     0.000 A 
ENDBRANCH   9  16
ENDBRANCH   6   7
BRANCH   6  22
ATOM     22  N   UNL A   1      32.269  26.668  23.993  1.00  0.00    -0.320 N 
ATOM     23  C   UNL A   1      31.120  26.530  23.057  1.00  0.00     0.291 C 
ATOM     24  C   UNL A   1      33.450  26.973  23.151  1.00  0.00     0.291 C 
ATOM     25  H   UNL A   1      32.100  27.445  24.633  1.00  0.00     0.348 HD
ATOM     26  C   UNL A   1      31.362  25.578  21.859  1.00  0.00     0.221 C 
ATOM     27  C   UNL A   1      33.669  25.959  22.001  1.00  0.00     0.221 C 
ATOM     28  O   UNL A   1      32.533  25.948  21.124  1.00  0.00    -0.370 OA
ENDBRANCH   6  22
ENDBRANCH   5   6
ENDBRANCH   3   5
ENDBRANCH   2   3
ENDBRANCH   1   2
BRANCH   1  29
ATOM     29  C   UNL A   1      32.030  30.843  26.440  1.00  0.00     0.275 C 
BRANCH  29  30
ATOM     30  O   UNL A   1      32.840  30.954  27.626  1.00  0.00    -0.458 OA
BRANCH  30  31
ATOM     31  C   UNL A   1      33.652  32.041  27.692  1.00  0.00     0.338 C 
ATOM     32  O   UNL A   1      33.320  33.203  27.626  1.00  0.00    -0.246 OA
BRANCH  31  33
ATOM     33  C   UNL A   1      35.018  31.587  28.053  1.00  0.00     0.060 A 
ATOM     34  C   UNL A   1      35.237  30.210  28.172  1.00  0.00     0.016 A 
ATOM     35  C   UNL A   1      36.074  32.484  28.253  1.00  0.00     0.016 A 
ATOM     36  C   UNL A   1      36.492  29.730  28.543  1.00  0.00     0.010 A 
ATOM     37  C   UNL A   1      37.335  32.003  28.621  1.00  0.00     0.010 A 
ATOM     38  C   UNL A   1      37.536  30.625  28.813  1.00  0.00    -0.014 A 
BRANCH  38  39
ATOM     39  C   UNL A   1      38.735  30.121  29.530  1.00  0.00     0.031 A 
ATOM     40  C   UNL A   1      38.961  30.595  30.941  1.00  0.00     0.074 A 
ATOM     41  C   UNL A   1      39.549  29.201  28.984  1.00  0.00     0.049 A 
ATOM     42  N   UNL A   1      39.871  30.232  31.809  1.00  0.00    -0.248 NA
ATOM     43  C   UNL A   1      38.026  31.616  31.444  1.00  0.00     0.031 C 
ATOM     44  C   UNL A   1      39.423  28.647  27.639  1.00  0.00     0.029 A 
ATOM     45  N   UNL A   1      40.643  28.558  29.512  1.00  0.00    -0.354 N 
ATOM     46  C   UNL A   1      39.599  30.958  32.961  1.00  0.00     0.074 A 
ATOM     47  C   UNL A   1      38.483  31.828  32.666  1.00  0.00     0.031 C 
ATOM     48  C   UNL A   1      40.402  27.745  27.445  1.00  0.00     0.029 A 
ATOM     49  C   UNL A   1      41.228  27.664  28.650  1.00  0.00     0.049 A 
ATOM     50  H   UNL A   1      40.976  28.724  30.424  1.00  0.00     0.167 HD
ATOM     51  C   UNL A   1      40.206  30.889  34.169  1.00  0.00     0.037 A 
ATOM     52  C   UNL A   1      42.306  26.872  28.821  1.00  0.00     0.037 A 
ATOM     53  C   UNL A   1      41.330  30.043  34.460  1.00  0.00     0.049 A 
ATOM     54  C   UNL A   1      43.009  26.863  30.157  1.00  0.00     0.074 A 
ATOM     55  C   UNL A   1      42.038  29.919  35.642  1.00  0.00     0.029 A 
ATOM     56  N   UNL A   1      41.917  29.177  33.548  1.00  0.00    -0.354 N 
ATOM     57  N   UNL A   1      42.725  27.530  31.251  1.00  0.00    -0.248 NA
ATOM     58  C   UNL A   1      44.173  25.976  30.287  1.00  0.00     0.031 C 
ATOM     59  C   UNL A   1      43.080  29.008  35.432  1.00  0.00     0.029 A 
ATOM     60  C   UNL A   1      42.988  28.526  34.136  1.00  0.00     0.049 A 
ATOM     61  H   UNL A   1      41.615  29.044  32.620  1.00  0.00     0.167 HD
ATOM     62  C   UNL A   1      43.657  27.128  32.200  1.00  0.00     0.074 A 
ATOM     63  C   UNL A   1      44.498  26.136  31.562  1.00  0.00     0.031 C 
ATOM     64  C   UNL A   1      43.812  27.543  33.482  1.00  0.00     0.037 A 
BRANCH  51  65
ATOM     65  C   UNL A   1      39.663  31.768  35.257  1.00  0.00     0.064 A 
ATOM     66  C   UNL A   1      38.667  31.312  36.137  1.00  0.00     0.173 A 
ATOM     67  C   UNL A   1      40.144  33.073  35.429  1.00  0.00     0.173 A 
ATOM     68  F   UNL A   1      38.158  30.078  35.999  1.00  0.00    -0.203 F 
ATOM     69  C   UNL A   1      38.153  32.143  37.128  1.00  0.00     0.198 A 
ATOM     70  C   UNL A   1      39.648  33.891  36.441  1.00  0.00     0.198 A 
ATOM     71  F   UNL A   1      41.093  33.557  34.614  1.00  0.00    -0.203 F 
ATOM     72  F   UNL A   1      37.165  31.705  37.921  1.00  0.00    -0.200 F 
ATOM     73  C   UNL A   1      38.648  33.428  37.285  1.00  0.00     0.200 A 
ATOM     74  F   UNL A   1      40.132  35.131  36.596  1.00  0.00    -0.200 F 
ATOM     75  F   UNL A   1      38.154  34.227  38.241  1.00  0.00    -0.200 F 
ENDBRANCH  51  65
BRANCH  52  76
ATOM     76  C   UNL A   1      42.797  26.019  27.704  1.00  0.00     0.064 A 
ATOM     77  C   UNL A   1      43.784  26.470  26.816  1.00  0.00     0.173 A 
ATOM     78  C   UNL A   1      42.245  24.750  27.470  1.00  0.00     0.173 A 
ATOM     79  F   UNL A   1      44.325  27.687  26.978  1.00  0.00    -0.203 F 
ATOM     80  C   UNL A   1      44.179  25.700  25.723  1.00  0.00     0.198 A 
ATOM     81  C   UNL A   1      42.663  23.968  26.395  1.00  0.00     0.198 A 
ATOM     82  F   UNL A   1      41.294  24.271  28.284  1.00  0.00    -0.203 F 
ATOM     83  F   UNL A   1      45.079  26.183  24.855  1.00  0.00    -0.200 F 
ATOM     84  C   UNL A   1      43.621  24.448  25.515  1.00  0.00     0.200 A 
ATOM     85  F   UNL A   1      42.127  22.755  26.203  1.00  0.00    -0.200 F 
ATOM     86  F   UNL A   1      43.996  23.710  24.461  1.00  0.00    -0.200 F 
ENDBRANCH  52  76
BRANCH  64  87
ATOM     87  C   UNL A   1      44.915  26.909  34.282  1.00  0.00     0.064 A 
ATOM     88  C   UNL A   1      46.198  27.474  34.344  1.00  0.00     0.173 A 
ATOM     89  C   UNL A   1      44.681  25.734  35.013  1.00  0.00     0.173 A 
ATOM     90  F   UNL A   1      46.478  28.591  33.654  1.00  0.00    -0.203 F 
ATOM     91  C   UNL A   1      47.214  26.867  35.077  1.00  0.00     0.198 A 
ATOM     92  C   UNL A   1      45.689  25.149  35.773  1.00  0.00     0.198 A 
ATOM     93  F   UNL A   1      43.468  25.159  34.999  1.00  0.00    -0.203 F 
ATOM     94  F   UNL A   1      48.447  27.392  35.071  1.00  0.00    -0.200 F 
ATOM     95  C   UNL A   1      46.957  25.708  35.795  1.00  0.00     0.200 A 
ATOM     96  F   UNL A   1      45.435  24.038  36.479  1.00  0.00    -0.200 F 
ATOM     97  F   UNL A   1      47.937  25.125  36.499  1.00  0.00    -0.200 F 
ENDBRANCH  64  87
ENDBRANCH  38  39
ENDBRANCH  31  33
ENDBRANCH  30  31
ENDBRANCH  29  30
ENDBRANCH   1  29
TORSDOF 16
ENDMDL
