MODEL 1
REMARK VINA RESULT:     -10.9      0.000      0.000
REMARK SMILES O=C(/C=C/C(=O)OCCOC(=O)c1ccc(-c2c3nc(c(-c4c(F)c(F)c(F)c(F)c4F)c4ccc([nH]4)c(-c4c(F)c(F)c(F)c(F)c4F)c4nc(c(-c5c(F)c(F)c(F)c(F)c5F)c5ccc2[nH]5)C=C4)C=C3)cc1)Nc1ccccn1
REMARK SMILES IDX 8 1 7 2 5 3 6 4 4 5 3 6 2 7 1 8 76 9 77 11 78 12 82 13 79 14
REMARK SMILES IDX 81 15 80 16 9 17 10 18 11 19 12 20 13 21 14 22 75 23 15 24
REMARK SMILES IDX 74 25 16 26 17 27 18 28 68 29 19 30 73 31 67 32 69 33 20 34
REMARK SMILES IDX 72 35 66 36 65 37 21 39 53 40 33 41 52 42 34 43 37 44 51 45
REMARK SMILES IDX 70 46 35 47 36 48 50 50 71 51 38 52 22 53 23 54 31 55 24 56
REMARK SMILES IDX 25 57 29 58 32 59 26 60 27 61 30 62 28 63 54 64 55 65 63 66
REMARK SMILES IDX 56 67 57 68 61 69 64 70 58 71 59 72 62 73 60 74 39 75 40 76
REMARK SMILES IDX 48 77 41 78 42 79 46 80 49 81 43 82 44 83 47 84 45 85
REMARK H PARENT 76 10 69 38 37 49
REMARK Flexibility Score: inf
ROOT
ATOM      1  C   UNL A   1      34.373  35.191  32.750  1.00  0.00     0.275 C 
ENDROOT
BRANCH   1   2
ATOM      2  O   UNL A   1      33.050  35.437  32.236  1.00  0.00    -0.459 OA
BRANCH   2   3
ATOM      3  C   UNL A   1      32.982  35.872  30.956  1.00  0.00     0.331 C 
ATOM      4  O   UNL A   1      32.700  37.003  30.589  1.00  0.00    -0.247 OA
BRANCH   3   5
ATOM      5  C   UNL A   1      33.339  34.826  29.982  1.00  0.00     0.099 C 
ATOM      6  C   UNL A   1      34.281  34.955  29.037  1.00  0.00     0.079 C 
BRANCH   6   7
ATOM      7  C   UNL A   1      34.603  33.798  28.172  1.00  0.00     0.249 C 
ATOM      8  O   UNL A   1      35.430  33.942  27.282  1.00  0.00    -0.270 OA
ATOM      9  N   UNL A   1      33.871  32.677  28.459  1.00  0.00    -0.307 N 
ATOM     10  H   UNL A   1      33.165  32.779  29.137  1.00  0.00     0.171 HD
BRANCH   9  11
ATOM     11  C   UNL A   1      34.012  31.405  27.900  1.00  0.00     0.132 A 
ATOM     12  C   UNL A   1      35.161  30.633  28.016  1.00  0.00     0.047 A 
ATOM     13  N   UNL A   1      32.909  30.971  27.249  1.00  0.00    -0.239 NA
ATOM     14  C   UNL A   1      35.190  29.372  27.421  1.00  0.00     0.005 A 
ATOM     15  C   UNL A   1      32.971  29.751  26.667  1.00  0.00     0.113 A 
ATOM     16  C   UNL A   1      34.077  28.922  26.724  1.00  0.00     0.020 A 
ENDBRANCH   9  11
ENDBRANCH   6   7
ENDBRANCH   3   5
ENDBRANCH   2   3
ENDBRANCH   1   2
BRANCH   1  17
ATOM     17  C   UNL A   1      34.433  33.896  33.568  1.00  0.00     0.275 C 
BRANCH  17  18
ATOM     18  O   UNL A   1      35.578  33.092  33.225  1.00  0.00    -0.458 OA
BRANCH  18  19
ATOM     19  C   UNL A   1      35.432  32.333  32.113  1.00  0.00     0.338 C 
ATOM     20  O   UNL A   1      34.398  32.100  31.508  1.00  0.00    -0.246 OA
BRANCH  19  21
ATOM     21  C   UNL A   1      36.753  31.914  31.610  1.00  0.00     0.060 A 
ATOM     22  C   UNL A   1      37.082  32.255  30.295  1.00  0.00     0.016 A 
ATOM     23  C   UNL A   1      37.625  31.141  32.381  1.00  0.00     0.016 A 
ATOM     24  C   UNL A   1      38.280  31.816  29.738  1.00  0.00     0.010 A 
ATOM     25  C   UNL A   1      38.828  30.699  31.820  1.00  0.00     0.010 A 
ATOM     26  C   UNL A   1      39.155  31.022  30.491  1.00  0.00    -0.014 A 
BRANCH  26  27
ATOM     27  C   UNL A   1      40.384  30.489  29.856  1.00  0.00     0.031 A 
ATOM     28  C   UNL A   1      41.587  31.374  29.701  1.00  0.00     0.074 A 
ATOM     29  C   UNL A   1      40.432  29.205  29.459  1.00  0.00     0.049 A 
ATOM     30  N   UNL A   1      42.744  31.112  29.147  1.00  0.00    -0.248 NA
ATOM     31  C   UNL A   1      41.475  32.737  30.243  1.00  0.00     0.031 C 
ATOM     32  C   UNL A   1      39.340  28.241  29.592  1.00  0.00     0.029 A 
ATOM     33  N   UNL A   1      41.441  28.491  28.862  1.00  0.00    -0.354 N 
ATOM     34  C   UNL A   1      43.495  32.272  29.272  1.00  0.00     0.074 A 
ATOM     35  C   UNL A   1      42.657  33.251  29.929  1.00  0.00     0.031 C 
ATOM     36  C   UNL A   1      39.737  27.060  29.089  1.00  0.00     0.029 A 
ATOM     37  C   UNL A   1      41.095  27.195  28.567  1.00  0.00     0.049 A 
ATOM     38  H   UNL A   1      42.327  28.871  28.664  1.00  0.00     0.167 HD
ATOM     39  C   UNL A   1      44.774  32.493  28.881  1.00  0.00     0.037 A 
ATOM     40  C   UNL A   1      41.789  26.235  27.928  1.00  0.00     0.037 A 
ATOM     41  C   UNL A   1      45.607  31.517  28.231  1.00  0.00     0.049 A 
ATOM     42  C   UNL A   1      43.187  26.529  27.452  1.00  0.00     0.074 A 
ATOM     43  C   UNL A   1      46.912  31.652  27.789  1.00  0.00     0.029 A 
ATOM     44  N   UNL A   1      45.216  30.221  27.929  1.00  0.00    -0.354 N 
ATOM     45  N   UNL A   1      43.890  27.628  27.577  1.00  0.00    -0.248 NA
ATOM     46  C   UNL A   1      43.889  25.448  26.745  1.00  0.00     0.031 C 
ATOM     47  C   UNL A   1      47.298  30.449  27.189  1.00  0.00     0.029 A 
ATOM     48  C   UNL A   1      46.249  29.550  27.296  1.00  0.00     0.049 A 
ATOM     49  H   UNL A   1      44.333  29.835  28.135  1.00  0.00     0.167 HD
ATOM     50  C   UNL A   1      45.121  27.364  26.992  1.00  0.00     0.074 A 
ATOM     51  C   UNL A   1      45.076  25.994  26.524  1.00  0.00     0.031 C 
ATOM     52  C   UNL A   1      46.192  28.182  26.851  1.00  0.00     0.037 A 
BRANCH  39  53
ATOM     53  C   UNL A   1      45.351  33.854  29.135  1.00  0.00     0.064 A 
ATOM     54  C   UNL A   1      46.068  34.139  30.306  1.00  0.00     0.173 A 
ATOM     55  C   UNL A   1      45.234  34.867  28.172  1.00  0.00     0.173 A 
ATOM     56  F   UNL A   1      46.197  33.207  31.262  1.00  0.00    -0.203 F 
ATOM     57  C   UNL A   1      46.637  35.394  30.509  1.00  0.00     0.198 A 
ATOM     58  C   UNL A   1      45.824  36.113  28.368  1.00  0.00     0.198 A 
ATOM     59  F   UNL A   1      44.561  34.643  27.032  1.00  0.00    -0.203 F 
ATOM     60  F   UNL A   1      47.291  35.655  31.649  1.00  0.00    -0.200 F 
ATOM     61  C   UNL A   1      46.521  36.376  29.537  1.00  0.00     0.200 A 
ATOM     62  F   UNL A   1      45.721  37.058  27.422  1.00  0.00    -0.200 F 
ATOM     63  F   UNL A   1      47.078  37.580  29.729  1.00  0.00    -0.200 F 
ENDBRANCH  39  53
BRANCH  40  64
ATOM     64  C   UNL A   1      41.168  24.907  27.678  1.00  0.00     0.064 A 
ATOM     65  C   UNL A   1      41.627  23.757  28.335  1.00  0.00     0.173 A 
ATOM     66  C   UNL A   1      40.124  24.759  26.754  1.00  0.00     0.173 A 
ATOM     67  F   UNL A   1      42.643  23.844  29.207  1.00  0.00    -0.203 F 
ATOM     68  C   UNL A   1      41.081  22.505  28.058  1.00  0.00     0.198 A 
ATOM     69  C   UNL A   1      39.559  23.512  26.501  1.00  0.00     0.198 A 
ATOM     70  F   UNL A   1      39.651  25.828  26.098  1.00  0.00    -0.203 F 
ATOM     71  F   UNL A   1      41.577  21.414  28.658  1.00  0.00    -0.200 F 
ATOM     72  C   UNL A   1      40.044  22.384  27.145  1.00  0.00     0.200 A 
ATOM     73  F   UNL A   1      38.551  23.400  25.625  1.00  0.00    -0.200 F 
ATOM     74  F   UNL A   1      39.523  21.180  26.876  1.00  0.00    -0.200 F 
ENDBRANCH  40  64
BRANCH  52  75
ATOM     75  C   UNL A   1      47.415  27.608  26.199  1.00  0.00     0.064 A 
ATOM     76  C   UNL A   1      48.439  27.015  26.951  1.00  0.00     0.173 A 
ATOM     77  C   UNL A   1      47.544  27.616  24.802  1.00  0.00     0.173 A 
ATOM     78  F   UNL A   1      48.368  26.996  28.291  1.00  0.00    -0.203 F 
ATOM     79  C   UNL A   1      49.560  26.473  26.329  1.00  0.00     0.198 A 
ATOM     80  C   UNL A   1      48.653  27.050  24.182  1.00  0.00     0.198 A 
ATOM     81  F   UNL A   1      46.587  28.165  24.037  1.00  0.00    -0.203 F 
ATOM     82  F   UNL A   1      50.548  25.951  27.070  1.00  0.00    -0.200 F 
ATOM     83  C   UNL A   1      49.664  26.485  24.946  1.00  0.00     0.200 A 
ATOM     84  F   UNL A   1      48.746  27.051  22.845  1.00  0.00    -0.200 F 
ATOM     85  F   UNL A   1      50.741  25.957  24.349  1.00  0.00    -0.200 F 
ENDBRANCH  52  75
ENDBRANCH  26  27
ENDBRANCH  19  21
ENDBRANCH  18  19
ENDBRANCH  17  18
ENDBRANCH   1  17
TORSDOF 13
ENDMDL
MODEL 2
REMARK VINA RESULT:     -10.7      6.174     11.414
REMARK SMILES O=C(/C=C/C(=O)OCCOC(=O)c1ccc(-c2c3nc(c(-c4c(F)c(F)c(F)c(F)c4F)c4ccc([nH]4)c(-c4c(F)c(F)c(F)c(F)c4F)c4nc(c(-c5c(F)c(F)c(F)c(F)c5F)c5ccc2[nH]5)C=C4)C=C3)cc1)Nc1ccccn1
REMARK SMILES IDX 8 1 7 2 5 3 6 4 4 5 3 6 2 7 1 8 76 9 77 11 78 12 82 13 79 14
REMARK SMILES IDX 81 15 80 16 9 17 10 18 11 19 12 20 13 21 14 22 75 23 15 24
REMARK SMILES IDX 74 25 16 26 17 27 18 28 68 29 19 30 73 31 67 32 69 33 20 34
REMARK SMILES IDX 72 35 66 36 65 37 21 39 53 40 33 41 52 42 34 43 37 44 51 45
REMARK SMILES IDX 70 46 35 47 36 48 50 50 71 51 38 52 22 53 23 54 31 55 24 56
REMARK SMILES IDX 25 57 29 58 32 59 26 60 27 61 30 62 28 63 54 64 55 65 63 66
REMARK SMILES IDX 56 67 57 68 61 69 64 70 58 71 59 72 62 73 60 74 39 75 40 76
REMARK SMILES IDX 48 77 41 78 42 79 46 80 49 81 43 82 44 83 47 84 45 85
REMARK H PARENT 76 10 69 38 37 49
REMARK Flexibility Score: inf
ROOT
ATOM      1  C   UNL A   1      42.795  20.602  26.089  1.00  0.00     0.275 C 
ENDROOT
BRANCH   1   2
ATOM      2  O   UNL A   1      41.419  20.864  25.753  1.00  0.00    -0.459 OA
BRANCH   2   3
ATOM      3  C   UNL A   1      40.587  21.095  26.795  1.00  0.00     0.331 C 
ATOM      4  O   UNL A   1      40.891  21.098  27.979  1.00  0.00    -0.247 OA
BRANCH   3   5
ATOM      5  C   UNL A   1      39.212  21.404  26.365  1.00  0.00     0.099 C 
ATOM      6  C   UNL A   1      38.760  22.634  26.088  1.00  0.00     0.079 C 
BRANCH   6   7
ATOM      7  C   UNL A   1      37.378  22.802  25.584  1.00  0.00     0.249 C 
ATOM      8  O   UNL A   1      37.148  23.702  24.788  1.00  0.00    -0.270 OA
ATOM      9  N   UNL A   1      36.484  21.921  26.130  1.00  0.00    -0.307 N 
ATOM     10  H   UNL A   1      36.827  21.339  26.846  1.00  0.00     0.171 HD
BRANCH   9  11
ATOM     11  C   UNL A   1      35.140  21.755  25.788  1.00  0.00     0.132 A 
ATOM     12  C   UNL A   1      34.710  21.244  24.571  1.00  0.00     0.047 A 
ATOM     13  N   UNL A   1      34.280  22.112  26.769  1.00  0.00    -0.239 NA
ATOM     14  C   UNL A   1      33.341  21.115  24.337  1.00  0.00     0.005 A 
ATOM     15  C   UNL A   1      32.957  21.994  26.509  1.00  0.00     0.113 A 
ATOM     16  C   UNL A   1      32.443  21.505  25.321  1.00  0.00     0.020 A 
ENDBRANCH   9  11
ENDBRANCH   6   7
ENDBRANCH   3   5
ENDBRANCH   2   3
ENDBRANCH   1   2
BRANCH   1  17
ATOM     17  C   UNL A   1      43.748  21.572  25.382  1.00  0.00     0.275 C 
BRANCH  17  18
ATOM     18  O   UNL A   1      43.061  22.732  24.874  1.00  0.00    -0.458 OA
BRANCH  18  19
ATOM     19  C   UNL A   1      43.751  23.894  24.970  1.00  0.00     0.338 C 
ATOM     20  O   UNL A   1      44.663  24.272  24.254  1.00  0.00    -0.246 OA
BRANCH  19  21
ATOM     21  C   UNL A   1      43.150  24.754  26.005  1.00  0.00     0.060 A 
ATOM     22  C   UNL A   1      43.677  26.040  26.164  1.00  0.00     0.016 A 
ATOM     23  C   UNL A   1      42.139  24.293  26.852  1.00  0.00     0.016 A 
ATOM     24  C   UNL A   1      43.206  26.868  27.179  1.00  0.00     0.010 A 
ATOM     25  C   UNL A   1      41.667  25.126  27.874  1.00  0.00     0.010 A 
ATOM     26  C   UNL A   1      42.209  26.412  28.051  1.00  0.00    -0.014 A 
BRANCH  26  27
ATOM     27  C   UNL A   1      41.780  27.271  29.180  1.00  0.00     0.031 A 
ATOM     28  C   UNL A   1      42.547  27.243  30.471  1.00  0.00     0.074 A 
ATOM     29  C   UNL A   1      40.734  28.104  29.031  1.00  0.00     0.049 A 
ATOM     30  N   UNL A   1      42.319  27.893  31.585  1.00  0.00    -0.248 NA
ATOM     31  C   UNL A   1      43.729  26.369  30.515  1.00  0.00     0.031 C 
ATOM     32  C   UNL A   1      39.938  28.246  27.812  1.00  0.00     0.029 A 
ATOM     33  N   UNL A   1      40.162  28.987  29.912  1.00  0.00    -0.354 N 
ATOM     34  C   UNL A   1      43.323  27.506  32.461  1.00  0.00     0.074 A 
ATOM     35  C   UNL A   1      44.149  26.546  31.761  1.00  0.00     0.031 C 
ATOM     36  C   UNL A   1      38.978  29.161  28.022  1.00  0.00     0.029 A 
ATOM     37  C   UNL A   1      39.069  29.641  29.400  1.00  0.00     0.049 A 
ATOM     38  H   UNL A   1      40.502  29.137  30.823  1.00  0.00     0.167 HD
ATOM     39  C   UNL A   1      43.541  27.925  33.731  1.00  0.00     0.037 A 
ATOM     40  C   UNL A   1      38.225  30.513  29.984  1.00  0.00     0.037 A 
ATOM     41  C   UNL A   1      42.721  28.884  34.423  1.00  0.00     0.049 A 
ATOM     42  C   UNL A   1      38.458  30.915  31.417  1.00  0.00     0.074 A 
ATOM     43  C   UNL A   1      42.857  29.363  35.715  1.00  0.00     0.029 A 
ATOM     44  N   UNL A   1      41.610  29.509  33.880  1.00  0.00    -0.354 N 
ATOM     45  N   UNL A   1      39.413  30.547  32.235  1.00  0.00    -0.248 NA
ATOM     46  C   UNL A   1      37.495  31.856  32.007  1.00  0.00     0.031 C 
ATOM     47  C   UNL A   1      41.808  30.253  35.964  1.00  0.00     0.029 A 
ATOM     48  C   UNL A   1      41.043  30.361  34.814  1.00  0.00     0.049 A 
ATOM     49  H   UNL A   1      41.273  29.370  32.965  1.00  0.00     0.167 HD
ATOM     50  C   UNL A   1      39.182  31.228  33.424  1.00  0.00     0.074 A 
ATOM     51  C   UNL A   1      38.005  32.045  33.215  1.00  0.00     0.031 C 
ATOM     52  C   UNL A   1      39.880  31.179  34.584  1.00  0.00     0.037 A 
BRANCH  39  53
ATOM     53  C   UNL A   1      44.711  27.340  34.464  1.00  0.00     0.064 A 
ATOM     54  C   UNL A   1      45.959  27.978  34.482  1.00  0.00     0.173 A 
ATOM     55  C   UNL A   1      44.566  26.156  35.203  1.00  0.00     0.173 A 
ATOM     56  F   UNL A   1      46.150  29.105  33.782  1.00  0.00    -0.203 F 
ATOM     57  C   UNL A   1      47.025  27.445  35.204  1.00  0.00     0.198 A 
ATOM     58  C   UNL A   1      45.627  25.638  35.942  1.00  0.00     0.198 A 
ATOM     59  F   UNL A   1      43.391  25.508  35.221  1.00  0.00    -0.203 F 
ATOM     60  F   UNL A   1      48.217  28.055  35.183  1.00  0.00    -0.200 F 
ATOM     61  C   UNL A   1      46.855  26.281  35.938  1.00  0.00     0.200 A 
ATOM     62  F   UNL A   1      45.458  24.520  36.661  1.00  0.00    -0.200 F 
ATOM     63  F   UNL A   1      47.878  25.776  36.642  1.00  0.00    -0.200 F 
ENDBRANCH  39  53
BRANCH  40  64
ATOM     64  C   UNL A   1      37.066  31.052  29.226  1.00  0.00     0.064 A 
ATOM     65  C   UNL A   1      37.042  32.383  28.787  1.00  0.00     0.173 A 
ATOM     66  C   UNL A   1      35.947  30.253  28.952  1.00  0.00     0.173 A 
ATOM     67  F   UNL A   1      38.078  33.193  29.050  1.00  0.00    -0.203 F 
ATOM     68  C   UNL A   1      35.931  32.901  28.125  1.00  0.00     0.198 A 
ATOM     69  C   UNL A   1      34.849  30.764  28.264  1.00  0.00     0.198 A 
ATOM     70  F   UNL A   1      35.920  28.974  29.352  1.00  0.00    -0.203 F 
ATOM     71  F   UNL A   1      35.910  34.192  27.767  1.00  0.00    -0.200 F 
ATOM     72  C   UNL A   1      34.837  32.090  27.859  1.00  0.00     0.200 A 
ATOM     73  F   UNL A   1      33.799  29.975  28.001  1.00  0.00    -0.200 F 
ATOM     74  F   UNL A   1      33.768  32.590  27.226  1.00  0.00    -0.200 F 
ENDBRANCH  40  64
BRANCH  52  75
ATOM     75  C   UNL A   1      39.413  32.060  35.705  1.00  0.00     0.064 A 
ATOM     76  C   UNL A   1      39.869  33.379  35.842  1.00  0.00     0.173 A 
ATOM     77  C   UNL A   1      38.467  31.591  36.629  1.00  0.00     0.173 A 
ATOM     78  F   UNL A   1      40.784  33.868  34.991  1.00  0.00    -0.203 F 
ATOM     79  C   UNL A   1      39.414  34.188  36.878  1.00  0.00     0.198 A 
ATOM     80  C   UNL A   1      37.995  32.411  37.649  1.00  0.00     0.198 A 
ATOM     81  F   UNL A   1      37.995  30.339  36.536  1.00  0.00    -0.203 F 
ATOM     82  F   UNL A   1      39.896  35.431  37.017  1.00  0.00    -0.200 F 
ATOM     83  C   UNL A   1      38.473  33.707  37.777  1.00  0.00     0.200 A 
ATOM     84  F   UNL A   1      37.076  31.948  38.509  1.00  0.00    -0.200 F 
ATOM     85  F   UNL A   1      38.032  34.489  38.771  1.00  0.00    -0.200 F 
ENDBRANCH  52  75
ENDBRANCH  26  27
ENDBRANCH  19  21
ENDBRANCH  18  19
ENDBRANCH  17  18
ENDBRANCH   1  17
TORSDOF 13
ENDMDL
MODEL 3
REMARK VINA RESULT:     -10.6      5.147     11.098
REMARK SMILES O=C(/C=C/C(=O)OCCOC(=O)c1ccc(-c2c3nc(c(-c4c(F)c(F)c(F)c(F)c4F)c4ccc([nH]4)c(-c4c(F)c(F)c(F)c(F)c4F)c4nc(c(-c5c(F)c(F)c(F)c(F)c5F)c5ccc2[nH]5)C=C4)C=C3)cc1)Nc1ccccn1
REMARK SMILES IDX 8 1 7 2 5 3 6 4 4 5 3 6 2 7 1 8 76 9 77 11 78 12 82 13 79 14
REMARK SMILES IDX 81 15 80 16 9 17 10 18 11 19 12 20 13 21 14 22 75 23 15 24
REMARK SMILES IDX 74 25 16 26 17 27 18 28 68 29 19 30 73 31 67 32 69 33 20 34
REMARK SMILES IDX 72 35 66 36 65 37 21 39 53 40 33 41 52 42 34 43 37 44 51 45
REMARK SMILES IDX 70 46 35 47 36 48 50 50 71 51 38 52 22 53 23 54 31 55 24 56
REMARK SMILES IDX 25 57 29 58 32 59 26 60 27 61 30 62 28 63 54 64 55 65 63 66
REMARK SMILES IDX 56 67 57 68 61 69 64 70 58 71 59 72 62 73 60 74 39 75 40 76
REMARK SMILES IDX 48 77 41 78 42 79 46 80 49 81 43 82 44 83 47 84 45 85
REMARK H PARENT 76 10 69 38 37 49
REMARK Flexibility Score: inf
ROOT
ATOM      1  C   UNL A   1      41.753  19.898  26.544  1.00  0.00     0.275 C 
ENDROOT
BRANCH   1   2
ATOM      2  O   UNL A   1      42.235  19.322  25.315  1.00  0.00    -0.459 OA
BRANCH   2   3
ATOM      3  C   UNL A   1      43.572  19.125  25.237  1.00  0.00     0.331 C 
ATOM      4  O   UNL A   1      44.134  18.100  24.882  1.00  0.00    -0.247 OA
BRANCH   3   5
ATOM      5  C   UNL A   1      44.344  20.328  25.593  1.00  0.00     0.099 C 
ATOM      6  C   UNL A   1      44.478  21.406  24.809  1.00  0.00     0.079 C 
BRANCH   6   7
ATOM      7  C   UNL A   1      45.213  22.586  25.319  1.00  0.00     0.249 C 
ATOM      8  O   UNL A   1      46.037  22.426  26.209  1.00  0.00    -0.270 OA
ATOM      9  N   UNL A   1      44.829  23.765  24.737  1.00  0.00    -0.307 N 
ATOM     10  H   UNL A   1      44.065  23.717  24.119  1.00  0.00     0.171 HD
BRANCH   9  11
ATOM     11  C   UNL A   1      45.399  25.027  24.922  1.00  0.00     0.132 A 
ATOM     12  C   UNL A   1      44.695  26.132  25.381  1.00  0.00     0.047 A 
ATOM     13  N   UNL A   1      46.720  25.076  24.638  1.00  0.00    -0.239 NA
ATOM     14  C   UNL A   1      45.365  27.345  25.535  1.00  0.00     0.005 A 
ATOM     15  C   UNL A   1      47.342  26.269  24.779  1.00  0.00     0.113 A 
ATOM     16  C   UNL A   1      46.715  27.421  25.220  1.00  0.00     0.020 A 
ENDBRANCH   9  11
ENDBRANCH   6   7
ENDBRANCH   3   5
ENDBRANCH   2   3
ENDBRANCH   1   2
BRANCH   1  17
ATOM     17  C   UNL A   1      40.402  20.596  26.354  1.00  0.00     0.275 C 
BRANCH  17  18
ATOM     18  O   UNL A   1      40.540  22.026  26.260  1.00  0.00    -0.458 OA
BRANCH  18  19
ATOM     19  C   UNL A   1      39.376  22.718  26.296  1.00  0.00     0.338 C 
ATOM     20  O   UNL A   1      38.264  22.307  26.011  1.00  0.00    -0.246 OA
BRANCH  19  21
ATOM     21  C   UNL A   1      39.599  24.052  26.882  1.00  0.00     0.060 A 
ATOM     22  C   UNL A   1      40.230  25.012  26.085  1.00  0.00     0.016 A 
ATOM     23  C   UNL A   1      39.264  24.340  28.208  1.00  0.00     0.016 A 
ATOM     24  C   UNL A   1      40.541  26.262  26.612  1.00  0.00     0.010 A 
ATOM     25  C   UNL A   1      39.580  25.597  28.737  1.00  0.00     0.010 A 
ATOM     26  C   UNL A   1      40.233  26.559  27.946  1.00  0.00    -0.014 A 
BRANCH  26  27
ATOM     27  C   UNL A   1      40.650  27.862  28.517  1.00  0.00     0.031 A 
ATOM     28  C   UNL A   1      42.094  28.102  28.851  1.00  0.00     0.074 A 
ATOM     29  C   UNL A   1      39.742  28.839  28.694  1.00  0.00     0.049 A 
ATOM     30  N   UNL A   1      42.658  29.156  29.384  1.00  0.00    -0.248 NA
ATOM     31  C   UNL A   1      43.031  27.010  28.541  1.00  0.00     0.031 C 
ATOM     32  C   UNL A   1      38.320  28.735  28.371  1.00  0.00     0.029 A 
ATOM     33  N   UNL A   1      39.883  30.111  29.191  1.00  0.00    -0.354 N 
ATOM     34  C   UNL A   1      44.010  28.857  29.477  1.00  0.00     0.074 A 
ATOM     35  C   UNL A   1      44.181  27.512  28.969  1.00  0.00     0.031 C 
ATOM     36  C   UNL A   1      37.716  29.895  28.680  1.00  0.00     0.029 A 
ATOM     37  C   UNL A   1      38.702  30.807  29.255  1.00  0.00     0.049 A 
ATOM     38  H   UNL A   1      40.747  30.486  29.474  1.00  0.00     0.167 HD
ATOM     39  C   UNL A   1      45.016  29.639  29.934  1.00  0.00     0.037 A 
ATOM     40  C   UNL A   1      38.443  32.035  29.744  1.00  0.00     0.037 A 
ATOM     41  C   UNL A   1      44.844  30.977  30.434  1.00  0.00     0.049 A 
ATOM     42  C   UNL A   1      39.574  32.859  30.301  1.00  0.00     0.074 A 
ATOM     43  C   UNL A   1      45.803  31.845  30.929  1.00  0.00     0.029 A 
ATOM     44  N   UNL A   1      43.630  31.643  30.505  1.00  0.00    -0.354 N 
ATOM     45  N   UNL A   1      40.849  32.569  30.380  1.00  0.00    -0.248 NA
ATOM     46  C   UNL A   1      39.228  34.185  30.836  1.00  0.00     0.031 C 
ATOM     47  C   UNL A   1      45.164  33.022  31.329  1.00  0.00     0.029 A 
ATOM     48  C   UNL A   1      43.813  32.905  31.045  1.00  0.00     0.049 A 
ATOM     49  H   UNL A   1      42.765  31.274  30.213  1.00  0.00     0.167 HD
ATOM     50  C   UNL A   1      41.460  33.680  30.948  1.00  0.00     0.074 A 
ATOM     51  C   UNL A   1      40.417  34.658  31.178  1.00  0.00     0.031 C 
ATOM     52  C   UNL A   1      42.766  33.872  31.253  1.00  0.00     0.037 A 
BRANCH  39  53
ATOM     53  C   UNL A   1      46.401  29.063  29.927  1.00  0.00     0.064 A 
ATOM     54  C   UNL A   1      46.916  28.379  31.037  1.00  0.00     0.173 A 
ATOM     55  C   UNL A   1      47.200  29.148  28.777  1.00  0.00     0.173 A 
ATOM     56  F   UNL A   1      46.195  28.282  32.164  1.00  0.00    -0.203 F 
ATOM     57  C   UNL A   1      48.188  27.811  31.001  1.00  0.00     0.198 A 
ATOM     58  C   UNL A   1      48.461  28.559  28.736  1.00  0.00     0.198 A 
ATOM     59  F   UNL A   1      46.752  29.789  27.687  1.00  0.00    -0.203 F 
ATOM     60  F   UNL A   1      48.672  27.188  32.084  1.00  0.00    -0.200 F 
ATOM     61  C   UNL A   1      48.955  27.895  29.849  1.00  0.00     0.200 A 
ATOM     62  F   UNL A   1      49.197  28.631  27.618  1.00  0.00    -0.200 F 
ATOM     63  F   UNL A   1      50.173  27.338  29.812  1.00  0.00    -0.200 F 
ENDBRANCH  39  53
BRANCH  40  64
ATOM     64  C   UNL A   1      37.051  32.557  29.750  1.00  0.00     0.064 A 
ATOM     65  C   UNL A   1      36.535  33.261  28.653  1.00  0.00     0.173 A 
ATOM     66  C   UNL A   1      36.221  32.389  30.868  1.00  0.00     0.173 A 
ATOM     67  F   UNL A   1      37.301  33.470  27.572  1.00  0.00    -0.203 F 
ATOM     68  C   UNL A   1      35.249  33.797  28.684  1.00  0.00     0.198 A 
ATOM     69  C   UNL A   1      34.926  32.900  30.885  1.00  0.00     0.198 A 
ATOM     70  F   UNL A   1      36.669  31.726  31.944  1.00  0.00    -0.203 F 
ATOM     71  F   UNL A   1      34.801  34.513  27.643  1.00  0.00    -0.200 F 
ATOM     72  C   UNL A   1      34.444  33.612  29.797  1.00  0.00     0.200 A 
ATOM     73  F   UNL A   1      34.147  32.712  31.959  1.00  0.00    -0.200 F 
ATOM     74  F   UNL A   1      33.209  34.132  29.827  1.00  0.00    -0.200 F 
ENDBRANCH  40  64
BRANCH  52  75
ATOM     75  C   UNL A   1      43.148  35.202  31.833  1.00  0.00     0.064 A 
ATOM     76  C   UNL A   1      43.639  36.241  31.030  1.00  0.00     0.173 A 
ATOM     77  C   UNL A   1      42.982  35.451  33.204  1.00  0.00     0.173 A 
ATOM     78  F   UNL A   1      43.829  36.045  29.716  1.00  0.00    -0.203 F 
ATOM     79  C   UNL A   1      43.974  37.473  31.582  1.00  0.00     0.198 A 
ATOM     80  C   UNL A   1      43.294  36.693  33.748  1.00  0.00     0.198 A 
ATOM     81  F   UNL A   1      42.509  34.492  34.014  1.00  0.00    -0.203 F 
ATOM     82  F   UNL A   1      44.484  38.438  30.803  1.00  0.00    -0.200 F 
ATOM     83  C   UNL A   1      43.796  37.701  32.939  1.00  0.00     0.200 A 
ATOM     84  F   UNL A   1      43.109  36.916  35.057  1.00  0.00    -0.200 F 
ATOM     85  F   UNL A   1      44.114  38.890  33.467  1.00  0.00    -0.200 F 
ENDBRANCH  52  75
ENDBRANCH  26  27
ENDBRANCH  19  21
ENDBRANCH  18  19
ENDBRANCH  17  18
ENDBRANCH   1  17
TORSDOF 13
ENDMDL
