MODEL 1
REMARK VINA RESULT:     -12.5      0.000      0.000
REMARK SMILES CC1(C)[C@H](C(=O)Nc2ccc(NC(=O)C[NH+]3CCCCC3)cc2)[C@@H]1C(=O)OCCOC(=O)c1ccc(-c2c3nc(c(-c4c(F)c(F)c(F)c(F)c4F)c4ccc([nH]4)c(-c4c(F)c(F)c(F)c(F)c4F)c4nc(c(-c5c(F)c(F)c(F)c(F)c5F)c5ccc2[nH]5)C=C4)C=C3)cc1
REMARK SMILES IDX 27 1 25 2 26 3 24 4 1 5 2 6 3 7 4 8 5 9 6 10 7 11 8 13 9 14
REMARK SMILES IDX 23 15 10 16 22 17 11 18 12 19 13 20 14 22 15 23 16 24 17 25
REMARK SMILES IDX 21 26 18 28 20 29 19 30 28 31 29 32 30 33 31 34 32 35 33 36
REMARK SMILES IDX 34 37 95 38 35 39 94 40 36 41 37 42 38 43 88 44 39 45 93 46
REMARK SMILES IDX 87 47 89 48 40 49 92 50 86 51 85 52 41 54 73 55 53 56 72 57
REMARK SMILES IDX 54 58 57 59 71 60 90 61 55 62 56 63 70 65 91 66 58 67 42 68
REMARK SMILES IDX 43 69 51 70 44 71 45 72 49 73 52 74 46 75 47 76 50 77 48 78
REMARK SMILES IDX 74 79 75 80 83 81 76 82 77 83 81 84 84 85 78 86 79 87 82 88
REMARK SMILES IDX 80 89 59 90 60 91 68 92 61 93 62 94 66 95 69 96 63 97 64 98
REMARK SMILES IDX 67 99 65 100
REMARK H PARENT 7 12 12 21 16 27 89 53 57 64
REMARK Flexibility Score: inf
ROOT
ATOM      1  O   UNL A   1      36.827  21.660  26.046  1.00  0.00    -0.462 OA
ENDROOT
BRANCH   1   2
ATOM      2  C   UNL A   1      35.473  21.537  25.988  1.00  0.00     0.310 C 
ATOM      3  O   UNL A   1      34.731  21.470  26.966  1.00  0.00    -0.252 OA
BRANCH   2   4
ATOM      4  C   UNL A   1      34.957  21.730  24.617  1.00  0.00     0.118 C 
ATOM      5  C   UNL A   1      34.766  23.451  22.653  1.00  0.00     0.013 C 
ATOM      6  C   UNL A   1      34.389  23.059  24.071  1.00  0.00    -0.009 C 
ATOM      7  C   UNL A   1      34.224  24.280  24.928  1.00  0.00     0.013 C 
ATOM      8  C   UNL A   1      33.521  21.817  24.189  1.00  0.00     0.100 C 
BRANCH   8   9
ATOM      9  C   UNL A   1      32.283  21.489  24.959  1.00  0.00     0.228 C 
ATOM     10  O   UNL A   1      32.192  20.331  25.371  1.00  0.00    -0.274 OA
ATOM     11  N   UNL A   1      31.431  22.407  25.512  1.00  0.00    -0.326 N 
ATOM     12  H   UNL A   1      31.198  22.233  26.452  1.00  0.00     0.169 HD
BRANCH  11  13
ATOM     13  C   UNL A   1      30.844  23.542  24.972  1.00  0.00     0.041 A 
ATOM     14  C   UNL A   1      30.447  24.529  25.855  1.00  0.00     0.028 A 
ATOM     15  C   UNL A   1      30.640  23.718  23.611  1.00  0.00     0.028 A 
ATOM     16  C   UNL A   1      30.116  25.787  25.357  1.00  0.00     0.028 A 
ATOM     17  C   UNL A   1      30.236  24.968  23.120  1.00  0.00     0.028 A 
ATOM     18  C   UNL A   1      30.019  26.037  23.993  1.00  0.00     0.041 A 
BRANCH  18  19
ATOM     19  N   UNL A   1      29.796  27.308  23.433  1.00  0.00    -0.321 N 
ATOM     20  C   UNL A   1      30.637  28.278  22.953  1.00  0.00     0.279 C 
ATOM     21  H   UNL A   1      28.843  27.549  23.374  1.00  0.00     0.170 HD
ATOM     22  O   UNL A   1      30.128  29.219  22.330  1.00  0.00    -0.268 OA
BRANCH  20  23
ATOM     23  C   UNL A   1      32.159  28.249  23.182  1.00  0.00     0.363 C 
BRANCH  23  24
ATOM     24  N   UNL A   1      32.463  28.371  24.612  1.00  0.00    -0.327 N 
ATOM     25  C   UNL A   1      33.879  28.267  24.950  1.00  0.00     0.262 C 
ATOM     26  C   UNL A   1      31.833  29.527  25.246  1.00  0.00     0.262 C 
ATOM     27  H   UNL A   1      32.030  27.540  25.015  1.00  0.00     0.348 HD
ATOM     28  C   UNL A   1      33.988  27.995  26.452  1.00  0.00     0.062 C 
ATOM     29  C   UNL A   1      31.898  29.371  26.766  1.00  0.00     0.062 C 
ATOM     30  C   UNL A   1      33.320  29.104  27.259  1.00  0.00     0.012 C 
ENDBRANCH  23  24
ENDBRANCH  20  23
ENDBRANCH  18  19
ENDBRANCH  11  13
ENDBRANCH   8   9
ENDBRANCH   2   4
ENDBRANCH   1   2
BRANCH   1  31
ATOM     31  C   UNL A   1      37.572  21.035  24.980  1.00  0.00     0.274 C 
BRANCH  31  32
ATOM     32  C   UNL A   1      38.702  20.122  25.466  1.00  0.00     0.275 C 
BRANCH  32  33
ATOM     33  O   UNL A   1      39.931  20.847  25.646  1.00  0.00    -0.458 OA
BRANCH  33  34
ATOM     34  C   UNL A   1      40.428  20.794  26.903  1.00  0.00     0.338 C 
ATOM     35  O   UNL A   1      40.711  19.791  27.537  1.00  0.00    -0.246 OA
BRANCH  34  36
ATOM     36  C   UNL A   1      40.753  22.146  27.389  1.00  0.00     0.060 A 
ATOM     37  C   UNL A   1      40.117  23.219  26.755  1.00  0.00     0.016 A 
ATOM     38  C   UNL A   1      41.717  22.374  28.370  1.00  0.00     0.016 A 
ATOM     39  C   UNL A   1      40.465  24.524  27.066  1.00  0.00     0.010 A 
ATOM     40  C   UNL A   1      42.077  23.690  28.677  1.00  0.00     0.010 A 
ATOM     41  C   UNL A   1      41.473  24.767  28.002  1.00  0.00    -0.014 A 
BRANCH  41  42
ATOM     42  C   UNL A   1      41.969  26.152  28.161  1.00  0.00     0.031 A 
ATOM     43  C   UNL A   1      43.296  26.526  27.566  1.00  0.00     0.074 A 
ATOM     44  C   UNL A   1      41.202  27.077  28.763  1.00  0.00     0.049 A 
ATOM     45  N   UNL A   1      43.922  27.675  27.588  1.00  0.00    -0.248 NA
ATOM     46  C   UNL A   1      44.014  25.463  26.846  1.00  0.00     0.031 C 
ATOM     47  C   UNL A   1      39.874  26.835  29.322  1.00  0.00     0.029 A 
ATOM     48  N   UNL A   1      41.430  28.408  28.997  1.00  0.00    -0.354 N 
ATOM     49  C   UNL A   1      45.110  27.469  26.899  1.00  0.00     0.074 A 
ATOM     50  C   UNL A   1      45.133  26.081  26.495  1.00  0.00     0.031 C 
ATOM     51  C   UNL A   1      39.402  27.981  29.838  1.00  0.00     0.029 A 
ATOM     52  C   UNL A   1      40.412  29.025  29.680  1.00  0.00     0.049 A 
ATOM     53  H   UNL A   1      42.244  28.876  28.703  1.00  0.00     0.167 HD
ATOM     54  C   UNL A   1      46.087  28.365  26.623  1.00  0.00     0.037 A 
ATOM     55  C   UNL A   1      40.322  30.285  30.146  1.00  0.00     0.037 A 
ATOM     56  C   UNL A   1      46.050  29.748  27.027  1.00  0.00     0.049 A 
ATOM     57  C   UNL A   1      41.455  31.242  29.886  1.00  0.00     0.074 A 
ATOM     58  C   UNL A   1      46.984  30.741  26.793  1.00  0.00     0.029 A 
ATOM     59  N   UNL A   1      45.020  30.329  27.754  1.00  0.00    -0.354 N 
ATOM     60  N   UNL A   1      42.573  31.046  29.228  1.00  0.00    -0.248 NA
ATOM     61  C   UNL A   1      41.313  32.598  30.433  1.00  0.00     0.031 C 
ATOM     62  C   UNL A   1      46.548  31.908  27.429  1.00  0.00     0.029 A 
ATOM     63  C   UNL A   1      45.310  31.662  28.001  1.00  0.00     0.049 A 
ATOM     64  H   UNL A   1      44.205  29.864  28.052  1.00  0.00     0.167 HD
ATOM     65  C   UNL A   1      43.249  32.258  29.251  1.00  0.00     0.074 A 
ATOM     66  C   UNL A   1      42.409  33.188  29.977  1.00  0.00     0.031 C 
ATOM     67  C   UNL A   1      44.455  32.575  28.717  1.00  0.00     0.037 A 
BRANCH  54  68
ATOM     68  C   UNL A   1      47.296  27.869  25.884  1.00  0.00     0.064 A 
ATOM     69  C   UNL A   1      47.325  27.778  24.484  1.00  0.00     0.173 A 
ATOM     70  C   UNL A   1      48.456  27.506  26.586  1.00  0.00     0.173 A 
ATOM     71  F   UNL A   1      46.238  28.098  23.763  1.00  0.00    -0.203 F 
ATOM     72  C   UNL A   1      48.458  27.317  23.818  1.00  0.00     0.198 A 
ATOM     73  C   UNL A   1      49.598  27.076  25.915  1.00  0.00     0.198 A 
ATOM     74  F   UNL A   1      48.485  27.576  27.926  1.00  0.00    -0.203 F 
ATOM     75  F   UNL A   1      48.444  27.190  22.483  1.00  0.00    -0.200 F 
ATOM     76  C   UNL A   1      49.595  26.974  24.534  1.00  0.00     0.200 A 
ATOM     77  F   UNL A   1      50.699  26.759  26.608  1.00  0.00    -0.200 F 
ATOM     78  F   UNL A   1      50.687  26.538  23.891  1.00  0.00    -0.200 F 
ENDBRANCH  54  68
BRANCH  55  79
ATOM     79  C   UNL A   1      39.121  30.710  30.912  1.00  0.00     0.064 A 
ATOM     80  C   UNL A   1      39.041  30.521  32.298  1.00  0.00     0.173 A 
ATOM     81  C   UNL A   1      38.023  31.300  30.271  1.00  0.00     0.173 A 
ATOM     82  F   UNL A   1      40.055  29.938  32.955  1.00  0.00    -0.203 F 
ATOM     83  C   UNL A   1      37.901  30.887  33.010  1.00  0.00     0.198 A 
ATOM     84  C   UNL A   1      36.896  31.696  30.988  1.00  0.00     0.198 A 
ATOM     85  F   UNL A   1      38.048  31.504  28.945  1.00  0.00    -0.203 F 
ATOM     86  F   UNL A   1      37.830  30.648  34.327  1.00  0.00    -0.200 F 
ATOM     87  C   UNL A   1      36.831  31.480  32.355  1.00  0.00     0.200 A 
ATOM     88  F   UNL A   1      35.871  32.282  30.353  1.00  0.00    -0.200 F 
ATOM     89  F   UNL A   1      35.736  31.835  33.041  1.00  0.00    -0.200 F 
ENDBRANCH  55  79
BRANCH  67  90
ATOM     90  C   UNL A   1      44.915  33.999  28.854  1.00  0.00     0.064 A 
ATOM     91  C   UNL A   1      45.731  34.417  29.915  1.00  0.00     0.173 A 
ATOM     92  C   UNL A   1      44.558  34.952  27.887  1.00  0.00     0.173 A 
ATOM     93  F   UNL A   1      46.090  33.549  30.873  1.00  0.00    -0.203 F 
ATOM     94  C   UNL A   1      46.144  35.743  30.022  1.00  0.00     0.198 A 
ATOM     95  C   UNL A   1      45.002  36.268  27.977  1.00  0.00     0.198 A 
ATOM     96  F   UNL A   1      43.786  34.604  26.846  1.00  0.00    -0.203 F 
ATOM     97  F   UNL A   1      46.876  36.132  31.075  1.00  0.00    -0.200 F 
ATOM     98  C   UNL A   1      45.786  36.665  29.050  1.00  0.00     0.200 A 
ATOM     99  F   UNL A   1      44.669  37.153  27.027  1.00  0.00    -0.200 F 
ATOM    100  F   UNL A   1      46.190  37.939  29.150  1.00  0.00    -0.200 F 
ENDBRANCH  67  90
ENDBRANCH  41  42
ENDBRANCH  34  36
ENDBRANCH  33  34
ENDBRANCH  32  33
ENDBRANCH  31  32
ENDBRANCH   1  31
TORSDOF 16
ENDMDL
MODEL 2
REMARK VINA RESULT:     -12.5      4.361     10.153
REMARK SMILES CC1(C)[C@H](C(=O)Nc2ccc(NC(=O)C[NH+]3CCCCC3)cc2)[C@@H]1C(=O)OCCOC(=O)c1ccc(-c2c3nc(c(-c4c(F)c(F)c(F)c(F)c4F)c4ccc([nH]4)c(-c4c(F)c(F)c(F)c(F)c4F)c4nc(c(-c5c(F)c(F)c(F)c(F)c5F)c5ccc2[nH]5)C=C4)C=C3)cc1
REMARK SMILES IDX 27 1 25 2 26 3 24 4 1 5 2 6 3 7 4 8 5 9 6 10 7 11 8 13 9 14
REMARK SMILES IDX 23 15 10 16 22 17 11 18 12 19 13 20 14 22 15 23 16 24 17 25
REMARK SMILES IDX 21 26 18 28 20 29 19 30 28 31 29 32 30 33 31 34 32 35 33 36
REMARK SMILES IDX 34 37 95 38 35 39 94 40 36 41 37 42 38 43 88 44 39 45 93 46
REMARK SMILES IDX 87 47 89 48 40 49 92 50 86 51 85 52 41 54 73 55 53 56 72 57
REMARK SMILES IDX 54 58 57 59 71 60 90 61 55 62 56 63 70 65 91 66 58 67 42 68
REMARK SMILES IDX 43 69 51 70 44 71 45 72 49 73 52 74 46 75 47 76 50 77 48 78
REMARK SMILES IDX 74 79 75 80 83 81 76 82 77 83 81 84 84 85 78 86 79 87 82 88
REMARK SMILES IDX 80 89 59 90 60 91 68 92 61 93 62 94 66 95 69 96 63 97 64 98
REMARK SMILES IDX 67 99 65 100
REMARK H PARENT 7 12 12 21 16 27 89 53 57 64
REMARK Flexibility Score: inf
ROOT
ATOM      1  O   UNL A   1      32.830  30.384  25.699  1.00  0.00    -0.462 OA
ENDROOT
BRANCH   1   2
ATOM      2  C   UNL A   1      32.521  29.494  24.716  1.00  0.00     0.310 C 
ATOM      3  O   UNL A   1      33.177  29.324  23.690  1.00  0.00    -0.252 OA
BRANCH   2   4
ATOM      4  C   UNL A   1      31.437  28.575  25.121  1.00  0.00     0.118 C 
ATOM      5  C   UNL A   1      30.839  26.577  26.704  1.00  0.00     0.013 C 
ATOM      6  C   UNL A   1      31.641  27.098  25.524  1.00  0.00    -0.009 C 
ATOM      7  C   UNL A   1      32.978  26.419  25.455  1.00  0.00     0.013 C 
ATOM      8  C   UNL A   1      30.820  27.479  24.302  1.00  0.00     0.100 C 
BRANCH   8   9
ATOM      9  C   UNL A   1      30.952  27.201  22.840  1.00  0.00     0.228 C 
ATOM     10  O   UNL A   1      30.494  28.060  22.082  1.00  0.00    -0.274 OA
ATOM     11  N   UNL A   1      31.797  26.279  22.284  1.00  0.00    -0.326 N 
ATOM     12  H   UNL A   1      32.339  26.619  21.537  1.00  0.00     0.169 HD
BRANCH  11  13
ATOM     13  C   UNL A   1      32.020  24.946  22.599  1.00  0.00     0.041 A 
ATOM     14  C   UNL A   1      30.990  24.262  23.219  1.00  0.00     0.028 A 
ATOM     15  C   UNL A   1      33.211  24.290  22.326  1.00  0.00     0.028 A 
ATOM     16  C   UNL A   1      31.055  22.873  23.300  1.00  0.00     0.028 A 
ATOM     17  C   UNL A   1      33.295  22.898  22.478  1.00  0.00     0.028 A 
ATOM     18  C   UNL A   1      32.191  22.166  22.921  1.00  0.00     0.041 A 
BRANCH  18  19
ATOM     19  N   UNL A   1      32.274  20.762  22.880  1.00  0.00    -0.321 N 
ATOM     20  C   UNL A   1      32.450  19.808  23.848  1.00  0.00     0.279 C 
ATOM     21  H   UNL A   1      32.187  20.391  21.972  1.00  0.00     0.170 HD
ATOM     22  O   UNL A   1      32.276  18.625  23.523  1.00  0.00    -0.268 OA
BRANCH  20  23
ATOM     23  C   UNL A   1      32.873  20.149  25.287  1.00  0.00     0.363 C 
BRANCH  23  24
ATOM     24  N   UNL A   1      33.955  21.140  25.281  1.00  0.00    -0.327 N 
ATOM     25  C   UNL A   1      33.975  22.035  26.433  1.00  0.00     0.262 C 
ATOM     26  C   UNL A   1      35.271  20.565  25.011  1.00  0.00     0.262 C 
ATOM     27  H   UNL A   1      33.723  21.734  24.484  1.00  0.00     0.348 HD
ATOM     28  C   UNL A   1      34.860  23.235  26.083  1.00  0.00     0.062 C 
ATOM     29  C   UNL A   1      36.253  21.685  24.663  1.00  0.00     0.062 C 
ATOM     30  C   UNL A   1      36.273  22.786  25.724  1.00  0.00     0.012 C 
ENDBRANCH  23  24
ENDBRANCH  20  23
ENDBRANCH  18  19
ENDBRANCH  11  13
ENDBRANCH   8   9
ENDBRANCH   2   4
ENDBRANCH   1   2
BRANCH   1  31
ATOM     31  C   UNL A   1      31.742  30.795  26.553  1.00  0.00     0.274 C 
BRANCH  31  32
ATOM     32  C   UNL A   1      31.758  32.287  26.901  1.00  0.00     0.275 C 
BRANCH  32  33
ATOM     33  O   UNL A   1      33.072  32.853  26.748  1.00  0.00    -0.458 OA
BRANCH  33  34
ATOM     34  C   UNL A   1      33.561  33.432  27.869  1.00  0.00     0.338 C 
ATOM     35  O   UNL A   1      33.003  34.263  28.566  1.00  0.00    -0.246 OA
BRANCH  34  36
ATOM     36  C   UNL A   1      34.834  32.805  28.262  1.00  0.00     0.060 A 
ATOM     37  C   UNL A   1      34.803  31.441  28.569  1.00  0.00     0.016 A 
ATOM     38  C   UNL A   1      36.009  33.539  28.419  1.00  0.00     0.016 A 
ATOM     39  C   UNL A   1      35.930  30.808  29.070  1.00  0.00     0.010 A 
ATOM     40  C   UNL A   1      37.144  32.904  28.934  1.00  0.00     0.010 A 
ATOM     41  C   UNL A   1      37.096  31.544  29.290  1.00  0.00    -0.014 A 
BRANCH  41  42
ATOM     42  C   UNL A   1      38.212  30.898  30.017  1.00  0.00     0.031 A 
ATOM     43  C   UNL A   1      38.428  31.228  31.466  1.00  0.00     0.074 A 
ATOM     44  C   UNL A   1      38.967  29.971  29.404  1.00  0.00     0.049 A 
ATOM     45  N   UNL A   1      39.342  30.784  32.290  1.00  0.00    -0.248 NA
ATOM     46  C   UNL A   1      37.487  32.185  32.067  1.00  0.00     0.031 C 
ATOM     47  C   UNL A   1      38.804  29.532  28.019  1.00  0.00     0.029 A 
ATOM     48  N   UNL A   1      40.019  29.227  29.873  1.00  0.00    -0.354 N 
ATOM     49  C   UNL A   1      39.094  31.417  33.502  1.00  0.00     0.074 A 
ATOM     50  C   UNL A   1      37.964  32.296  33.299  1.00  0.00     0.031 C 
ATOM     51  C   UNL A   1      39.725  28.595  27.747  1.00  0.00     0.029 A 
ATOM     52  C   UNL A   1      40.566  28.398  28.925  1.00  0.00     0.049 A 
ATOM     53  H   UNL A   1      40.349  29.281  30.798  1.00  0.00     0.167 HD
ATOM     54  C   UNL A   1      39.749  31.267  34.678  1.00  0.00     0.037 A 
ATOM     55  C   UNL A   1      41.642  27.591  29.000  1.00  0.00     0.037 A 
ATOM     56  C   UNL A   1      40.870  30.383  34.868  1.00  0.00     0.049 A 
ATOM     57  C   UNL A   1      42.395  27.498  30.300  1.00  0.00     0.074 A 
ATOM     58  C   UNL A   1      41.601  30.152  36.020  1.00  0.00     0.029 A 
ATOM     59  N   UNL A   1      41.425  29.588  33.874  1.00  0.00    -0.354 N 
ATOM     60  N   UNL A   1      42.153  28.092  31.445  1.00  0.00    -0.248 NA
ATOM     61  C   UNL A   1      43.572  26.618  30.320  1.00  0.00     0.031 C 
ATOM     62  C   UNL A   1      42.634  29.261  35.709  1.00  0.00     0.029 A 
ATOM     63  C   UNL A   1      42.506  28.885  34.381  1.00  0.00     0.049 A 
ATOM     64  H   UNL A   1      41.099  29.533  32.947  1.00  0.00     0.167 HD
ATOM     65  C   UNL A   1      43.122  27.633  32.327  1.00  0.00     0.074 A 
ATOM     66  C   UNL A   1      43.948  26.700  31.588  1.00  0.00     0.031 C 
ATOM     67  C   UNL A   1      43.310  27.952  33.632  1.00  0.00     0.037 A 
BRANCH  54  68
ATOM     68  C   UNL A   1      39.294  32.105  35.838  1.00  0.00     0.064 A 
ATOM     69  C   UNL A   1      39.765  33.412  36.039  1.00  0.00     0.173 A 
ATOM     70  C   UNL A   1      38.351  31.603  36.747  1.00  0.00     0.173 A 
ATOM     71  F   UNL A   1      40.679  33.937  35.208  1.00  0.00    -0.203 F 
ATOM     72  C   UNL A   1      39.329  34.172  37.121  1.00  0.00     0.198 A 
ATOM     73  C   UNL A   1      37.893  32.377  37.810  1.00  0.00     0.198 A 
ATOM     74  F   UNL A   1      37.866  30.360  36.601  1.00  0.00    -0.203 F 
ATOM     75  F   UNL A   1      39.830  35.399  37.322  1.00  0.00    -0.200 F 
ATOM     76  C   UNL A   1      38.388  33.657  38.000  1.00  0.00     0.200 A 
ATOM     77  F   UNL A   1      36.974  31.882  38.650  1.00  0.00    -0.200 F 
ATOM     78  F   UNL A   1      37.964  34.394  39.037  1.00  0.00    -0.200 F 
ENDBRANCH  54  68
BRANCH  55  79
ATOM     79  C   UNL A   1      42.075  26.819  27.805  1.00  0.00     0.064 A 
ATOM     80  C   UNL A   1      43.008  27.344  26.901  1.00  0.00     0.173 A 
ATOM     81  C   UNL A   1      41.554  25.545  27.538  1.00  0.00     0.173 A 
ATOM     82  F   UNL A   1      43.518  28.569  27.100  1.00  0.00    -0.203 F 
ATOM     83  C   UNL A   1      43.387  26.634  25.764  1.00  0.00     0.198 A 
ATOM     84  C   UNL A   1      41.958  24.821  26.418  1.00  0.00     0.198 A 
ATOM     85  F   UNL A   1      40.658  24.996  28.372  1.00  0.00    -0.203 F 
ATOM     86  F   UNL A   1      44.240  27.182  24.888  1.00  0.00    -0.200 F 
ATOM     87  C   UNL A   1      42.865  25.371  25.526  1.00  0.00     0.200 A 
ATOM     88  F   UNL A   1      41.463  23.595  26.200  1.00  0.00    -0.200 F 
ATOM     89  F   UNL A   1      43.233  24.687  24.434  1.00  0.00    -0.200 F 
ENDBRANCH  55  79
BRANCH  67  90
ATOM     90  C   UNL A   1      44.421  27.248  34.359  1.00  0.00     0.064 A 
ATOM     91  C   UNL A   1      45.709  27.796  34.455  1.00  0.00     0.173 A 
ATOM     92  C   UNL A   1      44.182  26.020  34.996  1.00  0.00     0.173 A 
ATOM     93  F   UNL A   1      45.995  28.960  33.853  1.00  0.00    -0.203 F 
ATOM     94  C   UNL A   1      46.724  27.125  35.133  1.00  0.00     0.198 A 
ATOM     95  C   UNL A   1      45.188  25.369  35.703  1.00  0.00     0.198 A 
ATOM     96  F   UNL A   1      42.966  25.456  34.943  1.00  0.00    -0.203 F 
ATOM     97  F   UNL A   1      47.961  27.639  35.163  1.00  0.00    -0.200 F 
ATOM     98  C   UNL A   1      46.461  25.917  35.762  1.00  0.00     0.200 A 
ATOM     99  F   UNL A   1      44.928  24.211  36.325  1.00  0.00    -0.200 F 
ATOM    100  F   UNL A   1      47.437  25.276  36.420  1.00  0.00    -0.200 F 
ENDBRANCH  67  90
ENDBRANCH  41  42
ENDBRANCH  34  36
ENDBRANCH  33  34
ENDBRANCH  32  33
ENDBRANCH  31  32
ENDBRANCH   1  31
TORSDOF 16
ENDMDL
MODEL 3
REMARK VINA RESULT:     -12.4      0.384      7.097
REMARK SMILES CC1(C)[C@H](C(=O)Nc2ccc(NC(=O)C[NH+]3CCCCC3)cc2)[C@@H]1C(=O)OCCOC(=O)c1ccc(-c2c3nc(c(-c4c(F)c(F)c(F)c(F)c4F)c4ccc([nH]4)c(-c4c(F)c(F)c(F)c(F)c4F)c4nc(c(-c5c(F)c(F)c(F)c(F)c5F)c5ccc2[nH]5)C=C4)C=C3)cc1
REMARK SMILES IDX 27 1 25 2 26 3 24 4 1 5 2 6 3 7 4 8 5 9 6 10 7 11 8 13 9 14
REMARK SMILES IDX 23 15 10 16 22 17 11 18 12 19 13 20 14 22 15 23 16 24 17 25
REMARK SMILES IDX 21 26 18 28 20 29 19 30 28 31 29 32 30 33 31 34 32 35 33 36
REMARK SMILES IDX 34 37 95 38 35 39 94 40 36 41 37 42 38 43 88 44 39 45 93 46
REMARK SMILES IDX 87 47 89 48 40 49 92 50 86 51 85 52 41 54 73 55 53 56 72 57
REMARK SMILES IDX 54 58 57 59 71 60 90 61 55 62 56 63 70 65 91 66 58 67 42 68
REMARK SMILES IDX 43 69 51 70 44 71 45 72 49 73 52 74 46 75 47 76 50 77 48 78
REMARK SMILES IDX 74 79 75 80 83 81 76 82 77 83 81 84 84 85 78 86 79 87 82 88
REMARK SMILES IDX 80 89 59 90 60 91 68 92 61 93 62 94 66 95 69 96 63 97 64 98
REMARK SMILES IDX 67 99 65 100
REMARK H PARENT 7 12 12 21 16 27 89 53 57 64
REMARK Flexibility Score: inf
ROOT
ATOM      1  O   UNL A   1      36.798  21.708  26.004  1.00  0.00    -0.462 OA
ENDROOT
BRANCH   1   2
ATOM      2  C   UNL A   1      35.448  21.536  25.978  1.00  0.00     0.310 C 
ATOM      3  O   UNL A   1      34.731  21.452  26.974  1.00  0.00    -0.252 OA
BRANCH   2   4
ATOM      4  C   UNL A   1      34.893  21.701  24.618  1.00  0.00     0.118 C 
ATOM      5  C   UNL A   1      34.709  23.356  22.597  1.00  0.00     0.013 C 
ATOM      6  C   UNL A   1      34.364  23.033  24.041  1.00  0.00    -0.009 C 
ATOM      7  C   UNL A   1      34.281  24.291  24.855  1.00  0.00     0.013 C 
ATOM      8  C   UNL A   1      33.448  21.835  24.235  1.00  0.00     0.100 C 
BRANCH   8   9
ATOM      9  C   UNL A   1      32.225  21.591  25.057  1.00  0.00     0.228 C 
ATOM     10  O   UNL A   1      32.125  20.470  25.560  1.00  0.00    -0.274 OA
ATOM     11  N   UNL A   1      31.402  22.564  25.556  1.00  0.00    -0.326 N 
ATOM     12  H   UNL A   1      31.189  22.468  26.512  1.00  0.00     0.169 HD
BRANCH  11  13
ATOM     13  C   UNL A   1      30.821  23.665  24.944  1.00  0.00     0.041 A 
ATOM     14  C   UNL A   1      30.417  24.704  25.762  1.00  0.00     0.028 A 
ATOM     15  C   UNL A   1      30.627  23.758  23.573  1.00  0.00     0.028 A 
ATOM     16  C   UNL A   1      30.091  25.929  25.186  1.00  0.00     0.028 A 
ATOM     17  C   UNL A   1      30.229  24.976  23.003  1.00  0.00     0.028 A 
ATOM     18  C   UNL A   1      30.005  26.095  23.808  1.00  0.00     0.041 A 
BRANCH  18  19
ATOM     19  N   UNL A   1      29.788  27.330  23.170  1.00  0.00    -0.321 N 
ATOM     20  C   UNL A   1      30.635  28.290  22.678  1.00  0.00     0.279 C 
ATOM     21  H   UNL A   1      28.835  27.549  23.052  1.00  0.00     0.170 HD
ATOM     22  O   UNL A   1      30.141  29.186  21.982  1.00  0.00    -0.268 OA
BRANCH  20  23
ATOM     23  C   UNL A   1      32.144  28.302  22.980  1.00  0.00     0.363 C 
BRANCH  23  24
ATOM     24  N   UNL A   1      32.376  28.353  24.428  1.00  0.00    -0.327 N 
ATOM     25  C   UNL A   1      33.734  28.021  24.845  1.00  0.00     0.262 C 
ATOM     26  C   UNL A   1      31.896  29.583  25.053  1.00  0.00     0.262 C 
ATOM     27  H   UNL A   1      31.794  27.593  24.784  1.00  0.00     0.348 HD
ATOM     28  C   UNL A   1      33.706  27.711  26.343  1.00  0.00     0.062 C 
ATOM     29  C   UNL A   1      31.842  29.394  26.570  1.00  0.00     0.062 C 
ATOM     30  C   UNL A   1      33.172  28.899  27.138  1.00  0.00     0.012 C 
ENDBRANCH  23  24
ENDBRANCH  20  23
ENDBRANCH  18  19
ENDBRANCH  11  13
ENDBRANCH   8   9
ENDBRANCH   2   4
ENDBRANCH   1   2
BRANCH   1  31
ATOM     31  C   UNL A   1      37.549  21.011  24.988  1.00  0.00     0.274 C 
BRANCH  31  32
ATOM     32  C   UNL A   1      38.609  20.057  25.547  1.00  0.00     0.275 C 
BRANCH  32  33
ATOM     33  O   UNL A   1      39.891  20.698  25.667  1.00  0.00    -0.458 OA
BRANCH  33  34
ATOM     34  C   UNL A   1      40.393  20.703  26.923  1.00  0.00     0.338 C 
ATOM     35  O   UNL A   1      40.644  19.730  27.615  1.00  0.00    -0.246 OA
BRANCH  34  36
ATOM     36  C   UNL A   1      40.770  22.069  27.325  1.00  0.00     0.060 A 
ATOM     37  C   UNL A   1      40.284  23.119  26.539  1.00  0.00     0.016 A 
ATOM     38  C   UNL A   1      41.647  22.321  28.379  1.00  0.00     0.016 A 
ATOM     39  C   UNL A   1      40.698  24.421  26.773  1.00  0.00     0.010 A 
ATOM     40  C   UNL A   1      42.073  23.633  28.611  1.00  0.00     0.010 A 
ATOM     41  C   UNL A   1      41.623  24.682  27.787  1.00  0.00    -0.014 A 
BRANCH  41  42
ATOM     42  C   UNL A   1      42.204  26.039  27.880  1.00  0.00     0.031 A 
ATOM     43  C   UNL A   1      41.449  27.108  28.616  1.00  0.00     0.074 A 
ATOM     44  C   UNL A   1      43.427  26.284  27.380  1.00  0.00     0.049 A 
ATOM     45  N   UNL A   1      41.768  28.361  28.817  1.00  0.00    -0.248 NA
ATOM     46  C   UNL A   1      40.161  26.712  29.208  1.00  0.00     0.031 C 
ATOM     47  C   UNL A   1      44.271  25.302  26.701  1.00  0.00     0.029 A 
ATOM     48  N   UNL A   1      44.174  27.434  27.374  1.00  0.00    -0.354 N 
ATOM     49  C   UNL A   1      40.717  28.904  29.544  1.00  0.00     0.074 A 
ATOM     50  C   UNL A   1      39.738  27.855  29.726  1.00  0.00     0.031 C 
ATOM     51  C   UNL A   1      45.421  25.892  26.340  1.00  0.00     0.029 A 
ATOM     52  C   UNL A   1      45.377  27.300  26.728  1.00  0.00     0.049 A 
ATOM     53  H   UNL A   1      43.875  28.273  27.792  1.00  0.00     0.167 HD
ATOM     54  C   UNL A   1      40.589  30.165  30.023  1.00  0.00     0.037 A 
ATOM     55  C   UNL A   1      46.322  28.221  26.460  1.00  0.00     0.037 A 
ATOM     56  C   UNL A   1      41.574  31.200  29.840  1.00  0.00     0.049 A 
ATOM     57  C   UNL A   1      46.121  29.633  26.943  1.00  0.00     0.074 A 
ATOM     58  C   UNL A   1      41.547  32.508  30.289  1.00  0.00     0.029 A 
ATOM     59  N   UNL A   1      42.765  31.040  29.143  1.00  0.00    -0.354 N 
ATOM     60  N   UNL A   1      45.131  30.141  27.637  1.00  0.00    -0.248 NA
ATOM     61  C   UNL A   1      47.174  30.602  26.608  1.00  0.00     0.031 C 
ATOM     62  C   UNL A   1      42.692  33.156  29.816  1.00  0.00     0.029 A 
ATOM     63  C   UNL A   1      43.468  32.235  29.129  1.00  0.00     0.049 A 
ATOM     64  H   UNL A   1      43.066  30.203  28.722  1.00  0.00     0.167 HD
ATOM     65  C   UNL A   1      45.455  31.474  27.851  1.00  0.00     0.074 A 
ATOM     66  C   UNL A   1      46.743  31.693  27.223  1.00  0.00     0.031 C 
ATOM     67  C   UNL A   1      44.754  32.430  28.508  1.00  0.00     0.037 A 
BRANCH  54  68
ATOM     68  C   UNL A   1      39.324  30.505  30.756  1.00  0.00     0.064 A 
ATOM     69  C   UNL A   1      38.194  31.009  30.093  1.00  0.00     0.173 A 
ATOM     70  C   UNL A   1      39.230  30.297  32.141  1.00  0.00     0.173 A 
ATOM     71  F   UNL A   1      38.234  31.241  28.772  1.00  0.00    -0.203 F 
ATOM     72  C   UNL A   1      37.030  31.316  30.793  1.00  0.00     0.198 A 
ATOM     73  C   UNL A   1      38.054  30.575  32.832  1.00  0.00     0.198 A 
ATOM     74  F   UNL A   1      40.279  29.815  32.825  1.00  0.00    -0.203 F 
ATOM     75  F   UNL A   1      35.981  31.844  30.146  1.00  0.00    -0.200 F 
ATOM     76  C   UNL A   1      36.958  31.092  32.160  1.00  0.00     0.200 A 
ATOM     77  F   UNL A   1      37.983  30.345  34.150  1.00  0.00    -0.200 F 
ATOM     78  F   UNL A   1      35.834  31.381  32.830  1.00  0.00    -0.200 F 
ENDBRANCH  54  68
BRANCH  55  79
ATOM     79  C   UNL A   1      47.534  27.839  25.690  1.00  0.00     0.064 A 
ATOM     80  C   UNL A   1      47.518  27.787  24.290  1.00  0.00     0.173 A 
ATOM     81  C   UNL A   1      48.731  27.506  26.340  1.00  0.00     0.173 A 
ATOM     82  F   UNL A   1      46.390  28.074  23.622  1.00  0.00    -0.203 F 
ATOM     83  C   UNL A   1      48.644  27.395  23.570  1.00  0.00     0.198 A 
ATOM     84  C   UNL A   1      49.868  27.145  25.619  1.00  0.00     0.198 A 
ATOM     85  F   UNL A   1      48.801  27.540  27.679  1.00  0.00    -0.203 F 
ATOM     86  F   UNL A   1      48.585  27.303  22.234  1.00  0.00    -0.200 F 
ATOM     87  C   UNL A   1      49.820  27.080  24.235  1.00  0.00     0.200 A 
ATOM     88  F   UNL A   1      51.006  26.856  26.265  1.00  0.00    -0.200 F 
ATOM     89  F   UNL A   1      50.905  26.706  23.542  1.00  0.00    -0.200 F 
ENDBRANCH  55  79
BRANCH  67  90
ATOM     90  C   UNL A   1      45.387  33.788  28.628  1.00  0.00     0.064 A 
ATOM     91  C   UNL A   1      46.251  34.113  29.683  1.00  0.00     0.173 A 
ATOM     92  C   UNL A   1      45.149  34.767  27.650  1.00  0.00     0.173 A 
ATOM     93  F   UNL A   1      46.502  33.218  30.652  1.00  0.00    -0.203 F 
ATOM     94  C   UNL A   1      46.826  35.379  29.775  1.00  0.00     0.198 A 
ATOM     95  C   UNL A   1      45.753  36.018  27.725  1.00  0.00     0.198 A 
ATOM     96  F   UNL A   1      44.338  34.505  26.614  1.00  0.00    -0.203 F 
ATOM     97  F   UNL A   1      47.602  35.686  30.823  1.00  0.00    -0.200 F 
ATOM     98  C   UNL A   1      46.582  36.327  28.793  1.00  0.00     0.200 A 
ATOM     99  F   UNL A   1      45.530  36.927  26.765  1.00  0.00    -0.200 F 
ATOM    100  F   UNL A   1      47.141  37.542  28.878  1.00  0.00    -0.200 F 
ENDBRANCH  67  90
ENDBRANCH  41  42
ENDBRANCH  34  36
ENDBRANCH  33  34
ENDBRANCH  32  33
ENDBRANCH  31  32
ENDBRANCH   1  31
TORSDOF 16
ENDMDL
