MODEL 1
REMARK VINA RESULT:     -12.2      0.000      0.000
REMARK SMILES CCCc1cc2c(cc1Cl)C=C(C(=O)OCCOC(=O)c1ccc(-c3c4nc(c(-c5c(F)c(F)c(F)c(F)c5F)c5ccc([nH]5)c(-c5c(F)c(F)c(F)c(F)c5F)c5nc(c(-c6c(F)c(F)c(F)c(F)c6F)c6ccc3[nH]6)C=C5)C=C4)cc1)[C@@H](C(F)(F)F)O2
REMARK SMILES IDX 16 1 15 2 13 3 14 4 12 5 4 6 5 7 9 8 6 9 8 10 10 11 7 12
REMARK SMILES IDX 89 13 11 14 84 15 3 16 2 17 1 18 85 19 86 20 87 21 88 22
REMARK SMILES IDX 17 23 18 24 19 25 20 26 21 27 22 28 83 29 23 30 82 31 24 32
REMARK SMILES IDX 25 33 26 34 76 35 27 36 81 37 75 38 77 39 28 40 80 41 74 42
REMARK SMILES IDX 73 43 29 45 61 46 41 47 60 48 42 49 45 50 59 51 78 52 43 53
REMARK SMILES IDX 44 54 58 56 79 57 46 58 30 59 31 60 39 61 32 62 33 63 37 64
REMARK SMILES IDX 40 65 34 66 35 67 38 68 36 69 62 70 63 71 71 72 64 73 65 74
REMARK SMILES IDX 69 75 72 76 66 77 67 78 70 79 68 80 47 81 48 82 56 83 49 84
REMARK SMILES IDX 50 85 54 86 57 87 51 88 52 89 55 90 53 91
REMARK H PARENT 77 44 45 55
REMARK Flexibility Score: inf
ROOT
ATOM      1  C   UNL A   1      35.953  20.275  25.016  1.00  0.00     0.275 C 
ENDROOT
BRANCH   1   2
ATOM      2  O   UNL A   1      35.238  21.387  24.430  1.00  0.00    -0.459 OA
BRANCH   2   3
ATOM      3  C   UNL A   1      33.890  21.306  24.498  1.00  0.00     0.338 C 
ATOM      4  O   UNL A   1      33.209  20.316  24.275  1.00  0.00    -0.246 OA
BRANCH   3   5
ATOM      5  C   UNL A   1      33.306  22.584  24.950  1.00  0.00     0.087 C 
ATOM      6  C   UNL A   1      32.378  27.500  25.583  1.00  0.00    -0.026 A 
ATOM      7  C   UNL A   1      32.000  26.325  26.277  1.00  0.00     0.052 A 
ATOM      8  C   UNL A   1      33.173  27.365  24.434  1.00  0.00     0.045 A 
ATOM      9  C   UNL A   1      32.395  25.060  25.835  1.00  0.00     0.128 A 
ATOM     10  C   UNL A   1      33.528  26.099  23.969  1.00  0.00     0.032 A 
ATOM     11  Cl  UNL A   1      33.813  28.707  23.560  1.00  0.00    -0.084 Cl
ATOM     12  C   UNL A   1      33.150  24.956  24.674  1.00  0.00     0.019 A 
ATOM     13  O   UNL A   1      32.004  23.975  26.572  1.00  0.00    -0.475 OA
ATOM     14  C   UNL A   1      33.582  23.660  24.209  1.00  0.00     0.027 C 
ATOM     15  C   UNL A   1      32.593  22.669  26.270  1.00  0.00     0.316 C 
BRANCH   6  16
ATOM     16  C   UNL A   1      31.950  28.840  26.143  1.00  0.00     0.037 C 
BRANCH  16  17
ATOM     17  C   UNL A   1      32.693  29.354  27.385  1.00  0.00     0.001 C 
ATOM     18  C   UNL A   1      34.204  29.190  27.325  1.00  0.00     0.004 C 
ENDBRANCH  16  17
ENDBRANCH   6  16
BRANCH  15  19
ATOM     19  C   UNL A   1      33.532  22.256  27.416  1.00  0.00     0.430 C 
ATOM     20  F   UNL A   1      33.024  22.594  28.624  1.00  0.00    -0.167 F 
ATOM     21  F   UNL A   1      33.723  20.914  27.437  1.00  0.00    -0.167 F 
ATOM     22  F   UNL A   1      34.751  22.833  27.310  1.00  0.00    -0.167 F 
ENDBRANCH  15  19
ENDBRANCH   3   5
ENDBRANCH   2   3
ENDBRANCH   1   2
BRANCH   1  23
ATOM     23  C   UNL A   1      37.465  20.420  24.836  1.00  0.00     0.275 C 
BRANCH  23  24
ATOM     24  O   UNL A   1      37.977  21.443  25.709  1.00  0.00    -0.458 OA
BRANCH  24  25
ATOM     25  C   UNL A   1      39.229  21.240  26.178  1.00  0.00     0.338 C 
ATOM     26  O   UNL A   1      39.898  20.225  26.104  1.00  0.00    -0.246 OA
BRANCH  25  27
ATOM     27  C   UNL A   1      39.748  22.487  26.760  1.00  0.00     0.060 A 
ATOM     28  C   UNL A   1      40.822  22.482  27.642  1.00  0.00     0.016 A 
ATOM     29  C   UNL A   1      39.252  23.693  26.282  1.00  0.00     0.016 A 
ATOM     30  C   UNL A   1      41.380  23.702  28.046  1.00  0.00     0.010 A 
ATOM     31  C   UNL A   1      39.909  24.889  26.554  1.00  0.00     0.010 A 
ATOM     32  C   UNL A   1      40.962  24.924  27.474  1.00  0.00    -0.014 A 
BRANCH  32  33
ATOM     33  C   UNL A   1      41.612  26.219  27.839  1.00  0.00     0.031 A 
ATOM     34  C   UNL A   1      43.000  26.568  27.348  1.00  0.00     0.074 A 
ATOM     35  C   UNL A   1      40.968  27.087  28.648  1.00  0.00     0.049 A 
ATOM     36  N   UNL A   1      43.698  27.661  27.549  1.00  0.00    -0.248 NA
ATOM     37  C   UNL A   1      43.720  25.546  26.574  1.00  0.00     0.031 C 
ATOM     38  C   UNL A   1      39.678  26.843  29.296  1.00  0.00     0.029 A 
ATOM     39  N   UNL A   1      41.299  28.360  29.047  1.00  0.00    -0.354 N 
ATOM     40  C   UNL A   1      44.937  27.436  26.958  1.00  0.00     0.074 A 
ATOM     41  C   UNL A   1      44.926  26.079  26.463  1.00  0.00     0.031 C 
ATOM     42  C   UNL A   1      39.283  27.958  29.927  1.00  0.00     0.029 A 
ATOM     43  C   UNL A   1      40.308  28.985  29.767  1.00  0.00     0.049 A 
ATOM     44  H   UNL A   1      42.162  28.784  28.838  1.00  0.00     0.167 HD
ATOM     45  C   UNL A   1      45.973  28.293  26.792  1.00  0.00     0.037 A 
ATOM     46  C   UNL A   1      40.217  30.250  30.218  1.00  0.00     0.037 A 
ATOM     47  C   UNL A   1      45.961  29.668  27.212  1.00  0.00     0.049 A 
ATOM     48  C   UNL A   1      41.341  31.213  29.955  1.00  0.00     0.074 A 
ATOM     49  C   UNL A   1      46.921  30.642  27.006  1.00  0.00     0.029 A 
ATOM     50  N   UNL A   1      44.925  30.266  27.912  1.00  0.00    -0.354 N 
ATOM     51  N   UNL A   1      42.468  31.010  29.319  1.00  0.00    -0.248 NA
ATOM     52  C   UNL A   1      41.179  32.580  30.469  1.00  0.00     0.031 C 
ATOM     53  C   UNL A   1      46.477  31.826  27.604  1.00  0.00     0.029 A 
ATOM     54  C   UNL A   1      45.226  31.598  28.151  1.00  0.00     0.049 A 
ATOM     55  H   UNL A   1      44.099  29.814  28.197  1.00  0.00     0.167 HD
ATOM     56  C   UNL A   1      43.144  32.222  29.345  1.00  0.00     0.074 A 
ATOM     57  C   UNL A   1      42.291  33.163  30.041  1.00  0.00     0.031 C 
ATOM     58  C   UNL A   1      44.365  32.523  28.842  1.00  0.00     0.037 A 
BRANCH  45  59
ATOM     59  C   UNL A   1      47.194  27.782  26.079  1.00  0.00     0.064 A 
ATOM     60  C   UNL A   1      47.272  27.774  24.678  1.00  0.00     0.173 A 
ATOM     61  C   UNL A   1      48.311  27.331  26.798  1.00  0.00     0.173 A 
ATOM     62  F   UNL A   1      46.230  28.188  23.941  1.00  0.00    -0.203 F 
ATOM     63  C   UNL A   1      48.405  27.300  24.023  1.00  0.00     0.198 A 
ATOM     64  C   UNL A   1      49.457  26.889  26.140  1.00  0.00     0.198 A 
ATOM     65  F   UNL A   1      48.298  27.328  28.140  1.00  0.00    -0.203 F 
ATOM     66  F   UNL A   1      48.432  27.252  22.683  1.00  0.00    -0.200 F 
ATOM     67  C   UNL A   1      49.499  26.864  24.754  1.00  0.00     0.200 A 
ATOM     68  F   UNL A   1      50.522  26.484  26.848  1.00  0.00    -0.200 F 
ATOM     69  F   UNL A   1      50.593  26.416  24.123  1.00  0.00    -0.200 F 
ENDBRANCH  45  59
BRANCH  46  70
ATOM     70  C   UNL A   1      38.968  30.698  30.887  1.00  0.00     0.064 A 
ATOM     71  C   UNL A   1      37.869  31.121  30.125  1.00  0.00     0.173 A 
ATOM     72  C   UNL A   1      38.824  30.667  32.280  1.00  0.00     0.173 A 
ATOM     73  F   UNL A   1      37.965  31.182  28.788  1.00  0.00    -0.203 F 
ATOM     74  C   UNL A   1      36.673  31.497  30.733  1.00  0.00     0.198 A 
ATOM     75  C   UNL A   1      37.621  31.023  32.886  1.00  0.00     0.198 A 
ATOM     76  F   UNL A   1      39.844  30.264  33.051  1.00  0.00    -0.203 F 
ATOM     77  F   UNL A   1      35.646  31.918  29.983  1.00  0.00    -0.200 F 
ATOM     78  C   UNL A   1      36.547  31.440  32.113  1.00  0.00     0.200 A 
ATOM     79  F   UNL A   1      37.496  30.952  34.219  1.00  0.00    -0.200 F 
ATOM     80  F   UNL A   1      35.391  31.785  32.696  1.00  0.00    -0.200 F 
ENDBRANCH  46  70
BRANCH  58  81
ATOM     81  C   UNL A   1      44.861  33.927  29.015  1.00  0.00     0.064 A 
ATOM     82  C   UNL A   1      45.647  34.290  30.117  1.00  0.00     0.173 A 
ATOM     83  C   UNL A   1      44.617  34.896  28.029  1.00  0.00     0.173 A 
ATOM     84  F   UNL A   1      45.899  33.401  31.089  1.00  0.00    -0.203 F 
ATOM     85  C   UNL A   1      46.166  35.578  30.232  1.00  0.00     0.198 A 
ATOM     86  C   UNL A   1      45.157  36.174  28.136  1.00  0.00     0.198 A 
ATOM     87  F   UNL A   1      43.878  34.593  26.953  1.00  0.00    -0.203 F 
ATOM     88  F   UNL A   1      46.893  35.911  31.306  1.00  0.00    -0.200 F 
ATOM     89  C   UNL A   1      45.928  36.514  29.237  1.00  0.00     0.200 A 
ATOM     90  F   UNL A   1      44.938  37.075  27.167  1.00  0.00    -0.200 F 
ATOM     91  F   UNL A   1      46.441  37.748  29.340  1.00  0.00    -0.200 F 
ENDBRANCH  58  81
ENDBRANCH  32  33
ENDBRANCH  25  27
ENDBRANCH  24  25
ENDBRANCH  23  24
ENDBRANCH   1  23
TORSDOF 14
ENDMDL
MODEL 2
REMARK VINA RESULT:     -12.0      4.572      9.774
REMARK SMILES CCCc1cc2c(cc1Cl)C=C(C(=O)OCCOC(=O)c1ccc(-c3c4nc(c(-c5c(F)c(F)c(F)c(F)c5F)c5ccc([nH]5)c(-c5c(F)c(F)c(F)c(F)c5F)c5nc(c(-c6c(F)c(F)c(F)c(F)c6F)c6ccc3[nH]6)C=C5)C=C4)cc1)[C@@H](C(F)(F)F)O2
REMARK SMILES IDX 16 1 15 2 13 3 14 4 12 5 4 6 5 7 9 8 6 9 8 10 10 11 7 12
REMARK SMILES IDX 89 13 11 14 84 15 3 16 2 17 1 18 85 19 86 20 87 21 88 22
REMARK SMILES IDX 17 23 18 24 19 25 20 26 21 27 22 28 83 29 23 30 82 31 24 32
REMARK SMILES IDX 25 33 26 34 76 35 27 36 81 37 75 38 77 39 28 40 80 41 74 42
REMARK SMILES IDX 73 43 29 45 61 46 41 47 60 48 42 49 45 50 59 51 78 52 43 53
REMARK SMILES IDX 44 54 58 56 79 57 46 58 30 59 31 60 39 61 32 62 33 63 37 64
REMARK SMILES IDX 40 65 34 66 35 67 38 68 36 69 62 70 63 71 71 72 64 73 65 74
REMARK SMILES IDX 69 75 72 76 66 77 67 78 70 79 68 80 47 81 48 82 56 83 49 84
REMARK SMILES IDX 50 85 54 86 57 87 51 88 52 89 55 90 53 91
REMARK H PARENT 77 44 45 55
REMARK Flexibility Score: inf
ROOT
ATOM      1  C   UNL A   1      31.396  28.707  25.092  1.00  0.00     0.275 C 
ENDROOT
BRANCH   1   2
ATOM      2  O   UNL A   1      32.140  27.640  25.725  1.00  0.00    -0.459 OA
BRANCH   2   3
ATOM      3  C   UNL A   1      32.906  26.898  24.893  1.00  0.00     0.338 C 
ATOM      4  O   UNL A   1      33.752  27.317  24.118  1.00  0.00    -0.246 OA
BRANCH   3   5
ATOM      5  C   UNL A   1      32.642  25.458  25.076  1.00  0.00     0.087 C 
ATOM      6  C   UNL A   1      33.172  20.446  25.238  1.00  0.00    -0.026 A 
ATOM      7  C   UNL A   1      32.062  21.324  25.269  1.00  0.00     0.052 A 
ATOM      8  C   UNL A   1      34.458  21.004  25.170  1.00  0.00     0.045 A 
ATOM      9  C   UNL A   1      32.231  22.711  25.240  1.00  0.00     0.128 A 
ATOM     10  C   UNL A   1      34.626  22.388  25.188  1.00  0.00     0.032 A 
ATOM     11  Cl  UNL A   1      35.894  20.062  25.001  1.00  0.00    -0.084 Cl
ATOM     12  C   UNL A   1      33.517  23.233  25.211  1.00  0.00     0.019 A 
ATOM     13  O   UNL A   1      31.107  23.491  25.253  1.00  0.00    -0.475 OA
ATOM     14  C   UNL A   1      33.712  24.662  25.163  1.00  0.00     0.027 C 
ATOM     15  C   UNL A   1      31.240  24.924  24.989  1.00  0.00     0.316 C 
BRANCH   6  16
ATOM     16  C   UNL A   1      32.914  18.954  25.229  1.00  0.00     0.037 C 
BRANCH  16  17
ATOM     17  C   UNL A   1      32.795  18.268  23.859  1.00  0.00     0.001 C 
ATOM     18  C   UNL A   1      33.921  17.296  23.545  1.00  0.00     0.004 C 
ENDBRANCH  16  17
ENDBRANCH   6  16
BRANCH  15  19
ATOM     19  C   UNL A   1      30.626  25.250  23.616  1.00  0.00     0.430 C 
ATOM     20  F   UNL A   1      29.805  26.323  23.679  1.00  0.00    -0.167 F 
ATOM     21  F   UNL A   1      31.586  25.548  22.706  1.00  0.00    -0.167 F 
ATOM     22  F   UNL A   1      29.910  24.215  23.120  1.00  0.00    -0.167 F 
ENDBRANCH  15  19
ENDBRANCH   3   5
ENDBRANCH   2   3
ENDBRANCH   1   2
BRANCH   1  23
ATOM     23  C   UNL A   1      31.987  30.078  25.422  1.00  0.00     0.275 C 
BRANCH  23  24
ATOM     24  O   UNL A   1      32.439  30.113  26.788  1.00  0.00    -0.458 OA
BRANCH  24  25
ATOM     25  C   UNL A   1      33.039  31.261  27.177  1.00  0.00     0.338 C 
ATOM     26  O   UNL A   1      32.558  32.379  27.212  1.00  0.00    -0.246 OA
BRANCH  25  27
ATOM     27  C   UNL A   1      34.402  30.971  27.650  1.00  0.00     0.060 A 
ATOM     28  C   UNL A   1      35.282  31.992  27.988  1.00  0.00     0.016 A 
ATOM     29  C   UNL A   1      34.740  29.650  27.914  1.00  0.00     0.016 A 
ATOM     30  C   UNL A   1      36.509  31.666  28.581  1.00  0.00     0.010 A 
ATOM     31  C   UNL A   1      35.882  29.343  28.648  1.00  0.00     0.010 A 
ATOM     32  C   UNL A   1      36.810  30.341  28.962  1.00  0.00    -0.014 A 
BRANCH  32  33
ATOM     33  C   UNL A   1      38.082  30.002  29.671  1.00  0.00     0.031 A 
ATOM     34  C   UNL A   1      38.344  30.475  31.083  1.00  0.00     0.074 A 
ATOM     35  C   UNL A   1      39.033  29.286  29.035  1.00  0.00     0.049 A 
ATOM     36  N   UNL A   1      39.382  30.247  31.854  1.00  0.00    -0.248 NA
ATOM     37  C   UNL A   1      37.340  31.357  31.699  1.00  0.00     0.031 C 
ATOM     38  C   UNL A   1      38.977  28.859  27.635  1.00  0.00     0.029 A 
ATOM     39  N   UNL A   1      40.224  28.771  29.488  1.00  0.00    -0.354 N 
ATOM     40  C   UNL A   1      39.164  30.981  33.015  1.00  0.00     0.074 A 
ATOM     41  C   UNL A   1      37.941  31.724  32.819  1.00  0.00     0.031 C 
ATOM     42  C   UNL A   1      40.030  28.071  27.372  1.00  0.00     0.029 A 
ATOM     43  C   UNL A   1      40.859  27.968  28.569  1.00  0.00     0.049 A 
ATOM     44  H   UNL A   1      40.588  28.958  30.382  1.00  0.00     0.167 HD
ATOM     45  C   UNL A   1      39.884  30.999  34.162  1.00  0.00     0.037 A 
ATOM     46  C   UNL A   1      41.964  27.207  28.685  1.00  0.00     0.037 A 
ATOM     47  C   UNL A   1      41.059  30.202  34.392  1.00  0.00     0.049 A 
ATOM     48  C   UNL A   1      42.706  27.174  29.992  1.00  0.00     0.074 A 
ATOM     49  C   UNL A   1      41.804  30.077  35.552  1.00  0.00     0.029 A 
ATOM     50  N   UNL A   1      41.650  29.381  33.445  1.00  0.00    -0.354 N 
ATOM     51  N   UNL A   1      42.439  27.805  31.108  1.00  0.00    -0.248 NA
ATOM     52  C   UNL A   1      43.901  26.321  30.056  1.00  0.00     0.031 C 
ATOM     53  C   UNL A   1      42.861  29.198  35.298  1.00  0.00     0.029 A 
ATOM     54  C   UNL A   1      42.755  28.750  33.992  1.00  0.00     0.049 A 
ATOM     55  H   UNL A   1      41.332  29.264  32.521  1.00  0.00     0.167 HD
ATOM     56  C   UNL A   1      43.421  27.420  32.009  1.00  0.00     0.074 A 
ATOM     57  C   UNL A   1      44.279  26.481  31.317  1.00  0.00     0.031 C 
ATOM     58  C   UNL A   1      43.598  27.815  33.293  1.00  0.00     0.037 A 
BRANCH  45  59
ATOM     59  C   UNL A   1      39.391  31.873  35.281  1.00  0.00     0.064 A 
ATOM     60  C   UNL A   1      39.741  33.230  35.356  1.00  0.00     0.173 A 
ATOM     61  C   UNL A   1      38.533  31.364  36.267  1.00  0.00     0.173 A 
ATOM     62  F   UNL A   1      40.564  33.767  34.443  1.00  0.00    -0.203 F 
ATOM     63  C   UNL A   1      39.281  34.035  36.395  1.00  0.00     0.198 A 
ATOM     64  C   UNL A   1      38.048  32.181  37.287  1.00  0.00     0.198 A 
ATOM     65  F   UNL A   1      38.155  30.077  36.239  1.00  0.00    -0.203 F 
ATOM     66  F   UNL A   1      39.675  35.315  36.473  1.00  0.00    -0.200 F 
ATOM     67  C   UNL A   1      38.430  33.513  37.356  1.00  0.00     0.200 A 
ATOM     68  F   UNL A   1      37.210  31.679  38.206  1.00  0.00    -0.200 F 
ATOM     69  F   UNL A   1      37.981  34.290  38.350  1.00  0.00    -0.200 F 
ENDBRANCH  45  59
BRANCH  46  70
ATOM     70  C   UNL A   1      42.376  26.342  27.550  1.00  0.00     0.064 A 
ATOM     71  C   UNL A   1      43.375  26.766  26.661  1.00  0.00     0.173 A 
ATOM     72  C   UNL A   1      41.827  25.067  27.355  1.00  0.00     0.173 A 
ATOM     73  F   UNL A   1      43.918  27.985  26.798  1.00  0.00    -0.203 F 
ATOM     74  C   UNL A   1      43.808  25.947  25.620  1.00  0.00     0.198 A 
ATOM     75  C   UNL A   1      42.276  24.241  26.327  1.00  0.00     0.198 A 
ATOM     76  F   UNL A   1      40.874  24.614  28.182  1.00  0.00    -0.203 F 
ATOM     77  F   UNL A   1      44.749  26.386  24.773  1.00  0.00    -0.200 F 
ATOM     78  C   UNL A   1      43.264  24.682  25.459  1.00  0.00     0.200 A 
ATOM     79  F   UNL A   1      41.761  23.012  26.183  1.00  0.00    -0.200 F 
ATOM     80  F   UNL A   1      43.694  23.889  24.468  1.00  0.00    -0.200 F 
ENDBRANCH  46  70
BRANCH  58  81
ATOM     81  C   UNL A   1      44.757  27.235  34.045  1.00  0.00     0.064 A 
ATOM     82  C   UNL A   1      44.647  26.014  34.724  1.00  0.00     0.173 A 
ATOM     83  C   UNL A   1      46.011  27.865  34.018  1.00  0.00     0.173 A 
ATOM     84  F   UNL A   1      43.466  25.380  34.785  1.00  0.00    -0.203 F 
ATOM     85  C   UNL A   1      45.749  25.447  35.358  1.00  0.00     0.198 A 
ATOM     86  C   UNL A   1      47.115  27.284  34.633  1.00  0.00     0.198 A 
ATOM     87  F   UNL A   1      46.168  29.031  33.375  1.00  0.00    -0.203 F 
ATOM     88  F   UNL A   1      45.615  24.292  36.023  1.00  0.00    -0.200 F 
ATOM     89  C   UNL A   1      46.983  26.077  35.303  1.00  0.00     0.200 A 
ATOM     90  F   UNL A   1      48.311  27.887  34.569  1.00  0.00    -0.200 F 
ATOM     91  F   UNL A   1      48.047  25.522  35.900  1.00  0.00    -0.200 F 
ENDBRANCH  58  81
ENDBRANCH  32  33
ENDBRANCH  25  27
ENDBRANCH  24  25
ENDBRANCH  23  24
ENDBRANCH   1  23
TORSDOF 14
ENDMDL
MODEL 3
REMARK VINA RESULT:     -12.0      3.680      6.377
REMARK SMILES CCCc1cc2c(cc1Cl)C=C(C(=O)OCCOC(=O)c1ccc(-c3c4nc(c(-c5c(F)c(F)c(F)c(F)c5F)c5ccc([nH]5)c(-c5c(F)c(F)c(F)c(F)c5F)c5nc(c(-c6c(F)c(F)c(F)c(F)c6F)c6ccc3[nH]6)C=C5)C=C4)cc1)[C@@H](C(F)(F)F)O2
REMARK SMILES IDX 16 1 15 2 13 3 14 4 12 5 4 6 5 7 9 8 6 9 8 10 10 11 7 12
REMARK SMILES IDX 89 13 11 14 84 15 3 16 2 17 1 18 85 19 86 20 87 21 88 22
REMARK SMILES IDX 17 23 18 24 19 25 20 26 21 27 22 28 83 29 23 30 82 31 24 32
REMARK SMILES IDX 25 33 26 34 76 35 27 36 81 37 75 38 77 39 28 40 80 41 74 42
REMARK SMILES IDX 73 43 29 45 61 46 41 47 60 48 42 49 45 50 59 51 78 52 43 53
REMARK SMILES IDX 44 54 58 56 79 57 46 58 30 59 31 60 39 61 32 62 33 63 37 64
REMARK SMILES IDX 40 65 34 66 35 67 38 68 36 69 62 70 63 71 71 72 64 73 65 74
REMARK SMILES IDX 69 75 72 76 66 77 67 78 70 79 68 80 47 81 48 82 56 83 49 84
REMARK SMILES IDX 50 85 54 86 57 87 51 88 52 89 55 90 53 91
REMARK H PARENT 77 44 45 55
REMARK Flexibility Score: inf
ROOT
ATOM      1  C   UNL A   1      41.819  19.868  26.210  1.00  0.00     0.275 C 
ENDROOT
BRANCH   1   2
ATOM      2  O   UNL A   1      42.455  21.122  25.867  1.00  0.00    -0.459 OA
BRANCH   2   3
ATOM      3  C   UNL A   1      43.748  21.027  25.482  1.00  0.00     0.338 C 
ATOM      4  O   UNL A   1      44.190  20.321  24.588  1.00  0.00    -0.246 OA
BRANCH   3   5
ATOM      5  C   UNL A   1      44.597  21.956  26.251  1.00  0.00     0.087 C 
ATOM      6  C   UNL A   1      46.202  25.352  29.617  1.00  0.00    -0.026 A 
ATOM      7  C   UNL A   1      46.726  24.833  28.407  1.00  0.00     0.052 A 
ATOM      8  C   UNL A   1      44.973  24.852  30.074  1.00  0.00     0.045 A 
ATOM      9  C   UNL A   1      46.050  23.847  27.685  1.00  0.00     0.128 A 
ATOM     10  C   UNL A   1      44.323  23.835  29.376  1.00  0.00     0.032 A 
ATOM     11  Cl  UNL A   1      44.153  25.473  31.459  1.00  0.00    -0.084 Cl
ATOM     12  C   UNL A   1      44.855  23.346  28.183  1.00  0.00     0.019 A 
ATOM     13  O   UNL A   1      46.614  23.413  26.516  1.00  0.00    -0.475 OA
ATOM     14  C   UNL A   1      44.133  22.338  27.444  1.00  0.00     0.027 C 
ATOM     15  C   UNL A   1      45.824  22.559  25.627  1.00  0.00     0.316 C 
BRANCH   6  16
ATOM     16  C   UNL A   1      46.967  26.450  30.324  1.00  0.00     0.037 C 
BRANCH  16  17
ATOM     17  C   UNL A   1      46.302  27.833  30.403  1.00  0.00     0.001 C 
ATOM     18  C   UNL A   1      46.323  28.461  31.787  1.00  0.00     0.004 C 
ENDBRANCH  16  17
ENDBRANCH   6  16
BRANCH  15  19
ATOM     19  C   UNL A   1      45.450  23.350  24.361  1.00  0.00     0.430 C 
ATOM     20  F   UNL A   1      44.154  23.741  24.382  1.00  0.00    -0.167 F 
ATOM     21  F   UNL A   1      46.194  24.478  24.247  1.00  0.00    -0.167 F 
ATOM     22  F   UNL A   1      45.640  22.627  23.234  1.00  0.00    -0.167 F 
ENDBRANCH  15  19
ENDBRANCH   3   5
ENDBRANCH   2   3
ENDBRANCH   1   2
BRANCH   1  23
ATOM     23  C   UNL A   1      40.322  19.894  25.902  1.00  0.00     0.275 C 
BRANCH  23  24
ATOM     24  O   UNL A   1      39.634  20.751  26.831  1.00  0.00    -0.458 OA
BRANCH  24  25
ATOM     25  C   UNL A   1      38.979  21.801  26.284  1.00  0.00     0.338 C 
ATOM     26  O   UNL A   1      38.057  21.772  25.489  1.00  0.00    -0.246 OA
BRANCH  25  27
ATOM     27  C   UNL A   1      39.494  23.056  26.853  1.00  0.00     0.060 A 
ATOM     28  C   UNL A   1      40.491  23.055  27.821  1.00  0.00     0.016 A 
ATOM     29  C   UNL A   1      39.083  24.254  26.284  1.00  0.00     0.016 A 
ATOM     30  C   UNL A   1      41.058  24.274  28.217  1.00  0.00     0.010 A 
ATOM     31  C   UNL A   1      39.759  25.439  26.558  1.00  0.00     0.010 A 
ATOM     32  C   UNL A   1      40.734  25.481  27.560  1.00  0.00    -0.014 A 
BRANCH  32  33
ATOM     33  C   UNL A   1      41.400  26.769  27.922  1.00  0.00     0.031 A 
ATOM     34  C   UNL A   1      42.777  27.116  27.402  1.00  0.00     0.074 A 
ATOM     35  C   UNL A   1      40.779  27.632  28.754  1.00  0.00     0.049 A 
ATOM     36  N   UNL A   1      43.486  28.203  27.596  1.00  0.00    -0.248 NA
ATOM     37  C   UNL A   1      43.473  26.098  26.600  1.00  0.00     0.031 C 
ATOM     38  C   UNL A   1      39.504  27.388  29.430  1.00  0.00     0.029 A 
ATOM     39  N   UNL A   1      41.127  28.900  29.157  1.00  0.00    -0.354 N 
ATOM     40  C   UNL A   1      44.708  27.978  26.973  1.00  0.00     0.074 A 
ATOM     41  C   UNL A   1      44.679  26.626  26.466  1.00  0.00     0.031 C 
ATOM     42  C   UNL A   1      39.130  28.500  30.082  1.00  0.00     0.029 A 
ATOM     43  C   UNL A   1      40.156  29.523  29.906  1.00  0.00     0.049 A 
ATOM     44  H   UNL A   1      41.987  29.321  28.931  1.00  0.00     0.167 HD
ATOM     45  C   UNL A   1      45.745  28.831  26.791  1.00  0.00     0.037 A 
ATOM     46  C   UNL A   1      40.083  30.784  30.372  1.00  0.00     0.037 A 
ATOM     47  C   UNL A   1      45.750  30.202  27.224  1.00  0.00     0.049 A 
ATOM     48  C   UNL A   1      41.205  31.744  30.091  1.00  0.00     0.074 A 
ATOM     49  C   UNL A   1      46.710  31.174  27.005  1.00  0.00     0.029 A 
ATOM     50  N   UNL A   1      44.734  30.799  27.954  1.00  0.00    -0.354 N 
ATOM     51  N   UNL A   1      42.315  31.541  29.426  1.00  0.00    -0.248 NA
ATOM     52  C   UNL A   1      41.062  33.106  30.622  1.00  0.00     0.031 C 
ATOM     53  C   UNL A   1      46.286  32.354  27.624  1.00  0.00     0.029 A 
ATOM     54  C   UNL A   1      45.047  32.127  28.199  1.00  0.00     0.049 A 
ATOM     55  H   UNL A   1      43.913  30.348  28.254  1.00  0.00     0.167 HD
ATOM     56  C   UNL A   1      42.999  32.749  29.448  1.00  0.00     0.074 A 
ATOM     57  C   UNL A   1      42.167  33.688  30.173  1.00  0.00     0.031 C 
ATOM     58  C   UNL A   1      44.208  33.050  28.919  1.00  0.00     0.037 A 
BRANCH  45  59
ATOM     59  C   UNL A   1      46.946  28.321  26.044  1.00  0.00     0.064 A 
ATOM     60  C   UNL A   1      46.892  28.059  24.666  1.00  0.00     0.173 A 
ATOM     61  C   UNL A   1      48.171  28.127  26.698  1.00  0.00     0.173 A 
ATOM     62  F   UNL A   1      45.743  28.221  23.991  1.00  0.00    -0.203 F 
ATOM     63  C   UNL A   1      48.007  27.587  23.980  1.00  0.00     0.198 A 
ATOM     64  C   UNL A   1      49.295  27.687  26.001  1.00  0.00     0.198 A 
ATOM     65  F   UNL A   1      48.285  28.375  28.012  1.00  0.00    -0.203 F 
ATOM     66  F   UNL A   1      47.914  27.292  22.675  1.00  0.00    -0.200 F 
ATOM     67  C   UNL A   1      49.210  27.408  24.646  1.00  0.00     0.200 A 
ATOM     68  F   UNL A   1      50.462  27.531  26.643  1.00  0.00    -0.200 F 
ATOM     69  F   UNL A   1      50.285  26.962  23.982  1.00  0.00    -0.200 F 
ENDBRANCH  45  59
BRANCH  46  70
ATOM     70  C   UNL A   1      38.852  31.231  31.075  1.00  0.00     0.064 A 
ATOM     71  C   UNL A   1      37.758  31.720  30.346  1.00  0.00     0.173 A 
ATOM     72  C   UNL A   1      38.720  31.136  32.467  1.00  0.00     0.173 A 
ATOM     73  F   UNL A   1      37.844  31.845  29.013  1.00  0.00    -0.203 F 
ATOM     74  C   UNL A   1      36.578  32.098  30.984  1.00  0.00     0.198 A 
ATOM     75  C   UNL A   1      37.532  31.494  33.101  1.00  0.00     0.198 A 
ATOM     76  F   UNL A   1      39.736  30.669  33.206  1.00  0.00    -0.203 F 
ATOM     77  F   UNL A   1      35.556  32.582  30.266  1.00  0.00    -0.200 F 
ATOM     78  C   UNL A   1      36.464  31.976  32.360  1.00  0.00     0.200 A 
ATOM     79  F   UNL A   1      37.418  31.361  34.430  1.00  0.00    -0.200 F 
ATOM     80  F   UNL A   1      35.323  32.324  32.972  1.00  0.00    -0.200 F 
ENDBRANCH  46  70
BRANCH  58  81
ATOM     81  C   UNL A   1      44.716  34.449  29.093  1.00  0.00     0.064 A 
ATOM     82  C   UNL A   1      44.403  35.457  28.171  1.00  0.00     0.173 A 
ATOM     83  C   UNL A   1      45.451  34.803  30.235  1.00  0.00     0.173 A 
ATOM     84  F   UNL A   1      43.711  35.164  27.060  1.00  0.00    -0.203 F 
ATOM     85  C   UNL A   1      44.816  36.770  28.380  1.00  0.00     0.198 A 
ATOM     86  C   UNL A   1      45.842  36.121  30.452  1.00  0.00     0.198 A 
ATOM     87  F   UNL A   1      45.768  33.876  31.150  1.00  0.00    -0.203 F 
ATOM     88  F   UNL A   1      44.529  37.713  27.473  1.00  0.00    -0.200 F 
ATOM     89  C   UNL A   1      45.526  37.102  29.524  1.00  0.00     0.200 A 
ATOM     90  F   UNL A   1      46.517  36.444  31.565  1.00  0.00    -0.200 F 
ATOM     91  F   UNL A   1      45.909  38.369  29.732  1.00  0.00    -0.200 F 
ENDBRANCH  58  81
ENDBRANCH  32  33
ENDBRANCH  25  27
ENDBRANCH  24  25
ENDBRANCH  23  24
ENDBRANCH   1  23
TORSDOF 14
ENDMDL
