MODEL 1
REMARK VINA RESULT:     -12.2      0.000      0.000
REMARK SMILES CCCc1cc(OC(F)(F)F)cc2c1O[C@@H](C(F)(F)F)C(C(=O)OCCOC(=O)c1ccc(-c3c4nc(c(-c5c(F)c(F)c(F)c(F)c5F)c5ccc([nH]5)c(-c5c(F)c(F)c(F)c(F)c5F)c5nc(c(-c6c(F)c(F)c(F)c(F)c6F)c6ccc3[nH]6)C=C5)C=C4)cc1)=C2
REMARK SMILES IDX 25 1 24 2 22 3 23 4 21 5 4 6 5 7 14 8 6 9 13 10 15 11 12 12
REMARK SMILES IDX 93 13 16 14 3 15 2 16 1 17 7 18 8 19 9 20 10 21 11 22 17 23
REMARK SMILES IDX 18 24 19 25 20 26 26 27 27 28 28 29 29 30 30 31 31 32 92 33
REMARK SMILES IDX 32 34 91 35 33 36 34 37 35 38 85 39 36 40 90 41 84 42 86 43
REMARK SMILES IDX 37 44 89 45 83 46 82 47 38 49 70 50 50 51 69 52 51 53 54 54
REMARK SMILES IDX 68 55 87 56 52 57 53 58 67 60 88 61 55 62 39 63 40 64 48 65
REMARK SMILES IDX 41 66 42 67 46 68 49 69 43 70 44 71 47 72 45 73 71 74 72 75
REMARK SMILES IDX 80 76 73 77 74 78 78 79 81 80 75 81 76 82 79 83 77 84 56 85
REMARK SMILES IDX 57 86 65 87 58 88 59 89 63 90 66 91 60 92 61 93 64 94 62 95
REMARK H PARENT 86 48 54 59
REMARK Flexibility Score: inf
ROOT
ATOM      1  C   UNL A   1      31.494  28.732  24.855  1.00  0.00     0.275 C 
ENDROOT
BRANCH   1   2
ATOM      2  O   UNL A   1      32.641  27.869  25.006  1.00  0.00    -0.459 OA
BRANCH   2   3
ATOM      3  C   UNL A   1      33.036  27.202  23.893  1.00  0.00     0.338 C 
ATOM      4  O   UNL A   1      33.282  27.717  22.815  1.00  0.00    -0.246 OA
BRANCH   3   5
ATOM      5  C   UNL A   1      33.203  25.752  24.145  1.00  0.00     0.087 C 
ATOM      6  C   UNL A   1      33.424  21.614  24.766  1.00  0.00    -0.002 A 
ATOM      7  C   UNL A   1      34.647  21.058  25.165  1.00  0.00     0.054 A 
ATOM      8  C   UNL A   1      33.337  23.013  24.677  1.00  0.00     0.131 A 
ATOM      9  C   UNL A   1      35.721  21.872  25.539  1.00  0.00     0.130 A 
ATOM     10  C   UNL A   1      34.432  23.841  24.951  1.00  0.00     0.021 A 
ATOM     11  O   UNL A   1      32.112  23.548  24.380  1.00  0.00    -0.475 OA
ATOM     12  C   UNL A   1      35.621  23.261  25.396  1.00  0.00     0.058 A 
ATOM     13  C   UNL A   1      34.294  25.290  24.784  1.00  0.00     0.027 C 
ATOM     14  C   UNL A   1      32.138  24.794  23.638  1.00  0.00     0.316 C 
BRANCH   6  15
ATOM     15  C   UNL A   1      32.231  20.771  24.356  1.00  0.00     0.039 C 
BRANCH  15  16
ATOM     16  C   UNL A   1      32.471  19.527  23.492  1.00  0.00     0.001 C 
ATOM     17  C   UNL A   1      32.457  18.231  24.292  1.00  0.00     0.004 C 
ENDBRANCH  15  16
ENDBRANCH   6  15
BRANCH   9  18
ATOM     18  O   UNL A   1      36.912  21.420  26.037  1.00  0.00    -0.406 OA
BRANCH  18  19
ATOM     19  C   UNL A   1      37.860  20.945  25.088  1.00  0.00     0.573 C 
ATOM     20  F   UNL A   1      37.829  19.598  24.981  1.00  0.00    -0.132 F 
ATOM     21  F   UNL A   1      37.641  21.497  23.876  1.00  0.00    -0.132 F 
ATOM     22  F   UNL A   1      39.098  21.301  25.495  1.00  0.00    -0.132 F 
ENDBRANCH  18  19
ENDBRANCH   9  18
BRANCH  14  23
ATOM     23  C   UNL A   1      30.678  25.278  23.534  1.00  0.00     0.430 C 
ATOM     24  F   UNL A   1      30.527  26.254  22.609  1.00  0.00    -0.167 F 
ATOM     25  F   UNL A   1      29.880  24.259  23.109  1.00  0.00    -0.167 F 
ATOM     26  F   UNL A   1      30.177  25.702  24.712  1.00  0.00    -0.167 F 
ENDBRANCH  14  23
ENDBRANCH   3   5
ENDBRANCH   2   3
ENDBRANCH   1   2
BRANCH   1  27
ATOM     27  C   UNL A   1      31.734  30.112  25.475  1.00  0.00     0.275 C 
BRANCH  27  28
ATOM     28  O   UNL A   1      33.078  30.242  25.977  1.00  0.00    -0.458 OA
BRANCH  28  29
ATOM     29  C   UNL A   1      33.262  31.248  26.864  1.00  0.00     0.338 C 
ATOM     30  O   UNL A   1      32.466  32.127  27.154  1.00  0.00    -0.246 OA
BRANCH  29  31
ATOM     31  C   UNL A   1      34.521  31.041  27.608  1.00  0.00     0.060 A 
ATOM     32  C   UNL A   1      34.794  29.739  28.033  1.00  0.00     0.016 A 
ATOM     33  C   UNL A   1      35.412  32.076  27.902  1.00  0.00     0.016 A 
ATOM     34  C   UNL A   1      35.990  29.440  28.680  1.00  0.00     0.010 A 
ATOM     35  C   UNL A   1      36.587  31.789  28.608  1.00  0.00     0.010 A 
ATOM     36  C   UNL A   1      36.888  30.467  28.987  1.00  0.00    -0.014 A 
BRANCH  36  37
ATOM     37  C   UNL A   1      38.085  30.168  29.805  1.00  0.00     0.031 A 
ATOM     38  C   UNL A   1      39.125  29.234  29.262  1.00  0.00     0.074 A 
ATOM     39  C   UNL A   1      38.259  30.749  31.005  1.00  0.00     0.049 A 
ATOM     40  N   UNL A   1      40.214  28.782  29.828  1.00  0.00    -0.248 NA
ATOM     41  C   UNL A   1      38.915  28.756  27.887  1.00  0.00     0.031 C 
ATOM     42  C   UNL A   1      37.369  31.744  31.599  1.00  0.00     0.029 A 
ATOM     43  N   UNL A   1      39.247  30.575  31.943  1.00  0.00    -0.354 N 
ATOM     44  C   UNL A   1      40.819  27.969  28.881  1.00  0.00     0.074 A 
ATOM     45  C   UNL A   1      39.973  27.981  27.707  1.00  0.00     0.031 C 
ATOM     46  C   UNL A   1      37.836  32.074  32.816  1.00  0.00     0.029 A 
ATOM     47  C   UNL A   1      39.034  31.285  33.100  1.00  0.00     0.049 A 
ATOM     48  H   UNL A   1      40.032  30.000  31.800  1.00  0.00     0.167 HD
ATOM     49  C   UNL A   1      41.975  27.271  28.986  1.00  0.00     0.037 A 
ATOM     50  C   UNL A   1      39.713  31.267  34.265  1.00  0.00     0.037 A 
ATOM     51  C   UNL A   1      42.796  27.235  30.166  1.00  0.00     0.049 A 
ATOM     52  C   UNL A   1      40.925  30.380  34.401  1.00  0.00     0.074 A 
ATOM     53  C   UNL A   1      43.970  26.535  30.379  1.00  0.00     0.029 A 
ATOM     54  N   UNL A   1      42.518  27.918  31.341  1.00  0.00    -0.354 N 
ATOM     55  N   UNL A   1      41.494  29.608  33.506  1.00  0.00    -0.248 NA
ATOM     56  C   UNL A   1      41.588  30.355  35.713  1.00  0.00     0.031 C 
ATOM     57  C   UNL A   1      44.372  26.750  31.702  1.00  0.00     0.029 A 
ATOM     58  C   UNL A   1      43.483  27.632  32.293  1.00  0.00     0.049 A 
ATOM     59  H   UNL A   1      41.749  28.518  31.478  1.00  0.00     0.167 HD
ATOM     60  C   UNL A   1      42.596  29.040  34.132  1.00  0.00     0.074 A 
ATOM     61  C   UNL A   1      42.621  29.555  35.484  1.00  0.00     0.031 C 
ATOM     62  C   UNL A   1      43.508  28.171  33.630  1.00  0.00     0.037 A 
BRANCH  49  63
ATOM     63  C   UNL A   1      42.387  26.444  27.805  1.00  0.00     0.064 A 
ATOM     64  C   UNL A   1      43.311  26.914  26.861  1.00  0.00     0.173 A 
ATOM     65  C   UNL A   1      41.860  25.156  27.626  1.00  0.00     0.173 A 
ATOM     66  F   UNL A   1      43.829  28.146  26.977  1.00  0.00    -0.203 F 
ATOM     67  C   UNL A   1      43.675  26.132  25.767  1.00  0.00     0.198 A 
ATOM     68  C   UNL A   1      42.249  24.366  26.548  1.00  0.00     0.198 A 
ATOM     69  F   UNL A   1      40.973  24.660  28.502  1.00  0.00    -0.203 F 
ATOM     70  F   UNL A   1      44.524  26.618  24.851  1.00  0.00    -0.200 F 
ATOM     71  C   UNL A   1      43.149  24.858  25.615  1.00  0.00     0.200 A 
ATOM     72  F   UNL A   1      41.745  23.132  26.408  1.00  0.00    -0.200 F 
ATOM     73  F   UNL A   1      43.503  24.106  24.564  1.00  0.00    -0.200 F 
ENDBRANCH  49  63
BRANCH  50  74
ATOM     74  C   UNL A   1      39.243  32.083  35.416  1.00  0.00     0.064 A 
ATOM     75  C   UNL A   1      39.645  33.417  35.575  1.00  0.00     0.173 A 
ATOM     76  C   UNL A   1      38.416  31.532  36.407  1.00  0.00     0.173 A 
ATOM     77  F   UNL A   1      40.464  33.980  34.673  1.00  0.00    -0.203 F 
ATOM     78  C   UNL A   1      39.257  34.160  36.689  1.00  0.00     0.198 A 
ATOM     79  C   UNL A   1      38.003  32.285  37.504  1.00  0.00     0.198 A 
ATOM     80  F   UNL A   1      38.011  30.256  36.312  1.00  0.00    -0.203 F 
ATOM     81  F   UNL A   1      39.704  35.413  36.844  1.00  0.00    -0.200 F 
ATOM     82  C   UNL A   1      38.432  33.595  37.650  1.00  0.00     0.200 A 
ATOM     83  F   UNL A   1      37.202  31.735  38.428  1.00  0.00    -0.200 F 
ATOM     84  F   UNL A   1      38.064  34.307  38.723  1.00  0.00    -0.200 F 
ENDBRANCH  50  74
BRANCH  62  85
ATOM     85  C   UNL A   1      44.647  27.760  34.519  1.00  0.00     0.064 A 
ATOM     86  C   UNL A   1      44.584  26.610  35.318  1.00  0.00     0.173 A 
ATOM     87  C   UNL A   1      45.845  28.492  34.513  1.00  0.00     0.173 A 
ATOM     88  F   UNL A   1      43.457  25.883  35.370  1.00  0.00    -0.203 F 
ATOM     89  C   UNL A   1      45.674  26.217  36.093  1.00  0.00     0.198 A 
ATOM     90  C   UNL A   1      46.941  28.079  35.264  1.00  0.00     0.198 A 
ATOM     91  F   UNL A   1      45.960  29.595  33.759  1.00  0.00    -0.203 F 
ATOM     92  F   UNL A   1      45.580  25.135  36.878  1.00  0.00    -0.200 F 
ATOM     93  C   UNL A   1      46.854  26.946  36.057  1.00  0.00     0.200 A 
ATOM     94  F   UNL A   1      48.086  28.776  35.214  1.00  0.00    -0.200 F 
ATOM     95  F   UNL A   1      47.907  26.555  36.788  1.00  0.00    -0.200 F 
ENDBRANCH  62  85
ENDBRANCH  36  37
ENDBRANCH  29  31
ENDBRANCH  28  29
ENDBRANCH  27  28
ENDBRANCH   1  27
TORSDOF 16
ENDMDL
MODEL 2
REMARK VINA RESULT:     -12.1      0.210      1.625
REMARK SMILES CCCc1cc(OC(F)(F)F)cc2c1O[C@@H](C(F)(F)F)C(C(=O)OCCOC(=O)c1ccc(-c3c4nc(c(-c5c(F)c(F)c(F)c(F)c5F)c5ccc([nH]5)c(-c5c(F)c(F)c(F)c(F)c5F)c5nc(c(-c6c(F)c(F)c(F)c(F)c6F)c6ccc3[nH]6)C=C5)C=C4)cc1)=C2
REMARK SMILES IDX 25 1 24 2 22 3 23 4 21 5 4 6 5 7 14 8 6 9 13 10 15 11 12 12
REMARK SMILES IDX 93 13 16 14 3 15 2 16 1 17 7 18 8 19 9 20 10 21 11 22 17 23
REMARK SMILES IDX 18 24 19 25 20 26 26 27 27 28 28 29 29 30 30 31 31 32 92 33
REMARK SMILES IDX 32 34 91 35 33 36 34 37 35 38 85 39 36 40 90 41 84 42 86 43
REMARK SMILES IDX 37 44 89 45 83 46 82 47 38 49 70 50 50 51 69 52 51 53 54 54
REMARK SMILES IDX 68 55 87 56 52 57 53 58 67 60 88 61 55 62 39 63 40 64 48 65
REMARK SMILES IDX 41 66 42 67 46 68 49 69 43 70 44 71 47 72 45 73 71 74 72 75
REMARK SMILES IDX 80 76 73 77 74 78 78 79 81 80 75 81 76 82 79 83 77 84 56 85
REMARK SMILES IDX 57 86 65 87 58 88 59 89 63 90 66 91 60 92 61 93 64 94 62 95
REMARK H PARENT 86 48 54 59
REMARK Flexibility Score: inf
ROOT
ATOM      1  C   UNL A   1      31.356  28.750  25.165  1.00  0.00     0.275 C 
ENDROOT
BRANCH   1   2
ATOM      2  O   UNL A   1      32.431  27.803  25.344  1.00  0.00    -0.459 OA
BRANCH   2   3
ATOM      3  C   UNL A   1      32.938  27.254  24.212  1.00  0.00     0.338 C 
ATOM      4  O   UNL A   1      33.242  27.873  23.206  1.00  0.00    -0.246 OA
BRANCH   3   5
ATOM      5  C   UNL A   1      33.149  25.794  24.348  1.00  0.00     0.087 C 
ATOM      6  C   UNL A   1      33.499  21.628  24.629  1.00  0.00    -0.002 A 
ATOM      7  C   UNL A   1      34.724  21.082  25.038  1.00  0.00     0.054 A 
ATOM      8  C   UNL A   1      33.363  23.026  24.654  1.00  0.00     0.131 A 
ATOM      9  C   UNL A   1      35.747  21.897  25.531  1.00  0.00     0.130 A 
ATOM     10  C   UNL A   1      34.412  23.865  25.049  1.00  0.00     0.021 A 
ATOM     11  O   UNL A   1      32.133  23.543  24.344  1.00  0.00    -0.475 OA
ATOM     12  C   UNL A   1      35.601  23.290  25.501  1.00  0.00     0.058 A 
ATOM     13  C   UNL A   1      34.226  25.317  24.999  1.00  0.00     0.027 C 
ATOM     14  C   UNL A   1      32.145  24.848  23.712  1.00  0.00     0.316 C 
BRANCH   6  15
ATOM     15  C   UNL A   1      32.359  20.783  24.092  1.00  0.00     0.039 C 
BRANCH  15  16
ATOM     16  C   UNL A   1      32.477  19.256  24.167  1.00  0.00     0.001 C 
ATOM     17  C   UNL A   1      32.364  18.580  22.808  1.00  0.00     0.004 C 
ENDBRANCH  15  16
ENDBRANCH   6  15
BRANCH   9  18
ATOM     18  O   UNL A   1      36.931  21.446  26.046  1.00  0.00    -0.406 OA
BRANCH  18  19
ATOM     19  C   UNL A   1      37.874  20.926  25.116  1.00  0.00     0.573 C 
ATOM     20  F   UNL A   1      37.716  21.469  23.889  1.00  0.00    -0.132 F 
ATOM     21  F   UNL A   1      39.136  21.141  25.544  1.00  0.00    -0.132 F 
ATOM     22  F   UNL A   1      37.688  19.592  25.007  1.00  0.00    -0.132 F 
ENDBRANCH  18  19
ENDBRANCH   9  18
BRANCH  14  23
ATOM     23  C   UNL A   1      30.673  25.288  23.578  1.00  0.00     0.430 C 
ATOM     24  F   UNL A   1      30.514  26.267  22.658  1.00  0.00    -0.167 F 
ATOM     25  F   UNL A   1      29.917  24.250  23.128  1.00  0.00    -0.167 F 
ATOM     26  F   UNL A   1      30.133  25.688  24.748  1.00  0.00    -0.167 F 
ENDBRANCH  14  23
ENDBRANCH   3   5
ENDBRANCH   2   3
ENDBRANCH   1   2
BRANCH   1  27
ATOM     27  C   UNL A   1      31.776  30.169  25.559  1.00  0.00     0.275 C 
BRANCH  27  28
ATOM     28  O   UNL A   1      33.100  30.192  26.126  1.00  0.00    -0.458 OA
BRANCH  28  29
ATOM     29  C   UNL A   1      33.355  31.245  26.939  1.00  0.00     0.338 C 
ATOM     30  O   UNL A   1      32.611  32.181  27.184  1.00  0.00    -0.246 OA
BRANCH  29  31
ATOM     31  C   UNL A   1      34.619  31.024  27.670  1.00  0.00     0.060 A 
ATOM     32  C   UNL A   1      34.859  29.728  28.133  1.00  0.00     0.016 A 
ATOM     33  C   UNL A   1      35.545  32.040  27.917  1.00  0.00     0.016 A 
ATOM     34  C   UNL A   1      36.056  29.414  28.771  1.00  0.00     0.010 A 
ATOM     35  C   UNL A   1      36.723  31.740  28.613  1.00  0.00     0.010 A 
ATOM     36  C   UNL A   1      36.989  30.423  29.030  1.00  0.00    -0.014 A 
BRANCH  36  37
ATOM     37  C   UNL A   1      38.190  30.114  29.840  1.00  0.00     0.031 A 
ATOM     38  C   UNL A   1      39.217  29.169  29.290  1.00  0.00     0.074 A 
ATOM     39  C   UNL A   1      38.379  30.695  31.038  1.00  0.00     0.049 A 
ATOM     40  N   UNL A   1      40.306  28.707  29.849  1.00  0.00    -0.248 NA
ATOM     41  C   UNL A   1      38.992  28.690  27.918  1.00  0.00     0.031 C 
ATOM     42  C   UNL A   1      37.503  31.700  31.637  1.00  0.00     0.029 A 
ATOM     43  N   UNL A   1      39.373  30.514  31.968  1.00  0.00    -0.354 N 
ATOM     44  C   UNL A   1      40.896  27.888  28.898  1.00  0.00     0.074 A 
ATOM     45  C   UNL A   1      40.041  27.905  27.731  1.00  0.00     0.031 C 
ATOM     46  C   UNL A   1      37.983  32.028  32.849  1.00  0.00     0.029 A 
ATOM     47  C   UNL A   1      39.176  31.228  33.125  1.00  0.00     0.049 A 
ATOM     48  H   UNL A   1      40.151  29.931  31.820  1.00  0.00     0.167 HD
ATOM     49  C   UNL A   1      42.046  27.178  28.996  1.00  0.00     0.037 A 
ATOM     50  C   UNL A   1      39.864  31.206  34.285  1.00  0.00     0.037 A 
ATOM     51  C   UNL A   1      42.876  27.137  30.169  1.00  0.00     0.049 A 
ATOM     52  C   UNL A   1      41.068  30.307  34.413  1.00  0.00     0.074 A 
ATOM     53  C   UNL A   1      44.045  26.427  30.374  1.00  0.00     0.029 A 
ATOM     54  N   UNL A   1      42.614  27.825  31.345  1.00  0.00    -0.354 N 
ATOM     55  N   UNL A   1      41.623  29.528  33.514  1.00  0.00    -0.248 NA
ATOM     56  C   UNL A   1      41.742  30.279  35.720  1.00  0.00     0.031 C 
ATOM     57  C   UNL A   1      44.460  26.640  31.693  1.00  0.00     0.029 A 
ATOM     58  C   UNL A   1      43.584  27.532  32.290  1.00  0.00     0.049 A 
ATOM     59  H   UNL A   1      41.851  28.432  31.487  1.00  0.00     0.167 HD
ATOM     60  C   UNL A   1      42.724  28.951  34.133  1.00  0.00     0.074 A 
ATOM     61  C   UNL A   1      42.765  29.469  35.484  1.00  0.00     0.031 C 
ATOM     62  C   UNL A   1      43.624  28.072  33.625  1.00  0.00     0.037 A 
BRANCH  49  63
ATOM     63  C   UNL A   1      42.441  26.346  27.812  1.00  0.00     0.064 A 
ATOM     64  C   UNL A   1      41.921  25.060  27.608  1.00  0.00     0.173 A 
ATOM     65  C   UNL A   1      43.339  26.852  26.861  1.00  0.00     0.173 A 
ATOM     66  F   UNL A   1      41.073  24.524  28.499  1.00  0.00    -0.203 F 
ATOM     67  C   UNL A   1      42.306  24.300  26.505  1.00  0.00     0.198 A 
ATOM     68  C   UNL A   1      43.699  26.101  25.745  1.00  0.00     0.198 A 
ATOM     69  F   UNL A   1      43.863  28.078  27.010  1.00  0.00    -0.203 F 
ATOM     70  F   UNL A   1      41.834  23.055  26.354  1.00  0.00    -0.200 F 
ATOM     71  C   UNL A   1      43.189  24.824  25.573  1.00  0.00     0.200 A 
ATOM     72  F   UNL A   1      44.546  26.613  24.840  1.00  0.00    -0.200 F 
ATOM     73  F   UNL A   1      43.556  24.093  24.511  1.00  0.00    -0.200 F 
ENDBRANCH  49  63
BRANCH  50  74
ATOM     74  C   UNL A   1      39.410  32.028  35.438  1.00  0.00     0.064 A 
ATOM     75  C   UNL A   1      38.559  31.499  36.419  1.00  0.00     0.173 A 
ATOM     76  C   UNL A   1      39.782  33.376  35.559  1.00  0.00     0.173 A 
ATOM     77  F   UNL A   1      38.147  30.225  36.329  1.00  0.00    -0.203 F 
ATOM     78  C   UNL A   1      38.082  32.289  37.463  1.00  0.00     0.198 A 
ATOM     79  C   UNL A   1      39.330  34.157  36.621  1.00  0.00     0.198 A 
ATOM     80  F   UNL A   1      40.584  33.937  34.642  1.00  0.00    -0.203 F 
ATOM     81  F   UNL A   1      37.225  31.773  38.353  1.00  0.00    -0.200 F 
ATOM     82  C   UNL A   1      38.472  33.617  37.566  1.00  0.00     0.200 A 
ATOM     83  F   UNL A   1      39.713  35.438  36.718  1.00  0.00    -0.200 F 
ATOM     84  F   UNL A   1      38.009  34.378  38.567  1.00  0.00    -0.200 F 
ENDBRANCH  50  74
BRANCH  62  85
ATOM     85  C   UNL A   1      44.766  27.653  34.506  1.00  0.00     0.064 A 
ATOM     86  C   UNL A   1      44.702  26.500  35.301  1.00  0.00     0.173 A 
ATOM     87  C   UNL A   1      45.967  28.379  34.497  1.00  0.00     0.173 A 
ATOM     88  F   UNL A   1      43.573  25.777  35.356  1.00  0.00    -0.203 F 
ATOM     89  C   UNL A   1      45.795  26.098  36.067  1.00  0.00     0.198 A 
ATOM     90  C   UNL A   1      47.067  27.957  35.240  1.00  0.00     0.198 A 
ATOM     91  F   UNL A   1      46.083  29.485  33.747  1.00  0.00    -0.203 F 
ATOM     92  F   UNL A   1      45.701  25.013  36.848  1.00  0.00    -0.200 F 
ATOM     93  C   UNL A   1      46.978  26.821  36.028  1.00  0.00     0.200 A 
ATOM     94  F   UNL A   1      48.214  28.649  35.187  1.00  0.00    -0.200 F 
ATOM     95  F   UNL A   1      48.034  26.423  36.752  1.00  0.00    -0.200 F 
ENDBRANCH  62  85
ENDBRANCH  36  37
ENDBRANCH  29  31
ENDBRANCH  28  29
ENDBRANCH  27  28
ENDBRANCH   1  27
TORSDOF 16
ENDMDL
MODEL 3
REMARK VINA RESULT:     -12.1      2.927      7.744
REMARK SMILES CCCc1cc(OC(F)(F)F)cc2c1O[C@@H](C(F)(F)F)C(C(=O)OCCOC(=O)c1ccc(-c3c4nc(c(-c5c(F)c(F)c(F)c(F)c5F)c5ccc([nH]5)c(-c5c(F)c(F)c(F)c(F)c5F)c5nc(c(-c6c(F)c(F)c(F)c(F)c6F)c6ccc3[nH]6)C=C5)C=C4)cc1)=C2
REMARK SMILES IDX 25 1 24 2 22 3 23 4 21 5 4 6 5 7 14 8 6 9 13 10 15 11 12 12
REMARK SMILES IDX 93 13 16 14 3 15 2 16 1 17 7 18 8 19 9 20 10 21 11 22 17 23
REMARK SMILES IDX 18 24 19 25 20 26 26 27 27 28 28 29 29 30 30 31 31 32 92 33
REMARK SMILES IDX 32 34 91 35 33 36 34 37 35 38 85 39 36 40 90 41 84 42 86 43
REMARK SMILES IDX 37 44 89 45 83 46 82 47 38 49 70 50 50 51 69 52 51 53 54 54
REMARK SMILES IDX 68 55 87 56 52 57 53 58 67 60 88 61 55 62 39 63 40 64 48 65
REMARK SMILES IDX 41 66 42 67 46 68 49 69 43 70 44 71 47 72 45 73 71 74 72 75
REMARK SMILES IDX 80 76 73 77 74 78 78 79 81 80 75 81 76 82 79 83 77 84 56 85
REMARK SMILES IDX 57 86 65 87 58 88 59 89 63 90 66 91 60 92 61 93 64 94 62 95
REMARK H PARENT 86 48 54 59
REMARK Flexibility Score: inf
ROOT
ATOM      1  C   UNL A   1      32.029  29.876  26.317  1.00  0.00     0.275 C 
ENDROOT
BRANCH   1   2
ATOM      2  O   UNL A   1      31.471  28.692  25.709  1.00  0.00    -0.459 OA
BRANCH   2   3
ATOM      3  C   UNL A   1      31.568  27.548  26.433  1.00  0.00     0.338 C 
ATOM      4  O   UNL A   1      31.141  27.395  27.565  1.00  0.00    -0.246 OA
BRANCH   3   5
ATOM      5  C   UNL A   1      32.206  26.456  25.663  1.00  0.00     0.087 C 
ATOM      6  C   UNL A   1      33.781  23.339  23.347  1.00  0.00    -0.002 A 
ATOM      7  C   UNL A   1      35.136  23.012  23.491  1.00  0.00     0.054 A 
ATOM      8  C   UNL A   1      33.242  24.305  24.213  1.00  0.00     0.131 A 
ATOM      9  C   UNL A   1      35.907  23.569  24.516  1.00  0.00     0.130 A 
ATOM     10  C   UNL A   1      34.024  24.947  25.181  1.00  0.00     0.021 A 
ATOM     11  O   UNL A   1      31.898  24.546  24.128  1.00  0.00    -0.475 OA
ATOM     12  C   UNL A   1      35.357  24.563  25.336  1.00  0.00     0.058 A 
ATOM     13  C   UNL A   1      33.418  25.987  26.016  1.00  0.00     0.027 C 
ATOM     14  C   UNL A   1      31.484  25.898  24.448  1.00  0.00     0.316 C 
BRANCH   6  15
ATOM     15  C   UNL A   1      32.905  22.756  22.254  1.00  0.00     0.039 C 
BRANCH  15  16
ATOM     16  C   UNL A   1      32.300  21.362  22.461  1.00  0.00     0.001 C 
ATOM     17  C   UNL A   1      32.272  20.933  23.922  1.00  0.00     0.004 C 
ENDBRANCH  15  16
ENDBRANCH   6  15
BRANCH   9  18
ATOM     18  O   UNL A   1      37.203  23.234  24.795  1.00  0.00    -0.406 OA
BRANCH  18  19
ATOM     19  C   UNL A   1      37.424  21.933  25.327  1.00  0.00     0.573 C 
ATOM     20  F   UNL A   1      38.549  21.882  26.074  1.00  0.00    -0.132 F 
ATOM     21  F   UNL A   1      36.371  21.536  26.073  1.00  0.00    -0.132 F 
ATOM     22  F   UNL A   1      37.566  21.063  24.302  1.00  0.00    -0.132 F 
ENDBRANCH  18  19
ENDBRANCH   9  18
BRANCH  14  23
ATOM     23  C   UNL A   1      29.942  25.908  24.418  1.00  0.00     0.430 C 
ATOM     24  F   UNL A   1      29.405  25.644  25.631  1.00  0.00    -0.167 F 
ATOM     25  F   UNL A   1      29.492  27.152  24.093  1.00  0.00    -0.167 F 
ATOM     26  F   UNL A   1      29.426  25.055  23.510  1.00  0.00    -0.167 F 
ENDBRANCH  14  23
ENDBRANCH   3   5
ENDBRANCH   2   3
ENDBRANCH   1   2
BRANCH   1  27
ATOM     27  C   UNL A   1      33.559  29.891  26.236  1.00  0.00     0.275 C 
BRANCH  27  28
ATOM     28  O   UNL A   1      34.160  29.506  27.488  1.00  0.00    -0.458 OA
BRANCH  28  29
ATOM     29  C   UNL A   1      34.784  30.508  28.152  1.00  0.00     0.338 C 
ATOM     30  O   UNL A   1      34.300  31.574  28.498  1.00  0.00    -0.246 OA
BRANCH  29  31
ATOM     31  C   UNL A   1      36.123  30.066  28.591  1.00  0.00     0.060 A 
ATOM     32  C   UNL A   1      37.173  30.253  27.688  1.00  0.00     0.016 A 
ATOM     33  C   UNL A   1      36.363  29.473  29.832  1.00  0.00     0.016 A 
ATOM     34  C   UNL A   1      38.479  29.929  28.044  1.00  0.00     0.010 A 
ATOM     35  C   UNL A   1      37.667  29.090  30.168  1.00  0.00     0.010 A 
ATOM     36  C   UNL A   1      38.733  29.329  29.281  1.00  0.00    -0.014 A 
BRANCH  36  37
ATOM     37  C   UNL A   1      40.099  28.851  29.592  1.00  0.00     0.031 A 
ATOM     38  C   UNL A   1      40.996  29.705  30.439  1.00  0.00     0.074 A 
ATOM     39  C   UNL A   1      40.525  27.653  29.153  1.00  0.00     0.049 A 
ATOM     40  N   UNL A   1      42.244  29.516  30.781  1.00  0.00    -0.248 NA
ATOM     41  C   UNL A   1      40.398  30.931  30.987  1.00  0.00     0.031 C 
ATOM     42  C   UNL A   1      39.717  26.693  28.403  1.00  0.00     0.029 A 
ATOM     43  N   UNL A   1      41.751  27.046  29.270  1.00  0.00    -0.354 N 
ATOM     44  C   UNL A   1      42.580  30.596  31.584  1.00  0.00     0.074 A 
ATOM     45  C   UNL A   1      41.410  31.442  31.671  1.00  0.00     0.031 C 
ATOM     46  C   UNL A   1      40.479  25.626  28.103  1.00  0.00     0.029 A 
ATOM     47  C   UNL A   1      41.834  25.847  28.605  1.00  0.00     0.049 A 
ATOM     48  H   UNL A   1      42.497  27.431  29.783  1.00  0.00     0.167 HD
ATOM     49  C   UNL A   1      43.763  30.860  32.188  1.00  0.00     0.037 A 
ATOM     50  C   UNL A   1      42.896  25.043  28.397  1.00  0.00     0.037 A 
ATOM     51  C   UNL A   1      44.935  30.034  32.073  1.00  0.00     0.049 A 
ATOM     52  C   UNL A   1      44.237  25.426  28.972  1.00  0.00     0.074 A 
ATOM     53  C   UNL A   1      46.187  30.231  32.624  1.00  0.00     0.029 A 
ATOM     54  N   UNL A   1      45.000  28.858  31.340  1.00  0.00    -0.354 N 
ATOM     55  N   UNL A   1      44.555  26.451  29.727  1.00  0.00    -0.248 NA
ATOM     56  C   UNL A   1      45.371  24.543  28.662  1.00  0.00     0.031 C 
ATOM     57  C   UNL A   1      47.028  29.205  32.179  1.00  0.00     0.029 A 
ATOM     58  C   UNL A   1      46.282  28.335  31.401  1.00  0.00     0.049 A 
ATOM     59  H   UNL A   1      44.248  28.454  30.849  1.00  0.00     0.167 HD
ATOM     60  C   UNL A   1      45.908  26.315  30.010  1.00  0.00     0.074 A 
ATOM     61  C   UNL A   1      46.355  25.108  29.350  1.00  0.00     0.031 C 
ATOM     62  C   UNL A   1      46.708  27.118  30.755  1.00  0.00     0.037 A 
BRANCH  49  63
ATOM     63  C   UNL A   1      43.859  32.127  32.985  1.00  0.00     0.064 A 
ATOM     64  C   UNL A   1      43.577  32.159  34.358  1.00  0.00     0.173 A 
ATOM     65  C   UNL A   1      44.257  33.321  32.366  1.00  0.00     0.173 A 
ATOM     66  F   UNL A   1      43.174  31.047  34.991  1.00  0.00    -0.203 F 
ATOM     67  C   UNL A   1      43.666  33.348  35.078  1.00  0.00     0.198 A 
ATOM     68  C   UNL A   1      44.373  34.501  33.095  1.00  0.00     0.198 A 
ATOM     69  F   UNL A   1      44.540  33.343  31.055  1.00  0.00    -0.203 F 
ATOM     70  F   UNL A   1      43.346  33.366  36.380  1.00  0.00    -0.200 F 
ATOM     71  C   UNL A   1      44.070  34.516  34.448  1.00  0.00     0.200 A 
ATOM     72  F   UNL A   1      44.772  35.627  32.486  1.00  0.00    -0.200 F 
ATOM     73  F   UNL A   1      44.158  35.658  35.143  1.00  0.00    -0.200 F 
ENDBRANCH  49  63
BRANCH  50  74
ATOM     74  C   UNL A   1      42.753  23.814  27.572  1.00  0.00     0.064 A 
ATOM     75  C   UNL A   1      42.381  22.591  28.149  1.00  0.00     0.173 A 
ATOM     76  C   UNL A   1      43.029  23.827  26.197  1.00  0.00     0.173 A 
ATOM     77  F   UNL A   1      42.141  22.518  29.467  1.00  0.00    -0.203 F 
ATOM     78  C   UNL A   1      42.312  21.426  27.387  1.00  0.00     0.198 A 
ATOM     79  C   UNL A   1      42.928  22.668  25.429  1.00  0.00     0.198 A 
ATOM     80  F   UNL A   1      43.401  24.967  25.596  1.00  0.00    -0.203 F 
ATOM     81  F   UNL A   1      42.011  20.260  27.974  1.00  0.00    -0.200 F 
ATOM     82  C   UNL A   1      42.580  21.467  26.026  1.00  0.00     0.200 A 
ATOM     83  F   UNL A   1      43.185  22.714  24.114  1.00  0.00    -0.200 F 
ATOM     84  F   UNL A   1      42.518  20.346  25.295  1.00  0.00    -0.200 F 
ENDBRANCH  50  74
BRANCH  62  85
ATOM     85  C   UNL A   1      48.136  26.697  30.950  1.00  0.00     0.064 A 
ATOM     86  C   UNL A   1      48.513  25.809  31.967  1.00  0.00     0.173 A 
ATOM     87  C   UNL A   1      49.128  27.135  30.059  1.00  0.00     0.173 A 
ATOM     88  F   UNL A   1      47.607  25.371  32.854  1.00  0.00    -0.203 F 
ATOM     89  C   UNL A   1      49.836  25.387  32.094  1.00  0.00     0.198 A 
ATOM     90  C   UNL A   1      50.442  26.687  30.170  1.00  0.00     0.198 A 
ATOM     91  F   UNL A   1      48.818  27.978  29.063  1.00  0.00    -0.203 F 
ATOM     92  F   UNL A   1      50.182  24.566  33.095  1.00  0.00    -0.200 F 
ATOM     93  C   UNL A   1      50.795  25.818  31.189  1.00  0.00     0.200 A 
ATOM     94  F   UNL A   1      51.363  27.093  29.284  1.00  0.00    -0.200 F 
ATOM     95  F   UNL A   1      52.063  25.397  31.303  1.00  0.00    -0.200 F 
ENDBRANCH  62  85
ENDBRANCH  36  37
ENDBRANCH  29  31
ENDBRANCH  28  29
ENDBRANCH  27  28
ENDBRANCH   1  27
TORSDOF 16
ENDMDL
