MODEL 1
REMARK VINA RESULT:     -13.3      0.000      0.000
REMARK SMILES CC1=C(CC(=O)OCCOC(=O)c2ccc(-c3c4nc(c(-c5c(F)c(F)c(F)c(F)c5F)c5ccc([nH]5)c(-c5c(F)c(F)c(F)c(F)c5F)c5nc(c(-c6c(F)c(F)c(F)c(F)c6F)c6ccc3[nH]6)C=C5)C=C4)cc2)c2cc(F)ccc2/C1=C\c1ccc([S@@+](C)[O-])cc1
REMARK SMILES IDX 8 1 7 2 5 3 6 4 4 5 3 6 1 7 2 8 83 9 76 10 82 11 84 12 77 13
REMARK SMILES IDX 81 14 78 15 80 16 79 17 85 18 86 19 93 20 87 21 92 22 88 23
REMARK SMILES IDX 89 24 90 25 91 26 9 27 10 28 11 29 12 30 13 31 14 32 75 33
REMARK SMILES IDX 15 34 74 35 16 36 17 37 18 38 68 39 19 40 73 41 67 42 69 43
REMARK SMILES IDX 20 44 72 45 66 46 65 47 21 49 53 50 33 51 52 52 34 53 37 54
REMARK SMILES IDX 51 55 70 56 35 57 36 58 50 60 71 61 38 62 22 63 23 64 31 65
REMARK SMILES IDX 24 66 25 67 29 68 32 69 26 70 27 71 30 72 28 73 54 74 55 75
REMARK SMILES IDX 63 76 56 77 57 78 61 79 64 80 58 81 59 82 62 83 60 84 39 85
REMARK SMILES IDX 40 86 48 87 41 88 42 89 46 90 49 91 43 92 44 93 47 94 45 95
REMARK H PARENT 69 48 37 59
REMARK Flexibility Score: inf
ROOT
ATOM      1  C   UNL A   1      31.755  28.318  25.831  1.00  0.00     0.274 C 
ENDROOT
BRANCH   1   2
ATOM      2  O   UNL A   1      32.535  27.693  24.791  1.00  0.00    -0.462 OA
BRANCH   2   3
ATOM      3  C   UNL A   1      33.399  26.729  25.201  1.00  0.00     0.310 C 
ATOM      4  O   UNL A   1      33.707  26.523  26.372  1.00  0.00    -0.252 OA
BRANCH   3   5
ATOM      5  C   UNL A   1      33.984  25.887  24.077  1.00  0.00     0.159 C 
BRANCH   5   6
ATOM      6  C   UNL A   1      33.800  24.407  24.155  1.00  0.00    -0.025 C 
ATOM      7  C   UNL A   1      31.493  24.244  23.148  1.00  0.00     0.045 C 
ATOM      8  C   UNL A   1      32.732  23.678  23.759  1.00  0.00    -0.039 C 
ATOM      9  C   UNL A   1      33.004  22.248  23.973  1.00  0.00    -0.014 C 
ATOM     10  C   UNL A   1      34.851  23.472  24.585  1.00  0.00    -0.011 A 
ATOM     11  C   UNL A   1      34.392  22.150  24.477  1.00  0.00    -0.010 A 
ATOM     12  C   UNL A   1      32.125  21.253  23.748  1.00  0.00     0.017 C 
ATOM     13  C   UNL A   1      36.149  23.733  24.997  1.00  0.00     0.048 A 
ATOM     14  C   UNL A   1      35.238  21.088  24.786  1.00  0.00     0.012 A 
ATOM     15  C   UNL A   1      36.977  22.667  25.330  1.00  0.00     0.123 A 
ATOM     16  C   UNL A   1      36.535  21.352  25.232  1.00  0.00     0.040 A 
ATOM     17  F   UNL A   1      38.235  22.909  25.725  1.00  0.00    -0.207 F 
BRANCH  12  18
ATOM     18  C   UNL A   1      32.399  19.832  23.967  1.00  0.00    -0.025 A 
ATOM     19  C   UNL A   1      32.530  19.333  25.268  1.00  0.00     0.013 A 
ATOM     20  C   UNL A   1      32.670  19.004  22.876  1.00  0.00     0.013 A 
ATOM     21  C   UNL A   1      33.032  18.045  25.476  1.00  0.00     0.061 A 
ATOM     22  C   UNL A   1      33.150  17.709  23.086  1.00  0.00     0.061 A 
ATOM     23  C   UNL A   1      33.365  17.231  24.386  1.00  0.00     0.152 A 
BRANCH  23  24
ATOM     24  S   UNL A   1      34.225  15.655  24.622  1.00  0.00    -0.018 S 
ATOM     25  C   UNL A   1      35.580  16.203  25.677  1.00  0.00     0.346 C 
ATOM     26  O   UNL A   1      33.279  14.743  25.484  1.00  0.00    -0.612 OA
ENDBRANCH  23  24
ENDBRANCH  12  18
ENDBRANCH   5   6
ENDBRANCH   3   5
ENDBRANCH   2   3
ENDBRANCH   1   2
BRANCH   1  27
ATOM     27  C   UNL A   1      31.775  29.838  25.688  1.00  0.00     0.275 C 
BRANCH  27  28
ATOM     28  O   UNL A   1      33.106  30.325  25.929  1.00  0.00    -0.458 OA
BRANCH  28  29
ATOM     29  C   UNL A   1      33.230  31.206  26.946  1.00  0.00     0.338 C 
ATOM     30  O   UNL A   1      32.472  32.113  27.243  1.00  0.00    -0.246 OA
BRANCH  29  31
ATOM     31  C   UNL A   1      34.478  30.931  27.680  1.00  0.00     0.060 A 
ATOM     32  C   UNL A   1      34.797  29.611  27.987  1.00  0.00     0.016 A 
ATOM     33  C   UNL A   1      35.377  31.960  27.976  1.00  0.00     0.016 A 
ATOM     34  C   UNL A   1      36.001  29.328  28.631  1.00  0.00     0.010 A 
ATOM     35  C   UNL A   1      36.624  31.664  28.525  1.00  0.00     0.010 A 
ATOM     36  C   UNL A   1      36.931  30.349  28.895  1.00  0.00    -0.014 A 
BRANCH  36  37
ATOM     37  C   UNL A   1      38.199  30.034  29.601  1.00  0.00     0.031 A 
ATOM     38  C   UNL A   1      38.443  30.560  30.989  1.00  0.00     0.074 A 
ATOM     39  C   UNL A   1      39.116  29.246  29.007  1.00  0.00     0.049 A 
ATOM     40  N   UNL A   1      39.423  30.285  31.815  1.00  0.00    -0.248 NA
ATOM     41  C   UNL A   1      37.474  31.533  31.521  1.00  0.00     0.031 C 
ATOM     42  C   UNL A   1      39.025  28.728  27.641  1.00  0.00     0.029 A 
ATOM     43  N   UNL A   1      40.291  28.723  29.485  1.00  0.00    -0.354 N 
ATOM     44  C   UNL A   1      39.178  31.037  32.957  1.00  0.00     0.074 A 
ATOM     45  C   UNL A   1      38.002  31.834  32.698  1.00  0.00     0.031 C 
ATOM     46  C   UNL A   1      40.069  27.914  27.411  1.00  0.00     0.029 A 
ATOM     47  C   UNL A   1      40.907  27.866  28.606  1.00  0.00     0.049 A 
ATOM     48  H   UNL A   1      40.657  28.941  30.373  1.00  0.00     0.167 HD
ATOM     49  C   UNL A   1      39.847  31.030  34.132  1.00  0.00     0.037 A 
ATOM     50  C   UNL A   1      42.008  27.105  28.760  1.00  0.00     0.037 A 
ATOM     51  C   UNL A   1      41.002  30.219  34.402  1.00  0.00     0.049 A 
ATOM     52  C   UNL A   1      42.734  27.116  30.078  1.00  0.00     0.074 A 
ATOM     53  C   UNL A   1      41.721  30.107  35.579  1.00  0.00     0.029 A 
ATOM     54  N   UNL A   1      41.604  29.377  33.479  1.00  0.00    -0.354 N 
ATOM     55  N   UNL A   1      42.442  27.765  31.177  1.00  0.00    -0.248 NA
ATOM     56  C   UNL A   1      43.938  26.277  30.178  1.00  0.00     0.031 C 
ATOM     57  C   UNL A   1      42.779  29.220  35.359  1.00  0.00     0.029 A 
ATOM     58  C   UNL A   1      42.697  28.753  34.057  1.00  0.00     0.049 A 
ATOM     59  H   UNL A   1      41.301  29.244  32.552  1.00  0.00     0.167 HD
ATOM     60  C   UNL A   1      43.408  27.400  32.105  1.00  0.00     0.074 A 
ATOM     61  C   UNL A   1      44.288  26.459  31.444  1.00  0.00     0.031 C 
ATOM     62  C   UNL A   1      43.554  27.811  33.387  1.00  0.00     0.037 A 
BRANCH  49  63
ATOM     63  C   UNL A   1      39.324  31.900  35.235  1.00  0.00     0.064 A 
ATOM     64  C   UNL A   1      38.524  31.367  36.259  1.00  0.00     0.173 A 
ATOM     65  C   UNL A   1      39.674  33.255  35.310  1.00  0.00     0.173 A 
ATOM     66  F   UNL A   1      38.154  30.078  36.224  1.00  0.00    -0.203 F 
ATOM     67  C   UNL A   1      38.084  32.165  37.311  1.00  0.00     0.198 A 
ATOM     68  C   UNL A   1      39.250  34.044  36.377  1.00  0.00     0.198 A 
ATOM     69  F   UNL A   1      40.439  33.810  34.358  1.00  0.00    -0.203 F 
ATOM     70  F   UNL A   1      37.298  31.641  38.262  1.00  0.00    -0.200 F 
ATOM     71  C   UNL A   1      38.454  33.499  37.374  1.00  0.00     0.200 A 
ATOM     72  F   UNL A   1      39.618  35.331  36.443  1.00  0.00    -0.200 F 
ATOM     73  F   UNL A   1      38.043  34.262  38.396  1.00  0.00    -0.200 F 
ENDBRANCH  49  63
BRANCH  50  74
ATOM     74  C   UNL A   1      42.454  26.218  27.655  1.00  0.00     0.064 A 
ATOM     75  C   UNL A   1      43.454  26.633  26.763  1.00  0.00     0.173 A 
ATOM     76  C   UNL A   1      41.899  24.945  27.468  1.00  0.00     0.173 A 
ATOM     77  F   UNL A   1      44.000  27.852  26.891  1.00  0.00    -0.203 F 
ATOM     78  C   UNL A   1      43.870  25.813  25.716  1.00  0.00     0.198 A 
ATOM     79  C   UNL A   1      42.331  24.117  26.434  1.00  0.00     0.198 A 
ATOM     80  F   UNL A   1      40.941  24.502  28.295  1.00  0.00    -0.203 F 
ATOM     81  F   UNL A   1      44.799  26.250  24.856  1.00  0.00    -0.200 F 
ATOM     82  C   UNL A   1      43.312  24.554  25.556  1.00  0.00     0.200 A 
ATOM     83  F   UNL A   1      41.797  22.898  26.285  1.00  0.00    -0.200 F 
ATOM     84  F   UNL A   1      43.714  23.766  24.549  1.00  0.00    -0.200 F 
ENDBRANCH  50  74
BRANCH  62  85
ATOM     85  C   UNL A   1      44.696  27.241  34.173  1.00  0.00     0.064 A 
ATOM     86  C   UNL A   1      44.570  26.028  34.863  1.00  0.00     0.173 A 
ATOM     87  C   UNL A   1      45.950  27.871  34.166  1.00  0.00     0.173 A 
ATOM     88  F   UNL A   1      43.387  25.395  34.904  1.00  0.00    -0.203 F 
ATOM     89  C   UNL A   1      45.657  25.470  35.530  1.00  0.00     0.198 A 
ATOM     90  C   UNL A   1      47.040  27.299  34.815  1.00  0.00     0.198 A 
ATOM     91  F   UNL A   1      46.121  29.029  33.511  1.00  0.00    -0.203 F 
ATOM     92  F   UNL A   1      45.508  24.323  36.207  1.00  0.00    -0.200 F 
ATOM     93  C   UNL A   1      46.892  26.101  35.497  1.00  0.00     0.200 A 
ATOM     94  F   UNL A   1      48.235  27.902  34.771  1.00  0.00    -0.200 F 
ATOM     95  F   UNL A   1      47.940  25.554  36.127  1.00  0.00    -0.200 F 
ENDBRANCH  62  85
ENDBRANCH  36  37
ENDBRANCH  29  31
ENDBRANCH  28  29
ENDBRANCH  27  28
ENDBRANCH   1  27
TORSDOF 14
ENDMDL
MODEL 2
REMARK VINA RESULT:     -12.9      4.701     10.275
REMARK SMILES CC1=C(CC(=O)OCCOC(=O)c2ccc(-c3c4nc(c(-c5c(F)c(F)c(F)c(F)c5F)c5ccc([nH]5)c(-c5c(F)c(F)c(F)c(F)c5F)c5nc(c(-c6c(F)c(F)c(F)c(F)c6F)c6ccc3[nH]6)C=C5)C=C4)cc2)c2cc(F)ccc2/C1=C\c1ccc([S@@+](C)[O-])cc1
REMARK SMILES IDX 8 1 7 2 5 3 6 4 4 5 3 6 1 7 2 8 83 9 76 10 82 11 84 12 77 13
REMARK SMILES IDX 81 14 78 15 80 16 79 17 85 18 86 19 93 20 87 21 92 22 88 23
REMARK SMILES IDX 89 24 90 25 91 26 9 27 10 28 11 29 12 30 13 31 14 32 75 33
REMARK SMILES IDX 15 34 74 35 16 36 17 37 18 38 68 39 19 40 73 41 67 42 69 43
REMARK SMILES IDX 20 44 72 45 66 46 65 47 21 49 53 50 33 51 52 52 34 53 37 54
REMARK SMILES IDX 51 55 70 56 35 57 36 58 50 60 71 61 38 62 22 63 23 64 31 65
REMARK SMILES IDX 24 66 25 67 29 68 32 69 26 70 27 71 30 72 28 73 54 74 55 75
REMARK SMILES IDX 63 76 56 77 57 78 61 79 64 80 58 81 59 82 62 83 60 84 39 85
REMARK SMILES IDX 40 86 48 87 41 88 42 89 46 90 49 91 43 92 44 93 47 94 45 95
REMARK H PARENT 69 48 37 59
REMARK Flexibility Score: inf
ROOT
ATOM      1  C   UNL A   1      35.286  21.980  26.246  1.00  0.00     0.274 C 
ENDROOT
BRANCH   1   2
ATOM      2  O   UNL A   1      34.286  22.590  25.406  1.00  0.00    -0.462 OA
BRANCH   2   3
ATOM      3  C   UNL A   1      34.330  23.945  25.324  1.00  0.00     0.310 C 
ATOM      4  O   UNL A   1      35.152  24.576  24.664  1.00  0.00    -0.252 OA
BRANCH   3   5
ATOM      5  C   UNL A   1      33.257  24.661  26.131  1.00  0.00     0.159 C 
BRANCH   5   6
ATOM      6  C   UNL A   1      32.435  25.691  25.428  1.00  0.00    -0.025 C 
ATOM      7  C   UNL A   1      30.993  24.159  24.038  1.00  0.00     0.045 C 
ATOM      8  C   UNL A   1      31.452  25.495  24.520  1.00  0.00    -0.039 C 
ATOM      9  C   UNL A   1      30.876  26.791  24.129  1.00  0.00    -0.014 C 
ATOM     10  C   UNL A   1      32.498  27.131  25.722  1.00  0.00    -0.011 A 
ATOM     11  C   UNL A   1      31.552  27.822  24.948  1.00  0.00    -0.010 A 
ATOM     12  C   UNL A   1      29.922  26.960  23.194  1.00  0.00     0.017 C 
ATOM     13  C   UNL A   1      33.284  27.810  26.640  1.00  0.00     0.048 A 
ATOM     14  C   UNL A   1      31.399  29.197  25.095  1.00  0.00     0.012 A 
ATOM     15  C   UNL A   1      33.143  29.188  26.760  1.00  0.00     0.123 A 
ATOM     16  C   UNL A   1      32.213  29.886  25.996  1.00  0.00     0.040 A 
ATOM     17  F   UNL A   1      33.894  29.853  27.648  1.00  0.00    -0.207 F 
BRANCH  12  18
ATOM     18  C   UNL A   1      29.356  28.253  22.806  1.00  0.00    -0.025 A 
ATOM     19  C   UNL A   1      30.113  29.155  22.051  1.00  0.00     0.013 A 
ATOM     20  C   UNL A   1      28.112  28.641  23.308  1.00  0.00     0.013 A 
ATOM     21  C   UNL A   1      29.676  30.473  21.891  1.00  0.00     0.061 A 
ATOM     22  C   UNL A   1      27.666  29.952  23.127  1.00  0.00     0.061 A 
ATOM     23  C   UNL A   1      28.458  30.887  22.446  1.00  0.00     0.152 A 
BRANCH  23  24
ATOM     24  S   UNL A   1      27.976  32.632  22.450  1.00  0.00    -0.018 S 
ATOM     25  C   UNL A   1      29.480  33.361  23.126  1.00  0.00     0.346 C 
ATOM     26  O   UNL A   1      27.855  33.077  20.948  1.00  0.00    -0.612 OA
ENDBRANCH  23  24
ENDBRANCH  12  18
ENDBRANCH   5   6
ENDBRANCH   3   5
ENDBRANCH   2   3
ENDBRANCH   1   2
BRANCH   1  27
ATOM     27  C   UNL A   1      36.202  21.072  25.429  1.00  0.00     0.275 C 
BRANCH  27  28
ATOM     28  O   UNL A   1      37.406  21.782  25.093  1.00  0.00    -0.458 OA
BRANCH  28  29
ATOM     29  C   UNL A   1      38.519  21.391  25.752  1.00  0.00     0.338 C 
ATOM     30  O   UNL A   1      38.886  20.252  25.983  1.00  0.00    -0.246 OA
BRANCH  29  31
ATOM     31  C   UNL A   1      39.262  22.581  26.202  1.00  0.00     0.060 A 
ATOM     32  C   UNL A   1      38.683  23.836  26.031  1.00  0.00     0.016 A 
ATOM     33  C   UNL A   1      40.479  22.453  26.877  1.00  0.00     0.016 A 
ATOM     34  C   UNL A   1      39.348  24.967  26.502  1.00  0.00     0.010 A 
ATOM     35  C   UNL A   1      41.091  23.573  27.437  1.00  0.00     0.010 A 
ATOM     36  C   UNL A   1      40.551  24.847  27.219  1.00  0.00    -0.014 A 
BRANCH  36  37
ATOM     37  C   UNL A   1      41.257  26.064  27.695  1.00  0.00     0.031 A 
ATOM     38  C   UNL A   1      42.675  26.331  27.269  1.00  0.00     0.074 A 
ATOM     39  C   UNL A   1      40.611  26.946  28.482  1.00  0.00     0.049 A 
ATOM     40  N   UNL A   1      43.409  27.398  27.469  1.00  0.00    -0.248 NA
ATOM     41  C   UNL A   1      43.371  25.260  26.536  1.00  0.00     0.031 C 
ATOM     42  C   UNL A   1      39.260  26.769  29.015  1.00  0.00     0.029 A 
ATOM     43  N   UNL A   1      40.995  28.178  28.948  1.00  0.00    -0.354 N 
ATOM     44  C   UNL A   1      44.637  27.129  26.878  1.00  0.00     0.074 A 
ATOM     45  C   UNL A   1      44.580  25.776  26.375  1.00  0.00     0.031 C 
ATOM     46  C   UNL A   1      38.905  27.878  29.686  1.00  0.00     0.029 A 
ATOM     47  C   UNL A   1      40.008  28.834  29.643  1.00  0.00     0.049 A 
ATOM     48  H   UNL A   1      41.893  28.556  28.798  1.00  0.00     0.167 HD
ATOM     49  C   UNL A   1      45.701  27.950  26.729  1.00  0.00     0.037 A 
ATOM     50  C   UNL A   1      39.987  30.078  30.159  1.00  0.00     0.037 A 
ATOM     51  C   UNL A   1      45.752  29.305  27.206  1.00  0.00     0.049 A 
ATOM     52  C   UNL A   1      41.184  30.972  29.979  1.00  0.00     0.074 A 
ATOM     53  C   UNL A   1      46.767  30.233  27.061  1.00  0.00     0.029 A 
ATOM     54  N   UNL A   1      44.737  29.925  27.919  1.00  0.00    -0.354 N 
ATOM     55  N   UNL A   1      42.304  30.735  29.343  1.00  0.00    -0.248 NA
ATOM     56  C   UNL A   1      41.107  32.312  30.579  1.00  0.00     0.031 C 
ATOM     57  C   UNL A   1      46.380  31.407  27.714  1.00  0.00     0.029 A 
ATOM     58  C   UNL A   1      45.110  31.221  28.234  1.00  0.00     0.049 A 
ATOM     59  H   UNL A   1      43.880  29.507  28.165  1.00  0.00     0.167 HD
ATOM     60  C   UNL A   1      43.056  31.898  29.447  1.00  0.00     0.074 A 
ATOM     61  C   UNL A   1      42.258  32.846  30.194  1.00  0.00     0.031 C 
ATOM     62  C   UNL A   1      44.297  32.154  28.970  1.00  0.00     0.037 A 
BRANCH  49  63
ATOM     63  C   UNL A   1      46.889  27.421  25.984  1.00  0.00     0.064 A 
ATOM     64  C   UNL A   1      47.016  27.608  24.599  1.00  0.00     0.173 A 
ATOM     65  C   UNL A   1      47.937  26.784  26.662  1.00  0.00     0.173 A 
ATOM     66  F   UNL A   1      46.034  28.203  23.905  1.00  0.00    -0.203 F 
ATOM     67  C   UNL A   1      48.146  27.164  23.918  1.00  0.00     0.198 A 
ATOM     68  C   UNL A   1      49.076  26.361  25.980  1.00  0.00     0.198 A 
ATOM     69  F   UNL A   1      47.865  26.584  27.986  1.00  0.00    -0.203 F 
ATOM     70  F   UNL A   1      48.232  27.327  22.590  1.00  0.00    -0.200 F 
ATOM     71  C   UNL A   1      49.177  26.548  24.610  1.00  0.00     0.200 A 
ATOM     72  F   UNL A   1      50.078  25.776  26.651  1.00  0.00    -0.200 F 
ATOM     73  F   UNL A   1      50.271  26.136  23.954  1.00  0.00    -0.200 F 
ENDBRANCH  49  63
BRANCH  50  74
ATOM     74  C   UNL A   1      38.765  30.575  30.840  1.00  0.00     0.064 A 
ATOM     75  C   UNL A   1      38.651  30.521  32.237  1.00  0.00     0.173 A 
ATOM     76  C   UNL A   1      37.691  31.113  30.118  1.00  0.00     0.173 A 
ATOM     77  F   UNL A   1      39.645  29.994  32.968  1.00  0.00    -0.203 F 
ATOM     78  C   UNL A   1      37.503  30.972  32.884  1.00  0.00     0.198 A 
ATOM     79  C   UNL A   1      36.552  31.585  30.768  1.00  0.00     0.198 A 
ATOM     80  F   UNL A   1      37.752  31.188  28.780  1.00  0.00    -0.203 F 
ATOM     81  F   UNL A   1      37.405  30.873  34.217  1.00  0.00    -0.200 F 
ATOM     82  C   UNL A   1      36.457  31.509  32.149  1.00  0.00     0.200 A 
ATOM     83  F   UNL A   1      35.546  32.111  30.057  1.00  0.00    -0.200 F 
ATOM     84  F   UNL A   1      35.354  31.945  32.773  1.00  0.00    -0.200 F 
ENDBRANCH  50  74
BRANCH  62  85
ATOM     85  C   UNL A   1      44.871  33.515  29.223  1.00  0.00     0.064 A 
ATOM     86  C   UNL A   1      45.684  33.766  30.337  1.00  0.00     0.173 A 
ATOM     87  C   UNL A   1      44.674  34.553  28.300  1.00  0.00     0.173 A 
ATOM     88  F   UNL A   1      45.891  32.805  31.251  1.00  0.00    -0.203 F 
ATOM     89  C   UNL A   1      46.271  35.014  30.525  1.00  0.00     0.198 A 
ATOM     90  C   UNL A   1      45.282  35.792  28.479  1.00  0.00     0.198 A 
ATOM     91  F   UNL A   1      43.912  34.357  27.214  1.00  0.00    -0.203 F 
ATOM     92  F   UNL A   1      47.023  35.241  31.611  1.00  0.00    -0.200 F 
ATOM     93  C   UNL A   1      46.078  36.021  29.591  1.00  0.00     0.200 A 
ATOM     94  F   UNL A   1      45.106  36.760  27.570  1.00  0.00    -0.200 F 
ATOM     95  F   UNL A   1      46.658  37.216  29.766  1.00  0.00    -0.200 F 
ENDBRANCH  62  85
ENDBRANCH  36  37
ENDBRANCH  29  31
ENDBRANCH  28  29
ENDBRANCH  27  28
ENDBRANCH   1  27
TORSDOF 14
ENDMDL
MODEL 3
REMARK VINA RESULT:     -12.9      1.711      3.141
REMARK SMILES CC1=C(CC(=O)OCCOC(=O)c2ccc(-c3c4nc(c(-c5c(F)c(F)c(F)c(F)c5F)c5ccc([nH]5)c(-c5c(F)c(F)c(F)c(F)c5F)c5nc(c(-c6c(F)c(F)c(F)c(F)c6F)c6ccc3[nH]6)C=C5)C=C4)cc2)c2cc(F)ccc2/C1=C\c1ccc([S@@+](C)[O-])cc1
REMARK SMILES IDX 8 1 7 2 5 3 6 4 4 5 3 6 1 7 2 8 83 9 76 10 82 11 84 12 77 13
REMARK SMILES IDX 81 14 78 15 80 16 79 17 85 18 86 19 93 20 87 21 92 22 88 23
REMARK SMILES IDX 89 24 90 25 91 26 9 27 10 28 11 29 12 30 13 31 14 32 75 33
REMARK SMILES IDX 15 34 74 35 16 36 17 37 18 38 68 39 19 40 73 41 67 42 69 43
REMARK SMILES IDX 20 44 72 45 66 46 65 47 21 49 53 50 33 51 52 52 34 53 37 54
REMARK SMILES IDX 51 55 70 56 35 57 36 58 50 60 71 61 38 62 22 63 23 64 31 65
REMARK SMILES IDX 24 66 25 67 29 68 32 69 26 70 27 71 30 72 28 73 54 74 55 75
REMARK SMILES IDX 63 76 56 77 57 78 61 79 64 80 58 81 59 82 62 83 60 84 39 85
REMARK SMILES IDX 40 86 48 87 41 88 42 89 46 90 49 91 43 92 44 93 47 94 45 95
REMARK H PARENT 69 48 37 59
REMARK Flexibility Score: inf
ROOT
ATOM      1  C   UNL A   1      31.027  30.324  24.983  1.00  0.00     0.274 C 
ENDROOT
BRANCH   1   2
ATOM      2  O   UNL A   1      31.066  29.324  23.944  1.00  0.00    -0.462 OA
BRANCH   2   3
ATOM      3  C   UNL A   1      29.863  28.959  23.431  1.00  0.00     0.310 C 
ATOM      4  O   UNL A   1      29.063  29.735  22.913  1.00  0.00    -0.252 OA
BRANCH   3   5
ATOM      5  C   UNL A   1      29.556  27.473  23.537  1.00  0.00     0.159 C 
BRANCH   5   6
ATOM      6  C   UNL A   1      30.677  26.561  23.914  1.00  0.00    -0.025 C 
ATOM      7  C   UNL A   1      30.185  26.330  26.377  1.00  0.00     0.045 C 
ATOM      8  C   UNL A   1      30.966  26.056  25.134  1.00  0.00    -0.039 C 
ATOM      9  C   UNL A   1      32.127  25.158  25.035  1.00  0.00    -0.014 C 
ATOM     10  C   UNL A   1      31.603  25.957  22.943  1.00  0.00    -0.011 A 
ATOM     11  C   UNL A   1      32.492  25.093  23.602  1.00  0.00    -0.010 A 
ATOM     12  C   UNL A   1      32.718  24.542  26.076  1.00  0.00     0.017 C 
ATOM     13  C   UNL A   1      31.651  26.097  21.565  1.00  0.00     0.048 A 
ATOM     14  C   UNL A   1      33.433  24.370  22.873  1.00  0.00     0.012 A 
ATOM     15  C   UNL A   1      32.612  25.392  20.849  1.00  0.00     0.123 A 
ATOM     16  C   UNL A   1      33.503  24.535  21.489  1.00  0.00     0.040 A 
ATOM     17  F   UNL A   1      32.664  25.516  19.516  1.00  0.00    -0.207 F 
BRANCH  12  18
ATOM     18  C   UNL A   1      33.876  23.653  25.971  1.00  0.00    -0.025 A 
ATOM     19  C   UNL A   1      35.171  24.183  25.960  1.00  0.00     0.013 A 
ATOM     20  C   UNL A   1      33.683  22.290  25.741  1.00  0.00     0.013 A 
ATOM     21  C   UNL A   1      36.256  23.373  25.614  1.00  0.00     0.061 A 
ATOM     22  C   UNL A   1      34.772  21.476  25.419  1.00  0.00     0.061 A 
ATOM     23  C   UNL A   1      36.061  22.017  25.321  1.00  0.00     0.152 A 
BRANCH  23  24
ATOM     24  S   UNL A   1      37.403  21.001  24.654  1.00  0.00    -0.018 S 
ATOM     25  C   UNL A   1      38.746  21.523  25.737  1.00  0.00     0.346 C 
ATOM     26  O   UNL A   1      37.059  19.507  24.995  1.00  0.00    -0.612 OA
ENDBRANCH  23  24
ENDBRANCH  12  18
ENDBRANCH   5   6
ENDBRANCH   3   5
ENDBRANCH   2   3
ENDBRANCH   1   2
BRANCH   1  27
ATOM     27  C   UNL A   1      31.823  29.872  26.204  1.00  0.00     0.275 C 
BRANCH  27  28
ATOM     28  O   UNL A   1      33.139  30.449  26.159  1.00  0.00    -0.458 OA
BRANCH  28  29
ATOM     29  C   UNL A   1      33.376  31.433  27.054  1.00  0.00     0.338 C 
ATOM     30  O   UNL A   1      32.712  32.435  27.253  1.00  0.00    -0.246 OA
BRANCH  29  31
ATOM     31  C   UNL A   1      34.620  31.137  27.786  1.00  0.00     0.060 A 
ATOM     32  C   UNL A   1      34.831  29.841  28.250  1.00  0.00     0.016 A 
ATOM     33  C   UNL A   1      35.617  32.106  27.928  1.00  0.00     0.016 A 
ATOM     34  C   UNL A   1      36.027  29.530  28.896  1.00  0.00     0.010 A 
ATOM     35  C   UNL A   1      36.851  31.766  28.480  1.00  0.00     0.010 A 
ATOM     36  C   UNL A   1      37.053  30.485  29.006  1.00  0.00    -0.014 A 
BRANCH  36  37
ATOM     37  C   UNL A   1      38.312  30.144  29.715  1.00  0.00     0.031 A 
ATOM     38  C   UNL A   1      38.550  30.638  31.117  1.00  0.00     0.074 A 
ATOM     39  C   UNL A   1      39.227  29.360  29.112  1.00  0.00     0.049 A 
ATOM     40  N   UNL A   1      39.520  30.337  31.944  1.00  0.00    -0.248 NA
ATOM     41  C   UNL A   1      37.585  31.608  31.660  1.00  0.00     0.031 C 
ATOM     42  C   UNL A   1      39.143  28.872  27.735  1.00  0.00     0.029 A 
ATOM     43  N   UNL A   1      40.394  28.816  29.589  1.00  0.00    -0.354 N 
ATOM     44  C   UNL A   1      39.272  31.066  33.099  1.00  0.00     0.074 A 
ATOM     45  C   UNL A   1      38.105  31.880  32.848  1.00  0.00     0.031 C 
ATOM     46  C   UNL A   1      40.182  28.054  27.496  1.00  0.00     0.029 A 
ATOM     47  C   UNL A   1      41.010  27.973  28.697  1.00  0.00     0.049 A 
ATOM     48  H   UNL A   1      40.754  29.012  30.484  1.00  0.00     0.167 HD
ATOM     49  C   UNL A   1      39.931  31.029  34.280  1.00  0.00     0.037 A 
ATOM     50  C   UNL A   1      42.102  27.199  28.843  1.00  0.00     0.037 A 
ATOM     51  C   UNL A   1      41.077  30.202  34.542  1.00  0.00     0.049 A 
ATOM     52  C   UNL A   1      42.817  27.175  30.167  1.00  0.00     0.074 A 
ATOM     53  C   UNL A   1      41.785  30.058  35.721  1.00  0.00     0.029 A 
ATOM     54  N   UNL A   1      41.679  29.374  33.606  1.00  0.00    -0.354 N 
ATOM     55  N   UNL A   1      42.521  27.803  31.278  1.00  0.00    -0.248 NA
ATOM     56  C   UNL A   1      44.013  26.324  30.260  1.00  0.00     0.031 C 
ATOM     57  C   UNL A   1      42.837  29.167  35.492  1.00  0.00     0.029 A 
ATOM     58  C   UNL A   1      42.761  28.728  34.180  1.00  0.00     0.049 A 
ATOM     59  H   UNL A   1      41.382  29.264  32.674  1.00  0.00     0.167 HD
ATOM     60  C   UNL A   1      43.477  27.410  32.205  1.00  0.00     0.074 A 
ATOM     61  C   UNL A   1      44.354  26.476  31.532  1.00  0.00     0.031 C 
ATOM     62  C   UNL A   1      43.616  27.793  33.497  1.00  0.00     0.037 A 
BRANCH  49  63
ATOM     63  C   UNL A   1      39.407  31.880  35.397  1.00  0.00     0.064 A 
ATOM     64  C   UNL A   1      38.547  31.347  36.369  1.00  0.00     0.173 A 
ATOM     65  C   UNL A   1      39.814  33.214  35.537  1.00  0.00     0.173 A 
ATOM     66  F   UNL A   1      38.121  30.078  36.272  1.00  0.00    -0.203 F 
ATOM     67  C   UNL A   1      38.104  32.124  37.436  1.00  0.00     0.198 A 
ATOM     68  C   UNL A   1      39.387  33.981  36.618  1.00  0.00     0.198 A 
ATOM     69  F   UNL A   1      40.638  33.768  34.635  1.00  0.00    -0.203 F 
ATOM     70  F   UNL A   1      37.260  31.602  38.337  1.00  0.00    -0.200 F 
ATOM     71  C   UNL A   1      38.531  33.437  37.564  1.00  0.00     0.200 A 
ATOM     72  F   UNL A   1      39.808  35.247  36.747  1.00  0.00    -0.200 F 
ATOM     73  F   UNL A   1      38.116  34.178  38.600  1.00  0.00    -0.200 F 
ENDBRANCH  49  63
BRANCH  50  74
ATOM     74  C   UNL A   1      42.550  26.331  27.724  1.00  0.00     0.064 A 
ATOM     75  C   UNL A   1      41.983  25.063  27.530  1.00  0.00     0.173 A 
ATOM     76  C   UNL A   1      43.545  26.746  26.828  1.00  0.00     0.173 A 
ATOM     77  F   UNL A   1      41.042  24.615  28.375  1.00  0.00    -0.203 F 
ATOM     78  C   UNL A   1      42.406  24.237  26.491  1.00  0.00     0.198 A 
ATOM     79  C   UNL A   1      43.952  25.928  25.776  1.00  0.00     0.198 A 
ATOM     80  F   UNL A   1      44.117  27.951  26.971  1.00  0.00    -0.203 F 
ATOM     81  F   UNL A   1      41.875  23.015  26.352  1.00  0.00    -0.200 F 
ATOM     82  C   UNL A   1      43.386  24.672  25.612  1.00  0.00     0.200 A 
ATOM     83  F   UNL A   1      44.893  26.354  24.923  1.00  0.00    -0.200 F 
ATOM     84  F   UNL A   1      43.791  23.878  24.612  1.00  0.00    -0.200 F 
ENDBRANCH  50  74
BRANCH  62  85
ATOM     85  C   UNL A   1      44.746  27.196  34.279  1.00  0.00     0.064 A 
ATOM     86  C   UNL A   1      45.975  27.858  34.403  1.00  0.00     0.173 A 
ATOM     87  C   UNL A   1      44.569  25.992  34.979  1.00  0.00     0.173 A 
ATOM     88  F   UNL A   1      46.192  29.006  33.743  1.00  0.00    -0.203 F 
ATOM     89  C   UNL A   1      46.994  27.330  35.191  1.00  0.00     0.198 A 
ATOM     90  C   UNL A   1      45.581  25.480  35.785  1.00  0.00     0.198 A 
ATOM     91  F   UNL A   1      43.407  25.328  34.899  1.00  0.00    -0.203 F 
ATOM     92  F   UNL A   1      48.171  27.965  35.275  1.00  0.00    -0.200 F 
ATOM     93  C   UNL A   1      46.792  26.148  35.889  1.00  0.00     0.200 A 
ATOM     94  F   UNL A   1      45.381  24.345  36.469  1.00  0.00    -0.200 F 
ATOM     95  F   UNL A   1      47.769  25.651  36.660  1.00  0.00    -0.200 F 
ENDBRANCH  62  85
ENDBRANCH  36  37
ENDBRANCH  29  31
ENDBRANCH  28  29
ENDBRANCH  27  28
ENDBRANCH   1  27
TORSDOF 14
ENDMDL
