MODEL 1
REMARK VINA RESULT:     -11.4      0.000      0.000
REMARK SMILES O=C(OCCOC(=O)c1ccc(OCc2sccc2Br)cn1)c1ccc(-c2c3nc(c(-c4c(F)c(F)c(F)c(F)c4F)c4ccc([nH]4)c(-c4c(F)c(F)c(F)c(F)c4F)c4nc(c(-c5c(F)c(F)c(F)c(F)c5F)c5ccc2[nH]5)C=C4)C=C3)cc1
REMARK SMILES IDX 5 1 4 2 3 3 2 4 1 5 23 6 24 7 85 8 25 9 84 10 26 11 27 12
REMARK SMILES IDX 28 13 78 14 29 15 83 16 77 17 79 18 30 19 82 20 76 21 75 22
REMARK SMILES IDX 31 24 63 25 43 26 62 27 44 28 47 29 61 30 80 31 45 32 46 33
REMARK SMILES IDX 60 35 81 36 48 37 32 38 33 39 41 40 34 41 35 42 39 43 42 44
REMARK SMILES IDX 36 45 37 46 40 47 38 48 64 49 65 50 73 51 66 52 67 53 71 54
REMARK SMILES IDX 74 55 68 56 69 57 72 58 70 59 49 60 50 61 58 62 51 63 52 64
REMARK SMILES IDX 56 65 59 66 53 67 54 68 57 69 55 70 6 71 7 72 8 73 9 74
REMARK SMILES IDX 10 75 22 76 11 77 21 78 12 79 13 80 14 81 15 82 16 83 19 84
REMARK SMILES IDX 17 85 18 86 20 87
REMARK H PARENT 79 23 47 34
REMARK Flexibility Score: inf
ROOT
ATOM      1  C   UNL A   1      32.928  35.089  28.872  1.00  0.00     0.275 C 
ENDROOT
BRANCH   1   2
ATOM      2  C   UNL A   1      33.168  36.430  29.584  1.00  0.00     0.275 C 
BRANCH   2   3
ATOM      3  O   UNL A   1      32.384  36.644  30.764  1.00  0.00    -0.458 OA
BRANCH   3   4
ATOM      4  C   UNL A   1      32.695  36.383  32.055  1.00  0.00     0.338 C 
ATOM      5  O   UNL A   1      32.208  37.087  32.936  1.00  0.00    -0.246 OA
BRANCH   4   6
ATOM      6  C   UNL A   1      33.697  35.342  32.459  1.00  0.00     0.060 A 
ATOM      7  C   UNL A   1      33.419  34.050  32.938  1.00  0.00     0.016 A 
ATOM      8  C   UNL A   1      35.037  35.691  32.273  1.00  0.00     0.016 A 
ATOM      9  C   UNL A   1      34.406  33.078  33.083  1.00  0.00     0.010 A 
ATOM     10  C   UNL A   1      36.035  34.738  32.451  1.00  0.00     0.010 A 
ATOM     11  C   UNL A   1      35.716  33.417  32.836  1.00  0.00    -0.014 A 
BRANCH  11  12
ATOM     12  C   UNL A   1      36.802  32.484  33.112  1.00  0.00     0.031 A 
ATOM     13  C   UNL A   1      37.851  32.918  34.179  1.00  0.00     0.074 A 
ATOM     14  C   UNL A   1      37.136  31.510  32.237  1.00  0.00     0.049 A 
ATOM     15  N   UNL A   1      39.025  32.407  34.493  1.00  0.00    -0.248 NA
ATOM     16  C   UNL A   1      37.473  34.033  35.060  1.00  0.00     0.031 C 
ATOM     17  C   UNL A   1      36.424  30.012  31.351  1.00  0.00     0.029 A 
ATOM     18  N   UNL A   1      38.839  31.424  31.946  1.00  0.00    -0.354 N 
ATOM     19  C   UNL A   1      39.490  33.062  35.622  1.00  0.00     0.074 A 
ATOM     20  C   UNL A   1      38.523  34.123  35.866  1.00  0.00     0.031 C 
ATOM     21  C   UNL A   1      37.580  28.993  30.707  1.00  0.00     0.029 A 
ATOM     22  C   UNL A   1      39.397  29.750  30.927  1.00  0.00     0.049 A 
ATOM     23  H   UNL A   1      39.475  32.115  32.242  1.00  0.00     0.167 HD
ATOM     24  C   UNL A   1      40.541  32.778  36.447  1.00  0.00     0.037 A 
ATOM     25  C   UNL A   1      40.447  28.851  30.686  1.00  0.00     0.037 A 
ATOM     26  C   UNL A   1      41.564  31.739  36.293  1.00  0.00     0.049 A 
ATOM     27  C   UNL A   1      41.710  28.632  31.538  1.00  0.00     0.074 A 
ATOM     28  C   UNL A   1      42.446  31.293  37.267  1.00  0.00     0.029 A 
ATOM     29  N   UNL A   1      41.953  31.065  35.125  1.00  0.00    -0.354 N 
ATOM     30  N   UNL A   1      41.968  29.216  32.672  1.00  0.00    -0.248 NA
ATOM     31  C   UNL A   1      42.737  27.634  31.222  1.00  0.00     0.031 C 
ATOM     32  C   UNL A   1      43.312  30.341  36.705  1.00  0.00     0.029 A 
ATOM     33  C   UNL A   1      42.951  30.105  35.384  1.00  0.00     0.049 A 
ATOM     34  H   UNL A   1      41.575  31.241  34.232  1.00  0.00     0.167 HD
ATOM     35  C   UNL A   1      43.076  28.720  33.247  1.00  0.00     0.074 A 
ATOM     36  C   UNL A   1      43.535  27.712  32.302  1.00  0.00     0.031 C 
ATOM     37  C   UNL A   1      43.542  29.107  34.463  1.00  0.00     0.037 A 
BRANCH  24  38
ATOM     38  C   UNL A   1      40.580  33.614  37.720  1.00  0.00     0.064 A 
ATOM     39  C   UNL A   1      39.712  33.366  38.805  1.00  0.00     0.173 A 
ATOM     40  C   UNL A   1      41.456  34.702  37.837  1.00  0.00     0.173 A 
ATOM     41  F   UNL A   1      38.850  32.337  38.762  1.00  0.00    -0.203 F 
ATOM     42  C   UNL A   1      39.657  34.227  39.902  1.00  0.00     0.198 A 
ATOM     43  C   UNL A   1      41.428  35.534  38.957  1.00  0.00     0.198 A 
ATOM     44  F   UNL A   1      42.327  34.974  36.855  1.00  0.00    -0.203 F 
ATOM     45  F   UNL A   1      38.745  34.028  40.866  1.00  0.00    -0.200 F 
ATOM     46  C   UNL A   1      40.514  35.312  39.976  1.00  0.00     0.200 A 
ATOM     47  F   UNL A   1      42.272  36.572  39.038  1.00  0.00    -0.200 F 
ATOM     48  F   UNL A   1      40.445  36.154  41.017  1.00  0.00    -0.200 F 
ENDBRANCH  24  38
BRANCH  25  49
ATOM     49  C   UNL A   1      40.300  28.098  29.411  1.00  0.00     0.064 A 
ATOM     50  C   UNL A   1      40.815  28.528  28.185  1.00  0.00     0.173 A 
ATOM     51  C   UNL A   1      39.639  26.854  29.432  1.00  0.00     0.173 A 
ATOM     52  F   UNL A   1      41.425  29.718  28.097  1.00  0.00    -0.203 F 
ATOM     53  C   UNL A   1      40.721  27.725  27.045  1.00  0.00     0.198 A 
ATOM     54  C   UNL A   1      39.567  26.044  28.302  1.00  0.00     0.198 A 
ATOM     55  F   UNL A   1      39.082  26.409  30.569  1.00  0.00    -0.203 F 
ATOM     56  F   UNL A   1      41.229  28.156  25.881  1.00  0.00    -0.200 F 
ATOM     57  C   UNL A   1      40.114  26.478  27.108  1.00  0.00     0.200 A 
ATOM     58  F   UNL A   1      38.983  24.840  28.379  1.00  0.00    -0.200 F 
ATOM     59  F   UNL A   1      40.056  25.697  26.021  1.00  0.00    -0.200 F 
ENDBRANCH  25  49
BRANCH  37  60
ATOM     60  C   UNL A   1      44.729  28.335  34.927  1.00  0.00     0.064 A 
ATOM     61  C   UNL A   1      46.026  28.810  34.706  1.00  0.00     0.173 A 
ATOM     62  C   UNL A   1      44.569  27.123  35.614  1.00  0.00     0.173 A 
ATOM     63  F   UNL A   1      46.220  29.951  34.028  1.00  0.00    -0.203 F 
ATOM     64  C   UNL A   1      47.128  28.091  35.150  1.00  0.00     0.198 A 
ATOM     65  C   UNL A   1      45.671  26.426  36.090  1.00  0.00     0.198 A 
ATOM     66  F   UNL A   1      43.343  26.625  35.839  1.00  0.00    -0.203 F 
ATOM     67  F   UNL A   1      48.363  28.538  34.889  1.00  0.00    -0.200 F 
ATOM     68  C   UNL A   1      46.950  26.907  35.851  1.00  0.00     0.200 A 
ATOM     69  F   UNL A   1      45.497  25.290  36.780  1.00  0.00    -0.200 F 
ATOM     70  F   UNL A   1      48.014  26.224  36.293  1.00  0.00    -0.200 F 
ENDBRANCH  37  60
ENDBRANCH  11  12
ENDBRANCH   4   6
ENDBRANCH   3   4
ENDBRANCH   2   3
ENDBRANCH   1   2
BRANCH   1  71
ATOM     71  O   UNL A   1      33.616  33.959  29.447  1.00  0.00    -0.457 OA
BRANCH  71  72
ATOM     72  C   UNL A   1      34.763  33.513  28.833  1.00  0.00     0.357 C 
ATOM     73  O   UNL A   1      35.792  34.153  28.726  1.00  0.00    -0.244 OA
BRANCH  72  74
ATOM     74  C   UNL A   1      34.527  32.103  28.351  1.00  0.00     0.148 A 
ATOM     75  C   UNL A   1      35.610  31.271  28.266  1.00  0.00     0.040 A 
ATOM     76  N   UNL A   1      33.311  31.728  27.862  1.00  0.00    -0.245 NA
ATOM     77  C   UNL A   1      35.448  30.081  27.563  1.00  0.00     0.050 A 
ATOM     78  C   UNL A   1      33.224  30.506  27.206  1.00  0.00     0.158 A 
ATOM     79  C   UNL A   1      34.275  29.620  27.013  1.00  0.00     0.138 A 
BRANCH  79  80
ATOM     80  O   UNL A   1      34.218  28.563  26.131  1.00  0.00    -0.486 OA
BRANCH  80  81
ATOM     81  C   UNL A   1      33.376  27.365  26.366  1.00  0.00     0.277 C 
BRANCH  81  82
ATOM     82  C   UNL A   1      32.941  26.656  25.084  1.00  0.00     0.056 A 
ATOM     83  S   UNL A   1      31.046  27.230  24.052  1.00  0.00    -0.144 S 
ATOM     84  C   UNL A   1      33.948  25.813  24.017  1.00  0.00     0.035 A 
ATOM     85  C   UNL A   1      31.583  26.434  21.973  1.00  0.00     0.066 A 
ATOM     86  C   UNL A   1      33.120  25.721  21.980  1.00  0.00     0.028 A 
ATOM     87  Br  UNL A   1      35.034  24.338  25.303  1.00  0.00    -0.049 Br
ENDBRANCH  81  82
ENDBRANCH  80  81
ENDBRANCH  79  80
ENDBRANCH  72  74
ENDBRANCH  71  72
ENDBRANCH   1  71
TORSDOF 14
ENDMDL
MODEL 2
REMARK VINA RESULT:     -11.1      4.014      9.786
REMARK SMILES O=C(OCCOC(=O)c1ccc(OCc2sccc2Br)cn1)c1ccc(-c2c3nc(c(-c4c(F)c(F)c(F)c(F)c4F)c4ccc([nH]4)c(-c4c(F)c(F)c(F)c(F)c4F)c4nc(c(-c5c(F)c(F)c(F)c(F)c5F)c5ccc2[nH]5)C=C4)C=C3)cc1
REMARK SMILES IDX 5 1 4 2 3 3 2 4 1 5 23 6 24 7 85 8 25 9 84 10 26 11 27 12
REMARK SMILES IDX 28 13 78 14 29 15 83 16 77 17 79 18 30 19 82 20 76 21 75 22
REMARK SMILES IDX 31 24 63 25 43 26 62 27 44 28 47 29 61 30 80 31 45 32 46 33
REMARK SMILES IDX 60 35 81 36 48 37 32 38 33 39 41 40 34 41 35 42 39 43 42 44
REMARK SMILES IDX 36 45 37 46 40 47 38 48 64 49 65 50 73 51 66 52 67 53 71 54
REMARK SMILES IDX 74 55 68 56 69 57 72 58 70 59 49 60 50 61 58 62 51 63 52 64
REMARK SMILES IDX 56 65 59 66 53 67 54 68 57 69 55 70 6 71 7 72 8 73 9 74
REMARK SMILES IDX 10 75 22 76 11 77 21 78 12 79 13 80 14 81 15 82 16 83 19 84
REMARK SMILES IDX 17 85 18 86 20 87
REMARK H PARENT 79 23 47 34
REMARK Flexibility Score: inf
ROOT
ATOM      1  C   UNL A   1      41.386  19.935  27.042  1.00  0.00     0.275 C 
ENDROOT
BRANCH   1   2
ATOM      2  C   UNL A   1      42.590  20.093  26.101  1.00  0.00     0.275 C 
BRANCH   2   3
ATOM      3  O   UNL A   1      42.672  21.352  25.420  1.00  0.00    -0.458 OA
BRANCH   3   4
ATOM      4  C   UNL A   1      43.443  22.427  25.705  1.00  0.00     0.338 C 
ATOM      5  O   UNL A   1      44.630  22.405  25.389  1.00  0.00    -0.246 OA
BRANCH   4   6
ATOM      6  C   UNL A   1      42.945  23.605  26.489  1.00  0.00     0.060 A 
ATOM      7  C   UNL A   1      41.942  23.595  27.474  1.00  0.00     0.016 A 
ATOM      8  C   UNL A   1      43.604  24.814  26.246  1.00  0.00     0.016 A 
ATOM      9  C   UNL A   1      41.696  24.689  28.302  1.00  0.00     0.010 A 
ATOM     10  C   UNL A   1      43.340  25.922  27.042  1.00  0.00     0.010 A 
ATOM     11  C   UNL A   1      42.397  25.854  28.092  1.00  0.00    -0.014 A 
BRANCH  11  12
ATOM     12  C   UNL A   1      42.078  27.070  28.830  1.00  0.00     0.031 A 
ATOM     13  C   UNL A   1      42.671  27.200  30.265  1.00  0.00     0.074 A 
ATOM     14  C   UNL A   1      41.022  27.844  28.495  1.00  0.00     0.049 A 
ATOM     15  N   UNL A   1      42.408  28.056  31.233  1.00  0.00    -0.248 NA
ATOM     16  C   UNL A   1      43.770  26.286  30.609  1.00  0.00     0.031 C 
ATOM     17  C   UNL A   1      40.312  28.838  27.065  1.00  0.00     0.029 A 
ATOM     18  N   UNL A   1      40.052  28.283  29.859  1.00  0.00    -0.354 N 
ATOM     19  C   UNL A   1      43.326  27.847  32.250  1.00  0.00     0.074 A 
ATOM     20  C   UNL A   1      44.082  26.673  31.840  1.00  0.00     0.031 C 
ATOM     21  C   UNL A   1      39.124  29.920  27.517  1.00  0.00     0.029 A 
ATOM     22  C   UNL A   1      38.682  29.730  29.438  1.00  0.00     0.049 A 
ATOM     23  H   UNL A   1      40.153  27.874  30.749  1.00  0.00     0.167 HD
ATOM     24  C   UNL A   1      43.604  28.587  33.365  1.00  0.00     0.037 A 
ATOM     25  C   UNL A   1      37.916  30.776  29.976  1.00  0.00     0.037 A 
ATOM     26  C   UNL A   1      42.909  29.778  33.862  1.00  0.00     0.049 A 
ATOM     27  C   UNL A   1      38.140  31.516  31.306  1.00  0.00     0.074 A 
ATOM     28  C   UNL A   1      43.369  30.665  34.826  1.00  0.00     0.029 A 
ATOM     29  N   UNL A   1      41.604  30.212  33.574  1.00  0.00    -0.354 N 
ATOM     30  N   UNL A   1      39.137  31.323  32.121  1.00  0.00    -0.248 NA
ATOM     31  C   UNL A   1      37.303  32.629  31.766  1.00  0.00     0.031 C 
ATOM     32  C   UNL A   1      42.382  31.631  35.074  1.00  0.00     0.029 A 
ATOM     33  C   UNL A   1      41.304  31.427  34.220  1.00  0.00     0.049 A 
ATOM     34  H   UNL A   1      40.977  29.726  32.991  1.00  0.00     0.167 HD
ATOM     35  C   UNL A   1      39.138  32.212  33.127  1.00  0.00     0.074 A 
ATOM     36  C   UNL A   1      37.963  33.032  32.866  1.00  0.00     0.031 C 
ATOM     37  C   UNL A   1      40.098  32.276  34.086  1.00  0.00     0.037 A 
BRANCH  24  38
ATOM     38  C   UNL A   1      44.848  28.138  34.118  1.00  0.00     0.064 A 
ATOM     39  C   UNL A   1      46.143  28.558  33.744  1.00  0.00     0.173 A 
ATOM     40  C   UNL A   1      44.753  27.241  35.192  1.00  0.00     0.173 A 
ATOM     41  F   UNL A   1      46.308  29.420  32.727  1.00  0.00    -0.203 F 
ATOM     42  C   UNL A   1      47.283  28.026  34.348  1.00  0.00     0.198 A 
ATOM     43  C   UNL A   1      45.894  26.746  35.823  1.00  0.00     0.198 A 
ATOM     44  F   UNL A   1      43.551  26.826  35.617  1.00  0.00    -0.203 F 
ATOM     45  F   UNL A   1      48.501  28.361  33.897  1.00  0.00    -0.200 F 
ATOM     46  C   UNL A   1      47.157  27.118  35.386  1.00  0.00     0.200 A 
ATOM     47  F   UNL A   1      45.772  25.883  36.841  1.00  0.00    -0.200 F 
ATOM     48  F   UNL A   1      48.251  26.587  35.951  1.00  0.00    -0.200 F 
ENDBRANCH  24  38
BRANCH  25  49
ATOM     49  C   UNL A   1      36.724  31.119  29.153  1.00  0.00     0.064 A 
ATOM     50  C   UNL A   1      35.672  30.236  28.895  1.00  0.00     0.173 A 
ATOM     51  C   UNL A   1      36.614  32.423  28.632  1.00  0.00     0.173 A 
ATOM     52  F   UNL A   1      35.735  28.973  29.337  1.00  0.00    -0.203 F 
ATOM     53  C   UNL A   1      34.539  30.655  28.192  1.00  0.00     0.198 A 
ATOM     54  C   UNL A   1      35.475  32.847  27.954  1.00  0.00     0.198 A 
ATOM     55  F   UNL A   1      37.613  33.302  28.808  1.00  0.00    -0.203 F 
ATOM     56  F   UNL A   1      33.539  29.792  27.962  1.00  0.00    -0.200 F 
ATOM     57  C   UNL A   1      34.433  31.964  27.739  1.00  0.00     0.200 A 
ATOM     58  F   UNL A   1      35.384  34.115  27.528  1.00  0.00    -0.200 F 
ATOM     59  F   UNL A   1      33.330  32.371  27.096  1.00  0.00    -0.200 F 
ENDBRANCH  25  49
BRANCH  37  60
ATOM     60  C   UNL A   1      39.930  33.415  35.031  1.00  0.00     0.064 A 
ATOM     61  C   UNL A   1      39.228  33.256  36.231  1.00  0.00     0.173 A 
ATOM     62  C   UNL A   1      40.491  34.669  34.746  1.00  0.00     0.173 A 
ATOM     63  F   UNL A   1      38.653  32.081  36.525  1.00  0.00    -0.203 F 
ATOM     64  C   UNL A   1      39.083  34.320  37.113  1.00  0.00     0.198 A 
ATOM     65  C   UNL A   1      40.377  35.719  35.648  1.00  0.00     0.198 A 
ATOM     66  F   UNL A   1      41.164  34.869  33.602  1.00  0.00    -0.203 F 
ATOM     67  F   UNL A   1      38.368  34.161  38.234  1.00  0.00    -0.200 F 
ATOM     68  C   UNL A   1      39.668  35.545  36.827  1.00  0.00     0.200 A 
ATOM     69  F   UNL A   1      40.954  36.898  35.377  1.00  0.00    -0.200 F 
ATOM     70  F   UNL A   1      39.540  36.564  37.687  1.00  0.00    -0.200 F 
ENDBRANCH  37  60
ENDBRANCH  11  12
ENDBRANCH   4   6
ENDBRANCH   3   4
ENDBRANCH   2   3
ENDBRANCH   1   2
BRANCH   1  71
ATOM     71  O   UNL A   1      40.257  20.778  26.739  1.00  0.00    -0.457 OA
BRANCH  71  72
ATOM     72  C   UNL A   1      39.350  20.342  25.802  1.00  0.00     0.357 C 
ATOM     73  O   UNL A   1      39.274  19.203  25.381  1.00  0.00    -0.244 OA
BRANCH  72  74
ATOM     74  C   UNL A   1      38.463  21.501  25.421  1.00  0.00     0.148 A 
ATOM     75  C   UNL A   1      38.659  22.691  26.067  1.00  0.00     0.040 A 
ATOM     76  N   UNL A   1      37.400  21.319  24.586  1.00  0.00    -0.245 NA
ATOM     77  C   UNL A   1      37.673  23.663  25.928  1.00  0.00     0.050 A 
ATOM     78  C   UNL A   1      36.481  22.354  24.471  1.00  0.00     0.158 A 
ATOM     79  C   UNL A   1      36.556  23.575  25.131  1.00  0.00     0.138 A 
BRANCH  79  80
ATOM     80  O   UNL A   1      35.499  24.455  25.209  1.00  0.00    -0.486 OA
BRANCH  80  81
ATOM     81  C   UNL A   1      34.419  24.506  24.194  1.00  0.00     0.277 C 
BRANCH  81  82
ATOM     82  C   UNL A   1      33.748  25.874  24.076  1.00  0.00     0.056 A 
ATOM     83  S   UNL A   1      33.481  27.171  25.874  1.00  0.00    -0.144 S 
ATOM     84  C   UNL A   1      33.614  26.803  22.668  1.00  0.00     0.035 A 
ATOM     85  C   UNL A   1      33.288  29.171  24.776  1.00  0.00     0.066 A 
ATOM     86  C   UNL A   1      33.387  28.949  23.100  1.00  0.00     0.028 A 
ATOM     87  Br  UNL A   1      32.682  25.431  21.166  1.00  0.00    -0.049 Br
ENDBRANCH  81  82
ENDBRANCH  80  81
ENDBRANCH  79  80
ENDBRANCH  72  74
ENDBRANCH  71  72
ENDBRANCH   1  71
TORSDOF 14
ENDMDL
MODEL 3
REMARK VINA RESULT:     -10.9      4.057      9.766
REMARK SMILES O=C(OCCOC(=O)c1ccc(OCc2sccc2Br)cn1)c1ccc(-c2c3nc(c(-c4c(F)c(F)c(F)c(F)c4F)c4ccc([nH]4)c(-c4c(F)c(F)c(F)c(F)c4F)c4nc(c(-c5c(F)c(F)c(F)c(F)c5F)c5ccc2[nH]5)C=C4)C=C3)cc1
REMARK SMILES IDX 5 1 4 2 3 3 2 4 1 5 23 6 24 7 85 8 25 9 84 10 26 11 27 12
REMARK SMILES IDX 28 13 78 14 29 15 83 16 77 17 79 18 30 19 82 20 76 21 75 22
REMARK SMILES IDX 31 24 63 25 43 26 62 27 44 28 47 29 61 30 80 31 45 32 46 33
REMARK SMILES IDX 60 35 81 36 48 37 32 38 33 39 41 40 34 41 35 42 39 43 42 44
REMARK SMILES IDX 36 45 37 46 40 47 38 48 64 49 65 50 73 51 66 52 67 53 71 54
REMARK SMILES IDX 74 55 68 56 69 57 72 58 70 59 49 60 50 61 58 62 51 63 52 64
REMARK SMILES IDX 56 65 59 66 53 67 54 68 57 69 55 70 6 71 7 72 8 73 9 74
REMARK SMILES IDX 10 75 22 76 11 77 21 78 12 79 13 80 14 81 15 82 16 83 19 84
REMARK SMILES IDX 17 85 18 86 20 87
REMARK H PARENT 79 23 47 34
REMARK Flexibility Score: inf
ROOT
ATOM      1  C   UNL A   1      43.033  20.429  26.065  1.00  0.00     0.275 C 
ENDROOT
BRANCH   1   2
ATOM      2  C   UNL A   1      44.211  20.824  25.161  1.00  0.00     0.275 C 
BRANCH   2   3
ATOM      3  O   UNL A   1      44.976  21.949  25.612  1.00  0.00    -0.458 OA
BRANCH   3   4
ATOM      4  C   UNL A   1      44.829  23.259  25.304  1.00  0.00     0.338 C 
ATOM      5  O   UNL A   1      45.365  23.692  24.287  1.00  0.00    -0.246 OA
BRANCH   4   6
ATOM      6  C   UNL A   1      44.135  24.238  26.205  1.00  0.00     0.060 A 
ATOM      7  C   UNL A   1      42.967  24.008  26.952  1.00  0.00     0.016 A 
ATOM      8  C   UNL A   1      44.766  25.476  26.349  1.00  0.00     0.016 A 
ATOM      9  C   UNL A   1      42.515  24.898  27.925  1.00  0.00     0.010 A 
ATOM     10  C   UNL A   1      44.301  26.387  27.292  1.00  0.00     0.010 A 
ATOM     11  C   UNL A   1      43.183  26.087  28.101  1.00  0.00    -0.014 A 
BRANCH  11  12
ATOM     12  C   UNL A   1      42.671  27.115  29.000  1.00  0.00     0.031 A 
ATOM     13  C   UNL A   1      43.057  26.994  30.504  1.00  0.00     0.074 A 
ATOM     14  C   UNL A   1      41.607  27.880  28.665  1.00  0.00     0.049 A 
ATOM     15  N   UNL A   1      42.599  27.626  31.566  1.00  0.00    -0.248 NA
ATOM     16  C   UNL A   1      44.173  26.092  30.827  1.00  0.00     0.031 C 
ATOM     17  C   UNL A   1      41.012  29.094  27.359  1.00  0.00     0.029 A 
ATOM     18  N   UNL A   1      40.434  27.987  29.933  1.00  0.00    -0.354 N 
ATOM     19  C   UNL A   1      43.389  27.273  32.649  1.00  0.00     0.074 A 
ATOM     20  C   UNL A   1      44.287  26.246  32.140  1.00  0.00     0.031 C 
ATOM     21  C   UNL A   1      39.690  29.999  27.828  1.00  0.00     0.029 A 
ATOM     22  C   UNL A   1      39.016  29.411  29.595  1.00  0.00     0.049 A 
ATOM     23  H   UNL A   1      40.450  27.418  30.735  1.00  0.00     0.167 HD
ATOM     24  C   UNL A   1      43.456  27.794  33.910  1.00  0.00     0.037 A 
ATOM     25  C   UNL A   1      38.102  30.286  30.203  1.00  0.00     0.037 A 
ATOM     26  C   UNL A   1      42.606  28.823  34.516  1.00  0.00     0.049 A 
ATOM     27  C   UNL A   1      38.088  30.762  31.666  1.00  0.00     0.074 A 
ATOM     28  C   UNL A   1      42.861  29.528  35.684  1.00  0.00     0.029 A 
ATOM     29  N   UNL A   1      41.320  29.232  34.127  1.00  0.00    -0.354 N 
ATOM     30  N   UNL A   1      38.982  30.468  32.566  1.00  0.00    -0.248 NA
ATOM     31  C   UNL A   1      37.109  31.714  32.199  1.00  0.00     0.031 C 
ATOM     32  C   UNL A   1      41.773  30.370  35.962  1.00  0.00     0.029 A 
ATOM     33  C   UNL A   1      40.838  30.277  34.939  1.00  0.00     0.049 A 
ATOM     34  H   UNL A   1      40.816  28.836  33.379  1.00  0.00     0.167 HD
ATOM     35  C   UNL A   1      38.777  31.141  33.710  1.00  0.00     0.074 A 
ATOM     36  C   UNL A   1      37.583  31.929  33.438  1.00  0.00     0.031 C 
ATOM     37  C   UNL A   1      39.594  31.068  34.793  1.00  0.00     0.037 A 
BRANCH  24  38
ATOM     38  C   UNL A   1      44.624  27.275  34.739  1.00  0.00     0.064 A 
ATOM     39  C   UNL A   1      45.918  27.832  34.640  1.00  0.00     0.173 A 
ATOM     40  C   UNL A   1      44.462  26.182  35.601  1.00  0.00     0.173 A 
ATOM     41  F   UNL A   1      46.143  28.884  33.837  1.00  0.00    -0.203 F 
ATOM     42  C   UNL A   1      47.008  27.255  35.294  1.00  0.00     0.198 A 
ATOM     43  C   UNL A   1      45.548  25.636  36.287  1.00  0.00     0.198 A 
ATOM     44  F   UNL A   1      43.253  25.626  35.764  1.00  0.00    -0.203 F 
ATOM     45  F   UNL A   1      48.243  27.739  35.093  1.00  0.00    -0.200 F 
ATOM     46  C   UNL A   1      46.822  26.156  36.115  1.00  0.00     0.200 A 
ATOM     47  F   UNL A   1      45.364  24.585  37.098  1.00  0.00    -0.200 F 
ATOM     48  F   UNL A   1      47.872  25.586  36.723  1.00  0.00    -0.200 F 
ENDBRANCH  24  38
BRANCH  25  49
ATOM     49  C   UNL A   1      37.004  30.717  29.295  1.00  0.00     0.064 A 
ATOM     50  C   UNL A   1      35.960  29.886  28.882  1.00  0.00     0.173 A 
ATOM     51  C   UNL A   1      36.980  32.054  28.850  1.00  0.00     0.173 A 
ATOM     52  F   UNL A   1      35.946  28.597  29.247  1.00  0.00    -0.203 F 
ATOM     53  C   UNL A   1      34.911  30.384  28.104  1.00  0.00     0.198 A 
ATOM     54  C   UNL A   1      35.924  32.555  28.095  1.00  0.00     0.198 A 
ATOM     55  F   UNL A   1      37.980  32.887  29.174  1.00  0.00    -0.203 F 
ATOM     56  F   UNL A   1      33.915  29.570  27.726  1.00  0.00    -0.200 F 
ATOM     57  C   UNL A   1      34.884  31.721  27.727  1.00  0.00     0.200 A 
ATOM     58  F   UNL A   1      35.908  33.848  27.743  1.00  0.00    -0.200 F 
ATOM     59  F   UNL A   1      33.859  32.202  27.010  1.00  0.00    -0.200 F 
ENDBRANCH  25  49
BRANCH  37  60
ATOM     60  C   UNL A   1      39.209  31.988  35.899  1.00  0.00     0.064 A 
ATOM     61  C   UNL A   1      39.682  33.305  35.936  1.00  0.00     0.173 A 
ATOM     62  C   UNL A   1      38.348  31.558  36.920  1.00  0.00     0.173 A 
ATOM     63  F   UNL A   1      40.529  33.744  34.994  1.00  0.00    -0.203 F 
ATOM     64  C   UNL A   1      39.311  34.160  36.966  1.00  0.00     0.198 A 
ATOM     65  C   UNL A   1      37.950  32.428  37.926  1.00  0.00     0.198 A 
ATOM     66  F   UNL A   1      37.880  30.300  36.929  1.00  0.00    -0.203 F 
ATOM     67  F   UNL A   1      39.810  35.403  37.010  1.00  0.00    -0.200 F 
ATOM     68  C   UNL A   1      38.438  33.726  37.952  1.00  0.00     0.200 A 
ATOM     69  F   UNL A   1      37.095  32.011  38.870  1.00  0.00    -0.200 F 
ATOM     70  F   UNL A   1      38.070  34.559  38.935  1.00  0.00    -0.200 F 
ENDBRANCH  37  60
ENDBRANCH  11  12
ENDBRANCH   4   6
ENDBRANCH   3   4
ENDBRANCH   2   3
ENDBRANCH   1   2
BRANCH   1  71
ATOM     71  O   UNL A   1      41.780  21.069  25.752  1.00  0.00    -0.457 OA
BRANCH  71  72
ATOM     72  C   UNL A   1      40.735  20.925  26.634  1.00  0.00     0.357 C 
ATOM     73  O   UNL A   1      40.739  20.196  27.608  1.00  0.00    -0.244 OA
BRANCH  72  74
ATOM     74  C   UNL A   1      39.615  21.838  26.200  1.00  0.00     0.148 A 
ATOM     75  C   UNL A   1      39.640  23.131  26.647  1.00  0.00     0.040 A 
ATOM     76  N   UNL A   1      38.536  21.346  25.527  1.00  0.00    -0.245 NA
ATOM     77  C   UNL A   1      38.480  23.884  26.489  1.00  0.00     0.050 A 
ATOM     78  C   UNL A   1      37.431  22.175  25.378  1.00  0.00     0.158 A 
ATOM     79  C   UNL A   1      37.334  23.479  25.848  1.00  0.00     0.138 A 
BRANCH  79  80
ATOM     80  O   UNL A   1      36.141  24.165  25.924  1.00  0.00    -0.486 OA
BRANCH  80  81
ATOM     81  C   UNL A   1      34.900  23.694  25.264  1.00  0.00     0.277 C 
BRANCH  81  82
ATOM     82  C   UNL A   1      34.084  24.812  24.615  1.00  0.00     0.056 A 
ATOM     83  S   UNL A   1      33.712  26.728  25.701  1.00  0.00    -0.144 S 
ATOM     84  C   UNL A   1      33.826  25.028  22.957  1.00  0.00     0.035 A 
ATOM     85  C   UNL A   1      33.287  28.034  23.869  1.00  0.00     0.066 A 
ATOM     86  C   UNL A   1      33.379  27.121  22.445  1.00  0.00     0.028 A 
ATOM     87  Br  UNL A   1      33.020  23.066  22.246  1.00  0.00    -0.049 Br
ENDBRANCH  81  82
ENDBRANCH  80  81
ENDBRANCH  79  80
ENDBRANCH  72  74
ENDBRANCH  71  72
ENDBRANCH   1  71
TORSDOF 14
ENDMDL
