MODEL 1
REMARK VINA RESULT:     -11.6      0.000      0.000
REMARK SMILES O=C(OCCOC(=O)c1cccnc1SCC(=O)c1ccccc1Cl)c1ccc(-c2c3nc(c(-c4c(F)c(F)c(F)c(F)c4F)c4ccc([nH]4)c(-c4c(F)c(F)c(F)c(F)c4F)c4nc(c(-c5c(F)c(F)c(F)c(F)c5F)c5ccc2[nH]5)C=C4)C=C3)cc1
REMARK SMILES IDX 5 1 4 2 3 3 2 4 1 5 26 6 27 7 88 8 28 9 87 10 29 11 30 12
REMARK SMILES IDX 31 13 81 14 32 15 86 16 80 17 82 18 33 19 85 20 79 21 78 22
REMARK SMILES IDX 34 24 66 25 46 26 65 27 47 28 50 29 64 30 83 31 48 32 49 33
REMARK SMILES IDX 63 35 84 36 51 37 35 38 36 39 44 40 37 41 38 42 42 43 45 44
REMARK SMILES IDX 39 45 40 46 43 47 41 48 67 49 68 50 76 51 69 52 70 53 74 54
REMARK SMILES IDX 77 55 71 56 72 57 75 58 73 59 52 60 53 61 61 62 54 63 55 64
REMARK SMILES IDX 59 65 62 66 56 67 57 68 60 69 58 70 6 71 7 72 8 73 9 74
REMARK SMILES IDX 10 75 14 76 11 77 13 78 12 79 15 80 16 81 17 82 18 83 19 84
REMARK SMILES IDX 20 85 24 86 21 87 23 88 25 89 22 90
REMARK H PARENT 82 23 50 34
REMARK Flexibility Score: inf
ROOT
ATOM      1  C   UNL A   1      37.695  19.990  24.744  1.00  0.00     0.275 C 
ENDROOT
BRANCH   1   2
ATOM      2  C   UNL A   1      38.821  20.283  25.738  1.00  0.00     0.275 C 
BRANCH   2   3
ATOM      3  O   UNL A   1      39.903  19.334  25.762  1.00  0.00    -0.458 OA
BRANCH   3   4
ATOM      4  C   UNL A   1      41.215  19.584  25.994  1.00  0.00     0.338 C 
ATOM      5  O   UNL A   1      42.033  18.669  25.955  1.00  0.00    -0.246 OA
BRANCH   4   6
ATOM      6  C   UNL A   1      41.670  20.913  26.482  1.00  0.00     0.060 A 
ATOM      7  C   UNL A   1      41.845  21.259  27.822  1.00  0.00     0.016 A 
ATOM      8  C   UNL A   1      41.944  21.873  25.502  1.00  0.00     0.016 A 
ATOM      9  C   UNL A   1      42.395  22.495  28.168  1.00  0.00     0.010 A 
ATOM     10  C   UNL A   1      42.539  23.091  25.836  1.00  0.00     0.010 A 
ATOM     11  C   UNL A   1      42.746  23.419  27.180  1.00  0.00    -0.014 A 
BRANCH  11  12
ATOM     12  C   UNL A   1      43.075  24.808  27.573  1.00  0.00     0.031 A 
ATOM     13  C   UNL A   1      44.490  25.267  27.358  1.00  0.00     0.074 A 
ATOM     14  C   UNL A   1      42.133  25.669  28.006  1.00  0.00     0.049 A 
ATOM     15  N   UNL A   1      44.993  26.467  27.480  1.00  0.00    -0.248 NA
ATOM     16  C   UNL A   1      45.457  24.256  26.894  1.00  0.00     0.031 C 
ATOM     17  C   UNL A   1      40.713  25.363  28.157  1.00  0.00     0.029 A 
ATOM     18  N   UNL A   1      42.229  26.979  28.400  1.00  0.00    -0.354 N 
ATOM     19  C   UNL A   1      46.308  26.358  27.052  1.00  0.00     0.074 A 
ATOM     20  C   UNL A   1      46.563  24.968  26.765  1.00  0.00     0.031 C 
ATOM     21  C   UNL A   1      40.081  26.428  28.683  1.00  0.00     0.029 A 
ATOM     22  C   UNL A   1      41.048  27.503  28.871  1.00  0.00     0.049 A 
ATOM     23  H   UNL A   1      43.065  27.497  28.351  1.00  0.00     0.167 HD
ATOM     24  C   UNL A   1      47.206  27.346  26.851  1.00  0.00     0.037 A 
ATOM     25  C   UNL A   1      40.782  28.719  29.386  1.00  0.00     0.037 A 
ATOM     26  C   UNL A   1      46.949  28.724  27.145  1.00  0.00     0.049 A 
ATOM     27  C   UNL A   1      41.862  29.769  29.320  1.00  0.00     0.074 A 
ATOM     28  C   UNL A   1      47.780  29.813  26.968  1.00  0.00     0.029 A 
ATOM     29  N   UNL A   1      45.769  29.198  27.700  1.00  0.00    -0.354 N 
ATOM     30  N   UNL A   1      43.073  29.675  28.826  1.00  0.00    -0.248 NA
ATOM     31  C   UNL A   1      41.522  31.108  29.821  1.00  0.00     0.031 C 
ATOM     32  C   UNL A   1      47.129  30.938  27.482  1.00  0.00     0.029 A 
ATOM     33  C   UNL A   1      45.868  30.561  27.917  1.00  0.00     0.049 A 
ATOM     34  H   UNL A   1      44.980  28.648  27.908  1.00  0.00     0.167 HD
ATOM     35  C   UNL A   1      43.615  30.950  28.896  1.00  0.00     0.074 A 
ATOM     36  C   UNL A   1      42.601  31.800  29.484  1.00  0.00     0.031 C 
ATOM     37  C   UNL A   1      44.836  31.384  28.494  1.00  0.00     0.037 A 
BRANCH  24  38
ATOM     38  C   UNL A   1      48.539  26.954  26.293  1.00  0.00     0.064 A 
ATOM     39  C   UNL A   1      48.813  27.039  24.918  1.00  0.00     0.173 A 
ATOM     40  C   UNL A   1      49.554  26.493  27.140  1.00  0.00     0.173 A 
ATOM     41  F   UNL A   1      47.865  27.448  24.062  1.00  0.00    -0.203 F 
ATOM     42  C   UNL A   1      50.053  26.657  24.412  1.00  0.00     0.198 A 
ATOM     43  C   UNL A   1      50.801  26.139  26.634  1.00  0.00     0.198 A 
ATOM     44  F   UNL A   1      49.336  26.385  28.459  1.00  0.00    -0.203 F 
ATOM     45  F   UNL A   1      50.279  26.702  23.091  1.00  0.00    -0.200 F 
ATOM     46  C   UNL A   1      51.048  26.216  25.272  1.00  0.00     0.200 A 
ATOM     47  F   UNL A   1      51.763  25.718  27.465  1.00  0.00    -0.200 F 
ATOM     48  F   UNL A   1      52.243  25.857  24.785  1.00  0.00    -0.200 F 
ENDBRANCH  24  38
BRANCH  25  49
ATOM     49  C   UNL A   1      39.454  29.024  29.986  1.00  0.00     0.064 A 
ATOM     50  C   UNL A   1      38.419  29.600  29.237  1.00  0.00     0.173 A 
ATOM     51  C   UNL A   1      39.218  28.805  31.353  1.00  0.00     0.173 A 
ATOM     52  F   UNL A   1      38.594  29.841  27.929  1.00  0.00    -0.203 F 
ATOM     53  C   UNL A   1      37.222  29.990  29.837  1.00  0.00     0.198 A 
ATOM     54  C   UNL A   1      38.012  29.173  31.948  1.00  0.00     0.198 A 
ATOM     55  F   UNL A   1      40.167  28.245  32.118  1.00  0.00    -0.203 F 
ATOM     56  F   UNL A   1      36.276  30.599  29.107  1.00  0.00    -0.200 F 
ATOM     57  C   UNL A   1      37.020  29.778  31.193  1.00  0.00     0.200 A 
ATOM     58  F   UNL A   1      37.819  28.956  33.256  1.00  0.00    -0.200 F 
ATOM     59  F   UNL A   1      35.877  30.170  31.772  1.00  0.00    -0.200 F 
ENDBRANCH  25  49
BRANCH  37  60
ATOM     60  C   UNL A   1      45.123  32.848  28.635  1.00  0.00     0.064 A 
ATOM     61  C   UNL A   1      45.771  33.367  29.764  1.00  0.00     0.173 A 
ATOM     62  C   UNL A   1      44.795  33.735  27.597  1.00  0.00     0.173 A 
ATOM     63  F   UNL A   1      46.093  32.562  30.787  1.00  0.00    -0.203 F 
ATOM     64  C   UNL A   1      46.053  34.726  29.863  1.00  0.00     0.198 A 
ATOM     65  C   UNL A   1      45.114  35.085  27.682  1.00  0.00     0.198 A 
ATOM     66  F   UNL A   1      44.183  33.286  26.490  1.00  0.00    -0.203 F 
ATOM     67  F   UNL A   1      46.623  35.210  30.975  1.00  0.00    -0.200 F 
ATOM     68  C   UNL A   1      45.734  35.581  28.818  1.00  0.00     0.200 A 
ATOM     69  F   UNL A   1      44.823  35.906  26.663  1.00  0.00    -0.200 F 
ATOM     70  F   UNL A   1      46.019  36.888  28.910  1.00  0.00    -0.200 F 
ENDBRANCH  37  60
ENDBRANCH  11  12
ENDBRANCH   4   6
ENDBRANCH   3   4
ENDBRANCH   2   3
ENDBRANCH   1   2
BRANCH   1  71
ATOM     71  O   UNL A   1      36.395  20.362  25.233  1.00  0.00    -0.458 OA
BRANCH  71  72
ATOM     72  C   UNL A   1      35.870  21.456  24.631  1.00  0.00     0.341 C 
ATOM     73  O   UNL A   1      36.415  22.165  23.799  1.00  0.00    -0.246 OA
BRANCH  72  74
ATOM     74  C   UNL A   1      34.644  21.889  25.306  1.00  0.00     0.092 A 
ATOM     75  C   UNL A   1      34.840  22.071  26.692  1.00  0.00     0.020 A 
ATOM     76  C   UNL A   1      33.381  22.120  24.773  1.00  0.00     0.111 A 
ATOM     77  C   UNL A   1      33.785  22.404  27.527  1.00  0.00     0.021 A 
ATOM     78  N   UNL A   1      32.347  22.415  25.623  1.00  0.00    -0.249 NA
ATOM     79  C   UNL A   1      32.550  22.540  26.950  1.00  0.00     0.112 A 
BRANCH  76  80
ATOM     80  S   UNL A   1      32.670  22.099  23.155  1.00  0.00    -0.097 SA
BRANCH  80  81
ATOM     81  C   UNL A   1      33.304  23.322  22.015  1.00  0.00     0.157 C 
BRANCH  81  82
ATOM     82  C   UNL A   1      33.276  24.780  22.323  1.00  0.00     0.174 C 
ATOM     83  O   UNL A   1      33.279  25.585  21.386  1.00  0.00    -0.293 OA
BRANCH  82  84
ATOM     84  C   UNL A   1      32.930  25.311  23.670  1.00  0.00     0.037 A 
ATOM     85  C   UNL A   1      34.054  25.549  24.489  1.00  0.00     0.013 A 
ATOM     86  C   UNL A   1      31.665  25.613  24.178  1.00  0.00     0.051 A 
ATOM     87  C   UNL A   1      33.927  26.132  25.747  1.00  0.00     0.001 A 
ATOM     88  C   UNL A   1      31.546  26.217  25.439  1.00  0.00     0.021 A 
ATOM     89  Cl  UNL A   1      30.167  25.231  23.433  1.00  0.00    -0.084 Cl
ATOM     90  C   UNL A   1      32.671  26.488  26.212  1.00  0.00     0.002 A 
ENDBRANCH  82  84
ENDBRANCH  81  82
ENDBRANCH  80  81
ENDBRANCH  76  80
ENDBRANCH  72  74
ENDBRANCH  71  72
ENDBRANCH   1  71
TORSDOF 15
ENDMDL
MODEL 2
REMARK VINA RESULT:     -11.6      4.690     10.104
REMARK SMILES O=C(OCCOC(=O)c1cccnc1SCC(=O)c1ccccc1Cl)c1ccc(-c2c3nc(c(-c4c(F)c(F)c(F)c(F)c4F)c4ccc([nH]4)c(-c4c(F)c(F)c(F)c(F)c4F)c4nc(c(-c5c(F)c(F)c(F)c(F)c5F)c5ccc2[nH]5)C=C4)C=C3)cc1
REMARK SMILES IDX 5 1 4 2 3 3 2 4 1 5 26 6 27 7 88 8 28 9 87 10 29 11 30 12
REMARK SMILES IDX 31 13 81 14 32 15 86 16 80 17 82 18 33 19 85 20 79 21 78 22
REMARK SMILES IDX 34 24 66 25 46 26 65 27 47 28 50 29 64 30 83 31 48 32 49 33
REMARK SMILES IDX 63 35 84 36 51 37 35 38 36 39 44 40 37 41 38 42 42 43 45 44
REMARK SMILES IDX 39 45 40 46 43 47 41 48 67 49 68 50 76 51 69 52 70 53 74 54
REMARK SMILES IDX 77 55 71 56 72 57 75 58 73 59 52 60 53 61 61 62 54 63 55 64
REMARK SMILES IDX 59 65 62 66 56 67 57 68 60 69 58 70 6 71 7 72 8 73 9 74
REMARK SMILES IDX 10 75 14 76 11 77 13 78 12 79 15 80 16 81 17 82 18 83 19 84
REMARK SMILES IDX 20 85 24 86 21 87 23 88 25 89 22 90
REMARK H PARENT 82 23 50 34
REMARK Flexibility Score: inf
ROOT
ATOM      1  C   UNL A   1      31.629  29.850  25.530  1.00  0.00     0.275 C 
ENDROOT
BRANCH   1   2
ATOM      2  C   UNL A   1      31.937  30.731  26.742  1.00  0.00     0.275 C 
BRANCH   2   3
ATOM      3  O   UNL A   1      33.102  31.569  26.633  1.00  0.00    -0.458 OA
BRANCH   3   4
ATOM      4  C   UNL A   1      33.783  32.171  27.639  1.00  0.00     0.338 C 
ATOM      5  O   UNL A   1      33.496  33.316  27.979  1.00  0.00    -0.246 OA
BRANCH   4   6
ATOM      6  C   UNL A   1      35.002  31.549  28.221  1.00  0.00     0.060 A 
ATOM      7  C   UNL A   1      35.111  30.217  28.621  1.00  0.00     0.016 A 
ATOM      8  C   UNL A   1      36.117  32.382  28.361  1.00  0.00     0.016 A 
ATOM      9  C   UNL A   1      36.338  29.701  29.041  1.00  0.00     0.010 A 
ATOM     10  C   UNL A   1      37.359  31.864  28.733  1.00  0.00     0.010 A 
ATOM     11  C   UNL A   1      37.470  30.518  29.099  1.00  0.00    -0.014 A 
BRANCH  11  12
ATOM     12  C   UNL A   1      38.683  30.024  29.791  1.00  0.00     0.031 A 
ATOM     13  C   UNL A   1      38.970  30.580  31.157  1.00  0.00     0.074 A 
ATOM     14  C   UNL A   1      39.446  29.041  29.276  1.00  0.00     0.049 A 
ATOM     15  N   UNL A   1      39.876  30.209  32.022  1.00  0.00    -0.248 NA
ATOM     16  C   UNL A   1      38.093  31.663  31.636  1.00  0.00     0.031 C 
ATOM     17  C   UNL A   1      39.205  28.358  28.008  1.00  0.00     0.029 A 
ATOM     18  N   UNL A   1      40.583  28.443  29.757  1.00  0.00    -0.354 N 
ATOM     19  C   UNL A   1      39.632  30.968  33.157  1.00  0.00     0.074 A 
ATOM     20  C   UNL A   1      38.569  31.892  32.847  1.00  0.00     0.031 C 
ATOM     21  C   UNL A   1      40.204  27.488  27.772  1.00  0.00     0.029 A 
ATOM     22  C   UNL A   1      41.136  27.528  28.892  1.00  0.00     0.049 A 
ATOM     23  H   UNL A   1      40.967  28.649  30.640  1.00  0.00     0.167 HD
ATOM     24  C   UNL A   1      40.202  30.858  34.376  1.00  0.00     0.037 A 
ATOM     25  C   UNL A   1      42.265  26.802  29.003  1.00  0.00     0.037 A 
ATOM     26  C   UNL A   1      41.263  29.942  34.675  1.00  0.00     0.049 A 
ATOM     27  C   UNL A   1      42.999  26.826  30.319  1.00  0.00     0.074 A 
ATOM     28  C   UNL A   1      41.907  29.733  35.879  1.00  0.00     0.029 A 
ATOM     29  N   UNL A   1      41.850  29.095  33.747  1.00  0.00    -0.354 N 
ATOM     30  N   UNL A   1      42.701  27.481  31.416  1.00  0.00    -0.248 NA
ATOM     31  C   UNL A   1      44.185  25.967  30.438  1.00  0.00     0.031 C 
ATOM     32  C   UNL A   1      42.932  28.809  35.663  1.00  0.00     0.029 A 
ATOM     33  C   UNL A   1      42.884  28.393  34.341  1.00  0.00     0.049 A 
ATOM     34  H   UNL A   1      41.573  29.006  32.807  1.00  0.00     0.167 HD
ATOM     35  C   UNL A   1      43.618  27.066  32.370  1.00  0.00     0.074 A 
ATOM     36  C   UNL A   1      44.486  26.105  31.722  1.00  0.00     0.031 C 
ATOM     37  C   UNL A   1      43.724  27.433  33.672  1.00  0.00     0.037 A 
BRANCH  24  38
ATOM     38  C   UNL A   1      39.683  31.753  35.458  1.00  0.00     0.064 A 
ATOM     39  C   UNL A   1      40.192  33.048  35.648  1.00  0.00     0.173 A 
ATOM     40  C   UNL A   1      38.663  31.314  36.311  1.00  0.00     0.173 A 
ATOM     41  F   UNL A   1      41.188  33.504  34.874  1.00  0.00    -0.203 F 
ATOM     42  C   UNL A   1      39.709  33.863  36.668  1.00  0.00     0.198 A 
ATOM     43  C   UNL A   1      38.163  32.142  37.312  1.00  0.00     0.198 A 
ATOM     44  F   UNL A   1      38.152  30.081  36.175  1.00  0.00    -0.203 F 
ATOM     45  F   UNL A   1      40.241  35.078  36.861  1.00  0.00    -0.200 F 
ATOM     46  C   UNL A   1      38.689  33.412  37.493  1.00  0.00     0.200 A 
ATOM     47  F   UNL A   1      37.175  31.708  38.105  1.00  0.00    -0.200 F 
ATOM     48  F   UNL A   1      38.219  34.200  38.468  1.00  0.00    -0.200 F 
ENDBRANCH  24  38
BRANCH  25  49
ATOM     49  C   UNL A   1      42.763  25.980  27.864  1.00  0.00     0.064 A 
ATOM     50  C   UNL A   1      43.655  26.496  26.914  1.00  0.00     0.173 A 
ATOM     51  C   UNL A   1      42.293  24.672  27.667  1.00  0.00     0.173 A 
ATOM     52  F   UNL A   1      44.126  27.745  27.048  1.00  0.00    -0.203 F 
ATOM     53  C   UNL A   1      44.020  25.758  25.789  1.00  0.00     0.198 A 
ATOM     54  C   UNL A   1      42.678  23.925  26.554  1.00  0.00     0.198 A 
ATOM     55  F   UNL A   1      41.448  24.120  28.550  1.00  0.00    -0.203 F 
ATOM     56  F   UNL A   1      44.822  26.303  24.864  1.00  0.00    -0.200 F 
ATOM     57  C   UNL A   1      43.529  24.473  25.608  1.00  0.00     0.200 A 
ATOM     58  F   UNL A   1      42.209  22.680  26.391  1.00  0.00    -0.200 F 
ATOM     59  F   UNL A   1      43.866  23.771  24.517  1.00  0.00    -0.200 F 
ENDBRANCH  25  49
BRANCH  37  60
ATOM     60  C   UNL A   1      44.784  26.760  34.490  1.00  0.00     0.064 A 
ATOM     61  C   UNL A   1      46.059  27.321  34.649  1.00  0.00     0.173 A 
ATOM     62  C   UNL A   1      44.500  25.565  35.169  1.00  0.00     0.173 A 
ATOM     63  F   UNL A   1      46.383  28.455  34.010  1.00  0.00    -0.203 F 
ATOM     64  C   UNL A   1      47.020  26.694  35.435  1.00  0.00     0.198 A 
ATOM     65  C   UNL A   1      45.450  24.962  35.985  1.00  0.00     0.198 A 
ATOM     66  F   UNL A   1      43.291  24.993  35.057  1.00  0.00    -0.203 F 
ATOM     67  F   UNL A   1      48.250  27.218  35.529  1.00  0.00    -0.200 F 
ATOM     68  C   UNL A   1      46.713  25.522  36.110  1.00  0.00     0.200 A 
ATOM     69  F   UNL A   1      45.144  23.841  36.653  1.00  0.00    -0.200 F 
ATOM     70  F   UNL A   1      47.636  24.927  36.878  1.00  0.00    -0.200 F 
ENDBRANCH  37  60
ENDBRANCH  11  12
ENDBRANCH   4   6
ENDBRANCH   3   4
ENDBRANCH   2   3
ENDBRANCH   1   2
BRANCH   1  71
ATOM     71  O   UNL A   1      32.808  29.390  24.847  1.00  0.00    -0.458 OA
BRANCH  71  72
ATOM     72  C   UNL A   1      33.201  28.144  25.202  1.00  0.00     0.341 C 
ATOM     73  O   UNL A   1      34.008  27.851  26.071  1.00  0.00    -0.246 OA
BRANCH  72  74
ATOM     74  C   UNL A   1      32.760  27.154  24.216  1.00  0.00     0.092 A 
ATOM     75  C   UNL A   1      33.569  27.164  23.059  1.00  0.00     0.020 A 
ATOM     76  C   UNL A   1      31.695  26.264  24.279  1.00  0.00     0.111 A 
ATOM     77  C   UNL A   1      33.274  26.357  21.972  1.00  0.00     0.021 A 
ATOM     78  N   UNL A   1      31.403  25.500  23.178  1.00  0.00    -0.249 NA
ATOM     79  C   UNL A   1      32.165  25.561  22.067  1.00  0.00     0.112 A 
BRANCH  76  80
ATOM     80  S   UNL A   1      30.479  25.833  25.488  1.00  0.00    -0.097 SA
BRANCH  80  81
ATOM     81  C   UNL A   1      30.642  24.201  26.202  1.00  0.00     0.157 C 
BRANCH  81  82
ATOM     82  C   UNL A   1      31.964  23.639  26.597  1.00  0.00     0.174 C 
ATOM     83  O   UNL A   1      32.038  22.962  27.626  1.00  0.00    -0.293 OA
BRANCH  82  84
ATOM     84  C   UNL A   1      33.124  23.582  25.665  1.00  0.00     0.037 A 
ATOM     85  C   UNL A   1      34.224  24.359  26.085  1.00  0.00     0.013 A 
ATOM     86  C   UNL A   1      33.245  22.848  24.483  1.00  0.00     0.051 A 
ATOM     87  C   UNL A   1      35.429  24.353  25.387  1.00  0.00     0.001 A 
ATOM     88  C   UNL A   1      34.467  22.832  23.795  1.00  0.00     0.021 A 
ATOM     89  Cl  UNL A   1      31.980  21.995  23.698  1.00  0.00    -0.084 Cl
ATOM     90  C   UNL A   1      35.557  23.568  24.251  1.00  0.00     0.002 A 
ENDBRANCH  82  84
ENDBRANCH  81  82
ENDBRANCH  80  81
ENDBRANCH  76  80
ENDBRANCH  72  74
ENDBRANCH  71  72
ENDBRANCH   1  71
TORSDOF 15
ENDMDL
MODEL 3
REMARK VINA RESULT:     -11.5      4.892     10.567
REMARK SMILES O=C(OCCOC(=O)c1cccnc1SCC(=O)c1ccccc1Cl)c1ccc(-c2c3nc(c(-c4c(F)c(F)c(F)c(F)c4F)c4ccc([nH]4)c(-c4c(F)c(F)c(F)c(F)c4F)c4nc(c(-c5c(F)c(F)c(F)c(F)c5F)c5ccc2[nH]5)C=C4)C=C3)cc1
REMARK SMILES IDX 5 1 4 2 3 3 2 4 1 5 26 6 27 7 88 8 28 9 87 10 29 11 30 12
REMARK SMILES IDX 31 13 81 14 32 15 86 16 80 17 82 18 33 19 85 20 79 21 78 22
REMARK SMILES IDX 34 24 66 25 46 26 65 27 47 28 50 29 64 30 83 31 48 32 49 33
REMARK SMILES IDX 63 35 84 36 51 37 35 38 36 39 44 40 37 41 38 42 42 43 45 44
REMARK SMILES IDX 39 45 40 46 43 47 41 48 67 49 68 50 76 51 69 52 70 53 74 54
REMARK SMILES IDX 77 55 71 56 72 57 75 58 73 59 52 60 53 61 61 62 54 63 55 64
REMARK SMILES IDX 59 65 62 66 56 67 57 68 60 69 58 70 6 71 7 72 8 73 9 74
REMARK SMILES IDX 10 75 14 76 11 77 13 78 12 79 15 80 16 81 17 82 18 83 19 84
REMARK SMILES IDX 20 85 24 86 21 87 23 88 25 89 22 90
REMARK H PARENT 82 23 50 34
REMARK Flexibility Score: inf
ROOT
ATOM      1  C   UNL A   1      32.052  31.315  26.958  1.00  0.00     0.275 C 
ENDROOT
BRANCH   1   2
ATOM      2  C   UNL A   1      32.011  32.844  26.911  1.00  0.00     0.275 C 
BRANCH   2   3
ATOM      3  O   UNL A   1      32.645  33.526  28.008  1.00  0.00    -0.458 OA
BRANCH   3   4
ATOM      4  C   UNL A   1      33.906  34.019  28.055  1.00  0.00     0.338 C 
ATOM      5  O   UNL A   1      34.174  35.082  27.501  1.00  0.00    -0.246 OA
BRANCH   4   6
ATOM      6  C   UNL A   1      35.027  33.212  28.606  1.00  0.00     0.060 A 
ATOM      7  C   UNL A   1      34.895  31.959  29.206  1.00  0.00     0.016 A 
ATOM      8  C   UNL A   1      36.306  33.768  28.496  1.00  0.00     0.016 A 
ATOM      9  C   UNL A   1      36.025  31.230  29.579  1.00  0.00     0.010 A 
ATOM     10  C   UNL A   1      37.443  33.027  28.820  1.00  0.00     0.010 A 
ATOM     11  C   UNL A   1      37.306  31.756  29.389  1.00  0.00    -0.014 A 
BRANCH  11  12
ATOM     12  C   UNL A   1      38.464  31.088  30.026  1.00  0.00     0.031 A 
ATOM     13  C   UNL A   1      38.785  31.472  31.443  1.00  0.00     0.074 A 
ATOM     14  C   UNL A   1      39.143  30.100  29.413  1.00  0.00     0.049 A 
ATOM     15  N   UNL A   1      39.646  30.934  32.267  1.00  0.00    -0.248 NA
ATOM     16  C   UNL A   1      38.000  32.572  32.032  1.00  0.00     0.031 C 
ATOM     17  C   UNL A   1      38.855  29.576  28.080  1.00  0.00     0.029 A 
ATOM     18  N   UNL A   1      40.218  29.357  29.830  1.00  0.00    -0.354 N 
ATOM     19  C   UNL A   1      39.457  31.591  33.474  1.00  0.00     0.074 A 
ATOM     20  C   UNL A   1      38.483  32.632  33.260  1.00  0.00     0.031 C 
ATOM     21  C   UNL A   1      39.777  28.650  27.756  1.00  0.00     0.029 A 
ATOM     22  C   UNL A   1      40.697  28.492  28.876  1.00  0.00     0.049 A 
ATOM     23  H   UNL A   1      40.610  29.435  30.731  1.00  0.00     0.167 HD
ATOM     24  C   UNL A   1      40.003  31.305  34.675  1.00  0.00     0.037 A 
ATOM     25  C   UNL A   1      41.757  27.661  28.911  1.00  0.00     0.037 A 
ATOM     26  C   UNL A   1      40.977  30.273  34.879  1.00  0.00     0.049 A 
ATOM     27  C   UNL A   1      42.476  27.484  30.224  1.00  0.00     0.074 A 
ATOM     28  C   UNL A   1      41.588  29.885  36.055  1.00  0.00     0.029 A 
ATOM     29  N   UNL A   1      41.497  29.478  33.868  1.00  0.00    -0.354 N 
ATOM     30  N   UNL A   1      42.226  28.045  31.382  1.00  0.00    -0.248 NA
ATOM     31  C   UNL A   1      43.582  26.516  30.254  1.00  0.00     0.031 C 
ATOM     32  C   UNL A   1      42.530  28.901  35.744  1.00  0.00     0.029 A 
ATOM     33  C   UNL A   1      42.459  28.630  34.387  1.00  0.00     0.049 A 
ATOM     34  H   UNL A   1      41.222  29.512  32.923  1.00  0.00     0.167 HD
ATOM     35  C   UNL A   1      43.093  27.455  32.289  1.00  0.00     0.074 A 
ATOM     36  C   UNL A   1      43.880  26.493  31.545  1.00  0.00     0.031 C 
ATOM     37  C   UNL A   1      43.218  27.674  33.622  1.00  0.00     0.037 A 
BRANCH  24  38
ATOM     38  C   UNL A   1      39.554  32.126  35.843  1.00  0.00     0.064 A 
ATOM     39  C   UNL A   1      40.170  33.346  36.165  1.00  0.00     0.173 A 
ATOM     40  C   UNL A   1      38.494  31.690  36.648  1.00  0.00     0.173 A 
ATOM     41  F   UNL A   1      41.207  33.793  35.441  1.00  0.00    -0.203 F 
ATOM     42  C   UNL A   1      39.750  34.091  37.263  1.00  0.00     0.198 A 
ATOM     43  C   UNL A   1      38.058  32.451  37.730  1.00  0.00     0.198 A 
ATOM     44  F   UNL A   1      37.881  30.526  36.388  1.00  0.00    -0.203 F 
ATOM     45  F   UNL A   1      40.381  35.230  37.580  1.00  0.00    -0.200 F 
ATOM     46  C   UNL A   1      38.689  33.647  38.039  1.00  0.00     0.200 A 
ATOM     47  F   UNL A   1      37.031  32.024  38.475  1.00  0.00    -0.200 F 
ATOM     48  F   UNL A   1      38.280  34.368  39.091  1.00  0.00    -0.200 F 
ENDBRANCH  24  38
BRANCH  25  49
ATOM     49  C   UNL A   1      42.192  26.921  27.694  1.00  0.00     0.064 A 
ATOM     50  C   UNL A   1      41.736  25.626  27.413  1.00  0.00     0.173 A 
ATOM     51  C   UNL A   1      43.138  27.478  26.818  1.00  0.00     0.173 A 
ATOM     52  F   UNL A   1      40.841  25.041  28.222  1.00  0.00    -0.203 F 
ATOM     53  C   UNL A   1      42.241  24.899  26.335  1.00  0.00     0.198 A 
ATOM     54  C   UNL A   1      43.625  26.760  25.726  1.00  0.00     0.198 A 
ATOM     55  F   UNL A   1      43.601  28.719  27.029  1.00  0.00    -0.203 F 
ATOM     56  F   UNL A   1      41.835  23.638  26.131  1.00  0.00    -0.200 F 
ATOM     57  C   UNL A   1      43.187  25.466  25.494  1.00  0.00     0.200 A 
ATOM     58  F   UNL A   1      44.530  27.317  24.911  1.00  0.00    -0.200 F 
ATOM     59  F   UNL A   1      43.686  24.760  24.470  1.00  0.00    -0.200 F 
ENDBRANCH  25  49
BRANCH  37  60
ATOM     60  C   UNL A   1      44.207  26.829  34.367  1.00  0.00     0.064 A 
ATOM     61  C   UNL A   1      45.531  27.246  34.566  1.00  0.00     0.173 A 
ATOM     62  C   UNL A   1      43.807  25.610  34.937  1.00  0.00     0.173 A 
ATOM     63  F   UNL A   1      45.964  28.396  34.029  1.00  0.00    -0.203 F 
ATOM     64  C   UNL A   1      46.425  26.460  35.284  1.00  0.00     0.198 A 
ATOM     65  C   UNL A   1      44.693  24.846  35.687  1.00  0.00     0.198 A 
ATOM     66  F   UNL A   1      42.547  25.172  34.784  1.00  0.00    -0.203 F 
ATOM     67  F   UNL A   1      47.700  26.850  35.415  1.00  0.00    -0.200 F 
ATOM     68  C   UNL A   1      46.004  25.266  35.852  1.00  0.00     0.200 A 
ATOM     69  F   UNL A   1      44.278  23.704  36.253  1.00  0.00    -0.200 F 
ATOM     70  F   UNL A   1      46.864  24.517  36.555  1.00  0.00    -0.200 F 
ENDBRANCH  37  60
ENDBRANCH  11  12
ENDBRANCH   4   6
ENDBRANCH   3   4
ENDBRANCH   2   3
ENDBRANCH   1   2
BRANCH   1  71
ATOM     71  O   UNL A   1      31.705  30.699  25.705  1.00  0.00    -0.458 OA
BRANCH  71  72
ATOM     72  C   UNL A   1      32.350  29.531  25.467  1.00  0.00     0.341 C 
ATOM     73  O   UNL A   1      33.531  29.294  25.665  1.00  0.00    -0.246 OA
BRANCH  72  74
ATOM     74  C   UNL A   1      31.524  28.633  24.655  1.00  0.00     0.092 A 
ATOM     75  C   UNL A   1      30.564  29.338  23.898  1.00  0.00     0.020 A 
ATOM     76  C   UNL A   1      31.568  27.247  24.557  1.00  0.00     0.111 A 
ATOM     77  C   UNL A   1      29.631  28.668  23.122  1.00  0.00     0.021 A 
ATOM     78  N   UNL A   1      30.614  26.606  23.810  1.00  0.00    -0.249 NA
ATOM     79  C   UNL A   1      29.679  27.299  23.130  1.00  0.00     0.112 A 
BRANCH  76  80
ATOM     80  S   UNL A   1      32.588  25.966  25.221  1.00  0.00    -0.097 SA
BRANCH  80  81
ATOM     81  C   UNL A   1      32.495  24.389  24.382  1.00  0.00     0.157 C 
BRANCH  81  82
ATOM     82  C   UNL A   1      33.580  23.907  23.481  1.00  0.00     0.174 C 
ATOM     83  O   UNL A   1      33.834  24.551  22.460  1.00  0.00    -0.293 OA
BRANCH  82  84
ATOM     84  C   UNL A   1      34.576  22.882  23.900  1.00  0.00     0.037 A 
ATOM     85  C   UNL A   1      35.914  23.299  23.741  1.00  0.00     0.013 A 
ATOM     86  C   UNL A   1      34.336  21.616  24.438  1.00  0.00     0.051 A 
ATOM     87  C   UNL A   1      36.978  22.507  24.167  1.00  0.00     0.001 A 
ATOM     88  C   UNL A   1      35.411  20.832  24.881  1.00  0.00     0.021 A 
ATOM     89  Cl  UNL A   1      32.807  20.843  24.541  1.00  0.00    -0.084 Cl
ATOM     90  C   UNL A   1      36.723  21.280  24.759  1.00  0.00     0.002 A 
ENDBRANCH  82  84
ENDBRANCH  81  82
ENDBRANCH  80  81
ENDBRANCH  76  80
ENDBRANCH  72  74
ENDBRANCH  71  72
ENDBRANCH   1  71
TORSDOF 15
ENDMDL
