MODEL 1
REMARK VINA RESULT:     -11.7      0.000      0.000
REMARK SMILES O=C(OCCOC(=O)c1ccc2c(c1)=N[C@H](C(F)(F)F)N=2)c1ccc(-c2c3nc(c(-c4c(F)c(F)c(F)c(F)c4F)c4ccc([nH]4)c(-c4c(F)c(F)c(F)c(F)c4F)c4nc(c(-c5c(F)c(F)c(F)c(F)c5F)c5ccc2[nH]5)C=C4)C=C3)cc1
REMARK SMILES IDX 4 1 3 2 2 3 1 4 22 5 23 6 84 7 24 8 83 9 25 10 26 11 27 12
REMARK SMILES IDX 77 13 28 14 82 15 76 16 78 17 29 18 81 19 75 20 74 21 30 23
REMARK SMILES IDX 62 24 42 25 61 26 43 27 46 28 60 29 79 30 44 31 45 32 59 34
REMARK SMILES IDX 80 35 47 36 31 37 32 38 40 39 33 40 34 41 38 42 41 43 35 44
REMARK SMILES IDX 36 45 39 46 37 47 63 48 64 49 72 50 65 51 66 52 70 53 73 54
REMARK SMILES IDX 67 55 68 56 71 57 69 58 48 59 49 60 57 61 50 62 51 63 55 64
REMARK SMILES IDX 58 65 52 66 53 67 56 68 54 69 5 70 6 71 7 72 8 73 9 74 10 75
REMARK SMILES IDX 14 76 11 77 13 78 12 79 15 80 21 81 16 82 17 83 18 84 19 85
REMARK SMILES IDX 20 86
REMARK H PARENT 78 22 46 33
REMARK Flexibility Score: inf
ROOT
ATOM      1  C   UNL A   1      43.844  21.838  25.228  1.00  0.00     0.275 C 
ENDROOT
BRANCH   1   2
ATOM      2  O   UNL A   1      43.393  23.124  24.770  1.00  0.00    -0.458 OA
BRANCH   2   3
ATOM      3  C   UNL A   1      43.818  24.361  25.120  1.00  0.00     0.338 C 
ATOM      4  O   UNL A   1      44.856  24.795  24.626  1.00  0.00    -0.246 OA
BRANCH   3   5
ATOM      5  C   UNL A   1      43.199  25.145  26.235  1.00  0.00     0.060 A 
ATOM      6  C   UNL A   1      43.705  26.441  26.423  1.00  0.00     0.016 A 
ATOM      7  C   UNL A   1      42.196  24.706  27.102  1.00  0.00     0.016 A 
ATOM      8  C   UNL A   1      43.329  27.203  27.531  1.00  0.00     0.010 A 
ATOM      9  C   UNL A   1      41.808  25.473  28.207  1.00  0.00     0.010 A 
ATOM     10  C   UNL A   1      42.396  26.714  28.452  1.00  0.00    -0.014 A 
BRANCH  10  11
ATOM     11  C   UNL A   1      41.901  27.586  29.542  1.00  0.00     0.031 A 
ATOM     12  C   UNL A   1      40.776  28.560  29.362  1.00  0.00     0.074 A 
ATOM     13  C   UNL A   1      42.509  27.473  30.735  1.00  0.00     0.049 A 
ATOM     14  N   UNL A   1      40.085  29.191  30.278  1.00  0.00    -0.248 NA
ATOM     15  C   UNL A   1      40.341  28.852  27.989  1.00  0.00     0.031 C 
ATOM     16  C   UNL A   1      43.635  26.580  31.019  1.00  0.00     0.029 A 
ATOM     17  N   UNL A   1      42.275  28.111  31.920  1.00  0.00    -0.354 N 
ATOM     18  C   UNL A   1      39.051  29.828  29.606  1.00  0.00     0.074 A 
ATOM     19  C   UNL A   1      39.262  29.599  28.194  1.00  0.00     0.031 C 
ATOM     20  C   UNL A   1      43.988  26.721  32.302  1.00  0.00     0.029 A 
ATOM     21  C   UNL A   1      43.148  27.745  32.910  1.00  0.00     0.049 A 
ATOM     22  H   UNL A   1      41.553  28.768  32.049  1.00  0.00     0.167 HD
ATOM     23  C   UNL A   1      38.019  30.530  30.131  1.00  0.00     0.037 A 
ATOM     24  C   UNL A   1      43.273  28.204  34.166  1.00  0.00     0.037 A 
ATOM     25  C   UNL A   1      37.975  30.967  31.504  1.00  0.00     0.049 A 
ATOM     26  C   UNL A   1      42.299  29.232  34.653  1.00  0.00     0.074 A 
ATOM     27  C   UNL A   1      37.051  31.789  32.125  1.00  0.00     0.029 A 
ATOM     28  N   UNL A   1      38.955  30.685  32.446  1.00  0.00    -0.354 N 
ATOM     29  N   UNL A   1      41.244  29.719  34.045  1.00  0.00    -0.248 NA
ATOM     30  C   UNL A   1      42.532  29.774  35.993  1.00  0.00     0.031 C 
ATOM     31  C   UNL A   1      37.535  32.094  33.404  1.00  0.00     0.029 A 
ATOM     32  C   UNL A   1      38.714  31.396  33.612  1.00  0.00     0.049 A 
ATOM     33  H   UNL A   1      39.710  30.069  32.307  1.00  0.00     0.167 HD
ATOM     34  C   UNL A   1      40.671  30.615  34.935  1.00  0.00     0.074 A 
ATOM     35  C   UNL A   1      41.494  30.587  36.131  1.00  0.00     0.031 C 
ATOM     36  C   UNL A   1      39.564  31.383  34.778  1.00  0.00     0.037 A 
BRANCH  23  37
ATOM     37  C   UNL A   1      36.886  30.901  29.217  1.00  0.00     0.064 A 
ATOM     38  C   UNL A   1      35.940  29.940  28.822  1.00  0.00     0.173 A 
ATOM     39  C   UNL A   1      36.694  32.220  28.784  1.00  0.00     0.173 A 
ATOM     40  F   UNL A   1      36.084  28.658  29.189  1.00  0.00    -0.203 F 
ATOM     41  C   UNL A   1      34.846  30.288  28.030  1.00  0.00     0.198 A 
ATOM     42  C   UNL A   1      35.593  32.567  28.003  1.00  0.00     0.198 A 
ATOM     43  F   UNL A   1      37.571  33.176  29.125  1.00  0.00    -0.203 F 
ATOM     44  F   UNL A   1      33.967  29.350  27.650  1.00  0.00    -0.200 F 
ATOM     45  C   UNL A   1      34.670  31.603  27.626  1.00  0.00     0.200 A 
ATOM     46  F   UNL A   1      35.426  33.839  27.611  1.00  0.00    -0.200 F 
ATOM     47  F   UNL A   1      33.619  31.938  26.866  1.00  0.00    -0.200 F 
ENDBRANCH  23  37
BRANCH  24  48
ATOM     48  C   UNL A   1      44.365  27.666  35.011  1.00  0.00     0.064 A 
ATOM     49  C   UNL A   1      45.613  28.295  35.059  1.00  0.00     0.173 A 
ATOM     50  C   UNL A   1      44.142  26.581  35.876  1.00  0.00     0.173 A 
ATOM     51  F   UNL A   1      45.873  29.328  34.244  1.00  0.00    -0.203 F 
ATOM     52  C   UNL A   1      46.594  27.872  35.953  1.00  0.00     0.198 A 
ATOM     53  C   UNL A   1      45.112  26.178  36.788  1.00  0.00     0.198 A 
ATOM     54  F   UNL A   1      42.956  25.954  35.874  1.00  0.00    -0.203 F 
ATOM     55  F   UNL A   1      47.783  28.488  35.978  1.00  0.00    -0.200 F 
ATOM     56  C   UNL A   1      46.338  26.824  36.827  1.00  0.00     0.200 A 
ATOM     57  F   UNL A   1      44.848  25.185  37.648  1.00  0.00    -0.200 F 
ATOM     58  F   UNL A   1      47.269  26.443  37.711  1.00  0.00    -0.200 F 
ENDBRANCH  24  48
BRANCH  36  59
ATOM     59  C   UNL A   1      39.189  32.273  35.926  1.00  0.00     0.064 A 
ATOM     60  C   UNL A   1      38.325  31.832  36.941  1.00  0.00     0.173 A 
ATOM     61  C   UNL A   1      39.722  33.566  36.032  1.00  0.00     0.173 A 
ATOM     62  F   UNL A   1      37.778  30.609  36.879  1.00  0.00    -0.203 F 
ATOM     63  C   UNL A   1      37.985  32.667  38.001  1.00  0.00     0.198 A 
ATOM     64  C   UNL A   1      39.409  34.384  37.113  1.00  0.00     0.198 A 
ATOM     65  F   UNL A   1      40.559  34.032  35.093  1.00  0.00    -0.203 F 
ATOM     66  F   UNL A   1      37.113  32.246  38.928  1.00  0.00    -0.200 F 
ATOM     67  C   UNL A   1      38.533  33.937  38.092  1.00  0.00     0.200 A 
ATOM     68  F   UNL A   1      39.953  35.604  37.207  1.00  0.00    -0.200 F 
ATOM     69  F   UNL A   1      38.211  34.736  39.117  1.00  0.00    -0.200 F 
ENDBRANCH  36  59
ENDBRANCH  10  11
ENDBRANCH   3   5
ENDBRANCH   2   3
ENDBRANCH   1   2
BRANCH   1  70
ATOM     70  C   UNL A   1      42.845  21.084  26.112  1.00  0.00     0.275 C 
BRANCH  70  71
ATOM     71  O   UNL A   1      41.470  21.289  25.749  1.00  0.00    -0.458 OA
BRANCH  71  72
ATOM     72  C   UNL A   1      40.587  21.322  26.789  1.00  0.00     0.338 C 
ATOM     73  O   UNL A   1      40.777  20.905  27.914  1.00  0.00    -0.246 OA
BRANCH  72  74
ATOM     74  C   UNL A   1      39.359  22.049  26.361  1.00  0.00     0.062 A 
ATOM     75  C   UNL A   1      39.132  23.435  26.742  1.00  0.00     0.018 A 
ATOM     76  C   UNL A   1      38.474  21.335  25.644  1.00  0.00     0.046 A 
ATOM     77  C   UNL A   1      37.981  24.079  26.501  1.00  0.00     0.031 A 
ATOM     78  C   UNL A   1      37.153  21.939  25.420  1.00  0.00     0.087 A 
ATOM     79  C   UNL A   1      36.895  23.314  25.894  1.00  0.00     0.086 A 
ATOM     80  N   UNL A   1      36.092  21.390  24.936  1.00  0.00    -0.247 NA
ATOM     81  N   UNL A   1      35.668  23.665  25.747  1.00  0.00    -0.247 NA
ATOM     82  C   UNL A   1      35.046  22.471  25.082  1.00  0.00     0.326 C 
BRANCH  82  83
ATOM     83  C   UNL A   1      34.381  22.847  23.732  1.00  0.00     0.431 C 
ATOM     84  F   UNL A   1      33.484  21.909  23.341  1.00  0.00    -0.167 F 
ATOM     85  F   UNL A   1      33.725  24.029  23.812  1.00  0.00    -0.167 F 
ATOM     86  F   UNL A   1      35.299  22.950  22.740  1.00  0.00    -0.167 F 
ENDBRANCH  82  83
ENDBRANCH  72  74
ENDBRANCH  71  72
ENDBRANCH  70  71
ENDBRANCH   1  70
TORSDOF 12
ENDMDL
MODEL 2
REMARK VINA RESULT:     -11.6      4.152      9.458
REMARK SMILES O=C(OCCOC(=O)c1ccc2c(c1)=N[C@H](C(F)(F)F)N=2)c1ccc(-c2c3nc(c(-c4c(F)c(F)c(F)c(F)c4F)c4ccc([nH]4)c(-c4c(F)c(F)c(F)c(F)c4F)c4nc(c(-c5c(F)c(F)c(F)c(F)c5F)c5ccc2[nH]5)C=C4)C=C3)cc1
REMARK SMILES IDX 4 1 3 2 2 3 1 4 22 5 23 6 84 7 24 8 83 9 25 10 26 11 27 12
REMARK SMILES IDX 77 13 28 14 82 15 76 16 78 17 29 18 81 19 75 20 74 21 30 23
REMARK SMILES IDX 62 24 42 25 61 26 43 27 46 28 60 29 79 30 44 31 45 32 59 34
REMARK SMILES IDX 80 35 47 36 31 37 32 38 40 39 33 40 34 41 38 42 41 43 35 44
REMARK SMILES IDX 36 45 39 46 37 47 63 48 64 49 72 50 65 51 66 52 70 53 73 54
REMARK SMILES IDX 67 55 68 56 71 57 69 58 48 59 49 60 57 61 50 62 51 63 55 64
REMARK SMILES IDX 58 65 52 66 53 67 56 68 54 69 5 70 6 71 7 72 8 73 9 74 10 75
REMARK SMILES IDX 14 76 11 77 13 78 12 79 15 80 21 81 16 82 17 83 18 84 19 85
REMARK SMILES IDX 20 86
REMARK H PARENT 78 22 46 33
REMARK Flexibility Score: inf
ROOT
ATOM      1  C   UNL A   1      32.432  33.102  26.827  1.00  0.00     0.275 C 
ENDROOT
BRANCH   1   2
ATOM      2  O   UNL A   1      32.152  34.172  27.747  1.00  0.00    -0.458 OA
BRANCH   2   3
ATOM      3  C   UNL A   1      32.954  34.736  28.680  1.00  0.00     0.338 C 
ATOM      4  O   UNL A   1      32.745  35.900  29.018  1.00  0.00    -0.246 OA
BRANCH   3   5
ATOM      5  C   UNL A   1      34.208  34.085  29.172  1.00  0.00     0.060 A 
ATOM      6  C   UNL A   1      34.040  33.110  30.167  1.00  0.00     0.016 A 
ATOM      7  C   UNL A   1      35.510  34.368  28.752  1.00  0.00     0.016 A 
ATOM      8  C   UNL A   1      35.142  32.556  30.822  1.00  0.00     0.010 A 
ATOM      9  C   UNL A   1      36.618  33.806  29.399  1.00  0.00     0.010 A 
ATOM     10  C   UNL A   1      36.445  32.922  30.463  1.00  0.00    -0.014 A 
BRANCH  10  11
ATOM     11  C   UNL A   1      37.604  32.225  31.066  1.00  0.00     0.031 A 
ATOM     12  C   UNL A   1      38.184  32.605  32.396  1.00  0.00     0.074 A 
ATOM     13  C   UNL A   1      38.136  31.210  30.365  1.00  0.00     0.049 A 
ATOM     14  N   UNL A   1      39.020  31.932  33.146  1.00  0.00    -0.248 NA
ATOM     15  C   UNL A   1      37.761  33.884  32.983  1.00  0.00     0.031 C 
ATOM     16  C   UNL A   1      37.674  30.771  29.047  1.00  0.00     0.029 A 
ATOM     17  N   UNL A   1      39.177  30.373  30.655  1.00  0.00    -0.354 N 
ATOM     18  C   UNL A   1      39.103  32.627  34.344  1.00  0.00     0.074 A 
ATOM     19  C   UNL A   1      38.319  33.832  34.188  1.00  0.00     0.031 C 
ATOM     20  C   UNL A   1      38.423  29.737  28.646  1.00  0.00     0.029 A 
ATOM     21  C   UNL A   1      39.444  29.479  29.654  1.00  0.00     0.049 A 
ATOM     22  H   UNL A   1      39.684  30.411  31.498  1.00  0.00     0.167 HD
ATOM     23  C   UNL A   1      39.769  32.279  35.471  1.00  0.00     0.037 A 
ATOM     24  C   UNL A   1      40.422  28.564  29.548  1.00  0.00     0.037 A 
ATOM     25  C   UNL A   1      40.749  31.223  35.517  1.00  0.00     0.049 A 
ATOM     26  C   UNL A   1      41.369  28.394  30.696  1.00  0.00     0.074 A 
ATOM     27  C   UNL A   1      41.582  30.854  36.558  1.00  0.00     0.029 A 
ATOM     28  N   UNL A   1      41.087  30.422  34.433  1.00  0.00    -0.354 N 
ATOM     29  N   UNL A   1      41.344  28.966  31.875  1.00  0.00    -0.248 NA
ATOM     30  C   UNL A   1      42.475  27.455  30.499  1.00  0.00     0.031 C 
ATOM     31  C   UNL A   1      42.498  29.914  36.068  1.00  0.00     0.029 A 
ATOM     32  C   UNL A   1      42.182  29.633  34.748  1.00  0.00     0.049 A 
ATOM     33  H   UNL A   1      40.618  30.416  33.568  1.00  0.00     0.167 HD
ATOM     34  C   UNL A   1      42.422  28.445  32.574  1.00  0.00     0.074 A 
ATOM     35  C   UNL A   1      43.068  27.498  31.685  1.00  0.00     0.031 C 
ATOM     36  C   UNL A   1      42.834  28.722  33.837  1.00  0.00     0.037 A 
BRANCH  23  37
ATOM     37  C   UNL A   1      39.494  33.065  36.720  1.00  0.00     0.064 A 
ATOM     38  C   UNL A   1      40.205  34.244  36.997  1.00  0.00     0.173 A 
ATOM     39  C   UNL A   1      38.479  32.692  37.613  1.00  0.00     0.173 A 
ATOM     40  F   UNL A   1      41.201  34.639  36.189  1.00  0.00    -0.203 F 
ATOM     41  C   UNL A   1      39.910  35.018  38.120  1.00  0.00     0.198 A 
ATOM     42  C   UNL A   1      38.179  33.474  38.727  1.00  0.00     0.198 A 
ATOM     43  F   UNL A   1      37.774  31.571  37.402  1.00  0.00    -0.203 F 
ATOM     44  F   UNL A   1      40.617  36.129  38.373  1.00  0.00    -0.200 F 
ATOM     45  C   UNL A   1      38.893  34.636  38.980  1.00  0.00     0.200 A 
ATOM     46  F   UNL A   1      37.196  33.101  39.560  1.00  0.00    -0.200 F 
ATOM     47  F   UNL A   1      38.609  35.379  40.058  1.00  0.00    -0.200 F 
ENDBRANCH  23  37
BRANCH  24  48
ATOM     48  C   UNL A   1      40.512  27.763  28.305  1.00  0.00     0.064 A 
ATOM     49  C   UNL A   1      41.263  28.213  27.213  1.00  0.00     0.173 A 
ATOM     50  C   UNL A   1      39.945  26.480  28.228  1.00  0.00     0.173 A 
ATOM     51  F   UNL A   1      41.812  29.436  27.239  1.00  0.00    -0.203 F 
ATOM     52  C   UNL A   1      41.460  27.403  26.097  1.00  0.00     0.198 A 
ATOM     53  C   UNL A   1      40.167  25.661  27.126  1.00  0.00     0.198 A 
ATOM     54  F   UNL A   1      39.227  26.001  29.256  1.00  0.00    -0.203 F 
ATOM     55  F   UNL A   1      42.179  27.857  25.063  1.00  0.00    -0.200 F 
ATOM     56  C   UNL A   1      40.925  26.123  26.061  1.00  0.00     0.200 A 
ATOM     57  F   UNL A   1      39.672  24.416  27.109  1.00  0.00    -0.200 F 
ATOM     58  F   UNL A   1      41.147  25.331  25.003  1.00  0.00    -0.200 F 
ENDBRANCH  24  48
BRANCH  36  59
ATOM     59  C   UNL A   1      44.055  28.000  34.324  1.00  0.00     0.064 A 
ATOM     60  C   UNL A   1      45.334  28.566  34.210  1.00  0.00     0.173 A 
ATOM     61  C   UNL A   1      43.945  26.744  34.939  1.00  0.00     0.173 A 
ATOM     62  F   UNL A   1      45.494  29.760  33.617  1.00  0.00    -0.203 F 
ATOM     63  C   UNL A   1      46.460  27.887  34.666  1.00  0.00     0.198 A 
ATOM     64  C   UNL A   1      45.069  26.084  35.427  1.00  0.00     0.198 A 
ATOM     65  F   UNL A   1      42.744  26.162  35.080  1.00  0.00    -0.203 F 
ATOM     66  F   UNL A   1      47.677  28.422  34.495  1.00  0.00    -0.200 F 
ATOM     67  C   UNL A   1      46.326  26.651  35.281  1.00  0.00     0.200 A 
ATOM     68  F   UNL A   1      44.935  24.899  36.036  1.00  0.00    -0.200 F 
ATOM     69  F   UNL A   1      47.409  26.002  35.726  1.00  0.00    -0.200 F 
ENDBRANCH  36  59
ENDBRANCH  10  11
ENDBRANCH   3   5
ENDBRANCH   2   3
ENDBRANCH   1   2
BRANCH   1  70
ATOM     70  C   UNL A   1      31.443  31.933  26.882  1.00  0.00     0.275 C 
BRANCH  70  71
ATOM     71  O   UNL A   1      31.919  30.733  26.249  1.00  0.00    -0.458 OA
BRANCH  71  72
ATOM     72  C   UNL A   1      32.887  30.054  26.930  1.00  0.00     0.338 C 
ATOM     73  O   UNL A   1      33.658  30.516  27.746  1.00  0.00    -0.246 OA
BRANCH  72  74
ATOM     74  C   UNL A   1      32.797  28.607  26.588  1.00  0.00     0.062 A 
ATOM     75  C   UNL A   1      33.831  27.951  25.803  1.00  0.00     0.018 A 
ATOM     76  C   UNL A   1      31.691  27.971  27.016  1.00  0.00     0.046 A 
ATOM     77  C   UNL A   1      33.719  26.693  25.354  1.00  0.00     0.031 A 
ATOM     78  C   UNL A   1      31.452  26.620  26.490  1.00  0.00     0.087 A 
ATOM     79  C   UNL A   1      32.462  25.994  25.614  1.00  0.00     0.086 A 
ATOM     80  N   UNL A   1      30.393  25.894  26.598  1.00  0.00    -0.247 NA
ATOM     81  N   UNL A   1      32.068  24.873  25.126  1.00  0.00    -0.247 NA
ATOM     82  C   UNL A   1      30.711  24.688  25.746  1.00  0.00     0.326 C 
BRANCH  82  83
ATOM     83  C   UNL A   1      30.618  23.355  26.534  1.00  0.00     0.431 C 
ATOM     84  F   UNL A   1      29.469  23.281  27.250  1.00  0.00    -0.167 F 
ATOM     85  F   UNL A   1      30.651  22.283  25.707  1.00  0.00    -0.167 F 
ATOM     86  F   UNL A   1      31.640  23.229  27.416  1.00  0.00    -0.167 F 
ENDBRANCH  82  83
ENDBRANCH  72  74
ENDBRANCH  71  72
ENDBRANCH  70  71
ENDBRANCH   1  70
TORSDOF 12
ENDMDL
MODEL 3
REMARK VINA RESULT:     -11.5      4.341      9.337
REMARK SMILES O=C(OCCOC(=O)c1ccc2c(c1)=N[C@H](C(F)(F)F)N=2)c1ccc(-c2c3nc(c(-c4c(F)c(F)c(F)c(F)c4F)c4ccc([nH]4)c(-c4c(F)c(F)c(F)c(F)c4F)c4nc(c(-c5c(F)c(F)c(F)c(F)c5F)c5ccc2[nH]5)C=C4)C=C3)cc1
REMARK SMILES IDX 4 1 3 2 2 3 1 4 22 5 23 6 84 7 24 8 83 9 25 10 26 11 27 12
REMARK SMILES IDX 77 13 28 14 82 15 76 16 78 17 29 18 81 19 75 20 74 21 30 23
REMARK SMILES IDX 62 24 42 25 61 26 43 27 46 28 60 29 79 30 44 31 45 32 59 34
REMARK SMILES IDX 80 35 47 36 31 37 32 38 40 39 33 40 34 41 38 42 41 43 35 44
REMARK SMILES IDX 36 45 39 46 37 47 63 48 64 49 72 50 65 51 66 52 70 53 73 54
REMARK SMILES IDX 67 55 68 56 71 57 69 58 48 59 49 60 57 61 50 62 51 63 55 64
REMARK SMILES IDX 58 65 52 66 53 67 56 68 54 69 5 70 6 71 7 72 8 73 9 74 10 75
REMARK SMILES IDX 14 76 11 77 13 78 12 79 15 80 21 81 16 82 17 83 18 84 19 85
REMARK SMILES IDX 20 86
REMARK H PARENT 78 22 46 33
REMARK Flexibility Score: inf
ROOT
ATOM      1  C   UNL A   1      32.904  35.292  29.177  1.00  0.00     0.275 C 
ENDROOT
BRANCH   1   2
ATOM      2  O   UNL A   1      32.740  36.141  30.325  1.00  0.00    -0.458 OA
BRANCH   2   3
ATOM      3  C   UNL A   1      32.872  35.846  31.640  1.00  0.00     0.338 C 
ATOM      4  O   UNL A   1      32.167  36.437  32.456  1.00  0.00    -0.246 OA
BRANCH   3   5
ATOM      5  C   UNL A   1      33.976  34.987  32.171  1.00  0.00     0.060 A 
ATOM      6  C   UNL A   1      35.278  35.468  31.961  1.00  0.00     0.016 A 
ATOM      7  C   UNL A   1      33.833  33.762  32.827  1.00  0.00     0.016 A 
ATOM      8  C   UNL A   1      36.391  34.679  32.258  1.00  0.00     0.010 A 
ATOM      9  C   UNL A   1      34.948  32.973  33.137  1.00  0.00     0.010 A 
ATOM     10  C   UNL A   1      36.235  33.407  32.824  1.00  0.00    -0.014 A 
BRANCH  10  11
ATOM     11  C   UNL A   1      37.422  32.640  33.264  1.00  0.00     0.031 A 
ATOM     12  C   UNL A   1      37.940  31.442  32.526  1.00  0.00     0.074 A 
ATOM     13  C   UNL A   1      38.043  33.065  34.378  1.00  0.00     0.049 A 
ATOM     14  N   UNL A   1      39.096  30.839  32.653  1.00  0.00    -0.248 NA
ATOM     15  C   UNL A   1      37.075  30.850  31.496  1.00  0.00     0.031 C 
ATOM     16  C   UNL A   1      37.612  34.201  35.194  1.00  0.00     0.029 A 
ATOM     17  N   UNL A   1      39.155  32.592  35.016  1.00  0.00    -0.354 N 
ATOM     18  C   UNL A   1      39.154  29.906  31.627  1.00  0.00     0.074 A 
ATOM     19  C   UNL A   1      37.877  29.942  30.950  1.00  0.00     0.031 C 
ATOM     20  C   UNL A   1      38.457  34.344  36.222  1.00  0.00     0.029 A 
ATOM     21  C   UNL A   1      39.453  33.282  36.160  1.00  0.00     0.049 A 
ATOM     22  H   UNL A   1      39.687  31.831  34.686  1.00  0.00     0.167 HD
ATOM     23  C   UNL A   1      40.189  29.103  31.284  1.00  0.00     0.037 A 
ATOM     24  C   UNL A   1      40.412  33.066  37.076  1.00  0.00     0.037 A 
ATOM     25  C   UNL A   1      41.341  28.892  32.124  1.00  0.00     0.049 A 
ATOM     26  C   UNL A   1      41.387  31.954  36.842  1.00  0.00     0.074 A 
ATOM     27  C   UNL A   1      42.394  28.011  31.952  1.00  0.00     0.029 A 
ATOM     28  N   UNL A   1      41.540  29.516  33.350  1.00  0.00    -0.354 N 
ATOM     29  N   UNL A   1      41.508  31.171  35.796  1.00  0.00    -0.248 NA
ATOM     30  C   UNL A   1      42.355  31.694  37.910  1.00  0.00     0.031 C 
ATOM     31  C   UNL A   1      43.162  28.020  33.123  1.00  0.00     0.029 A 
ATOM     32  C   UNL A   1      42.640  28.968  33.990  1.00  0.00     0.049 A 
ATOM     33  H   UNL A   1      40.981  30.242  33.710  1.00  0.00     0.167 HD
ATOM     34  C   UNL A   1      42.578  30.333  36.069  1.00  0.00     0.074 A 
ATOM     35  C   UNL A   1      43.078  30.719  37.376  1.00  0.00     0.031 C 
ATOM     36  C   UNL A   1      43.101  29.341  35.306  1.00  0.00     0.037 A 
BRANCH  23  37
ATOM     37  C   UNL A   1      40.103  28.368  29.977  1.00  0.00     0.064 A 
ATOM     38  C   UNL A   1      40.704  28.890  28.820  1.00  0.00     0.173 A 
ATOM     39  C   UNL A   1      39.485  27.113  29.880  1.00  0.00     0.173 A 
ATOM     40  F   UNL A   1      41.292  30.096  28.849  1.00  0.00    -0.203 F 
ATOM     41  C   UNL A   1      40.690  28.183  27.617  1.00  0.00     0.198 A 
ATOM     42  C   UNL A   1      39.483  26.404  28.680  1.00  0.00     0.198 A 
ATOM     43  F   UNL A   1      38.889  26.571  30.952  1.00  0.00    -0.203 F 
ATOM     44  F   UNL A   1      41.253  28.711  26.522  1.00  0.00    -0.200 F 
ATOM     45  C   UNL A   1      40.084  26.938  27.551  1.00  0.00     0.200 A 
ATOM     46  F   UNL A   1      38.895  25.200  28.617  1.00  0.00    -0.200 F 
ATOM     47  F   UNL A   1      40.071  26.258  26.396  1.00  0.00    -0.200 F 
ENDBRANCH  23  37
BRANCH  24  48
ATOM     48  C   UNL A   1      40.464  33.944  38.268  1.00  0.00     0.064 A 
ATOM     49  C   UNL A   1      41.239  35.109  38.269  1.00  0.00     0.173 A 
ATOM     50  C   UNL A   1      39.648  33.696  39.384  1.00  0.00     0.173 A 
ATOM     51  F   UNL A   1      42.041  35.380  37.229  1.00  0.00    -0.203 F 
ATOM     52  C   UNL A   1      41.184  36.004  39.335  1.00  0.00     0.198 A 
ATOM     53  C   UNL A   1      39.572  34.605  40.435  1.00  0.00     0.198 A 
ATOM     54  F   UNL A   1      38.878  32.598  39.422  1.00  0.00    -0.203 F 
ATOM     55  F   UNL A   1      41.938  37.111  39.316  1.00  0.00    -0.200 F 
ATOM     56  C   UNL A   1      40.339  35.759  40.409  1.00  0.00     0.200 A 
ATOM     57  F   UNL A   1      38.734  34.377  41.455  1.00  0.00    -0.200 F 
ATOM     58  F   UNL A   1      40.260  36.640  41.416  1.00  0.00    -0.200 F 
ENDBRANCH  24  48
BRANCH  36  59
ATOM     59  C   UNL A   1      44.268  28.590  35.877  1.00  0.00     0.064 A 
ATOM     60  C   UNL A   1      45.589  28.997  35.634  1.00  0.00     0.173 A 
ATOM     61  C   UNL A   1      44.064  27.474  36.701  1.00  0.00     0.173 A 
ATOM     62  F   UNL A   1      45.837  30.050  34.841  1.00  0.00    -0.203 F 
ATOM     63  C   UNL A   1      46.663  28.293  36.169  1.00  0.00     0.198 A 
ATOM     64  C   UNL A   1      45.140  26.794  37.265  1.00  0.00     0.198 A 
ATOM     65  F   UNL A   1      42.820  27.049  36.971  1.00  0.00    -0.203 F 
ATOM     66  F   UNL A   1      47.917  28.664  35.877  1.00  0.00    -0.200 F 
ATOM     67  C   UNL A   1      46.438  27.198  36.991  1.00  0.00     0.200 A 
ATOM     68  F   UNL A   1      44.919  25.748  38.072  1.00  0.00    -0.200 F 
ATOM     69  F   UNL A   1      47.473  26.526  37.512  1.00  0.00    -0.200 F 
ENDBRANCH  36  59
ENDBRANCH  10  11
ENDBRANCH   3   5
ENDBRANCH   2   3
ENDBRANCH   1   2
BRANCH   1  70
ATOM     70  C   UNL A   1      34.245  35.445  28.451  1.00  0.00     0.275 C 
BRANCH  70  71
ATOM     71  O   UNL A   1      34.627  34.296  27.676  1.00  0.00    -0.458 OA
BRANCH  71  72
ATOM     72  C   UNL A   1      35.521  33.456  28.274  1.00  0.00     0.338 C 
ATOM     73  O   UNL A   1      36.452  33.776  28.985  1.00  0.00    -0.246 OA
BRANCH  72  74
ATOM     74  C   UNL A   1      35.121  32.047  28.001  1.00  0.00     0.062 A 
ATOM     75  C   UNL A   1      36.100  30.971  28.002  1.00  0.00     0.018 A 
ATOM     76  C   UNL A   1      33.821  31.850  27.719  1.00  0.00     0.046 A 
ATOM     77  C   UNL A   1      35.810  29.719  27.622  1.00  0.00     0.031 A 
ATOM     78  C   UNL A   1      33.441  30.526  27.205  1.00  0.00     0.087 A 
ATOM     79  C   UNL A   1      34.462  29.463  27.118  1.00  0.00     0.086 A 
ATOM     80  N   UNL A   1      32.317  30.156  26.696  1.00  0.00    -0.247 NA
ATOM     81  N   UNL A   1      34.026  28.405  26.535  1.00  0.00    -0.247 NA
ATOM     82  C   UNL A   1      32.591  28.742  26.242  1.00  0.00     0.326 C 
BRANCH  82  83
ATOM     83  C   UNL A   1      31.620  27.711  26.874  1.00  0.00     0.431 C 
ATOM     84  F   UNL A   1      31.033  28.202  27.993  1.00  0.00    -0.167 F 
ATOM     85  F   UNL A   1      30.632  27.365  26.014  1.00  0.00    -0.167 F 
ATOM     86  F   UNL A   1      32.269  26.577  27.236  1.00  0.00    -0.167 F 
ENDBRANCH  82  83
ENDBRANCH  72  74
ENDBRANCH  71  72
ENDBRANCH  70  71
ENDBRANCH   1  70
TORSDOF 12
ENDMDL
