MODEL 1
REMARK VINA RESULT:     -12.4      0.000      0.000
REMARK SMILES COc1cc(CC(=O)N2CCC[C@H]2C(=O)OCCOC(=O)c2ccc(-c3c4nc(c(-c5c(F)c(F)c(F)c(F)c5F)c5ccc([nH]5)c(-c5c(F)c(F)c(F)c(F)c5F)c5nc(c(-c6c(F)c(F)c(F)c(F)c6F)c6ccc3[nH]6)C=C5)C=C4)cc2)ccc1C
REMARK SMILES IDX 17 1 16 2 14 3 15 4 13 5 9 6 10 7 11 8 12 9 7 10 8 11 6 12
REMARK SMILES IDX 5 13 3 14 4 15 87 16 86 17 88 18 85 19 2 20 1 21 18 22 19 23
REMARK SMILES IDX 20 24 21 25 22 26 23 27 84 28 24 29 83 30 25 31 26 32 27 33
REMARK SMILES IDX 77 34 28 35 82 36 76 37 78 38 29 39 81 40 75 41 74 42 30 44
REMARK SMILES IDX 62 45 42 46 61 47 43 48 46 49 60 50 79 51 44 52 45 53 59 55
REMARK SMILES IDX 80 56 47 57 31 58 32 59 40 60 33 61 34 62 38 63 41 64 35 65
REMARK SMILES IDX 36 66 39 67 37 68 63 69 64 70 72 71 65 72 66 73 70 74 73 75
REMARK SMILES IDX 67 76 68 77 71 78 69 79 48 80 49 81 57 82 50 83 51 84 55 85
REMARK SMILES IDX 58 86 52 87 53 88 56 89 54 90
REMARK H PARENT 78 43 46 54
REMARK Flexibility Score: inf
ROOT
ATOM      1  C   UNL A   1      38.069  22.545  25.715  1.00  0.00     0.274 C 
ENDROOT
BRANCH   1   2
ATOM      2  O   UNL A   1      37.108  21.477  25.634  1.00  0.00    -0.461 OA
BRANCH   2   3
ATOM      3  C   UNL A   1      36.029  21.665  24.826  1.00  0.00     0.328 C 
ATOM      4  O   UNL A   1      36.091  22.109  23.689  1.00  0.00    -0.250 OA
BRANCH   3   5
ATOM      5  C   UNL A   1      34.766  21.126  25.519  1.00  0.00     0.195 C 
ATOM      6  N   UNL A   1      33.655  22.064  25.541  1.00  0.00    -0.329 N 
ATOM      7  C   UNL A   1      32.790  21.849  24.408  1.00  0.00     0.120 C 
ATOM      8  C   UNL A   1      32.894  20.360  24.142  1.00  0.00     0.024 C 
ATOM      9  C   UNL A   1      34.232  19.919  24.744  1.00  0.00     0.039 C 
BRANCH   6  10
ATOM     10  C   UNL A   1      33.662  23.156  26.371  1.00  0.00     0.227 C 
ATOM     11  O   UNL A   1      34.485  23.246  27.278  1.00  0.00    -0.275 OA
BRANCH  10  12
ATOM     12  C   UNL A   1      32.616  24.242  26.178  1.00  0.00     0.135 C 
BRANCH  12  13
ATOM     13  C   UNL A   1      33.177  25.430  25.452  1.00  0.00    -0.035 A 
ATOM     14  C   UNL A   1      33.526  27.828  25.388  1.00  0.00     0.122 A 
ATOM     15  C   UNL A   1      33.291  26.659  26.112  1.00  0.00     0.051 A 
ATOM     16  C   UNL A   1      33.661  27.761  23.993  1.00  0.00    -0.009 A 
ATOM     17  C   UNL A   1      33.690  26.508  23.362  1.00  0.00     0.007 A 
ATOM     18  C   UNL A   1      33.745  28.986  23.132  1.00  0.00     0.048 C 
ATOM     19  C   UNL A   1      33.460  25.346  24.087  1.00  0.00     0.005 A 
BRANCH  14  20
ATOM     20  O   UNL A   1      33.517  29.069  25.970  1.00  0.00    -0.496 OA
ATOM     21  C   UNL A   1      32.326  29.389  26.684  1.00  0.00     0.278 C 
ENDBRANCH  14  20
ENDBRANCH  12  13
ENDBRANCH  10  12
ENDBRANCH   6  10
ENDBRANCH   3   5
ENDBRANCH   2   3
ENDBRANCH   1   2
BRANCH   1  22
ATOM     22  C   UNL A   1      39.410  22.147  26.369  1.00  0.00     0.275 C 
BRANCH  22  23
ATOM     23  O   UNL A   1      39.823  22.912  27.530  1.00  0.00    -0.458 OA
BRANCH  23  24
ATOM     24  C   UNL A   1      40.964  23.651  27.446  1.00  0.00     0.338 C 
ATOM     25  O   UNL A   1      42.094  23.193  27.444  1.00  0.00    -0.246 OA
BRANCH  24  26
ATOM     26  C   UNL A   1      40.642  25.087  27.588  1.00  0.00     0.060 A 
ATOM     27  C   UNL A   1      40.806  25.995  26.531  1.00  0.00     0.016 A 
ATOM     28  C   UNL A   1      40.088  25.504  28.798  1.00  0.00     0.016 A 
ATOM     29  C   UNL A   1      40.346  27.301  26.660  1.00  0.00     0.010 A 
ATOM     30  C   UNL A   1      39.489  26.729  28.884  1.00  0.00     0.010 A 
ATOM     31  C   UNL A   1      39.728  27.656  27.859  1.00  0.00    -0.014 A 
BRANCH  31  32
ATOM     32  C   UNL A   1      39.871  28.983  28.428  1.00  0.00     0.031 A 
ATOM     33  C   UNL A   1      38.775  29.944  28.521  1.00  0.00     0.074 A 
ATOM     34  C   UNL A   1      40.940  28.998  29.257  1.00  0.00     0.049 A 
ATOM     35  N   UNL A   1      38.945  31.165  28.891  1.00  0.00    -0.248 NA
ATOM     36  C   UNL A   1      37.398  29.635  28.162  1.00  0.00     0.031 C 
ATOM     37  C   UNL A   1      41.159  29.736  30.486  1.00  0.00     0.029 A 
ATOM     38  N   UNL A   1      42.099  28.217  29.117  1.00  0.00    -0.354 N 
ATOM     39  C   UNL A   1      37.699  31.673  29.180  1.00  0.00     0.074 A 
ATOM     40  C   UNL A   1      36.786  30.774  28.512  1.00  0.00     0.031 C 
ATOM     41  C   UNL A   1      42.448  29.587  30.847  1.00  0.00     0.029 A 
ATOM     42  C   UNL A   1      43.132  28.895  29.758  1.00  0.00     0.049 A 
ATOM     43  H   UNL A   1      42.167  27.352  28.653  1.00  0.00     0.167 HD
ATOM     44  C   UNL A   1      37.612  32.662  30.119  1.00  0.00     0.037 A 
ATOM     45  C   UNL A   1      44.108  29.430  28.966  1.00  0.00     0.037 A 
ATOM     46  C   UNL A   1      38.957  33.011  30.610  1.00  0.00     0.049 A 
ATOM     47  C   UNL A   1      44.064  30.937  28.989  1.00  0.00     0.074 A 
ATOM     48  C   UNL A   1      39.608  32.728  31.801  1.00  0.00     0.029 A 
ATOM     49  N   UNL A   1      39.935  33.479  29.731  1.00  0.00    -0.354 N 
ATOM     50  N   UNL A   1      42.993  31.629  29.263  1.00  0.00    -0.248 NA
ATOM     51  C   UNL A   1      45.227  31.774  28.735  1.00  0.00     0.031 C 
ATOM     52  C   UNL A   1      40.995  32.963  31.609  1.00  0.00     0.029 A 
ATOM     53  C   UNL A   1      41.187  33.422  30.315  1.00  0.00     0.049 A 
ATOM     54  H   UNL A   1      39.757  33.806  28.820  1.00  0.00     0.167 HD
ATOM     55  C   UNL A   1      43.302  32.958  29.292  1.00  0.00     0.074 A 
ATOM     56  C   UNL A   1      44.713  32.999  28.943  1.00  0.00     0.031 C 
ATOM     57  C   UNL A   1      42.371  33.906  29.614  1.00  0.00     0.037 A 
BRANCH  44  58
ATOM     58  C   UNL A   1      36.357  33.129  30.856  1.00  0.00     0.064 A 
ATOM     59  C   UNL A   1      35.460  34.023  30.219  1.00  0.00     0.173 A 
ATOM     60  C   UNL A   1      36.001  32.820  32.184  1.00  0.00     0.173 A 
ATOM     61  F   UNL A   1      35.601  34.351  28.927  1.00  0.00    -0.203 F 
ATOM     62  C   UNL A   1      34.375  34.617  30.878  1.00  0.00     0.198 A 
ATOM     63  C   UNL A   1      34.907  33.402  32.840  1.00  0.00     0.198 A 
ATOM     64  F   UNL A   1      36.673  31.938  32.922  1.00  0.00    -0.203 F 
ATOM     65  F   UNL A   1      33.598  35.492  30.225  1.00  0.00    -0.200 F 
ATOM     66  C   UNL A   1      34.106  34.315  32.194  1.00  0.00     0.200 A 
ATOM     67  F   UNL A   1      34.649  33.070  34.113  1.00  0.00    -0.200 F 
ATOM     68  F   UNL A   1      33.075  34.886  32.832  1.00  0.00    -0.200 F 
ENDBRANCH  44  58
BRANCH  45  69
ATOM     69  C   UNL A   1      44.415  28.597  27.756  1.00  0.00     0.064 A 
ATOM     70  C   UNL A   1      45.241  27.462  27.908  1.00  0.00     0.173 A 
ATOM     71  C   UNL A   1      43.674  28.685  26.570  1.00  0.00     0.173 A 
ATOM     72  F   UNL A   1      45.960  27.303  29.033  1.00  0.00    -0.203 F 
ATOM     73  C   UNL A   1      45.269  26.437  26.960  1.00  0.00     0.198 A 
ATOM     74  C   UNL A   1      43.707  27.658  25.619  1.00  0.00     0.198 A 
ATOM     75  F   UNL A   1      42.846  29.718  26.363  1.00  0.00    -0.203 F 
ATOM     76  F   UNL A   1      46.007  25.340  27.180  1.00  0.00    -0.200 F 
ATOM     77  C   UNL A   1      44.488  26.529  25.822  1.00  0.00     0.200 A 
ATOM     78  F   UNL A   1      42.925  27.730  24.531  1.00  0.00    -0.200 F 
ATOM     79  F   UNL A   1      44.457  25.521  24.938  1.00  0.00    -0.200 F 
ENDBRANCH  45  69
BRANCH  57  80
ATOM     80  C   UNL A   1      42.521  35.393  29.410  1.00  0.00     0.064 A 
ATOM     81  C   UNL A   1      43.361  36.210  30.183  1.00  0.00     0.173 A 
ATOM     82  C   UNL A   1      41.922  36.025  28.291  1.00  0.00     0.173 A 
ATOM     83  F   UNL A   1      44.091  35.713  31.188  1.00  0.00    -0.203 F 
ATOM     84  C   UNL A   1      43.532  37.567  29.902  1.00  0.00     0.198 A 
ATOM     85  C   UNL A   1      42.154  37.359  27.972  1.00  0.00     0.198 A 
ATOM     86  F   UNL A   1      41.117  35.361  27.449  1.00  0.00    -0.203 F 
ATOM     87  F   UNL A   1      44.305  38.314  30.703  1.00  0.00    -0.200 F 
ATOM     88  C   UNL A   1      42.944  38.137  28.790  1.00  0.00     0.200 A 
ATOM     89  F   UNL A   1      41.624  37.878  26.856  1.00  0.00    -0.200 F 
ATOM     90  F   UNL A   1      43.158  39.426  28.494  1.00  0.00    -0.200 F 
ENDBRANCH  57  80
ENDBRANCH  31  32
ENDBRANCH  24  26
ENDBRANCH  23  24
ENDBRANCH  22  23
ENDBRANCH   1  22
TORSDOF 15
ENDMDL
MODEL 2
REMARK VINA RESULT:     -12.2      3.716     10.163
REMARK SMILES COc1cc(CC(=O)N2CCC[C@H]2C(=O)OCCOC(=O)c2ccc(-c3c4nc(c(-c5c(F)c(F)c(F)c(F)c5F)c5ccc([nH]5)c(-c5c(F)c(F)c(F)c(F)c5F)c5nc(c(-c6c(F)c(F)c(F)c(F)c6F)c6ccc3[nH]6)C=C5)C=C4)cc2)ccc1C
REMARK SMILES IDX 17 1 16 2 14 3 15 4 13 5 9 6 10 7 11 8 12 9 7 10 8 11 6 12
REMARK SMILES IDX 5 13 3 14 4 15 87 16 86 17 88 18 85 19 2 20 1 21 18 22 19 23
REMARK SMILES IDX 20 24 21 25 22 26 23 27 84 28 24 29 83 30 25 31 26 32 27 33
REMARK SMILES IDX 77 34 28 35 82 36 76 37 78 38 29 39 81 40 75 41 74 42 30 44
REMARK SMILES IDX 62 45 42 46 61 47 43 48 46 49 60 50 79 51 44 52 45 53 59 55
REMARK SMILES IDX 80 56 47 57 31 58 32 59 40 60 33 61 34 62 38 63 41 64 35 65
REMARK SMILES IDX 36 66 39 67 37 68 63 69 64 70 72 71 65 72 66 73 70 74 73 75
REMARK SMILES IDX 67 76 68 77 71 78 69 79 48 80 49 81 57 82 50 83 51 84 55 85
REMARK SMILES IDX 58 86 52 87 53 88 56 89 54 90
REMARK H PARENT 78 43 46 54
REMARK Flexibility Score: inf
ROOT
ATOM      1  C   UNL A   1      33.768  29.340  27.190  1.00  0.00     0.274 C 
ENDROOT
BRANCH   1   2
ATOM      2  O   UNL A   1      33.357  29.363  25.812  1.00  0.00    -0.461 OA
BRANCH   2   3
ATOM      3  C   UNL A   1      32.162  28.786  25.506  1.00  0.00     0.328 C 
ATOM      4  O   UNL A   1      31.443  28.222  26.317  1.00  0.00    -0.250 OA
BRANCH   3   5
ATOM      5  C   UNL A   1      31.818  29.064  24.033  1.00  0.00     0.195 C 
ATOM      6  N   UNL A   1      32.028  27.927  23.149  1.00  0.00    -0.329 N 
ATOM      7  C   UNL A   1      30.809  27.170  23.004  1.00  0.00     0.120 C 
ATOM      8  C   UNL A   1      29.713  28.211  23.124  1.00  0.00     0.024 C 
ATOM      9  C   UNL A   1      30.327  29.378  23.904  1.00  0.00     0.039 C 
BRANCH   6  10
ATOM     10  C   UNL A   1      33.290  27.524  22.795  1.00  0.00     0.227 C 
ATOM     11  O   UNL A   1      34.206  28.338  22.714  1.00  0.00    -0.275 OA
BRANCH  10  12
ATOM     12  C   UNL A   1      33.538  26.060  22.469  1.00  0.00     0.135 C 
BRANCH  12  13
ATOM     13  C   UNL A   1      34.023  25.299  23.668  1.00  0.00    -0.035 A 
ATOM     14  C   UNL A   1      34.838  23.211  24.591  1.00  0.00     0.122 A 
ATOM     15  C   UNL A   1      34.648  24.058  23.499  1.00  0.00     0.051 A 
ATOM     16  C   UNL A   1      34.409  23.616  25.863  1.00  0.00    -0.009 A 
ATOM     17  C   UNL A   1      33.918  24.919  26.043  1.00  0.00     0.007 A 
ATOM     18  C   UNL A   1      34.422  22.698  27.049  1.00  0.00     0.048 C 
ATOM     19  C   UNL A   1      33.734  25.761  24.954  1.00  0.00     0.005 A 
BRANCH  14  20
ATOM     20  O   UNL A   1      35.325  21.937  24.457  1.00  0.00    -0.496 OA
ATOM     21  C   UNL A   1      36.745  21.838  24.406  1.00  0.00     0.278 C 
ENDBRANCH  14  20
ENDBRANCH  12  13
ENDBRANCH  10  12
ENDBRANCH   6  10
ENDBRANCH   3   5
ENDBRANCH   2   3
ENDBRANCH   1   2
BRANCH   1  22
ATOM     22  C   UNL A   1      35.218  29.815  27.430  1.00  0.00     0.275 C 
BRANCH  22  23
ATOM     23  O   UNL A   1      35.399  31.209  27.785  1.00  0.00    -0.458 OA
BRANCH  23  24
ATOM     24  C   UNL A   1      36.554  31.573  28.409  1.00  0.00     0.338 C 
ATOM     25  O   UNL A   1      36.931  32.722  28.566  1.00  0.00    -0.246 OA
BRANCH  24  26
ATOM     26  C   UNL A   1      37.386  30.377  28.661  1.00  0.00     0.060 A 
ATOM     27  C   UNL A   1      37.154  29.526  29.752  1.00  0.00     0.016 A 
ATOM     28  C   UNL A   1      38.372  30.071  27.725  1.00  0.00     0.016 A 
ATOM     29  C   UNL A   1      37.859  28.331  29.863  1.00  0.00     0.010 A 
ATOM     30  C   UNL A   1      38.955  28.836  27.730  1.00  0.00     0.010 A 
ATOM     31  C   UNL A   1      38.782  28.027  28.863  1.00  0.00    -0.014 A 
BRANCH  31  32
ATOM     32  C   UNL A   1      40.019  27.326  29.152  1.00  0.00     0.031 A 
ATOM     33  C   UNL A   1      40.336  26.000  28.631  1.00  0.00     0.074 A 
ATOM     34  C   UNL A   1      40.964  28.224  29.515  1.00  0.00     0.049 A 
ATOM     35  N   UNL A   1      41.365  25.327  29.010  1.00  0.00    -0.248 NA
ATOM     36  C   UNL A   1      39.501  25.288  27.672  1.00  0.00     0.031 C 
ATOM     37  C   UNL A   1      42.396  28.216  29.285  1.00  0.00     0.029 A 
ATOM     38  N   UNL A   1      40.731  29.441  30.176  1.00  0.00    -0.354 N 
ATOM     39  C   UNL A   1      41.534  24.307  28.100  1.00  0.00     0.074 A 
ATOM     40  C   UNL A   1      40.252  24.203  27.442  1.00  0.00     0.031 C 
ATOM     41  C   UNL A   1      42.947  29.212  30.006  1.00  0.00     0.029 A 
ATOM     42  C   UNL A   1      41.899  29.769  30.858  1.00  0.00     0.049 A 
ATOM     43  H   UNL A   1      39.897  29.964  30.159  1.00  0.00     0.167 HD
ATOM     44  C   UNL A   1      42.800  23.838  27.891  1.00  0.00     0.037 A 
ATOM     45  C   UNL A   1      41.862  29.699  32.221  1.00  0.00     0.037 A 
ATOM     46  C   UNL A   1      43.752  24.544  28.768  1.00  0.00     0.049 A 
ATOM     47  C   UNL A   1      42.728  28.575  32.733  1.00  0.00     0.074 A 
ATOM     48  C   UNL A   1      44.690  25.530  28.508  1.00  0.00     0.029 A 
ATOM     49  N   UNL A   1      43.610  24.495  30.155  1.00  0.00    -0.354 N 
ATOM     50  N   UNL A   1      43.039  27.519  32.032  1.00  0.00    -0.248 NA
ATOM     51  C   UNL A   1      43.330  28.570  34.057  1.00  0.00     0.031 C 
ATOM     52  C   UNL A   1      45.061  26.121  29.745  1.00  0.00     0.029 A 
ATOM     53  C   UNL A   1      44.375  25.474  30.762  1.00  0.00     0.049 A 
ATOM     54  H   UNL A   1      43.042  23.850  30.636  1.00  0.00     0.167 HD
ATOM     55  C   UNL A   1      43.904  26.738  32.741  1.00  0.00     0.074 A 
ATOM     56  C   UNL A   1      44.048  27.434  34.009  1.00  0.00     0.031 C 
ATOM     57  C   UNL A   1      44.436  25.595  32.214  1.00  0.00     0.037 A 
BRANCH  44  58
ATOM     58  C   UNL A   1      43.289  22.990  26.717  1.00  0.00     0.064 A 
ATOM     59  C   UNL A   1      43.024  21.597  26.698  1.00  0.00     0.173 A 
ATOM     60  C   UNL A   1      44.073  23.432  25.632  1.00  0.00     0.173 A 
ATOM     61  F   UNL A   1      42.220  21.027  27.606  1.00  0.00    -0.203 F 
ATOM     62  C   UNL A   1      43.568  20.729  25.742  1.00  0.00     0.198 A 
ATOM     63  C   UNL A   1      44.605  22.566  24.667  1.00  0.00     0.198 A 
ATOM     64  F   UNL A   1      44.362  24.717  25.431  1.00  0.00    -0.203 F 
ATOM     65  F   UNL A   1      43.312  19.415  25.816  1.00  0.00    -0.200 F 
ATOM     66  C   UNL A   1      44.369  21.212  24.732  1.00  0.00     0.200 A 
ATOM     67  F   UNL A   1      45.359  23.065  23.677  1.00  0.00    -0.200 F 
ATOM     68  F   UNL A   1      44.899  20.385  23.821  1.00  0.00    -0.200 F 
ENDBRANCH  44  58
BRANCH  45  69
ATOM     69  C   UNL A   1      40.536  30.095  32.801  1.00  0.00     0.064 A 
ATOM     70  C   UNL A   1      40.212  31.468  32.871  1.00  0.00     0.173 A 
ATOM     71  C   UNL A   1      39.483  29.187  32.968  1.00  0.00     0.173 A 
ATOM     72  F   UNL A   1      41.172  32.392  32.695  1.00  0.00    -0.203 F 
ATOM     73  C   UNL A   1      38.895  31.908  33.025  1.00  0.00     0.198 A 
ATOM     74  C   UNL A   1      38.164  29.631  33.127  1.00  0.00     0.198 A 
ATOM     75  F   UNL A   1      39.704  27.868  32.889  1.00  0.00    -0.203 F 
ATOM     76  F   UNL A   1      38.621  33.220  33.007  1.00  0.00    -0.200 F 
ATOM     77  C   UNL A   1      37.869  30.987  33.137  1.00  0.00     0.200 A 
ATOM     78  F   UNL A   1      37.163  28.740  33.202  1.00  0.00    -0.200 F 
ATOM     79  F   UNL A   1      36.596  31.399  33.219  1.00  0.00    -0.200 F 
ENDBRANCH  45  69
BRANCH  57  80
ATOM     80  C   UNL A   1      45.168  24.526  32.987  1.00  0.00     0.064 A 
ATOM     81  C   UNL A   1      46.486  24.660  33.455  1.00  0.00     0.173 A 
ATOM     82  C   UNL A   1      44.483  23.365  33.428  1.00  0.00     0.173 A 
ATOM     83  F   UNL A   1      47.202  25.766  33.226  1.00  0.00    -0.203 F 
ATOM     84  C   UNL A   1      47.093  23.678  34.241  1.00  0.00     0.198 A 
ATOM     85  C   UNL A   1      45.068  22.426  34.272  1.00  0.00     0.198 A 
ATOM     86  F   UNL A   1      43.211  23.120  33.082  1.00  0.00    -0.203 F 
ATOM     87  F   UNL A   1      48.370  23.831  34.618  1.00  0.00    -0.200 F 
ATOM     88  C   UNL A   1      46.381  22.571  34.662  1.00  0.00     0.200 A 
ATOM     89  F   UNL A   1      44.343  21.392  34.719  1.00  0.00    -0.200 F 
ATOM     90  F   UNL A   1      46.951  21.662  35.463  1.00  0.00    -0.200 F 
ENDBRANCH  57  80
ENDBRANCH  31  32
ENDBRANCH  24  26
ENDBRANCH  23  24
ENDBRANCH  22  23
ENDBRANCH   1  22
TORSDOF 15
ENDMDL
MODEL 3
REMARK VINA RESULT:     -12.1      1.174      1.595
REMARK SMILES COc1cc(CC(=O)N2CCC[C@H]2C(=O)OCCOC(=O)c2ccc(-c3c4nc(c(-c5c(F)c(F)c(F)c(F)c5F)c5ccc([nH]5)c(-c5c(F)c(F)c(F)c(F)c5F)c5nc(c(-c6c(F)c(F)c(F)c(F)c6F)c6ccc3[nH]6)C=C5)C=C4)cc2)ccc1C
REMARK SMILES IDX 17 1 16 2 14 3 15 4 13 5 9 6 10 7 11 8 12 9 7 10 8 11 6 12
REMARK SMILES IDX 5 13 3 14 4 15 87 16 86 17 88 18 85 19 2 20 1 21 18 22 19 23
REMARK SMILES IDX 20 24 21 25 22 26 23 27 84 28 24 29 83 30 25 31 26 32 27 33
REMARK SMILES IDX 77 34 28 35 82 36 76 37 78 38 29 39 81 40 75 41 74 42 30 44
REMARK SMILES IDX 62 45 42 46 61 47 43 48 46 49 60 50 79 51 44 52 45 53 59 55
REMARK SMILES IDX 80 56 47 57 31 58 32 59 40 60 33 61 34 62 38 63 41 64 35 65
REMARK SMILES IDX 36 66 39 67 37 68 63 69 64 70 72 71 65 72 66 73 70 74 73 75
REMARK SMILES IDX 67 76 68 77 71 78 69 79 48 80 49 81 57 82 50 83 51 84 55 85
REMARK SMILES IDX 58 86 52 87 53 88 56 89 54 90
REMARK H PARENT 78 43 46 54
REMARK Flexibility Score: inf
ROOT
ATOM      1  C   UNL A   1      37.232  22.486  25.486  1.00  0.00     0.274 C 
ENDROOT
BRANCH   1   2
ATOM      2  O   UNL A   1      36.460  21.408  24.926  1.00  0.00    -0.461 OA
BRANCH   2   3
ATOM      3  C   UNL A   1      35.137  21.359  25.238  1.00  0.00     0.328 C 
ATOM      4  O   UNL A   1      34.402  20.419  24.972  1.00  0.00    -0.250 OA
BRANCH   3   5
ATOM      5  C   UNL A   1      34.757  22.596  26.070  1.00  0.00     0.195 C 
ATOM      6  N   UNL A   1      33.583  23.303  25.579  1.00  0.00    -0.329 N 
ATOM      7  C   UNL A   1      32.395  22.831  26.246  1.00  0.00     0.120 C 
ATOM      8  C   UNL A   1      32.878  22.445  27.630  1.00  0.00     0.024 C 
ATOM      9  C   UNL A   1      34.378  22.165  27.488  1.00  0.00     0.039 C 
BRANCH   6  10
ATOM     10  C   UNL A   1      33.636  24.065  24.440  1.00  0.00     0.227 C 
ATOM     11  O   UNL A   1      33.101  23.676  23.404  1.00  0.00    -0.275 OA
BRANCH  10  12
ATOM     12  C   UNL A   1      34.394  25.381  24.462  1.00  0.00     0.135 C 
BRANCH  12  13
ATOM     13  C   UNL A   1      33.549  26.499  25.000  1.00  0.00    -0.035 A 
ATOM     14  C   UNL A   1      31.766  28.098  24.624  1.00  0.00     0.122 A 
ATOM     15  C   UNL A   1      32.394  26.892  24.313  1.00  0.00     0.051 A 
ATOM     16  C   UNL A   1      32.293  28.909  25.640  1.00  0.00    -0.009 A 
ATOM     17  C   UNL A   1      33.362  28.436  26.416  1.00  0.00     0.007 A 
ATOM     18  C   UNL A   1      31.778  30.291  25.916  1.00  0.00     0.048 C 
ATOM     19  C   UNL A   1      33.983  27.233  26.106  1.00  0.00     0.005 A 
BRANCH  14  20
ATOM     20  O   UNL A   1      30.713  28.587  23.897  1.00  0.00    -0.496 OA
ATOM     21  C   UNL A   1      30.357  27.812  22.756  1.00  0.00     0.278 C 
ENDBRANCH  14  20
ENDBRANCH  12  13
ENDBRANCH  10  12
ENDBRANCH   6  10
ENDBRANCH   3   5
ENDBRANCH   2   3
ENDBRANCH   1   2
BRANCH   1  22
ATOM     22  C   UNL A   1      38.695  22.117  25.816  1.00  0.00     0.275 C 
BRANCH  22  23
ATOM     23  O   UNL A   1      39.266  22.710  27.009  1.00  0.00    -0.458 OA
BRANCH  23  24
ATOM     24  C   UNL A   1      40.467  23.344  26.906  1.00  0.00     0.338 C 
ATOM     25  O   UNL A   1      41.545  22.785  26.802  1.00  0.00    -0.246 OA
BRANCH  24  26
ATOM     26  C   UNL A   1      40.294  24.789  27.168  1.00  0.00     0.060 A 
ATOM     27  C   UNL A   1      40.727  25.767  26.259  1.00  0.00     0.016 A 
ATOM     28  C   UNL A   1      39.607  25.155  28.324  1.00  0.00     0.016 A 
ATOM     29  C   UNL A   1      40.406  27.104  26.472  1.00  0.00     0.010 A 
ATOM     30  C   UNL A   1      39.147  26.434  28.465  1.00  0.00     0.010 A 
ATOM     31  C   UNL A   1      39.651  27.418  27.601  1.00  0.00    -0.014 A 
BRANCH  31  32
ATOM     32  C   UNL A   1      39.853  28.652  28.337  1.00  0.00     0.031 A 
ATOM     33  C   UNL A   1      38.850  29.709  28.431  1.00  0.00     0.074 A 
ATOM     34  C   UNL A   1      40.818  28.461  29.267  1.00  0.00     0.049 A 
ATOM     35  N   UNL A   1      39.092  30.857  28.960  1.00  0.00    -0.248 NA
ATOM     36  C   UNL A   1      37.499  29.591  27.899  1.00  0.00     0.031 C 
ATOM     37  C   UNL A   1      40.963  29.034  30.591  1.00  0.00     0.029 A 
ATOM     38  N   UNL A   1      41.905  27.580  29.154  1.00  0.00    -0.354 N 
ATOM     39  C   UNL A   1      37.875  31.462  29.179  1.00  0.00     0.074 A 
ATOM     40  C   UNL A   1      36.963  30.744  28.318  1.00  0.00     0.031 C 
ATOM     41  C   UNL A   1      42.183  28.708  31.062  1.00  0.00     0.029 A 
ATOM     42  C   UNL A   1      42.918  28.070  29.973  1.00  0.00     0.049 A 
ATOM     43  H   UNL A   1      41.943  26.768  28.599  1.00  0.00     0.167 HD
ATOM     44  C   UNL A   1      37.776  32.346  30.216  1.00  0.00     0.037 A 
ATOM     45  C   UNL A   1      44.025  28.579  29.355  1.00  0.00     0.037 A 
ATOM     46  C   UNL A   1      39.083  32.493  30.880  1.00  0.00     0.049 A 
ATOM     47  C   UNL A   1      44.121  30.071  29.554  1.00  0.00     0.074 A 
ATOM     48  C   UNL A   1      39.564  32.014  32.089  1.00  0.00     0.029 A 
ATOM     49  N   UNL A   1      40.195  32.947  30.168  1.00  0.00    -0.354 N 
ATOM     50  N   UNL A   1      43.097  30.841  29.798  1.00  0.00    -0.248 NA
ATOM     51  C   UNL A   1      45.380  30.801  29.523  1.00  0.00     0.031 C 
ATOM     52  C   UNL A   1      40.980  32.118  32.070  1.00  0.00     0.029 A 
ATOM     53  C   UNL A   1      41.361  32.692  30.866  1.00  0.00     0.049 A 
ATOM     54  H   UNL A   1      40.153  33.388  29.289  1.00  0.00     0.167 HD
ATOM     55  C   UNL A   1      43.525  32.117  30.017  1.00  0.00     0.074 A 
ATOM     56  C   UNL A   1      44.964  32.044  29.822  1.00  0.00     0.031 C 
ATOM     57  C   UNL A   1      42.658  33.119  30.353  1.00  0.00     0.037 A 
BRANCH  44  58
ATOM     58  C   UNL A   1      36.495  32.862  30.871  1.00  0.00     0.064 A 
ATOM     59  C   UNL A   1      35.686  33.805  30.186  1.00  0.00     0.173 A 
ATOM     60  C   UNL A   1      36.033  32.556  32.167  1.00  0.00     0.173 A 
ATOM     61  F   UNL A   1      35.932  34.140  28.913  1.00  0.00    -0.203 F 
ATOM     62  C   UNL A   1      34.586  34.440  30.777  1.00  0.00     0.198 A 
ATOM     63  C   UNL A   1      34.924  33.180  32.753  1.00  0.00     0.198 A 
ATOM     64  F   UNL A   1      36.611  31.635  32.936  1.00  0.00    -0.203 F 
ATOM     65  F   UNL A   1      33.897  35.358  30.085  1.00  0.00    -0.200 F 
ATOM     66  C   UNL A   1      34.212  34.136  32.067  1.00  0.00     0.200 A 
ATOM     67  F   UNL A   1      34.563  32.846  34.001  1.00  0.00    -0.200 F 
ATOM     68  F   UNL A   1      33.166  34.747  32.640  1.00  0.00    -0.200 F 
ENDBRANCH  44  58
BRANCH  45  69
ATOM     69  C   UNL A   1      44.387  27.854  28.093  1.00  0.00     0.064 A 
ATOM     70  C   UNL A   1      45.036  26.605  28.193  1.00  0.00     0.173 A 
ATOM     71  C   UNL A   1      43.831  28.181  26.849  1.00  0.00     0.173 A 
ATOM     72  F   UNL A   1      45.570  26.220  29.365  1.00  0.00    -0.203 F 
ATOM     73  C   UNL A   1      45.065  25.701  27.129  1.00  0.00     0.198 A 
ATOM     74  C   UNL A   1      43.865  27.274  25.781  1.00  0.00     0.198 A 
ATOM     75  F   UNL A   1      43.174  29.336  26.680  1.00  0.00    -0.203 F 
ATOM     76  F   UNL A   1      45.624  24.493  27.290  1.00  0.00    -0.200 F 
ATOM     77  C   UNL A   1      44.463  26.030  25.927  1.00  0.00     0.200 A 
ATOM     78  F   UNL A   1      43.253  27.578  24.627  1.00  0.00    -0.200 F 
ATOM     79  F   UNL A   1      44.428  25.144  24.922  1.00  0.00    -0.200 F 
ENDBRANCH  45  69
BRANCH  57  80
ATOM     80  C   UNL A   1      42.970  34.594  30.345  1.00  0.00     0.064 A 
ATOM     81  C   UNL A   1      43.410  35.310  31.470  1.00  0.00     0.173 A 
ATOM     82  C   UNL A   1      42.988  35.315  29.123  1.00  0.00     0.173 A 
ATOM     83  F   UNL A   1      43.569  34.717  32.660  1.00  0.00    -0.203 F 
ATOM     84  C   UNL A   1      43.769  36.657  31.395  1.00  0.00     0.198 A 
ATOM     85  C   UNL A   1      43.417  36.636  29.040  1.00  0.00     0.198 A 
ATOM     86  F   UNL A   1      42.621  34.752  27.964  1.00  0.00    -0.203 F 
ATOM     87  F   UNL A   1      44.132  37.307  32.509  1.00  0.00    -0.200 F 
ATOM     88  C   UNL A   1      43.788  37.315  30.180  1.00  0.00     0.200 A 
ATOM     89  F   UNL A   1      43.488  37.238  27.845  1.00  0.00    -0.200 F 
ATOM     90  F   UNL A   1      44.189  38.590  30.105  1.00  0.00    -0.200 F 
ENDBRANCH  57  80
ENDBRANCH  31  32
ENDBRANCH  24  26
ENDBRANCH  23  24
ENDBRANCH  22  23
ENDBRANCH   1  22
TORSDOF 15
ENDMDL
