MODEL 1
REMARK VINA RESULT:     -11.6      0.000      0.000
REMARK SMILES O=C(OCCOC(=O)c1cc(/C=C/c2cc(O)cc(O)c2)ccc1O)c1ccc(-c2c3nc(c(-c4c(F)c(F)c(F)c(F)c4F)c4ccc([nH]4)c(-c4c(F)c(F)c(F)c(F)c4F)c4nc(c(-c5c(F)c(F)c(F)c(F)c5F)c5ccc2[nH]5)C=C4)C=C3)cc1
REMARK SMILES IDX 5 1 4 2 3 3 2 4 1 5 26 6 27 7 88 8 28 9 87 10 29 11 30 12
REMARK SMILES IDX 31 13 81 14 32 15 86 16 80 17 82 18 33 19 85 20 79 21 78 22
REMARK SMILES IDX 34 24 66 25 46 26 65 27 47 28 50 29 64 30 83 31 48 32 49 33
REMARK SMILES IDX 63 35 84 36 51 37 35 38 36 39 44 40 37 41 38 42 42 43 45 44
REMARK SMILES IDX 39 45 40 46 43 47 41 48 67 49 68 50 76 51 69 52 70 53 74 54
REMARK SMILES IDX 77 55 71 56 72 57 75 58 73 59 52 60 53 61 61 62 54 63 55 64
REMARK SMILES IDX 59 65 62 66 56 67 57 68 60 69 58 70 6 71 7 72 8 73 9 74
REMARK SMILES IDX 10 75 24 76 11 77 23 78 22 79 25 80 12 82 13 83 14 84 15 85
REMARK SMILES IDX 21 86 16 87 19 88 18 89 17 90 20 92
REMARK H PARENT 82 23 50 34 25 81 17 91 20 93
REMARK Flexibility Score: inf
ROOT
ATOM      1  C   UNL A   1      33.077  34.072  28.057  1.00  0.00     0.275 C 
ENDROOT
BRANCH   1   2
ATOM      2  C   UNL A   1      34.168  33.012  28.209  1.00  0.00     0.275 C 
BRANCH   2   3
ATOM      3  O   UNL A   1      33.708  31.654  28.083  1.00  0.00    -0.458 OA
BRANCH   3   4
ATOM      4  C   UNL A   1      34.352  30.548  27.649  1.00  0.00     0.338 C 
ATOM      5  O   UNL A   1      33.784  29.811  26.841  1.00  0.00    -0.246 OA
BRANCH   4   6
ATOM      6  C   UNL A   1      35.671  30.080  28.180  1.00  0.00     0.060 A 
ATOM      7  C   UNL A   1      35.933  29.637  29.478  1.00  0.00     0.016 A 
ATOM      8  C   UNL A   1      36.749  30.124  27.275  1.00  0.00     0.016 A 
ATOM      9  C   UNL A   1      37.207  29.187  29.843  1.00  0.00     0.010 A 
ATOM     10  C   UNL A   1      38.020  29.662  27.626  1.00  0.00     0.010 A 
ATOM     11  C   UNL A   1      38.255  29.195  28.920  1.00  0.00    -0.014 A 
BRANCH  11  12
ATOM     12  C   UNL A   1      39.624  28.847  29.358  1.00  0.00     0.031 A 
ATOM     13  C   UNL A   1      40.345  29.791  30.270  1.00  0.00     0.074 A 
ATOM     14  C   UNL A   1      40.192  27.687  28.982  1.00  0.00     0.049 A 
ATOM     15  N   UNL A   1      41.520  29.666  30.828  1.00  0.00    -0.248 NA
ATOM     16  C   UNL A   1      39.634  31.030  30.627  1.00  0.00     0.031 C 
ATOM     17  C   UNL A   1      39.550  26.665  28.160  1.00  0.00     0.029 A 
ATOM     18  N   UNL A   1      41.439  27.175  29.234  1.00  0.00    -0.354 N 
ATOM     19  C   UNL A   1      41.664  30.778  31.642  1.00  0.00     0.074 A 
ATOM     20  C   UNL A   1      40.498  31.611  31.444  1.00  0.00     0.031 C 
ATOM     21  C   UNL A   1      40.425  25.675  27.922  1.00  0.00     0.029 A 
ATOM     22  C   UNL A   1      41.685  25.987  28.589  1.00  0.00     0.049 A 
ATOM     23  H   UNL A   1      42.094  27.616  29.820  1.00  0.00     0.167 HD
ATOM     24  C   UNL A   1      42.661  31.057  32.513  1.00  0.00     0.037 A 
ATOM     25  C   UNL A   1      42.806  25.242  28.546  1.00  0.00     0.037 A 
ATOM     26  C   UNL A   1      43.838  30.246  32.668  1.00  0.00     0.049 A 
ATOM     27  C   UNL A   1      43.975  25.659  29.398  1.00  0.00     0.074 A 
ATOM     28  C   UNL A   1      44.927  30.447  33.494  1.00  0.00     0.029 A 
ATOM     29  N   UNL A   1      44.082  29.080  31.953  1.00  0.00    -0.354 N 
ATOM     30  N   UNL A   1      44.080  26.684  30.211  1.00  0.00    -0.248 NA
ATOM     31  C   UNL A   1      45.166  24.801  29.358  1.00  0.00     0.031 C 
ATOM     32  C   UNL A   1      45.851  29.424  33.248  1.00  0.00     0.029 A 
ATOM     33  C   UNL A   1      45.317  28.562  32.302  1.00  0.00     0.049 A 
ATOM     34  H   UNL A   1      43.466  28.681  31.296  1.00  0.00     0.167 HD
ATOM     35  C   UNL A   1      45.321  26.564  30.818  1.00  0.00     0.074 A 
ATOM     36  C   UNL A   1      45.937  25.371  30.274  1.00  0.00     0.031 C 
ATOM     37  C   UNL A   1      45.896  27.362  31.753  1.00  0.00     0.037 A 
BRANCH  24  38
ATOM     38  C   UNL A   1      42.500  32.291  33.346  1.00  0.00     0.064 A 
ATOM     39  C   UNL A   1      41.907  32.235  34.618  1.00  0.00     0.173 A 
ATOM     40  C   UNL A   1      42.905  33.543  32.864  1.00  0.00     0.173 A 
ATOM     41  F   UNL A   1      41.482  31.063  35.114  1.00  0.00    -0.203 F 
ATOM     42  C   UNL A   1      41.693  33.393  35.360  1.00  0.00     0.198 A 
ATOM     43  C   UNL A   1      42.711  34.696  33.620  1.00  0.00     0.198 A 
ATOM     44  F   UNL A   1      43.473  33.650  31.654  1.00  0.00    -0.203 F 
ATOM     45  F   UNL A   1      41.070  33.323  36.545  1.00  0.00    -0.200 F 
ATOM     46  C   UNL A   1      42.097  34.622  34.862  1.00  0.00     0.200 A 
ATOM     47  F   UNL A   1      43.104  35.884  33.139  1.00  0.00    -0.200 F 
ATOM     48  F   UNL A   1      41.880  35.738  35.572  1.00  0.00    -0.200 F 
ENDBRANCH  24  38
BRANCH  25  49
ATOM     49  C   UNL A   1      42.870  24.030  27.689  1.00  0.00     0.064 A 
ATOM     50  C   UNL A   1      43.238  24.106  26.339  1.00  0.00     0.173 A 
ATOM     51  C   UNL A   1      42.539  22.767  28.202  1.00  0.00     0.173 A 
ATOM     52  F   UNL A   1      43.552  25.292  25.798  1.00  0.00    -0.203 F 
ATOM     53  C   UNL A   1      43.246  22.972  25.528  1.00  0.00     0.198 A 
ATOM     54  C   UNL A   1      42.568  21.630  27.396  1.00  0.00     0.198 A 
ATOM     55  F   UNL A   1      42.193  22.634  29.491  1.00  0.00    -0.203 F 
ATOM     56  F   UNL A   1      43.559  23.081  24.230  1.00  0.00    -0.200 F 
ATOM     57  C   UNL A   1      42.911  21.734  26.057  1.00  0.00     0.200 A 
ATOM     58  F   UNL A   1      42.261  20.433  27.917  1.00  0.00    -0.200 F 
ATOM     59  F   UNL A   1      42.918  20.645  25.277  1.00  0.00    -0.200 F 
ENDBRANCH  25  49
BRANCH  37  60
ATOM     60  C   UNL A   1      47.233  26.937  32.282  1.00  0.00     0.064 A 
ATOM     61  C   UNL A   1      48.429  27.395  31.713  1.00  0.00     0.173 A 
ATOM     62  C   UNL A   1      47.313  26.093  33.400  1.00  0.00     0.173 A 
ATOM     63  F   UNL A   1      48.401  28.188  30.631  1.00  0.00    -0.203 F 
ATOM     64  C   UNL A   1      49.660  27.006  32.232  1.00  0.00     0.198 A 
ATOM     65  C   UNL A   1      48.545  25.730  33.933  1.00  0.00     0.198 A 
ATOM     66  F   UNL A   1      46.195  25.631  33.980  1.00  0.00    -0.203 F 
ATOM     67  F   UNL A   1      50.793  27.418  31.646  1.00  0.00    -0.200 F 
ATOM     68  C   UNL A   1      49.717  26.181  33.346  1.00  0.00     0.200 A 
ATOM     69  F   UNL A   1      48.598  24.942  35.018  1.00  0.00    -0.200 F 
ATOM     70  F   UNL A   1      50.903  25.814  33.850  1.00  0.00    -0.200 F 
ENDBRANCH  37  60
ENDBRANCH  11  12
ENDBRANCH   4   6
ENDBRANCH   3   4
ENDBRANCH   2   3
ENDBRANCH   1   2
BRANCH   1  71
ATOM     71  O   UNL A   1      32.674  34.642  29.307  1.00  0.00    -0.458 OA
BRANCH  71  72
ATOM     72  C   UNL A   1      33.059  35.931  29.504  1.00  0.00     0.342 C 
ATOM     73  O   UNL A   1      32.908  36.866  28.735  1.00  0.00    -0.246 OA
BRANCH  72  74
ATOM     74  C   UNL A   1      33.539  36.100  30.887  1.00  0.00     0.102 A 
ATOM     75  C   UNL A   1      34.105  34.977  31.511  1.00  0.00     0.027 A 
ATOM     76  C   UNL A   1      33.450  37.312  31.570  1.00  0.00     0.130 A 
ATOM     77  C   UNL A   1      34.665  35.079  32.791  1.00  0.00    -0.025 A 
ATOM     78  C   UNL A   1      33.953  37.411  32.866  1.00  0.00     0.048 A 
ATOM     79  C   UNL A   1      34.573  36.308  33.461  1.00  0.00     0.012 A 
BRANCH  76  80
ATOM     80  O   UNL A   1      32.867  38.399  30.983  1.00  0.00    -0.507 OA
ATOM     81  H   UNL A   1      32.035  38.313  30.561  1.00  0.00     0.293 HD
ENDBRANCH  76  80
BRANCH  77  82
ATOM     82  C   UNL A   1      35.332  33.959  33.475  1.00  0.00     0.009 C 
ATOM     83  C   UNL A   1      36.617  33.926  33.869  1.00  0.00     0.009 C 
BRANCH  83  84
ATOM     84  C   UNL A   1      37.229  32.761  34.530  1.00  0.00    -0.018 A 
ATOM     85  C   UNL A   1      37.606  31.621  33.804  1.00  0.00     0.054 A 
ATOM     86  C   UNL A   1      37.514  32.819  35.902  1.00  0.00     0.054 A 
ATOM     87  C   UNL A   1      38.228  30.555  34.451  1.00  0.00     0.119 A 
ATOM     88  C   UNL A   1      38.138  31.741  36.529  1.00  0.00     0.119 A 
ATOM     89  C   UNL A   1      38.493  30.605  35.812  1.00  0.00     0.092 A 
BRANCH  87  90
ATOM     90  O   UNL A   1      38.605  29.436  33.767  1.00  0.00    -0.508 OA
ATOM     91  H   UNL A   1      39.507  29.303  33.548  1.00  0.00     0.293 HD
ENDBRANCH  87  90
BRANCH  88  92
ATOM     92  O   UNL A   1      38.428  31.765  37.863  1.00  0.00    -0.508 OA
ATOM     93  H   UNL A   1      38.440  32.581  38.324  1.00  0.00     0.293 HD
ENDBRANCH  88  92
ENDBRANCH  83  84
ENDBRANCH  77  82
ENDBRANCH  72  74
ENDBRANCH  71  72
ENDBRANCH   1  71
TORSDOF 16
ENDMDL
MODEL 2
REMARK VINA RESULT:     -11.5      0.370      1.930
REMARK SMILES O=C(OCCOC(=O)c1cc(/C=C/c2cc(O)cc(O)c2)ccc1O)c1ccc(-c2c3nc(c(-c4c(F)c(F)c(F)c(F)c4F)c4ccc([nH]4)c(-c4c(F)c(F)c(F)c(F)c4F)c4nc(c(-c5c(F)c(F)c(F)c(F)c5F)c5ccc2[nH]5)C=C4)C=C3)cc1
REMARK SMILES IDX 5 1 4 2 3 3 2 4 1 5 26 6 27 7 88 8 28 9 87 10 29 11 30 12
REMARK SMILES IDX 31 13 81 14 32 15 86 16 80 17 82 18 33 19 85 20 79 21 78 22
REMARK SMILES IDX 34 24 66 25 46 26 65 27 47 28 50 29 64 30 83 31 48 32 49 33
REMARK SMILES IDX 63 35 84 36 51 37 35 38 36 39 44 40 37 41 38 42 42 43 45 44
REMARK SMILES IDX 39 45 40 46 43 47 41 48 67 49 68 50 76 51 69 52 70 53 74 54
REMARK SMILES IDX 77 55 71 56 72 57 75 58 73 59 52 60 53 61 61 62 54 63 55 64
REMARK SMILES IDX 59 65 62 66 56 67 57 68 60 69 58 70 6 71 7 72 8 73 9 74
REMARK SMILES IDX 10 75 24 76 11 77 23 78 22 79 25 80 12 82 13 83 14 84 15 85
REMARK SMILES IDX 21 86 16 87 19 88 18 89 17 90 20 92
REMARK H PARENT 82 23 50 34 25 81 17 91 20 93
REMARK Flexibility Score: inf
ROOT
ATOM      1  C   UNL A   1      33.304  34.017  28.035  1.00  0.00     0.275 C 
ENDROOT
BRANCH   1   2
ATOM      2  C   UNL A   1      34.268  32.832  28.066  1.00  0.00     0.275 C 
BRANCH   2   3
ATOM      3  O   UNL A   1      33.670  31.562  27.746  1.00  0.00    -0.458 OA
BRANCH   3   4
ATOM      4  C   UNL A   1      34.228  30.337  27.624  1.00  0.00     0.338 C 
ATOM      5  O   UNL A   1      33.517  29.394  27.275  1.00  0.00    -0.246 OA
BRANCH   4   6
ATOM      6  C   UNL A   1      35.639  30.014  28.009  1.00  0.00     0.060 A 
ATOM      7  C   UNL A   1      36.759  30.065  27.177  1.00  0.00     0.016 A 
ATOM      8  C   UNL A   1      35.832  29.593  29.339  1.00  0.00     0.016 A 
ATOM      9  C   UNL A   1      38.036  29.775  27.668  1.00  0.00     0.010 A 
ATOM     10  C   UNL A   1      37.106  29.317  29.842  1.00  0.00     0.010 A 
ATOM     11  C   UNL A   1      38.217  29.402  29.002  1.00  0.00    -0.014 A 
BRANCH  11  12
ATOM     12  C   UNL A   1      39.551  28.966  29.470  1.00  0.00     0.031 A 
ATOM     13  C   UNL A   1      40.288  29.837  30.440  1.00  0.00     0.074 A 
ATOM     14  C   UNL A   1      40.070  27.792  29.068  1.00  0.00     0.049 A 
ATOM     15  N   UNL A   1      41.436  29.629  31.029  1.00  0.00    -0.248 NA
ATOM     16  C   UNL A   1      39.631  31.098  30.821  1.00  0.00     0.031 C 
ATOM     17  C   UNL A   1      39.404  26.837  28.186  1.00  0.00     0.029 A 
ATOM     18  N   UNL A   1      41.280  27.207  29.339  1.00  0.00    -0.354 N 
ATOM     19  C   UNL A   1      41.609  30.701  31.890  1.00  0.00     0.074 A 
ATOM     20  C   UNL A   1      40.495  31.601  31.688  1.00  0.00     0.031 C 
ATOM     21  C   UNL A   1      40.235  25.812  27.938  1.00  0.00     0.029 A 
ATOM     22  C   UNL A   1      41.486  26.032  28.657  1.00  0.00     0.049 A 
ATOM     23  H   UNL A   1      41.937  27.591  29.963  1.00  0.00     0.167 HD
ATOM     24  C   UNL A   1      42.590  30.894  32.802  1.00  0.00     0.037 A 
ATOM     25  C   UNL A   1      42.568  25.231  28.621  1.00  0.00     0.037 A 
ATOM     26  C   UNL A   1      43.717  30.018  32.963  1.00  0.00     0.049 A 
ATOM     27  C   UNL A   1      43.727  25.553  29.525  1.00  0.00     0.074 A 
ATOM     28  C   UNL A   1      44.786  30.130  33.831  1.00  0.00     0.029 A 
ATOM     29  N   UNL A   1      43.924  28.867  32.213  1.00  0.00    -0.354 N 
ATOM     30  N   UNL A   1      43.857  26.540  30.380  1.00  0.00    -0.248 NA
ATOM     31  C   UNL A   1      44.873  24.635  29.490  1.00  0.00     0.031 C 
ATOM     32  C   UNL A   1      45.664  29.069  33.575  1.00  0.00     0.029 A 
ATOM     33  C   UNL A   1      45.119  28.272  32.580  1.00  0.00     0.049 A 
ATOM     34  H   UNL A   1      43.312  28.526  31.521  1.00  0.00     0.167 HD
ATOM     35  C   UNL A   1      45.070  26.333  31.021  1.00  0.00     0.074 A 
ATOM     36  C   UNL A   1      45.641  25.130  30.451  1.00  0.00     0.031 C 
ATOM     37  C   UNL A   1      45.653  27.064  32.004  1.00  0.00     0.037 A 
BRANCH  24  38
ATOM     38  C   UNL A   1      42.465  32.104  33.677  1.00  0.00     0.064 A 
ATOM     39  C   UNL A   1      41.855  32.026  34.940  1.00  0.00     0.173 A 
ATOM     40  C   UNL A   1      42.921  33.356  33.243  1.00  0.00     0.173 A 
ATOM     41  F   UNL A   1      41.382  30.854  35.390  1.00  0.00    -0.203 F 
ATOM     42  C   UNL A   1      41.675  33.164  35.721  1.00  0.00     0.198 A 
ATOM     43  C   UNL A   1      42.760  34.489  34.038  1.00  0.00     0.198 A 
ATOM     44  F   UNL A   1      43.505  33.484  32.043  1.00  0.00    -0.203 F 
ATOM     45  F   UNL A   1      41.037  33.076  36.896  1.00  0.00    -0.200 F 
ATOM     46  C   UNL A   1      42.130  34.394  35.270  1.00  0.00     0.200 A 
ATOM     47  F   UNL A   1      43.202  35.678  33.603  1.00  0.00    -0.200 F 
ATOM     48  F   UNL A   1      41.945  35.492  36.017  1.00  0.00    -0.200 F 
ENDBRANCH  24  38
BRANCH  25  49
ATOM     49  C   UNL A   1      42.598  24.050  27.720  1.00  0.00     0.064 A 
ATOM     50  C   UNL A   1      42.267  22.768  28.181  1.00  0.00     0.173 A 
ATOM     51  C   UNL A   1      42.984  24.177  26.377  1.00  0.00     0.173 A 
ATOM     52  F   UNL A   1      41.903  22.592  29.459  1.00  0.00    -0.203 F 
ATOM     53  C   UNL A   1      42.348  21.657  27.343  1.00  0.00     0.198 A 
ATOM     54  C   UNL A   1      43.044  23.068  25.534  1.00  0.00     0.198 A 
ATOM     55  F   UNL A   1      43.299  25.383  25.879  1.00  0.00    -0.203 F 
ATOM     56  F   UNL A   1      42.067  20.437  27.822  1.00  0.00    -0.200 F 
ATOM     57  C   UNL A   1      42.735  21.807  26.020  1.00  0.00     0.200 A 
ATOM     58  F   UNL A   1      43.402  23.223  24.251  1.00  0.00    -0.200 F 
ATOM     59  F   UNL A   1      42.814  20.739  25.216  1.00  0.00    -0.200 F 
ENDBRANCH  25  49
BRANCH  37  60
ATOM     60  C   UNL A   1      46.947  26.550  32.559  1.00  0.00     0.064 A 
ATOM     61  C   UNL A   1      46.981  25.604  33.593  1.00  0.00     0.173 A 
ATOM     62  C   UNL A   1      48.167  26.981  32.017  1.00  0.00     0.173 A 
ATOM     63  F   UNL A   1      45.839  25.177  34.154  1.00  0.00    -0.203 F 
ATOM     64  C   UNL A   1      48.192  25.123  34.079  1.00  0.00     0.198 A 
ATOM     65  C   UNL A   1      49.375  26.476  32.487  1.00  0.00     0.198 A 
ATOM     66  F   UNL A   1      48.186  27.883  31.025  1.00  0.00    -0.203 F 
ATOM     67  F   UNL A   1      48.204  24.253  35.099  1.00  0.00    -0.200 F 
ATOM     68  C   UNL A   1      49.388  25.553  33.521  1.00  0.00     0.200 A 
ATOM     69  F   UNL A   1      50.529  26.884  31.938  1.00  0.00    -0.200 F 
ATOM     70  F   UNL A   1      50.553  25.082  33.985  1.00  0.00    -0.200 F 
ENDBRANCH  37  60
ENDBRANCH  11  12
ENDBRANCH   4   6
ENDBRANCH   3   4
ENDBRANCH   2   3
ENDBRANCH   1   2
BRANCH   1  71
ATOM     71  O   UNL A   1      32.899  34.442  29.341  1.00  0.00    -0.458 OA
BRANCH  71  72
ATOM     72  C   UNL A   1      33.031  35.774  29.582  1.00  0.00     0.342 C 
ATOM     73  O   UNL A   1      32.651  36.688  28.868  1.00  0.00    -0.246 OA
BRANCH  72  74
ATOM     74  C   UNL A   1      33.550  35.984  30.945  1.00  0.00     0.102 A 
ATOM     75  C   UNL A   1      34.124  34.877  31.590  1.00  0.00     0.027 A 
ATOM     76  C   UNL A   1      33.489  37.218  31.590  1.00  0.00     0.130 A 
ATOM     77  C   UNL A   1      34.721  35.016  32.850  1.00  0.00    -0.025 A 
ATOM     78  C   UNL A   1      34.028  37.355  32.868  1.00  0.00     0.048 A 
ATOM     79  C   UNL A   1      34.655  36.267  33.482  1.00  0.00     0.012 A 
BRANCH  76  80
ATOM     80  O   UNL A   1      32.897  38.290  30.984  1.00  0.00    -0.507 OA
ATOM     81  H   UNL A   1      31.984  38.454  31.110  1.00  0.00     0.293 HD
ENDBRANCH  76  80
BRANCH  77  82
ATOM     82  C   UNL A   1      35.398  33.914  33.552  1.00  0.00     0.009 C 
ATOM     83  C   UNL A   1      36.634  33.954  34.078  1.00  0.00     0.009 C 
BRANCH  83  84
ATOM     84  C   UNL A   1      37.264  32.803  34.749  1.00  0.00    -0.018 A 
ATOM     85  C   UNL A   1      37.429  32.767  36.142  1.00  0.00     0.054 A 
ATOM     86  C   UNL A   1      37.638  31.685  33.989  1.00  0.00     0.054 A 
ATOM     87  C   UNL A   1      37.983  31.643  36.750  1.00  0.00     0.119 A 
ATOM     88  C   UNL A   1      38.190  30.570  34.620  1.00  0.00     0.119 A 
ATOM     89  C   UNL A   1      38.370  30.543  35.997  1.00  0.00     0.092 A 
BRANCH  87  90
ATOM     90  O   UNL A   1      38.153  31.582  38.103  1.00  0.00    -0.508 OA
ATOM     91  H   UNL A   1      37.613  32.102  38.666  1.00  0.00     0.293 HD
ENDBRANCH  87  90
BRANCH  88  92
ATOM     92  O   UNL A   1      38.565  29.466  33.910  1.00  0.00    -0.508 OA
ATOM     93  H   UNL A   1      37.938  28.797  33.718  1.00  0.00     0.293 HD
ENDBRANCH  88  92
ENDBRANCH  83  84
ENDBRANCH  77  82
ENDBRANCH  72  74
ENDBRANCH  71  72
ENDBRANCH   1  71
TORSDOF 16
ENDMDL
MODEL 3
REMARK VINA RESULT:     -11.3      4.687     12.108
REMARK SMILES O=C(OCCOC(=O)c1cc(/C=C/c2cc(O)cc(O)c2)ccc1O)c1ccc(-c2c3nc(c(-c4c(F)c(F)c(F)c(F)c4F)c4ccc([nH]4)c(-c4c(F)c(F)c(F)c(F)c4F)c4nc(c(-c5c(F)c(F)c(F)c(F)c5F)c5ccc2[nH]5)C=C4)C=C3)cc1
REMARK SMILES IDX 5 1 4 2 3 3 2 4 1 5 26 6 27 7 88 8 28 9 87 10 29 11 30 12
REMARK SMILES IDX 31 13 81 14 32 15 86 16 80 17 82 18 33 19 85 20 79 21 78 22
REMARK SMILES IDX 34 24 66 25 46 26 65 27 47 28 50 29 64 30 83 31 48 32 49 33
REMARK SMILES IDX 63 35 84 36 51 37 35 38 36 39 44 40 37 41 38 42 42 43 45 44
REMARK SMILES IDX 39 45 40 46 43 47 41 48 67 49 68 50 76 51 69 52 70 53 74 54
REMARK SMILES IDX 77 55 71 56 72 57 75 58 73 59 52 60 53 61 61 62 54 63 55 64
REMARK SMILES IDX 59 65 62 66 56 67 57 68 60 69 58 70 6 71 7 72 8 73 9 74
REMARK SMILES IDX 10 75 24 76 11 77 23 78 22 79 25 80 12 82 13 83 14 84 15 85
REMARK SMILES IDX 21 86 16 87 19 88 18 89 17 90 20 92
REMARK H PARENT 82 23 50 34 25 81 17 91 20 93
REMARK Flexibility Score: inf
ROOT
ATOM      1  C   UNL A   1      40.752  19.592  26.428  1.00  0.00     0.275 C 
ENDROOT
BRANCH   1   2
ATOM      2  C   UNL A   1      40.513  21.045  26.836  1.00  0.00     0.275 C 
BRANCH   2   3
ATOM      3  O   UNL A   1      39.707  21.803  25.915  1.00  0.00    -0.458 OA
BRANCH   3   4
ATOM      4  C   UNL A   1      38.883  22.852  26.131  1.00  0.00     0.338 C 
ATOM      5  O   UNL A   1      37.707  22.766  25.772  1.00  0.00    -0.246 OA
BRANCH   4   6
ATOM      6  C   UNL A   1      39.330  24.177  26.667  1.00  0.00     0.060 A 
ATOM      7  C   UNL A   1      40.081  25.137  25.987  1.00  0.00     0.016 A 
ATOM      8  C   UNL A   1      38.972  24.453  28.001  1.00  0.00     0.016 A 
ATOM      9  C   UNL A   1      40.405  26.358  26.588  1.00  0.00     0.010 A 
ATOM     10  C   UNL A   1      39.278  25.676  28.604  1.00  0.00     0.010 A 
ATOM     11  C   UNL A   1      40.004  26.635  27.897  1.00  0.00    -0.014 A 
BRANCH  11  12
ATOM     12  C   UNL A   1      40.471  27.870  28.564  1.00  0.00     0.031 A 
ATOM     13  C   UNL A   1      41.908  27.963  28.972  1.00  0.00     0.074 A 
ATOM     14  C   UNL A   1      39.632  28.904  28.758  1.00  0.00     0.049 A 
ATOM     15  N   UNL A   1      42.550  28.965  29.513  1.00  0.00    -0.248 NA
ATOM     16  C   UNL A   1      42.743  26.779  28.709  1.00  0.00     0.031 C 
ATOM     17  C   UNL A   1      38.236  28.946  28.332  1.00  0.00     0.029 A 
ATOM     18  N   UNL A   1      39.828  30.114  29.373  1.00  0.00    -0.354 N 
ATOM     19  C   UNL A   1      43.871  28.553  29.601  1.00  0.00     0.074 A 
ATOM     20  C   UNL A   1      43.927  27.183  29.140  1.00  0.00     0.031 C 
ATOM     21  C   UNL A   1      37.681  30.095  28.749  1.00  0.00     0.029 A 
ATOM     22  C   UNL A   1      38.689  30.876  29.459  1.00  0.00     0.049 A 
ATOM     23  H   UNL A   1      40.701  30.408  29.718  1.00  0.00     0.167 HD
ATOM     24  C   UNL A   1      44.949  29.272  29.991  1.00  0.00     0.037 A 
ATOM     25  C   UNL A   1      38.489  32.071  30.049  1.00  0.00     0.037 A 
ATOM     26  C   UNL A   1      44.875  30.617  30.491  1.00  0.00     0.049 A 
ATOM     27  C   UNL A   1      39.678  32.789  30.629  1.00  0.00     0.074 A 
ATOM     28  C   UNL A   1      45.895  31.430  30.944  1.00  0.00     0.029 A 
ATOM     29  N   UNL A   1      43.695  31.338  30.621  1.00  0.00    -0.354 N 
ATOM     30  N   UNL A   1      40.935  32.416  30.657  1.00  0.00    -0.248 NA
ATOM     31  C   UNL A   1      39.431  34.107  31.228  1.00  0.00     0.031 C 
ATOM     32  C   UNL A   1      45.327  32.631  31.390  1.00  0.00     0.029 A 
ATOM     33  C   UNL A   1      43.958  32.580  31.172  1.00  0.00     0.049 A 
ATOM     34  H   UNL A   1      42.803  31.013  30.360  1.00  0.00     0.167 HD
ATOM     35  C   UNL A   1      41.636  33.471  31.223  1.00  0.00     0.074 A 
ATOM     36  C   UNL A   1      40.661  34.498  31.532  1.00  0.00     0.031 C 
ATOM     37  C   UNL A   1      42.967  33.588  31.453  1.00  0.00     0.037 A 
BRANCH  24  38
ATOM     38  C   UNL A   1      46.281  28.596  29.884  1.00  0.00     0.064 A 
ATOM     39  C   UNL A   1      47.060  28.705  28.721  1.00  0.00     0.173 A 
ATOM     40  C   UNL A   1      46.772  27.804  30.932  1.00  0.00     0.173 A 
ATOM     41  F   UNL A   1      46.622  29.432  27.681  1.00  0.00    -0.203 F 
ATOM     42  C   UNL A   1      48.263  28.017  28.596  1.00  0.00     0.198 A 
ATOM     43  C   UNL A   1      47.989  27.137  30.813  1.00  0.00     0.198 A 
ATOM     44  F   UNL A   1      46.065  27.664  32.062  1.00  0.00    -0.203 F 
ATOM     45  F   UNL A   1      48.960  28.088  27.453  1.00  0.00    -0.200 F 
ATOM     46  C   UNL A   1      48.728  27.236  29.643  1.00  0.00     0.200 A 
ATOM     47  F   UNL A   1      48.439  26.384  31.826  1.00  0.00    -0.200 F 
ATOM     48  F   UNL A   1      49.882  26.564  29.519  1.00  0.00    -0.200 F 
ENDBRANCH  24  38
BRANCH  25  49
ATOM     49  C   UNL A   1      37.128  32.664  30.103  1.00  0.00     0.064 A 
ATOM     50  C   UNL A   1      36.268  32.428  31.184  1.00  0.00     0.173 A 
ATOM     51  C   UNL A   1      36.649  33.465  29.055  1.00  0.00     0.173 A 
ATOM     52  F   UNL A   1      36.675  31.660  32.205  1.00  0.00    -0.203 F 
ATOM     53  C   UNL A   1      34.974  32.946  31.203  1.00  0.00     0.198 A 
ATOM     54  C   UNL A   1      35.362  34.000  29.085  1.00  0.00     0.198 A 
ATOM     55  F   UNL A   1      37.435  33.734  28.001  1.00  0.00    -0.203 F 
ATOM     56  F   UNL A   1      34.159  32.668  32.229  1.00  0.00    -0.200 F 
ATOM     57  C   UNL A   1      34.522  33.732  30.154  1.00  0.00     0.200 A 
ATOM     58  F   UNL A   1      34.937  34.774  28.076  1.00  0.00    -0.200 F 
ATOM     59  F   UNL A   1      33.278  34.228  30.172  1.00  0.00    -0.200 F 
ENDBRANCH  25  49
BRANCH  37  60
ATOM     60  C   UNL A   1      43.449  34.890  32.018  1.00  0.00     0.064 A 
ATOM     61  C   UNL A   1      43.625  35.074  33.397  1.00  0.00     0.173 A 
ATOM     62  C   UNL A   1      43.778  35.951  31.162  1.00  0.00     0.173 A 
ATOM     63  F   UNL A   1      43.306  34.093  34.255  1.00  0.00    -0.203 F 
ATOM     64  C   UNL A   1      44.094  36.283  33.900  1.00  0.00     0.198 A 
ATOM     65  C   UNL A   1      44.273  37.149  31.667  1.00  0.00     0.198 A 
ATOM     66  F   UNL A   1      43.629  35.821  29.836  1.00  0.00    -0.203 F 
ATOM     67  F   UNL A   1      44.212  36.455  35.224  1.00  0.00    -0.200 F 
ATOM     68  C   UNL A   1      44.425  37.317  33.035  1.00  0.00     0.200 A 
ATOM     69  F   UNL A   1      44.605  38.142  30.829  1.00  0.00    -0.200 F 
ATOM     70  F   UNL A   1      44.885  38.477  33.521  1.00  0.00    -0.200 F 
ENDBRANCH  37  60
ENDBRANCH  11  12
ENDBRANCH   4   6
ENDBRANCH   3   4
ENDBRANCH   2   3
ENDBRANCH   1   2
BRANCH   1  71
ATOM     71  O   UNL A   1      41.818  19.444  25.484  1.00  0.00    -0.458 OA
BRANCH  71  72
ATOM     72  C   UNL A   1      42.904  18.767  25.942  1.00  0.00     0.342 C 
ATOM     73  O   UNL A   1      42.910  17.671  26.479  1.00  0.00    -0.246 OA
BRANCH  72  74
ATOM     74  C   UNL A   1      44.135  19.465  25.533  1.00  0.00     0.102 A 
ATOM     75  C   UNL A   1      44.042  20.847  25.304  1.00  0.00     0.027 A 
ATOM     76  C   UNL A   1      45.355  18.809  25.376  1.00  0.00     0.130 A 
ATOM     77  C   UNL A   1      45.185  21.599  25.000  1.00  0.00    -0.025 A 
ATOM     78  C   UNL A   1      46.488  19.537  25.018  1.00  0.00     0.048 A 
ATOM     79  C   UNL A   1      46.405  20.923  24.852  1.00  0.00     0.012 A 
BRANCH  76  80
ATOM     80  O   UNL A   1      45.446  17.459  25.561  1.00  0.00    -0.507 OA
ATOM     81  H   UNL A   1      45.856  16.923  24.910  1.00  0.00     0.293 HD
ENDBRANCH  76  80
BRANCH  77  82
ATOM     82  C   UNL A   1      45.168  23.059  24.813  1.00  0.00     0.009 C 
ATOM     83  C   UNL A   1      45.801  23.961  25.583  1.00  0.00     0.009 C 
BRANCH  83  84
ATOM     84  C   UNL A   1      45.723  25.414  25.354  1.00  0.00    -0.018 A 
ATOM     85  C   UNL A   1      44.530  26.125  25.554  1.00  0.00     0.054 A 
ATOM     86  C   UNL A   1      46.884  26.117  25.001  1.00  0.00     0.054 A 
ATOM     87  C   UNL A   1      44.503  27.507  25.376  1.00  0.00     0.119 A 
ATOM     88  C   UNL A   1      46.834  27.500  24.829  1.00  0.00     0.119 A 
ATOM     89  C   UNL A   1      45.648  28.200  25.009  1.00  0.00     0.092 A 
BRANCH  87  90
ATOM     90  O   UNL A   1      43.356  28.221  25.567  1.00  0.00    -0.508 OA
ATOM     91  H   UNL A   1      42.928  28.205  26.401  1.00  0.00     0.293 HD
ENDBRANCH  87  90
BRANCH  88  92
ATOM     92  O   UNL A   1      47.945  28.215  24.485  1.00  0.00    -0.508 OA
ATOM     93  H   UNL A   1      47.854  29.056  24.081  1.00  0.00     0.293 HD
ENDBRANCH  88  92
ENDBRANCH  83  84
ENDBRANCH  77  82
ENDBRANCH  72  74
ENDBRANCH  71  72
ENDBRANCH   1  71
TORSDOF 16
ENDMDL
