MODEL 1
REMARK VINA RESULT:     -12.3      0.000      0.000
REMARK SMILES O=C(OCCOC(=O)c1c(F)cccc1Oc1cccc(Cl)c1)c1ccc(-c2c3nc(c(-c4c(F)c(F)c(F)c(F)c4F)c4ccc([nH]4)c(-c4c(F)c(F)c(F)c(F)c4F)c4nc(c(-c5c(F)c(F)c(F)c(F)c5F)c5ccc2[nH]5)C=C4)C=C3)cc1
REMARK SMILES IDX 4 1 3 2 2 3 1 4 24 5 25 6 86 7 26 8 85 9 27 10 28 11 29 12
REMARK SMILES IDX 79 13 30 14 84 15 78 16 80 17 31 18 83 19 77 20 76 21 32 23
REMARK SMILES IDX 64 24 44 25 63 26 45 27 48 28 62 29 81 30 46 31 47 32 61 34
REMARK SMILES IDX 82 35 49 36 33 37 34 38 42 39 35 40 36 41 40 42 43 43 37 44
REMARK SMILES IDX 38 45 41 46 39 47 65 48 66 49 74 50 67 51 68 52 72 53 75 54
REMARK SMILES IDX 69 55 70 56 73 57 71 58 50 59 51 60 59 61 52 62 53 63 57 64
REMARK SMILES IDX 60 65 54 66 55 67 58 68 56 69 5 70 6 71 7 72 8 73 9 74 10 75
REMARK SMILES IDX 15 76 11 77 12 78 14 79 13 80 16 81 17 82 18 83 23 84 19 85
REMARK SMILES IDX 21 86 20 87 22 88
REMARK H PARENT 80 22 48 33
REMARK Flexibility Score: inf
ROOT
ATOM      1  C   UNL A   1      32.462  30.249  25.965  1.00  0.00     0.275 C 
ENDROOT
BRANCH   1   2
ATOM      2  O   UNL A   1      33.088  30.283  27.252  1.00  0.00    -0.458 OA
BRANCH   2   3
ATOM      3  C   UNL A   1      33.618  31.492  27.571  1.00  0.00     0.338 C 
ATOM      4  O   UNL A   1      33.259  32.576  27.153  1.00  0.00    -0.246 OA
BRANCH   3   5
ATOM      5  C   UNL A   1      34.897  31.250  28.277  1.00  0.00     0.060 A 
ATOM      6  C   UNL A   1      35.152  30.016  28.876  1.00  0.00     0.016 A 
ATOM      7  C   UNL A   1      35.909  32.216  28.184  1.00  0.00     0.016 A 
ATOM      8  C   UNL A   1      36.420  29.737  29.352  1.00  0.00     0.010 A 
ATOM      9  C   UNL A   1      37.194  31.927  28.632  1.00  0.00     0.010 A 
ATOM     10  C   UNL A   1      37.445  30.684  29.220  1.00  0.00    -0.014 A 
BRANCH  10  11
ATOM     11  C   UNL A   1      38.751  30.342  29.803  1.00  0.00     0.031 A 
ATOM     12  C   UNL A   1      39.050  30.831  31.178  1.00  0.00     0.074 A 
ATOM     13  C   UNL A   1      39.540  29.460  29.167  1.00  0.00     0.049 A 
ATOM     14  N   UNL A   1      39.921  30.377  32.035  1.00  0.00    -0.248 NA
ATOM     15  C   UNL A   1      38.226  31.945  31.676  1.00  0.00     0.031 C 
ATOM     16  C   UNL A   1      39.284  28.916  27.833  1.00  0.00     0.029 A 
ATOM     17  N   UNL A   1      40.687  28.834  29.570  1.00  0.00    -0.354 N 
ATOM     18  C   UNL A   1      39.689  31.089  33.201  1.00  0.00     0.074 A 
ATOM     19  C   UNL A   1      38.669  32.072  32.918  1.00  0.00     0.031 C 
ATOM     20  C   UNL A   1      40.251  28.040  27.521  1.00  0.00     0.029 A 
ATOM     21  C   UNL A   1      41.167  27.932  28.653  1.00  0.00     0.049 A 
ATOM     22  H   UNL A   1      41.126  29.012  30.434  1.00  0.00     0.167 HD
ATOM     23  C   UNL A   1      40.252  30.890  34.413  1.00  0.00     0.037 A 
ATOM     24  C   UNL A   1      42.206  27.082  28.744  1.00  0.00     0.037 A 
ATOM     25  C   UNL A   1      41.302  29.938  34.643  1.00  0.00     0.049 A 
ATOM     26  C   UNL A   1      42.907  26.967  30.069  1.00  0.00     0.074 A 
ATOM     27  C   UNL A   1      41.984  29.665  35.811  1.00  0.00     0.029 A 
ATOM     28  N   UNL A   1      41.835  29.114  33.657  1.00  0.00    -0.354 N 
ATOM     29  N   UNL A   1      42.636  27.587  31.196  1.00  0.00    -0.248 NA
ATOM     30  C   UNL A   1      44.020  26.017  30.156  1.00  0.00     0.031 C 
ATOM     31  C   UNL A   1      42.965  28.710  35.520  1.00  0.00     0.029 A 
ATOM     32  C   UNL A   1      42.863  28.355  34.182  1.00  0.00     0.049 A 
ATOM     33  H   UNL A   1      41.525  29.078  32.723  1.00  0.00     0.167 HD
ATOM     34  C   UNL A   1      43.525  27.084  32.134  1.00  0.00     0.074 A 
ATOM     35  C   UNL A   1      44.342  26.104  31.441  1.00  0.00     0.031 C 
ATOM     36  C   UNL A   1      43.651  27.394  33.448  1.00  0.00     0.037 A 
BRANCH  23  37
ATOM     37  C   UNL A   1      39.732  31.721  35.545  1.00  0.00     0.064 A 
ATOM     38  C   UNL A   1      40.274  32.983  35.819  1.00  0.00     0.173 A 
ATOM     39  C   UNL A   1      38.668  31.273  36.344  1.00  0.00     0.173 A 
ATOM     40  F   UNL A   1      41.283  33.461  35.077  1.00  0.00    -0.203 F 
ATOM     41  C   UNL A   1      39.766  33.770  36.850  1.00  0.00     0.198 A 
ATOM     42  C   UNL A   1      38.149  32.071  37.360  1.00  0.00     0.198 A 
ATOM     43  F   UNL A   1      38.098  30.082  36.105  1.00  0.00    -0.203 F 
ATOM     44  F   UNL A   1      40.297  34.976  37.093  1.00  0.00    -0.200 F 
ATOM     45  C   UNL A   1      38.700  33.317  37.614  1.00  0.00     0.200 A 
ATOM     46  F   UNL A   1      37.099  31.644  38.077  1.00  0.00    -0.200 F 
ATOM     47  F   UNL A   1      38.195  34.090  38.586  1.00  0.00    -0.200 F 
ENDBRANCH  23  37
BRANCH  24  48
ATOM     48  C   UNL A   1      42.573  26.250  27.569  1.00  0.00     0.064 A 
ATOM     49  C   UNL A   1      41.980  24.993  27.372  1.00  0.00     0.173 A 
ATOM     50  C   UNL A   1      43.562  26.652  26.663  1.00  0.00     0.173 A 
ATOM     51  F   UNL A   1      41.035  24.556  28.218  1.00  0.00    -0.203 F 
ATOM     52  C   UNL A   1      42.374  24.164  26.323  1.00  0.00     0.198 A 
ATOM     53  C   UNL A   1      43.944  25.829  25.603  1.00  0.00     0.198 A 
ATOM     54  F   UNL A   1      44.153  27.847  26.803  1.00  0.00    -0.203 F 
ATOM     55  F   UNL A   1      41.813  22.955  26.179  1.00  0.00    -0.200 F 
ATOM     56  C   UNL A   1      43.356  24.582  25.439  1.00  0.00     0.200 A 
ATOM     57  F   UNL A   1      44.884  26.241  24.742  1.00  0.00    -0.200 F 
ATOM     58  F   UNL A   1      43.737  23.786  24.431  1.00  0.00    -0.200 F 
ENDBRANCH  24  48
BRANCH  36  59
ATOM     59  C   UNL A   1      44.708  26.667  34.220  1.00  0.00     0.064 A 
ATOM     60  C   UNL A   1      46.014  27.173  34.284  1.00  0.00     0.173 A 
ATOM     61  C   UNL A   1      44.447  25.423  34.810  1.00  0.00     0.173 A 
ATOM     62  F   UNL A   1      46.308  28.356  33.724  1.00  0.00    -0.203 F 
ATOM     63  C   UNL A   1      47.030  26.447  34.894  1.00  0.00     0.198 A 
ATOM     64  C   UNL A   1      45.460  24.711  35.442  1.00  0.00     0.198 A 
ATOM     65  F   UNL A   1      43.208  24.909  34.781  1.00  0.00    -0.203 F 
ATOM     66  F   UNL A   1      48.280  26.929  34.911  1.00  0.00    -0.200 F 
ATOM     67  C   UNL A   1      46.752  25.217  35.474  1.00  0.00     0.200 A 
ATOM     68  F   UNL A   1      45.188  23.532  36.019  1.00  0.00    -0.200 F 
ATOM     69  F   UNL A   1      47.731  24.518  36.063  1.00  0.00    -0.200 F 
ENDBRANCH  36  59
ENDBRANCH  10  11
ENDBRANCH   3   5
ENDBRANCH   2   3
ENDBRANCH   1   2
BRANCH   1  70
ATOM     70  C   UNL A   1      33.285  29.380  25.002  1.00  0.00     0.275 C 
BRANCH  70  71
ATOM     71  O   UNL A   1      32.596  29.173  23.750  1.00  0.00    -0.458 OA
BRANCH  71  72
ATOM     72  C   UNL A   1      32.528  27.921  23.238  1.00  0.00     0.345 C 
ATOM     73  O   UNL A   1      33.364  27.361  22.556  1.00  0.00    -0.246 OA
BRANCH  72  74
ATOM     74  C   UNL A   1      31.181  27.393  23.518  1.00  0.00     0.138 A 
ATOM     75  C   UNL A   1      31.108  26.523  24.618  1.00  0.00     0.141 A 
ATOM     76  C   UNL A   1      29.990  27.767  22.877  1.00  0.00     0.144 A 
ATOM     77  F   UNL A   1      32.216  26.189  25.300  1.00  0.00    -0.206 F 
ATOM     78  C   UNL A   1      29.896  26.007  25.072  1.00  0.00     0.040 A 
ATOM     79  C   UNL A   1      28.774  27.207  23.324  1.00  0.00     0.048 A 
ATOM     80  C   UNL A   1      28.723  26.331  24.408  1.00  0.00     0.007 A 
BRANCH  76  81
ATOM     81  O   UNL A   1      29.779  28.758  21.945  1.00  0.00    -0.456 OA
BRANCH  81  82
ATOM     82  C   UNL A   1      29.258  29.969  22.307  1.00  0.00     0.128 A 
ATOM     83  C   UNL A   1      29.476  30.488  23.584  1.00  0.00     0.047 A 
ATOM     84  C   UNL A   1      28.736  30.780  21.303  1.00  0.00     0.067 A 
ATOM     85  C   UNL A   1      29.080  31.797  23.878  1.00  0.00     0.005 A 
ATOM     86  C   UNL A   1      28.331  32.077  21.603  1.00  0.00     0.044 A 
ATOM     87  C   UNL A   1      28.494  32.588  22.888  1.00  0.00     0.021 A 
ATOM     88  Cl  UNL A   1      27.653  33.061  20.367  1.00  0.00    -0.084 Cl
ENDBRANCH  81  82
ENDBRANCH  76  81
ENDBRANCH  72  74
ENDBRANCH  71  72
ENDBRANCH  70  71
ENDBRANCH   1  70
TORSDOF 13
ENDMDL
MODEL 2
REMARK VINA RESULT:     -12.3      0.664      1.755
REMARK SMILES O=C(OCCOC(=O)c1c(F)cccc1Oc1cccc(Cl)c1)c1ccc(-c2c3nc(c(-c4c(F)c(F)c(F)c(F)c4F)c4ccc([nH]4)c(-c4c(F)c(F)c(F)c(F)c4F)c4nc(c(-c5c(F)c(F)c(F)c(F)c5F)c5ccc2[nH]5)C=C4)C=C3)cc1
REMARK SMILES IDX 4 1 3 2 2 3 1 4 24 5 25 6 86 7 26 8 85 9 27 10 28 11 29 12
REMARK SMILES IDX 79 13 30 14 84 15 78 16 80 17 31 18 83 19 77 20 76 21 32 23
REMARK SMILES IDX 64 24 44 25 63 26 45 27 48 28 62 29 81 30 46 31 47 32 61 34
REMARK SMILES IDX 82 35 49 36 33 37 34 38 42 39 35 40 36 41 40 42 43 43 37 44
REMARK SMILES IDX 38 45 41 46 39 47 65 48 66 49 74 50 67 51 68 52 72 53 75 54
REMARK SMILES IDX 69 55 70 56 73 57 71 58 50 59 51 60 59 61 52 62 53 63 57 64
REMARK SMILES IDX 60 65 54 66 55 67 58 68 56 69 5 70 6 71 7 72 8 73 9 74 10 75
REMARK SMILES IDX 15 76 11 77 12 78 14 79 13 80 16 81 17 82 18 83 23 84 19 85
REMARK SMILES IDX 21 86 20 87 22 88
REMARK H PARENT 80 22 48 33
REMARK Flexibility Score: inf
ROOT
ATOM      1  C   UNL A   1      32.121  30.927  26.807  1.00  0.00     0.275 C 
ENDROOT
BRANCH   1   2
ATOM      2  O   UNL A   1      33.509  31.269  26.886  1.00  0.00    -0.458 OA
BRANCH   2   3
ATOM      3  C   UNL A   1      33.770  32.302  27.727  1.00  0.00     0.338 C 
ATOM      4  O   UNL A   1      33.229  33.391  27.733  1.00  0.00    -0.246 OA
BRANCH   3   5
ATOM      5  C   UNL A   1      35.030  31.993  28.442  1.00  0.00     0.060 A 
ATOM      6  C   UNL A   1      35.179  30.784  29.122  1.00  0.00     0.016 A 
ATOM      7  C   UNL A   1      36.124  32.855  28.279  1.00  0.00     0.016 A 
ATOM      8  C   UNL A   1      36.422  30.423  29.610  1.00  0.00     0.010 A 
ATOM      9  C   UNL A   1      37.382  32.481  28.740  1.00  0.00     0.010 A 
ATOM     10  C   UNL A   1      37.526  31.262  29.410  1.00  0.00    -0.014 A 
BRANCH  10  11
ATOM     11  C   UNL A   1      38.802  30.843  30.008  1.00  0.00     0.031 A 
ATOM     12  C   UNL A   1      39.096  31.280  31.401  1.00  0.00     0.074 A 
ATOM     13  C   UNL A   1      39.562  29.941  29.363  1.00  0.00     0.049 A 
ATOM     14  N   UNL A   1      39.926  30.763  32.262  1.00  0.00    -0.248 NA
ATOM     15  C   UNL A   1      38.315  32.418  31.914  1.00  0.00     0.031 C 
ATOM     16  C   UNL A   1      39.308  29.445  28.011  1.00  0.00     0.029 A 
ATOM     17  N   UNL A   1      40.670  29.250  29.772  1.00  0.00    -0.354 N 
ATOM     18  C   UNL A   1      39.705  31.453  33.443  1.00  0.00     0.074 A 
ATOM     19  C   UNL A   1      38.738  32.491  33.167  1.00  0.00     0.031 C 
ATOM     20  C   UNL A   1      40.239  28.532  27.693  1.00  0.00     0.029 A 
ATOM     21  C   UNL A   1      41.125  28.351  28.839  1.00  0.00     0.049 A 
ATOM     22  H   UNL A   1      41.098  29.383  30.648  1.00  0.00     0.167 HD
ATOM     23  C   UNL A   1      40.232  31.196  34.659  1.00  0.00     0.037 A 
ATOM     24  C   UNL A   1      42.120  27.450  28.927  1.00  0.00     0.037 A 
ATOM     25  C   UNL A   1      41.231  30.188  34.883  1.00  0.00     0.049 A 
ATOM     26  C   UNL A   1      42.787  27.266  30.262  1.00  0.00     0.074 A 
ATOM     27  C   UNL A   1      41.875  29.852  36.057  1.00  0.00     0.029 A 
ATOM     28  N   UNL A   1      41.745  29.366  33.886  1.00  0.00    -0.354 N 
ATOM     29  N   UNL A   1      42.523  27.868  31.399  1.00  0.00    -0.248 NA
ATOM     30  C   UNL A   1      43.852  26.262  30.344  1.00  0.00     0.031 C 
ATOM     31  C   UNL A   1      42.815  28.859  35.759  1.00  0.00     0.029 A 
ATOM     32  C   UNL A   1      42.724  28.545  34.409  1.00  0.00     0.049 A 
ATOM     33  H   UNL A   1      41.452  29.370  32.946  1.00  0.00     0.167 HD
ATOM     34  C   UNL A   1      43.367  27.298  32.340  1.00  0.00     0.074 A 
ATOM     35  C   UNL A   1      44.151  26.299  31.637  1.00  0.00     0.031 C 
ATOM     36  C   UNL A   1      43.481  27.567  33.665  1.00  0.00     0.037 A 
BRANCH  23  37
ATOM     37  C   UNL A   1      39.728  32.020  35.804  1.00  0.00     0.064 A 
ATOM     38  C   UNL A   1      38.632  31.599  36.566  1.00  0.00     0.173 A 
ATOM     39  C   UNL A   1      40.359  33.223  36.163  1.00  0.00     0.173 A 
ATOM     40  F   UNL A   1      38.004  30.452  36.270  1.00  0.00    -0.203 F 
ATOM     41  C   UNL A   1      38.187  32.349  37.652  1.00  0.00     0.198 A 
ATOM     42  C   UNL A   1      39.924  33.959  37.262  1.00  0.00     0.198 A 
ATOM     43  F   UNL A   1      41.429  33.655  35.479  1.00  0.00    -0.203 F 
ATOM     44  F   UNL A   1      37.137  31.926  38.371  1.00  0.00    -0.200 F 
ATOM     45  C   UNL A   1      38.837  33.524  38.003  1.00  0.00     0.200 A 
ATOM     46  F   UNL A   1      40.574  35.077  37.618  1.00  0.00    -0.200 F 
ATOM     47  F   UNL A   1      38.425  34.227  39.067  1.00  0.00    -0.200 F 
ENDBRANCH  23  37
BRANCH  24  48
ATOM     48  C   UNL A   1      42.471  26.632  27.737  1.00  0.00     0.064 A 
ATOM     49  C   UNL A   1      41.861  25.387  27.521  1.00  0.00     0.173 A 
ATOM     50  C   UNL A   1      43.462  27.037  26.833  1.00  0.00     0.173 A 
ATOM     51  F   UNL A   1      40.914  24.948  28.365  1.00  0.00    -0.203 F 
ATOM     52  C   UNL A   1      42.241  24.570  26.458  1.00  0.00     0.198 A 
ATOM     53  C   UNL A   1      43.829  26.226  25.758  1.00  0.00     0.198 A 
ATOM     54  F   UNL A   1      44.069  28.221  26.991  1.00  0.00    -0.203 F 
ATOM     55  F   UNL A   1      41.663  23.371  26.296  1.00  0.00    -0.200 F 
ATOM     56  C   UNL A   1      43.224  24.990  25.576  1.00  0.00     0.200 A 
ATOM     57  F   UNL A   1      44.771  26.640  24.900  1.00  0.00    -0.200 F 
ATOM     58  F   UNL A   1      43.591  24.206  24.553  1.00  0.00    -0.200 F 
ENDBRANCH  24  48
BRANCH  36  59
ATOM     59  C   UNL A   1      44.485  26.770  34.437  1.00  0.00     0.064 A 
ATOM     60  C   UNL A   1      44.108  25.578  35.071  1.00  0.00     0.173 A 
ATOM     61  C   UNL A   1      45.791  27.243  34.631  1.00  0.00     0.173 A 
ATOM     62  F   UNL A   1      42.866  25.095  34.920  1.00  0.00    -0.203 F 
ATOM     63  C   UNL A   1      45.000  24.895  35.891  1.00  0.00     0.198 A 
ATOM     64  C   UNL A   1      46.687  26.544  35.432  1.00  0.00     0.198 A 
ATOM     65  F   UNL A   1      46.194  28.374  34.033  1.00  0.00    -0.203 F 
ATOM     66  F   UNL A   1      44.609  23.778  36.520  1.00  0.00    -0.200 F 
ATOM     67  C   UNL A   1      46.288  25.378  36.069  1.00  0.00     0.200 A 
ATOM     68  F   UNL A   1      47.938  27.000  35.588  1.00  0.00    -0.200 F 
ATOM     69  F   UNL A   1      47.147  24.719  36.859  1.00  0.00    -0.200 F 
ENDBRANCH  36  59
ENDBRANCH  10  11
ENDBRANCH   3   5
ENDBRANCH   2   3
ENDBRANCH   1   2
BRANCH   1  70
ATOM     70  C   UNL A   1      31.965  29.464  26.363  1.00  0.00     0.275 C 
BRANCH  70  71
ATOM     71  O   UNL A   1      32.642  29.211  25.113  1.00  0.00    -0.458 OA
BRANCH  71  72
ATOM     72  C   UNL A   1      32.796  27.932  24.697  1.00  0.00     0.345 C 
ATOM     73  O   UNL A   1      33.840  27.360  24.453  1.00  0.00    -0.246 OA
BRANCH  72  74
ATOM     74  C   UNL A   1      31.454  27.380  24.434  1.00  0.00     0.138 A 
ATOM     75  C   UNL A   1      31.027  26.411  25.358  1.00  0.00     0.141 A 
ATOM     76  C   UNL A   1      30.555  27.811  23.448  1.00  0.00     0.144 A 
ATOM     77  F   UNL A   1      31.833  26.016  26.357  1.00  0.00    -0.206 F 
ATOM     78  C   UNL A   1      29.751  25.855  25.306  1.00  0.00     0.040 A 
ATOM     79  C   UNL A   1      29.279  27.211  23.384  1.00  0.00     0.048 A 
ATOM     80  C   UNL A   1      28.877  26.239  24.300  1.00  0.00     0.007 A 
BRANCH  76  81
ATOM     81  O   UNL A   1      30.654  28.884  22.591  1.00  0.00    -0.456 OA
BRANCH  81  82
ATOM     82  C   UNL A   1      29.768  29.923  22.656  1.00  0.00     0.128 A 
ATOM     83  C   UNL A   1      29.610  30.655  23.833  1.00  0.00     0.047 A 
ATOM     84  C   UNL A   1      29.230  30.395  21.461  1.00  0.00     0.067 A 
ATOM     85  C   UNL A   1      28.828  31.815  23.829  1.00  0.00     0.005 A 
ATOM     86  C   UNL A   1      28.442  31.542  21.464  1.00  0.00     0.044 A 
ATOM     87  C   UNL A   1      28.232  32.251  22.644  1.00  0.00     0.021 A 
ATOM     88  Cl  UNL A   1      27.749  32.099  19.992  1.00  0.00    -0.084 Cl
ENDBRANCH  81  82
ENDBRANCH  76  81
ENDBRANCH  72  74
ENDBRANCH  71  72
ENDBRANCH  70  71
ENDBRANCH   1  70
TORSDOF 13
ENDMDL
MODEL 3
REMARK VINA RESULT:     -12.3      1.029      2.612
REMARK SMILES O=C(OCCOC(=O)c1c(F)cccc1Oc1cccc(Cl)c1)c1ccc(-c2c3nc(c(-c4c(F)c(F)c(F)c(F)c4F)c4ccc([nH]4)c(-c4c(F)c(F)c(F)c(F)c4F)c4nc(c(-c5c(F)c(F)c(F)c(F)c5F)c5ccc2[nH]5)C=C4)C=C3)cc1
REMARK SMILES IDX 4 1 3 2 2 3 1 4 24 5 25 6 86 7 26 8 85 9 27 10 28 11 29 12
REMARK SMILES IDX 79 13 30 14 84 15 78 16 80 17 31 18 83 19 77 20 76 21 32 23
REMARK SMILES IDX 64 24 44 25 63 26 45 27 48 28 62 29 81 30 46 31 47 32 61 34
REMARK SMILES IDX 82 35 49 36 33 37 34 38 42 39 35 40 36 41 40 42 43 43 37 44
REMARK SMILES IDX 38 45 41 46 39 47 65 48 66 49 74 50 67 51 68 52 72 53 75 54
REMARK SMILES IDX 69 55 70 56 73 57 71 58 50 59 51 60 59 61 52 62 53 63 57 64
REMARK SMILES IDX 60 65 54 66 55 67 58 68 56 69 5 70 6 71 7 72 8 73 9 74 10 75
REMARK SMILES IDX 15 76 11 77 12 78 14 79 13 80 16 81 17 82 18 83 23 84 19 85
REMARK SMILES IDX 21 86 20 87 22 88
REMARK H PARENT 80 22 48 33
REMARK Flexibility Score: inf
ROOT
ATOM      1  C   UNL A   1      31.964  30.341  26.871  1.00  0.00     0.275 C 
ENDROOT
BRANCH   1   2
ATOM      2  O   UNL A   1      33.361  30.613  26.712  1.00  0.00    -0.458 OA
BRANCH   2   3
ATOM      3  C   UNL A   1      33.819  31.608  27.514  1.00  0.00     0.338 C 
ATOM      4  O   UNL A   1      33.351  32.725  27.626  1.00  0.00    -0.246 OA
BRANCH   3   5
ATOM      5  C   UNL A   1      35.159  31.212  28.002  1.00  0.00     0.060 A 
ATOM      6  C   UNL A   1      36.183  32.156  28.102  1.00  0.00     0.016 A 
ATOM      7  C   UNL A   1      35.332  29.921  28.519  1.00  0.00     0.016 A 
ATOM      8  C   UNL A   1      37.361  31.820  28.744  1.00  0.00     0.010 A 
ATOM      9  C   UNL A   1      36.502  29.589  29.195  1.00  0.00     0.010 A 
ATOM     10  C   UNL A   1      37.518  30.544  29.302  1.00  0.00    -0.014 A 
BRANCH  10  11
ATOM     11  C   UNL A   1      38.819  30.238  29.917  1.00  0.00     0.031 A 
ATOM     12  C   UNL A   1      39.085  30.769  31.283  1.00  0.00     0.074 A 
ATOM     13  C   UNL A   1      39.632  29.351  29.319  1.00  0.00     0.049 A 
ATOM     14  N   UNL A   1      39.947  30.351  32.168  1.00  0.00    -0.248 NA
ATOM     15  C   UNL A   1      38.236  31.882  31.736  1.00  0.00     0.031 C 
ATOM     16  C   UNL A   1      39.408  28.767  27.997  1.00  0.00     0.029 A 
ATOM     17  N   UNL A   1      40.781  28.754  29.760  1.00  0.00    -0.354 N 
ATOM     18  C   UNL A   1      39.684  31.091  33.309  1.00  0.00     0.074 A 
ATOM     19  C   UNL A   1      38.655  32.049  32.981  1.00  0.00     0.031 C 
ATOM     20  C   UNL A   1      40.394  27.897  27.726  1.00  0.00     0.029 A 
ATOM     21  C   UNL A   1      41.292  27.835  28.876  1.00  0.00     0.049 A 
ATOM     22  H   UNL A   1      41.202  28.962  30.626  1.00  0.00     0.167 HD
ATOM     23  C   UNL A   1      40.227  30.934  34.536  1.00  0.00     0.037 A 
ATOM     24  C   UNL A   1      42.341  27.004  29.009  1.00  0.00     0.037 A 
ATOM     25  C   UNL A   1      41.288  30.004  34.810  1.00  0.00     0.049 A 
ATOM     26  C   UNL A   1      43.019  26.936  30.349  1.00  0.00     0.074 A 
ATOM     27  C   UNL A   1      41.953  29.774  35.997  1.00  0.00     0.029 A 
ATOM     28  N   UNL A   1      41.851  29.162  33.857  1.00  0.00    -0.354 N 
ATOM     29  N   UNL A   1      42.719  27.581  31.453  1.00  0.00    -0.248 NA
ATOM     30  C   UNL A   1      44.145  26.006  30.481  1.00  0.00     0.031 C 
ATOM     31  C   UNL A   1      42.953  28.826  35.750  1.00  0.00     0.029 A 
ATOM     32  C   UNL A   1      42.880  28.434  34.420  1.00  0.00     0.049 A 
ATOM     33  H   UNL A   1      41.558  29.097  32.919  1.00  0.00     0.167 HD
ATOM     34  C   UNL A   1      43.598  27.118  32.420  1.00  0.00     0.074 A 
ATOM     35  C   UNL A   1      44.442  26.132  31.769  1.00  0.00     0.031 C 
ATOM     36  C   UNL A   1      43.696  27.465  33.727  1.00  0.00     0.037 A 
BRANCH  23  37
ATOM     37  C   UNL A   1      39.675  31.787  35.636  1.00  0.00     0.064 A 
ATOM     38  C   UNL A   1      38.606  31.342  36.423  1.00  0.00     0.173 A 
ATOM     39  C   UNL A   1      40.231  33.043  35.927  1.00  0.00     0.173 A 
ATOM     40  F   UNL A   1      38.048  30.145  36.191  1.00  0.00    -0.203 F 
ATOM     41  C   UNL A   1      38.115  32.121  37.468  1.00  0.00     0.198 A 
ATOM     42  C   UNL A   1      39.752  33.810  36.986  1.00  0.00     0.198 A 
ATOM     43  F   UNL A   1      41.273  33.502  35.218  1.00  0.00    -0.203 F 
ATOM     44  F   UNL A   1      37.093  31.675  38.212  1.00  0.00    -0.200 F 
ATOM     45  C   UNL A   1      38.693  33.350  37.754  1.00  0.00     0.200 A 
ATOM     46  F   UNL A   1      40.333  34.982  37.280  1.00  0.00    -0.200 F 
ATOM     47  F   UNL A   1      38.239  34.083  38.779  1.00  0.00    -0.200 F 
ENDBRANCH  23  37
BRANCH  24  48
ATOM     48  C   UNL A   1      42.741  26.146  27.864  1.00  0.00     0.064 A 
ATOM     49  C   UNL A   1      43.714  26.582  26.951  1.00  0.00     0.173 A 
ATOM     50  C   UNL A   1      42.123  24.914  27.616  1.00  0.00     0.173 A 
ATOM     51  F   UNL A   1      44.329  27.760  27.137  1.00  0.00    -0.203 F 
ATOM     52  C   UNL A   1      44.040  25.828  25.825  1.00  0.00     0.198 A 
ATOM     53  C   UNL A   1      42.462  24.150  26.498  1.00  0.00     0.198 A 
ATOM     54  F   UNL A   1      41.193  24.449  28.462  1.00  0.00    -0.203 F 
ATOM     55  F   UNL A   1      44.949  26.286  24.954  1.00  0.00    -0.200 F 
ATOM     56  C   UNL A   1      43.414  24.612  25.599  1.00  0.00     0.200 A 
ATOM     57  F   UNL A   1      41.864  22.970  26.289  1.00  0.00    -0.200 F 
ATOM     58  F   UNL A   1      43.725  23.885  24.517  1.00  0.00    -0.200 F 
ENDBRANCH  24  48
BRANCH  36  59
ATOM     59  C   UNL A   1      44.749  26.777  34.538  1.00  0.00     0.064 A 
ATOM     60  C   UNL A   1      44.452  25.590  35.224  1.00  0.00     0.173 A 
ATOM     61  C   UNL A   1      46.017  27.348  34.714  1.00  0.00     0.173 A 
ATOM     62  F   UNL A   1      43.248  25.015  35.091  1.00  0.00    -0.203 F 
ATOM     63  C   UNL A   1      45.384  25.009  36.076  1.00  0.00     0.198 A 
ATOM     64  C   UNL A   1      46.955  26.749  35.548  1.00  0.00     0.198 A 
ATOM     65  F   UNL A   1      46.344  28.476  34.067  1.00  0.00    -0.203 F 
ATOM     66  F   UNL A   1      45.069  23.896  36.753  1.00  0.00    -0.200 F 
ATOM     67  C   UNL A   1      46.635  25.588  36.236  1.00  0.00     0.200 A 
ATOM     68  F   UNL A   1      48.170  27.299  35.687  1.00  0.00    -0.200 F 
ATOM     69  F   UNL A   1      47.532  25.027  37.057  1.00  0.00    -0.200 F 
ENDBRANCH  36  59
ENDBRANCH  10  11
ENDBRANCH   3   5
ENDBRANCH   2   3
ENDBRANCH   1   2
BRANCH   1  70
ATOM     70  C   UNL A   1      31.766  28.941  27.472  1.00  0.00     0.275 C 
BRANCH  70  71
ATOM     71  O   UNL A   1      32.647  27.971  26.867  1.00  0.00    -0.458 OA
BRANCH  71  72
ATOM     72  C   UNL A   1      32.115  26.854  26.317  1.00  0.00     0.345 C 
ATOM     73  O   UNL A   1      31.423  26.022  26.870  1.00  0.00    -0.246 OA
BRANCH  72  74
ATOM     74  C   UNL A   1      32.649  26.728  24.949  1.00  0.00     0.138 A 
ATOM     75  C   UNL A   1      33.252  25.491  24.666  1.00  0.00     0.141 A 
ATOM     76  C   UNL A   1      32.506  27.658  23.910  1.00  0.00     0.144 A 
ATOM     77  F   UNL A   1      33.353  24.546  25.615  1.00  0.00    -0.206 F 
ATOM     78  C   UNL A   1      33.727  25.176  23.395  1.00  0.00     0.040 A 
ATOM     79  C   UNL A   1      33.026  27.341  22.637  1.00  0.00     0.048 A 
ATOM     80  C   UNL A   1      33.636  26.114  22.378  1.00  0.00     0.007 A 
BRANCH  76  81
ATOM     81  O   UNL A   1      31.765  28.819  23.879  1.00  0.00    -0.456 OA
BRANCH  81  82
ATOM     82  C   UNL A   1      30.448  28.807  23.517  1.00  0.00     0.128 A 
ATOM     83  C   UNL A   1      29.703  27.628  23.570  1.00  0.00     0.047 A 
ATOM     84  C   UNL A   1      29.806  30.032  23.350  1.00  0.00     0.067 A 
ATOM     85  C   UNL A   1      28.320  27.671  23.360  1.00  0.00     0.005 A 
ATOM     86  C   UNL A   1      28.433  30.069  23.128  1.00  0.00     0.044 A 
ATOM     87  C   UNL A   1      27.687  28.893  23.124  1.00  0.00     0.021 A 
ATOM     88  Cl  UNL A   1      27.653  31.582  22.886  1.00  0.00    -0.084 Cl
ENDBRANCH  81  82
ENDBRANCH  76  81
ENDBRANCH  72  74
ENDBRANCH  71  72
ENDBRANCH  70  71
ENDBRANCH   1  70
TORSDOF 13
ENDMDL
