MODEL 1
REMARK VINA RESULT:     -11.5      0.000      0.000
REMARK SMILES C[C@@H](CC(=O)OCCOC(=O)c1ccc(-c2c3nc(c(-c4c(F)c(F)c(F)c(F)c4F)c4ccc([nH]4)c(-c4c(F)c(F)c(F)c(F)c4F)c4nc(c(-c5c(F)c(F)c(F)c(F)c5F)c5ccc2[nH]5)C=C4)C=C3)cc1)NC(=O)[C@@H]1CCCN(C(N)=O)C1
REMARK SMILES IDX 7 1 6 2 4 3 5 4 3 5 2 6 1 7 75 8 76 9 77 11 78 12 79 13
REMARK SMILES IDX 86 14 80 15 82 16 81 17 83 18 84 19 85 20 8 23 9 24 10 25
REMARK SMILES IDX 11 26 12 27 13 28 74 29 14 30 73 31 15 32 16 33 17 34 67 35
REMARK SMILES IDX 18 36 72 37 66 38 68 39 19 40 71 41 65 42 64 43 20 45 52 46
REMARK SMILES IDX 32 47 51 48 33 49 36 50 50 51 69 52 34 53 35 54 49 56 70 57
REMARK SMILES IDX 37 58 21 59 22 60 30 61 23 62 24 63 28 64 31 65 25 66 26 67
REMARK SMILES IDX 29 68 27 69 53 70 54 71 62 72 55 73 56 74 60 75 63 76 57 77
REMARK SMILES IDX 58 78 61 79 59 80 38 81 39 82 47 83 40 84 41 85 45 86 48 87
REMARK SMILES IDX 42 88 43 89 46 90 44 91
REMARK H PARENT 75 10 84 21 84 22 68 44 36 55
REMARK Flexibility Score: inf
ROOT
ATOM      1  C   UNL A   1      31.465  28.889  24.637  1.00  0.00     0.274 C 
ENDROOT
BRANCH   1   2
ATOM      2  O   UNL A   1      32.700  28.305  24.171  1.00  0.00    -0.462 OA
BRANCH   2   3
ATOM      3  C   UNL A   1      32.854  26.976  24.376  1.00  0.00     0.307 C 
ATOM      4  O   UNL A   1      33.243  26.479  25.429  1.00  0.00    -0.252 OA
BRANCH   3   5
ATOM      5  C   UNL A   1      32.610  26.134  23.145  1.00  0.00     0.147 C 
BRANCH   5   6
ATOM      6  C   UNL A   1      31.319  25.317  22.987  1.00  0.00     0.090 C 
ATOM      7  C   UNL A   1      30.408  25.382  24.211  1.00  0.00     0.031 C 
BRANCH   6   8
ATOM      8  N   UNL A   1      31.515  23.926  22.589  1.00  0.00    -0.353 N 
ATOM      9  C   UNL A   1      32.111  22.856  23.191  1.00  0.00     0.225 C 
ATOM     10  H   UNL A   1      31.140  23.717  21.702  1.00  0.00     0.163 HD
ATOM     11  O   UNL A   1      32.153  21.814  22.529  1.00  0.00    -0.275 OA
BRANCH   9  12
ATOM     12  C   UNL A   1      32.571  22.874  24.659  1.00  0.00     0.098 C 
ATOM     13  C   UNL A   1      34.062  23.070  24.932  1.00  0.00     0.017 C 
ATOM     14  C   UNL A   1      32.108  21.578  25.382  1.00  0.00     0.134 C 
ATOM     15  C   UNL A   1      34.858  21.863  24.470  1.00  0.00     0.022 C 
ATOM     16  N   UNL A   1      32.996  20.407  25.218  1.00  0.00    -0.324 N 
ATOM     17  C   UNL A   1      34.437  20.643  25.263  1.00  0.00     0.121 C 
BRANCH  16  18
ATOM     18  C   UNL A   1      32.609  19.087  25.337  1.00  0.00     0.314 C 
ATOM     19  N   UNL A   1      32.911  18.447  26.484  1.00  0.00    -0.351 N 
ATOM     20  O   UNL A   1      32.047  18.450  24.450  1.00  0.00    -0.249 OA
ATOM     21  H   UNL A   1      33.362  18.931  27.214  1.00  0.00     0.161 HD
ATOM     22  H   UNL A   1      32.681  17.495  26.592  1.00  0.00     0.161 HD
ENDBRANCH  16  18
ENDBRANCH   9  12
ENDBRANCH   6   8
ENDBRANCH   5   6
ENDBRANCH   3   5
ENDBRANCH   2   3
ENDBRANCH   1   2
BRANCH   1  23
ATOM     23  C   UNL A   1      31.695  30.005  25.663  1.00  0.00     0.275 C 
BRANCH  23  24
ATOM     24  O   UNL A   1      33.085  30.156  26.003  1.00  0.00    -0.458 OA
BRANCH  24  25
ATOM     25  C   UNL A   1      33.352  31.192  26.832  1.00  0.00     0.338 C 
ATOM     26  O   UNL A   1      32.613  32.128  27.088  1.00  0.00    -0.246 OA
BRANCH  25  27
ATOM     27  C   UNL A   1      34.605  30.953  27.560  1.00  0.00     0.060 A 
ATOM     28  C   UNL A   1      34.859  29.656  28.016  1.00  0.00     0.016 A 
ATOM     29  C   UNL A   1      35.489  31.991  27.850  1.00  0.00     0.016 A 
ATOM     30  C   UNL A   1      36.006  29.381  28.749  1.00  0.00     0.010 A 
ATOM     31  C   UNL A   1      36.643  31.716  28.590  1.00  0.00     0.010 A 
ATOM     32  C   UNL A   1      36.908  30.409  29.039  1.00  0.00    -0.014 A 
BRANCH  32  33
ATOM     33  C   UNL A   1      38.126  30.113  29.823  1.00  0.00     0.031 A 
ATOM     34  C   UNL A   1      39.187  29.224  29.254  1.00  0.00     0.074 A 
ATOM     35  C   UNL A   1      38.279  30.663  31.042  1.00  0.00     0.049 A 
ATOM     36  N   UNL A   1      40.263  28.749  29.827  1.00  0.00    -0.248 NA
ATOM     37  C   UNL A   1      39.017  28.817  27.851  1.00  0.00     0.031 C 
ATOM     38  C   UNL A   1      37.343  31.597  31.667  1.00  0.00     0.029 A 
ATOM     39  N   UNL A   1      39.274  30.511  31.972  1.00  0.00    -0.354 N 
ATOM     40  C   UNL A   1      40.888  27.969  28.865  1.00  0.00     0.074 A 
ATOM     41  C   UNL A   1      40.068  28.028  27.672  1.00  0.00     0.031 C 
ATOM     42  C   UNL A   1      37.808  31.934  32.881  1.00  0.00     0.029 A 
ATOM     43  C   UNL A   1      39.042  31.196  33.138  1.00  0.00     0.049 A 
ATOM     44  H   UNL A   1      40.078  29.963  31.818  1.00  0.00     0.167 HD
ATOM     45  C   UNL A   1      42.041  27.266  28.974  1.00  0.00     0.037 A 
ATOM     46  C   UNL A   1      39.728  31.198  34.295  1.00  0.00     0.037 A 
ATOM     47  C   UNL A   1      42.854  27.222  30.161  1.00  0.00     0.049 A 
ATOM     48  C   UNL A   1      40.960  30.343  34.417  1.00  0.00     0.074 A 
ATOM     49  C   UNL A   1      44.040  26.540  30.372  1.00  0.00     0.029 A 
ATOM     50  N   UNL A   1      42.563  27.891  31.342  1.00  0.00    -0.354 N 
ATOM     51  N   UNL A   1      41.531  29.582  33.516  1.00  0.00    -0.248 NA
ATOM     52  C   UNL A   1      41.634  30.337  35.723  1.00  0.00     0.031 C 
ATOM     53  C   UNL A   1      44.446  26.768  31.693  1.00  0.00     0.029 A 
ATOM     54  C   UNL A   1      43.535  27.624  32.291  1.00  0.00     0.049 A 
ATOM     55  H   UNL A   1      41.780  28.472  31.483  1.00  0.00     0.167 HD
ATOM     56  C   UNL A   1      42.637  29.021  34.136  1.00  0.00     0.074 A 
ATOM     57  C   UNL A   1      42.665  29.539  35.489  1.00  0.00     0.031 C 
ATOM     58  C   UNL A   1      43.547  28.152  33.631  1.00  0.00     0.037 A 
BRANCH  45  59
ATOM     59  C   UNL A   1      42.471  26.459  27.787  1.00  0.00     0.064 A 
ATOM     60  C   UNL A   1      41.956  25.179  27.540  1.00  0.00     0.173 A 
ATOM     61  C   UNL A   1      43.391  26.988  26.868  1.00  0.00     0.173 A 
ATOM     62  F   UNL A   1      41.086  24.624  28.397  1.00  0.00    -0.203 F 
ATOM     63  C   UNL A   1      42.364  24.447  26.427  1.00  0.00     0.198 A 
ATOM     64  C   UNL A   1      43.777  26.264  25.744  1.00  0.00     0.198 A 
ATOM     65  F   UNL A   1      43.909  28.210  27.058  1.00  0.00    -0.203 F 
ATOM     66  F   UNL A   1      41.890  23.209  26.231  1.00  0.00    -0.200 F 
ATOM     67  C   UNL A   1      43.269  24.992  25.527  1.00  0.00     0.200 A 
ATOM     68  F   UNL A   1      44.645  26.796  24.872  1.00  0.00    -0.200 F 
ATOM     69  F   UNL A   1      43.655  24.288  24.454  1.00  0.00    -0.200 F 
ENDBRANCH  45  59
BRANCH  46  70
ATOM     70  C   UNL A   1      39.246  32.011  35.439  1.00  0.00     0.064 A 
ATOM     71  C   UNL A   1      39.617  33.355  35.574  1.00  0.00     0.173 A 
ATOM     72  C   UNL A   1      38.403  31.463  36.416  1.00  0.00     0.173 A 
ATOM     73  F   UNL A   1      40.443  33.914  34.678  1.00  0.00    -0.203 F 
ATOM     74  C   UNL A   1      39.169  34.119  36.650  1.00  0.00     0.198 A 
ATOM     75  C   UNL A   1      37.934  32.234  37.478  1.00  0.00     0.198 A 
ATOM     76  F   UNL A   1      38.022  30.180  36.334  1.00  0.00    -0.203 F 
ATOM     77  F   UNL A   1      39.567  35.392  36.776  1.00  0.00    -0.200 F 
ATOM     78  C   UNL A   1      38.323  33.560  37.596  1.00  0.00     0.200 A 
ATOM     79  F   UNL A   1      37.109  31.694  38.384  1.00  0.00    -0.200 F 
ATOM     80  F   UNL A   1      37.887  34.298  38.627  1.00  0.00    -0.200 F 
ENDBRANCH  46  70
BRANCH  58  81
ATOM     81  C   UNL A   1      44.664  27.731  34.538  1.00  0.00     0.064 A 
ATOM     82  C   UNL A   1      44.567  26.582  35.336  1.00  0.00     0.173 A 
ATOM     83  C   UNL A   1      45.857  28.468  34.584  1.00  0.00     0.173 A 
ATOM     84  F   UNL A   1      43.439  25.857  35.339  1.00  0.00    -0.203 F 
ATOM     85  C   UNL A   1      45.619  26.195  36.161  1.00  0.00     0.198 A 
ATOM     86  C   UNL A   1      46.916  28.064  35.392  1.00  0.00     0.198 A 
ATOM     87  F   UNL A   1      45.998  29.573  33.836  1.00  0.00    -0.203 F 
ATOM     88  F   UNL A   1      45.492  25.116  36.946  1.00  0.00    -0.200 F 
ATOM     89  C   UNL A   1      46.794  26.932  36.184  1.00  0.00     0.200 A 
ATOM     90  F   UNL A   1      48.053  28.773  35.407  1.00  0.00    -0.200 F 
ATOM     91  F   UNL A   1      47.808  26.556  36.976  1.00  0.00    -0.200 F 
ENDBRANCH  58  81
ENDBRANCH  32  33
ENDBRANCH  25  27
ENDBRANCH  24  25
ENDBRANCH  23  24
ENDBRANCH   1  23
TORSDOF 15
ENDMDL
MODEL 2
REMARK VINA RESULT:     -11.4      0.932      1.968
REMARK SMILES C[C@@H](CC(=O)OCCOC(=O)c1ccc(-c2c3nc(c(-c4c(F)c(F)c(F)c(F)c4F)c4ccc([nH]4)c(-c4c(F)c(F)c(F)c(F)c4F)c4nc(c(-c5c(F)c(F)c(F)c(F)c5F)c5ccc2[nH]5)C=C4)C=C3)cc1)NC(=O)[C@@H]1CCCN(C(N)=O)C1
REMARK SMILES IDX 7 1 6 2 4 3 5 4 3 5 2 6 1 7 75 8 76 9 77 11 78 12 79 13
REMARK SMILES IDX 86 14 80 15 82 16 81 17 83 18 84 19 85 20 8 23 9 24 10 25
REMARK SMILES IDX 11 26 12 27 13 28 74 29 14 30 73 31 15 32 16 33 17 34 67 35
REMARK SMILES IDX 18 36 72 37 66 38 68 39 19 40 71 41 65 42 64 43 20 45 52 46
REMARK SMILES IDX 32 47 51 48 33 49 36 50 50 51 69 52 34 53 35 54 49 56 70 57
REMARK SMILES IDX 37 58 21 59 22 60 30 61 23 62 24 63 28 64 31 65 25 66 26 67
REMARK SMILES IDX 29 68 27 69 53 70 54 71 62 72 55 73 56 74 60 75 63 76 57 77
REMARK SMILES IDX 58 78 61 79 59 80 38 81 39 82 47 83 40 84 41 85 45 86 48 87
REMARK SMILES IDX 42 88 43 89 46 90 44 91
REMARK H PARENT 75 10 84 21 84 22 68 44 36 55
REMARK Flexibility Score: inf
ROOT
ATOM      1  C   UNL A   1      31.591  29.292  24.245  1.00  0.00     0.274 C 
ENDROOT
BRANCH   1   2
ATOM      2  O   UNL A   1      30.589  28.254  24.223  1.00  0.00    -0.462 OA
BRANCH   2   3
ATOM      3  C   UNL A   1      30.858  27.172  23.455  1.00  0.00     0.307 C 
ATOM      4  O   UNL A   1      31.366  27.225  22.339  1.00  0.00    -0.252 OA
BRANCH   3   5
ATOM      5  C   UNL A   1      30.374  25.867  24.042  1.00  0.00     0.147 C 
BRANCH   5   6
ATOM      6  C   UNL A   1      30.616  25.524  25.520  1.00  0.00     0.090 C 
ATOM      7  C   UNL A   1      32.044  25.807  25.980  1.00  0.00     0.031 C 
BRANCH   6   8
ATOM      8  N   UNL A   1      30.228  24.172  25.911  1.00  0.00    -0.353 N 
ATOM      9  C   UNL A   1      30.804  22.947  25.736  1.00  0.00     0.225 C 
ATOM     10  H   UNL A   1      29.375  24.137  26.402  1.00  0.00     0.163 HD
ATOM     11  O   UNL A   1      30.159  21.979  26.151  1.00  0.00    -0.275 OA
BRANCH   9  12
ATOM     12  C   UNL A   1      32.234  22.766  25.198  1.00  0.00     0.098 C 
ATOM     13  C   UNL A   1      32.440  22.864  23.687  1.00  0.00     0.017 C 
ATOM     14  C   UNL A   1      32.823  21.412  25.684  1.00  0.00     0.134 C 
ATOM     15  C   UNL A   1      31.792  21.690  22.976  1.00  0.00     0.022 C 
ATOM     16  N   UNL A   1      32.467  20.233  24.864  1.00  0.00    -0.324 N 
ATOM     17  C   UNL A   1      32.456  20.401  23.414  1.00  0.00     0.121 C 
BRANCH  16  18
ATOM     18  C   UNL A   1      32.450  18.926  25.309  1.00  0.00     0.314 C 
ATOM     19  N   UNL A   1      32.900  18.683  26.556  1.00  0.00    -0.351 N 
ATOM     20  O   UNL A   1      32.092  17.969  24.627  1.00  0.00    -0.249 OA
ATOM     21  H   UNL A   1      33.195  19.429  27.127  1.00  0.00     0.161 HD
ATOM     22  H   UNL A   1      32.934  17.759  26.896  1.00  0.00     0.161 HD
ENDBRANCH  16  18
ENDBRANCH   9  12
ENDBRANCH   6   8
ENDBRANCH   5   6
ENDBRANCH   3   5
ENDBRANCH   2   3
ENDBRANCH   1   2
BRANCH   1  23
ATOM     23  C   UNL A   1      31.775  29.899  25.640  1.00  0.00     0.275 C 
BRANCH  23  24
ATOM     24  O   UNL A   1      33.158  30.157  25.945  1.00  0.00    -0.458 OA
BRANCH  24  25
ATOM     25  C   UNL A   1      33.361  31.151  26.841  1.00  0.00     0.338 C 
ATOM     26  O   UNL A   1      32.568  32.025  27.150  1.00  0.00    -0.246 OA
BRANCH  25  27
ATOM     27  C   UNL A   1      34.621  30.935  27.565  1.00  0.00     0.060 A 
ATOM     28  C   UNL A   1      34.879  29.654  28.060  1.00  0.00     0.016 A 
ATOM     29  C   UNL A   1      35.507  31.982  27.813  1.00  0.00     0.016 A 
ATOM     30  C   UNL A   1      36.033  29.403  28.792  1.00  0.00     0.010 A 
ATOM     31  C   UNL A   1      36.668  31.731  28.551  1.00  0.00     0.010 A 
ATOM     32  C   UNL A   1      36.938  30.440  29.039  1.00  0.00    -0.014 A 
BRANCH  32  33
ATOM     33  C   UNL A   1      38.163  30.169  29.822  1.00  0.00     0.031 A 
ATOM     34  C   UNL A   1      39.248  29.315  29.244  1.00  0.00     0.074 A 
ATOM     35  C   UNL A   1      38.300  30.711  31.046  1.00  0.00     0.049 A 
ATOM     36  N   UNL A   1      40.337  28.864  29.813  1.00  0.00    -0.248 NA
ATOM     37  C   UNL A   1      39.090  28.917  27.837  1.00  0.00     0.031 C 
ATOM     38  C   UNL A   1      37.339  31.613  31.679  1.00  0.00     0.029 A 
ATOM     39  N   UNL A   1      39.299  30.577  31.974  1.00  0.00    -0.354 N 
ATOM     40  C   UNL A   1      40.983  28.110  28.843  1.00  0.00     0.074 A 
ATOM     41  C   UNL A   1      40.161  28.159  27.651  1.00  0.00     0.031 C 
ATOM     42  C   UNL A   1      37.795  31.950  32.897  1.00  0.00     0.029 A 
ATOM     43  C   UNL A   1      39.048  31.244  33.147  1.00  0.00     0.049 A 
ATOM     44  H   UNL A   1      40.118  30.053  31.816  1.00  0.00     0.167 HD
ATOM     45  C   UNL A   1      42.154  27.439  28.946  1.00  0.00     0.037 A 
ATOM     46  C   UNL A   1      39.734  31.253  34.304  1.00  0.00     0.037 A 
ATOM     47  C   UNL A   1      42.968  27.405  30.134  1.00  0.00     0.049 A 
ATOM     48  C   UNL A   1      40.988  30.431  34.419  1.00  0.00     0.074 A 
ATOM     49  C   UNL A   1      44.172  26.753  30.339  1.00  0.00     0.029 A 
ATOM     50  N   UNL A   1      42.658  28.054  31.321  1.00  0.00    -0.354 N 
ATOM     51  N   UNL A   1      41.580  29.695  33.511  1.00  0.00    -0.248 NA
ATOM     52  C   UNL A   1      41.661  30.431  35.725  1.00  0.00     0.031 C 
ATOM     53  C   UNL A   1      44.571  26.979  31.662  1.00  0.00     0.029 A 
ATOM     54  C   UNL A   1      43.637  27.804  32.268  1.00  0.00     0.049 A 
ATOM     55  H   UNL A   1      41.860  28.612  31.467  1.00  0.00     0.167 HD
ATOM     56  C   UNL A   1      42.701  29.158  34.126  1.00  0.00     0.074 A 
ATOM     57  C   UNL A   1      42.715  29.664  35.483  1.00  0.00     0.031 C 
ATOM     58  C   UNL A   1      43.634  28.319  33.613  1.00  0.00     0.037 A 
BRANCH  45  59
ATOM     59  C   UNL A   1      42.606  26.655  27.751  1.00  0.00     0.064 A 
ATOM     60  C   UNL A   1      43.495  27.193  26.810  1.00  0.00     0.173 A 
ATOM     61  C   UNL A   1      42.164  25.337  27.562  1.00  0.00     0.173 A 
ATOM     62  F   UNL A   1      43.934  28.454  26.939  1.00  0.00    -0.203 F 
ATOM     63  C   UNL A   1      43.908  26.446  25.709  1.00  0.00     0.198 A 
ATOM     64  C   UNL A   1      42.598  24.585  26.474  1.00  0.00     0.198 A 
ATOM     65  F   UNL A   1      41.315  24.777  28.437  1.00  0.00    -0.203 F 
ATOM     66  F   UNL A   1      44.727  26.993  24.800  1.00  0.00    -0.200 F 
ATOM     67  C   UNL A   1      43.465  25.141  25.545  1.00  0.00     0.200 A 
ATOM     68  F   UNL A   1      42.175  23.322  26.323  1.00  0.00    -0.200 F 
ATOM     69  F   UNL A   1      43.868  24.423  24.488  1.00  0.00    -0.200 F 
ENDBRANCH  45  59
BRANCH  46  70
ATOM     70  C   UNL A   1      39.229  32.042  35.456  1.00  0.00     0.064 A 
ATOM     71  C   UNL A   1      39.573  33.390  35.611  1.00  0.00     0.173 A 
ATOM     72  C   UNL A   1      38.391  31.464  36.421  1.00  0.00     0.173 A 
ATOM     73  F   UNL A   1      40.393  33.977  34.727  1.00  0.00    -0.203 F 
ATOM     74  C   UNL A   1      39.104  34.131  36.694  1.00  0.00     0.198 A 
ATOM     75  C   UNL A   1      37.902  32.212  37.490  1.00  0.00     0.198 A 
ATOM     76  F   UNL A   1      38.036  30.175  36.320  1.00  0.00    -0.203 F 
ATOM     77  F   UNL A   1      39.477  35.410  36.839  1.00  0.00    -0.200 F 
ATOM     78  C   UNL A   1      38.263  33.544  37.628  1.00  0.00     0.200 A 
ATOM     79  F   UNL A   1      37.082  31.644  38.385  1.00  0.00    -0.200 F 
ATOM     80  F   UNL A   1      37.808  34.259  38.666  1.00  0.00    -0.200 F 
ENDBRANCH  46  70
BRANCH  58  81
ATOM     81  C   UNL A   1      44.762  27.920  34.516  1.00  0.00     0.064 A 
ATOM     82  C   UNL A   1      45.930  28.691  34.615  1.00  0.00     0.173 A 
ATOM     83  C   UNL A   1      44.659  26.774  35.318  1.00  0.00     0.173 A 
ATOM     84  F   UNL A   1      46.081  29.785  33.854  1.00  0.00    -0.203 F 
ATOM     85  C   UNL A   1      46.962  28.316  35.470  1.00  0.00     0.198 A 
ATOM     86  C   UNL A   1      45.683  26.416  36.190  1.00  0.00     0.198 A 
ATOM     87  F   UNL A   1      43.559  26.007  35.261  1.00  0.00    -0.203 F 
ATOM     88  F   UNL A   1      48.086  29.044  35.519  1.00  0.00    -0.200 F 
ATOM     89  C   UNL A   1      46.836  27.184  36.261  1.00  0.00     0.200 A 
ATOM     90  F   UNL A   1      45.555  25.326  36.959  1.00  0.00    -0.200 F 
ATOM     91  F   UNL A   1      47.828  26.827  37.087  1.00  0.00    -0.200 F 
ENDBRANCH  58  81
ENDBRANCH  32  33
ENDBRANCH  25  27
ENDBRANCH  24  25
ENDBRANCH  23  24
ENDBRANCH   1  23
TORSDOF 15
ENDMDL
MODEL 3
REMARK VINA RESULT:     -11.4      4.900     10.139
REMARK SMILES C[C@@H](CC(=O)OCCOC(=O)c1ccc(-c2c3nc(c(-c4c(F)c(F)c(F)c(F)c4F)c4ccc([nH]4)c(-c4c(F)c(F)c(F)c(F)c4F)c4nc(c(-c5c(F)c(F)c(F)c(F)c5F)c5ccc2[nH]5)C=C4)C=C3)cc1)NC(=O)[C@@H]1CCCN(C(N)=O)C1
REMARK SMILES IDX 7 1 6 2 4 3 5 4 3 5 2 6 1 7 75 8 76 9 77 11 78 12 79 13
REMARK SMILES IDX 86 14 80 15 82 16 81 17 83 18 84 19 85 20 8 23 9 24 10 25
REMARK SMILES IDX 11 26 12 27 13 28 74 29 14 30 73 31 15 32 16 33 17 34 67 35
REMARK SMILES IDX 18 36 72 37 66 38 68 39 19 40 71 41 65 42 64 43 20 45 52 46
REMARK SMILES IDX 32 47 51 48 33 49 36 50 50 51 69 52 34 53 35 54 49 56 70 57
REMARK SMILES IDX 37 58 21 59 22 60 30 61 23 62 24 63 28 64 31 65 25 66 26 67
REMARK SMILES IDX 29 68 27 69 53 70 54 71 62 72 55 73 56 74 60 75 63 76 57 77
REMARK SMILES IDX 58 78 61 79 59 80 38 81 39 82 47 83 40 84 41 85 45 86 48 87
REMARK SMILES IDX 42 88 43 89 46 90 44 91
REMARK H PARENT 75 10 84 21 84 22 68 44 36 55
REMARK Flexibility Score: inf
ROOT
ATOM      1  C   UNL A   1      38.485  20.223  25.175  1.00  0.00     0.274 C 
ENDROOT
BRANCH   1   2
ATOM      2  O   UNL A   1      38.508  21.649  25.397  1.00  0.00    -0.462 OA
BRANCH   2   3
ATOM      3  C   UNL A   1      37.473  22.355  24.888  1.00  0.00     0.307 C 
ATOM      4  O   UNL A   1      36.934  22.115  23.811  1.00  0.00    -0.252 OA
BRANCH   3   5
ATOM      5  C   UNL A   1      37.089  23.562  25.712  1.00  0.00     0.147 C 
BRANCH   5   6
ATOM      6  C   UNL A   1      35.628  24.026  25.805  1.00  0.00     0.090 C 
ATOM      7  C   UNL A   1      34.732  23.056  26.572  1.00  0.00     0.031 C 
BRANCH   6   8
ATOM      8  N   UNL A   1      35.008  24.370  24.528  1.00  0.00    -0.353 N 
ATOM      9  C   UNL A   1      34.082  25.301  24.159  1.00  0.00     0.225 C 
ATOM     10  H   UNL A   1      35.324  23.813  23.779  1.00  0.00     0.163 HD
ATOM     11  O   UNL A   1      33.727  25.277  22.976  1.00  0.00    -0.275 OA
BRANCH   9  12
ATOM     12  C   UNL A   1      33.606  26.423  25.099  1.00  0.00     0.098 C 
ATOM     13  C   UNL A   1      32.506  26.086  26.105  1.00  0.00     0.017 C 
ATOM     14  C   UNL A   1      33.150  27.658  24.272  1.00  0.00     0.134 C 
ATOM     15  C   UNL A   1      31.189  25.823  25.398  1.00  0.00     0.022 C 
ATOM     16  N   UNL A   1      31.757  27.612  23.777  1.00  0.00    -0.324 N 
ATOM     17  C   UNL A   1      30.739  27.079  24.679  1.00  0.00     0.121 C 
BRANCH  16  18
ATOM     18  C   UNL A   1      31.274  28.300  22.682  1.00  0.00     0.314 C 
ATOM     19  N   UNL A   1      32.015  29.323  22.209  1.00  0.00    -0.351 N 
ATOM     20  O   UNL A   1      30.197  28.068  22.140  1.00  0.00    -0.249 OA
ATOM     21  H   UNL A   1      32.883  29.534  22.623  1.00  0.00     0.161 HD
ATOM     22  H   UNL A   1      31.687  29.858  21.451  1.00  0.00     0.161 HD
ENDBRANCH  16  18
ENDBRANCH   9  12
ENDBRANCH   6   8
ENDBRANCH   5   6
ENDBRANCH   3   5
ENDBRANCH   2   3
ENDBRANCH   1   2
BRANCH   1  23
ATOM     23  C   UNL A   1      39.559  19.486  25.984  1.00  0.00     0.275 C 
BRANCH  23  24
ATOM     24  O   UNL A   1      40.798  19.362  25.261  1.00  0.00    -0.458 OA
BRANCH  24  25
ATOM     25  C   UNL A   1      41.902  19.301  26.042  1.00  0.00     0.338 C 
ATOM     26  O   UNL A   1      42.603  18.322  26.235  1.00  0.00    -0.246 OA
BRANCH  25  27
ATOM     27  C   UNL A   1      42.280  20.646  26.495  1.00  0.00     0.060 A 
ATOM     28  C   UNL A   1      42.636  21.587  25.524  1.00  0.00     0.016 A 
ATOM     29  C   UNL A   1      42.349  20.966  27.850  1.00  0.00     0.016 A 
ATOM     30  C   UNL A   1      43.046  22.861  25.897  1.00  0.00     0.010 A 
ATOM     31  C   UNL A   1      42.764  22.247  28.227  1.00  0.00     0.010 A 
ATOM     32  C   UNL A   1      43.109  23.201  27.252  1.00  0.00    -0.014 A 
BRANCH  32  33
ATOM     33  C   UNL A   1      43.550  24.557  27.645  1.00  0.00     0.031 A 
ATOM     34  C   UNL A   1      42.539  25.597  28.009  1.00  0.00     0.074 A 
ATOM     35  C   UNL A   1      44.865  24.839  27.687  1.00  0.00     0.049 A 
ATOM     36  N   UNL A   1      42.715  26.869  28.262  1.00  0.00    -0.248 NA
ATOM     37  C   UNL A   1      41.142  25.147  28.108  1.00  0.00     0.031 C 
ATOM     38  C   UNL A   1      45.940  23.883  27.419  1.00  0.00     0.029 A 
ATOM     39  N   UNL A   1      45.518  26.010  27.968  1.00  0.00    -0.354 N 
ATOM     40  C   UNL A   1      41.452  27.379  28.526  1.00  0.00     0.074 A 
ATOM     41  C   UNL A   1      40.516  26.280  28.397  1.00  0.00     0.031 C 
ATOM     42  C   UNL A   1      47.122  24.510  27.545  1.00  0.00     0.029 A 
ATOM     43  C   UNL A   1      46.882  25.918  27.848  1.00  0.00     0.049 A 
ATOM     44  H   UNL A   1      45.054  26.838  28.230  1.00  0.00     0.167 HD
ATOM     45  C   UNL A   1      41.110  28.649  28.844  1.00  0.00     0.037 A 
ATOM     46  C   UNL A   1      47.828  26.872  27.934  1.00  0.00     0.037 A 
ATOM     47  C   UNL A   1      42.050  29.732  28.980  1.00  0.00     0.049 A 
ATOM     48  C   UNL A   1      47.413  28.292  28.206  1.00  0.00     0.074 A 
ATOM     49  C   UNL A   1      41.803  31.056  29.299  1.00  0.00     0.029 A 
ATOM     50  N   UNL A   1      43.421  29.613  28.803  1.00  0.00    -0.354 N 
ATOM     51  N   UNL A   1      46.215  28.775  28.424  1.00  0.00    -0.248 NA
ATOM     52  C   UNL A   1      48.482  29.300  28.229  1.00  0.00     0.031 C 
ATOM     53  C   UNL A   1      43.022  31.745  29.279  1.00  0.00     0.029 A 
ATOM     54  C   UNL A   1      44.032  30.842  28.988  1.00  0.00     0.049 A 
ATOM     55  H   UNL A   1      43.890  28.777  28.580  1.00  0.00     0.167 HD
ATOM     56  C   UNL A   1      46.385  30.137  28.627  1.00  0.00     0.074 A 
ATOM     57  C   UNL A   1      47.805  30.402  28.518  1.00  0.00     0.031 C 
ATOM     58  C   UNL A   1      45.447  31.084  28.878  1.00  0.00     0.037 A 
BRANCH  45  59
ATOM     59  C   UNL A   1      39.653  28.944  29.032  1.00  0.00     0.064 A 
ATOM     60  C   UNL A   1      38.840  29.354  27.967  1.00  0.00     0.173 A 
ATOM     61  C   UNL A   1      39.057  28.787  30.293  1.00  0.00     0.173 A 
ATOM     62  F   UNL A   1      39.367  29.534  26.746  1.00  0.00    -0.203 F 
ATOM     63  C   UNL A   1      37.486  29.618  28.160  1.00  0.00     0.198 A 
ATOM     64  C   UNL A   1      37.698  29.027  30.478  1.00  0.00     0.198 A 
ATOM     65  F   UNL A   1      39.791  28.393  31.344  1.00  0.00    -0.203 F 
ATOM     66  F   UNL A   1      36.735  30.047  27.136  1.00  0.00    -0.200 F 
ATOM     67  C   UNL A   1      36.915  29.448  29.413  1.00  0.00     0.200 A 
ATOM     68  F   UNL A   1      37.147  28.854  31.687  1.00  0.00    -0.200 F 
ATOM     69  F   UNL A   1      35.611  29.697  29.596  1.00  0.00    -0.200 F 
ENDBRANCH  45  59
BRANCH  46  70
ATOM     70  C   UNL A   1      49.255  26.518  27.728  1.00  0.00     0.064 A 
ATOM     71  C   UNL A   1      50.115  26.337  28.818  1.00  0.00     0.173 A 
ATOM     72  C   UNL A   1      49.784  26.352  26.440  1.00  0.00     0.173 A 
ATOM     73  F   UNL A   1      49.660  26.511  30.067  1.00  0.00    -0.203 F 
ATOM     74  C   UNL A   1      51.456  26.009  28.627  1.00  0.00     0.198 A 
ATOM     75  C   UNL A   1      51.118  25.999  26.250  1.00  0.00     0.198 A 
ATOM     76  F   UNL A   1      49.001  26.518  25.365  1.00  0.00    -0.203 F 
ATOM     77  F   UNL A   1      52.268  25.876  29.685  1.00  0.00    -0.200 F 
ATOM     78  C   UNL A   1      51.955  25.834  27.344  1.00  0.00     0.200 A 
ATOM     79  F   UNL A   1      51.593  25.821  25.010  1.00  0.00    -0.200 F 
ATOM     80  F   UNL A   1      53.243  25.513  27.162  1.00  0.00    -0.200 F 
ENDBRANCH  46  70
BRANCH  58  81
ATOM     81  C   UNL A   1      45.934  32.487  29.080  1.00  0.00     0.064 A 
ATOM     82  C   UNL A   1      46.026  33.393  28.013  1.00  0.00     0.173 A 
ATOM     83  C   UNL A   1      46.279  32.941  30.362  1.00  0.00     0.173 A 
ATOM     84  F   UNL A   1      45.725  32.998  26.767  1.00  0.00    -0.203 F 
ATOM     85  C   UNL A   1      46.465  34.697  28.219  1.00  0.00     0.198 A 
ATOM     86  C   UNL A   1      46.694  34.254  30.568  1.00  0.00     0.198 A 
ATOM     87  F   UNL A   1      46.205  32.113  31.415  1.00  0.00    -0.203 F 
ATOM     88  F   UNL A   1      46.584  35.534  27.180  1.00  0.00    -0.200 F 
ATOM     89  C   UNL A   1      46.792  35.129  29.497  1.00  0.00     0.200 A 
ATOM     90  F   UNL A   1      47.002  34.671  31.804  1.00  0.00    -0.200 F 
ATOM     91  F   UNL A   1      47.210  36.386  29.694  1.00  0.00    -0.200 F 
ENDBRANCH  58  81
ENDBRANCH  32  33
ENDBRANCH  25  27
ENDBRANCH  24  25
ENDBRANCH  23  24
ENDBRANCH   1  23
TORSDOF 15
ENDMDL
