MODEL 1
REMARK VINA RESULT:     -12.7      0.000      0.000
REMARK SMILES O=C(CCCc1nc(-c2ccc(Cl)c(Cl)c2)c(-c2ccccc2)o1)OCCOC(=O)c1ccc(-c2c3nc(c(-c4c(F)c(F)c(F)c(F)c4F)c4ccc([nH]4)c(-c4c(F)c(F)c(F)c(F)c4F)c4nc(c(-c5c(F)c(F)c(F)c(F)c5F)c5ccc2[nH]5)C=C4)C=C3)cc1
REMARK SMILES IDX 26 1 25 2 2 3 1 4 3 5 4 6 5 7 6 8 7 9 24 10 8 11 17 12 9 13
REMARK SMILES IDX 10 14 16 15 11 16 14 17 12 18 15 19 13 20 18 21 19 22 23 23
REMARK SMILES IDX 20 24 22 25 21 26 27 27 28 28 29 29 30 30 31 31 32 32 93 33
REMARK SMILES IDX 33 34 92 35 34 36 35 37 36 38 86 39 37 40 91 41 85 42 87 43
REMARK SMILES IDX 38 44 90 45 84 46 83 47 39 49 71 50 51 51 70 52 52 53 55 54
REMARK SMILES IDX 69 55 88 56 53 57 54 58 68 60 89 61 56 62 40 63 41 64 49 65
REMARK SMILES IDX 42 66 43 67 47 68 50 69 44 70 45 71 48 72 46 73 72 74 73 75
REMARK SMILES IDX 81 76 74 77 75 78 79 79 82 80 76 81 77 82 80 83 78 84 57 85
REMARK SMILES IDX 58 86 66 87 59 88 60 89 64 90 67 91 61 92 62 93 65 94 63 95
REMARK H PARENT 87 48 55 59
REMARK Flexibility Score: inf
ROOT
ATOM      1  C   UNL A   1      43.534  21.558  25.821  1.00  0.00     0.274 C 
ENDROOT
BRANCH   1   2
ATOM      2  O   UNL A   1      42.734  20.449  25.371  1.00  0.00    -0.462 OA
BRANCH   2   3
ATOM      3  C   UNL A   1      41.640  20.017  26.044  1.00  0.00     0.305 C 
ATOM      4  O   UNL A   1      41.291  18.840  25.980  1.00  0.00    -0.252 OA
BRANCH   3   5
ATOM      5  C   UNL A   1      40.794  21.036  26.777  1.00  0.00     0.123 C 
BRANCH   5   6
ATOM      6  C   UNL A   1      39.442  21.317  26.119  1.00  0.00     0.021 C 
BRANCH   6   7
ATOM      7  C   UNL A   1      38.977  22.776  26.191  1.00  0.00     0.098 C 
BRANCH   7   8
ATOM      8  C   UNL A   1      37.553  22.972  25.789  1.00  0.00     0.195 A 
ATOM      9  N   UNL A   1      36.841  24.081  25.733  1.00  0.00    -0.213 NA
ATOM     10  O   UNL A   1      36.848  21.828  25.506  1.00  0.00    -0.440 OA
ATOM     11  C   UNL A   1      35.580  23.642  25.401  1.00  0.00     0.117 A 
ATOM     12  C   UNL A   1      35.582  22.271  25.239  1.00  0.00     0.162 A 
BRANCH  11  13
ATOM     13  C   UNL A   1      34.434  24.501  25.202  1.00  0.00     0.006 A 
ATOM     14  C   UNL A   1      33.458  24.595  26.199  1.00  0.00     0.012 A 
ATOM     15  C   UNL A   1      34.330  25.305  24.058  1.00  0.00     0.032 A 
ATOM     16  C   UNL A   1      32.419  25.521  26.079  1.00  0.00     0.023 A 
ATOM     17  C   UNL A   1      33.286  26.228  23.934  1.00  0.00     0.060 A 
ATOM     18  C   UNL A   1      32.337  26.346  24.954  1.00  0.00     0.059 A 
ATOM     19  Cl  UNL A   1      33.245  27.206  22.510  1.00  0.00    -0.083 Cl
ATOM     20  Cl  UNL A   1      31.051  27.498  24.893  1.00  0.00    -0.083 Cl
ENDBRANCH  11  13
BRANCH  12  21
ATOM     21  C   UNL A   1      34.600  21.282  24.831  1.00  0.00     0.020 A 
ATOM     22  C   UNL A   1      33.415  21.660  24.190  1.00  0.00     0.012 A 
ATOM     23  C   UNL A   1      34.870  19.919  25.012  1.00  0.00     0.012 A 
ATOM     24  C   UNL A   1      32.537  20.690  23.701  1.00  0.00     0.001 A 
ATOM     25  C   UNL A   1      33.984  18.950  24.538  1.00  0.00     0.001 A 
ATOM     26  C   UNL A   1      32.823  19.336  23.873  1.00  0.00     0.000 A 
ENDBRANCH  12  21
ENDBRANCH   7   8
ENDBRANCH   6   7
ENDBRANCH   5   6
ENDBRANCH   3   5
ENDBRANCH   2   3
ENDBRANCH   1   2
BRANCH   1  27
ATOM     27  C   UNL A   1      44.130  22.373  24.674  1.00  0.00     0.275 C 
BRANCH  27  28
ATOM     28  O   UNL A   1      43.462  23.636  24.549  1.00  0.00    -0.458 OA
BRANCH  28  29
ATOM     29  C   UNL A   1      44.179  24.687  25.018  1.00  0.00     0.338 C 
ATOM     30  O   UNL A   1      45.278  25.045  24.636  1.00  0.00    -0.246 OA
BRANCH  29  31
ATOM     31  C   UNL A   1      43.371  25.465  25.983  1.00  0.00     0.060 A 
ATOM     32  C   UNL A   1      43.824  26.752  26.291  1.00  0.00     0.016 A 
ATOM     33  C   UNL A   1      42.216  24.960  26.589  1.00  0.00     0.016 A 
ATOM     34  C   UNL A   1      43.167  27.512  27.256  1.00  0.00     0.010 A 
ATOM     35  C   UNL A   1      41.554  25.725  27.556  1.00  0.00     0.010 A 
ATOM     36  C   UNL A   1      42.054  26.986  27.923  1.00  0.00    -0.014 A 
BRANCH  36  37
ATOM     37  C   UNL A   1      41.528  27.706  29.106  1.00  0.00     0.031 A 
ATOM     38  C   UNL A   1      42.257  27.582  30.414  1.00  0.00     0.074 A 
ATOM     39  C   UNL A   1      40.460  28.516  29.002  1.00  0.00     0.049 A 
ATOM     40  N   UNL A   1      42.038  28.195  31.550  1.00  0.00    -0.248 NA
ATOM     41  C   UNL A   1      43.390  26.644  30.445  1.00  0.00     0.031 C 
ATOM     42  C   UNL A   1      39.683  28.737  27.785  1.00  0.00     0.029 A 
ATOM     43  N   UNL A   1      39.855  29.314  29.941  1.00  0.00    -0.354 N 
ATOM     44  C   UNL A   1      43.013  27.730  32.421  1.00  0.00     0.074 A 
ATOM     45  C   UNL A   1      43.797  26.750  31.701  1.00  0.00     0.031 C 
ATOM     46  C   UNL A   1      38.701  29.616  28.050  1.00  0.00     0.029 A 
ATOM     47  C   UNL A   1      38.776  30.009  29.457  1.00  0.00     0.049 A 
ATOM     48  H   UNL A   1      40.165  29.381  30.872  1.00  0.00     0.167 HD
ATOM     49  C   UNL A   1      43.249  28.103  33.702  1.00  0.00     0.037 A 
ATOM     50  C   UNL A   1      37.944  30.865  30.082  1.00  0.00     0.037 A 
ATOM     51  C   UNL A   1      42.468  29.071  34.423  1.00  0.00     0.049 A 
ATOM     52  C   UNL A   1      38.184  31.208  31.530  1.00  0.00     0.074 A 
ATOM     53  C   UNL A   1      42.644  29.534  35.715  1.00  0.00     0.029 A 
ATOM     54  N   UNL A   1      41.351  29.718  33.914  1.00  0.00    -0.354 N 
ATOM     55  N   UNL A   1      39.144  30.811  32.328  1.00  0.00    -0.248 NA
ATOM     56  C   UNL A   1      37.225  32.128  32.159  1.00  0.00     0.031 C 
ATOM     57  C   UNL A   1      41.604  30.423  36.005  1.00  0.00     0.029 A 
ATOM     58  C   UNL A   1      40.809  30.551  34.878  1.00  0.00     0.049 A 
ATOM     59  H   UNL A   1      40.997  29.600  33.003  1.00  0.00     0.167 HD
ATOM     60  C   UNL A   1      38.923  31.450  33.541  1.00  0.00     0.074 A 
ATOM     61  C   UNL A   1      37.744  32.272  33.371  1.00  0.00     0.031 C 
ATOM     62  C   UNL A   1      39.635  31.366  34.692  1.00  0.00     0.037 A 
BRANCH  49  63
ATOM     63  C   UNL A   1      44.396  27.445  34.409  1.00  0.00     0.064 A 
ATOM     64  C   UNL A   1      45.678  28.016  34.414  1.00  0.00     0.173 A 
ATOM     65  C   UNL A   1      44.207  26.244  35.107  1.00  0.00     0.173 A 
ATOM     66  F   UNL A   1      45.912  29.156  33.747  1.00  0.00    -0.203 F 
ATOM     67  C   UNL A   1      46.734  27.395  35.074  1.00  0.00     0.198 A 
ATOM     68  C   UNL A   1      45.260  25.639  35.787  1.00  0.00     0.198 A 
ATOM     69  F   UNL A   1      43.000  25.660  35.133  1.00  0.00    -0.203 F 
ATOM     70  F   UNL A   1      47.960  27.935  35.031  1.00  0.00    -0.200 F 
ATOM     71  C   UNL A   1      46.524  26.211  35.765  1.00  0.00     0.200 A 
ATOM     72  F   UNL A   1      45.053  24.499  36.461  1.00  0.00    -0.200 F 
ATOM     73  F   UNL A   1      47.541  25.615  36.404  1.00  0.00    -0.200 F 
ENDBRANCH  49  63
BRANCH  50  74
ATOM     74  C   UNL A   1      36.807  31.467  29.341  1.00  0.00     0.064 A 
ATOM     75  C   UNL A   1      36.808  32.823  28.987  1.00  0.00     0.173 A 
ATOM     76  C   UNL A   1      35.684  30.703  28.992  1.00  0.00     0.173 A 
ATOM     77  F   UNL A   1      37.848  33.601  29.324  1.00  0.00    -0.203 F 
ATOM     78  C   UNL A   1      35.722  33.396  28.328  1.00  0.00     0.198 A 
ATOM     79  C   UNL A   1      34.609  31.270  28.311  1.00  0.00     0.198 A 
ATOM     80  F   UNL A   1      35.633  29.401  29.312  1.00  0.00    -0.203 F 
ATOM     81  F   UNL A   1      35.729  34.705  28.042  1.00  0.00    -0.200 F 
ATOM     82  C   UNL A   1      34.627  32.618  27.986  1.00  0.00     0.200 A 
ATOM     83  F   UNL A   1      33.556  30.513  27.977  1.00  0.00    -0.200 F 
ATOM     84  F   UNL A   1      33.582  33.169  27.354  1.00  0.00    -0.200 F 
ENDBRANCH  50  74
BRANCH  62  85
ATOM     85  C   UNL A   1      39.174  32.199  35.852  1.00  0.00     0.064 A 
ATOM     86  C   UNL A   1      38.309  31.683  36.828  1.00  0.00     0.173 A 
ATOM     87  C   UNL A   1      39.643  33.511  36.016  1.00  0.00     0.173 A 
ATOM     88  F   UNL A   1      37.823  30.439  36.709  1.00  0.00    -0.203 F 
ATOM     89  C   UNL A   1      37.913  32.459  37.914  1.00  0.00     0.198 A 
ATOM     90  C   UNL A   1      39.267  34.274  37.118  1.00  0.00     0.198 A 
ATOM     91  F   UNL A   1      40.478  34.049  35.115  1.00  0.00    -0.203 F 
ATOM     92  F   UNL A   1      37.053  31.959  38.813  1.00  0.00    -0.200 F 
ATOM     93  C   UNL A   1      38.398  33.749  38.063  1.00  0.00     0.200 A 
ATOM     94  F   UNL A   1      39.746  35.517  37.267  1.00  0.00    -0.200 F 
ATOM     95  F   UNL A   1      38.022  34.491  39.114  1.00  0.00    -0.200 F 
ENDBRANCH  62  85
ENDBRANCH  36  37
ENDBRANCH  29  31
ENDBRANCH  28  29
ENDBRANCH  27  28
ENDBRANCH   1  27
TORSDOF 16
ENDMDL
MODEL 2
REMARK VINA RESULT:     -12.6      4.458      7.290
REMARK SMILES O=C(CCCc1nc(-c2ccc(Cl)c(Cl)c2)c(-c2ccccc2)o1)OCCOC(=O)c1ccc(-c2c3nc(c(-c4c(F)c(F)c(F)c(F)c4F)c4ccc([nH]4)c(-c4c(F)c(F)c(F)c(F)c4F)c4nc(c(-c5c(F)c(F)c(F)c(F)c5F)c5ccc2[nH]5)C=C4)C=C3)cc1
REMARK SMILES IDX 26 1 25 2 2 3 1 4 3 5 4 6 5 7 6 8 7 9 24 10 8 11 17 12 9 13
REMARK SMILES IDX 10 14 16 15 11 16 14 17 12 18 15 19 13 20 18 21 19 22 23 23
REMARK SMILES IDX 20 24 22 25 21 26 27 27 28 28 29 29 30 30 31 31 32 32 93 33
REMARK SMILES IDX 33 34 92 35 34 36 35 37 36 38 86 39 37 40 91 41 85 42 87 43
REMARK SMILES IDX 38 44 90 45 84 46 83 47 39 49 71 50 51 51 70 52 52 53 55 54
REMARK SMILES IDX 69 55 88 56 53 57 54 58 68 60 89 61 56 62 40 63 41 64 49 65
REMARK SMILES IDX 42 66 43 67 47 68 50 69 44 70 45 71 48 72 46 73 72 74 73 75
REMARK SMILES IDX 81 76 74 77 75 78 79 79 82 80 76 81 77 82 80 83 78 84 57 85
REMARK SMILES IDX 58 86 66 87 59 88 60 89 64 90 67 91 61 92 62 93 65 94 63 95
REMARK H PARENT 87 48 55 59
REMARK Flexibility Score: inf
ROOT
ATOM      1  C   UNL A   1      35.846  20.915  25.147  1.00  0.00     0.274 C 
ENDROOT
BRANCH   1   2
ATOM      2  O   UNL A   1      34.877  19.931  24.739  1.00  0.00    -0.462 OA
BRANCH   2   3
ATOM      3  C   UNL A   1      33.559  20.216  24.607  1.00  0.00     0.305 C 
ATOM      4  O   UNL A   1      32.738  19.317  24.445  1.00  0.00    -0.252 OA
BRANCH   3   5
ATOM      5  C   UNL A   1      33.138  21.669  24.543  1.00  0.00     0.123 C 
BRANCH   5   6
ATOM      6  C   UNL A   1      32.544  22.091  23.198  1.00  0.00     0.021 C 
BRANCH   6   7
ATOM      7  C   UNL A   1      33.184  23.331  22.566  1.00  0.00     0.098 C 
BRANCH   7   8
ATOM      8  C   UNL A   1      32.570  24.616  23.009  1.00  0.00     0.195 A 
ATOM      9  N   UNL A   1      31.619  25.333  22.441  1.00  0.00    -0.213 NA
ATOM     10  O   UNL A   1      33.118  25.186  24.132  1.00  0.00    -0.440 OA
ATOM     11  C   UNL A   1      31.539  26.454  23.234  1.00  0.00     0.117 A 
ATOM     12  C   UNL A   1      32.435  26.361  24.281  1.00  0.00     0.162 A 
BRANCH  11  13
ATOM     13  C   UNL A   1      30.614  27.547  23.027  1.00  0.00     0.006 A 
ATOM     14  C   UNL A   1      31.049  28.708  22.382  1.00  0.00     0.012 A 
ATOM     15  C   UNL A   1      29.266  27.423  23.390  1.00  0.00     0.032 A 
ATOM     16  C   UNL A   1      30.136  29.713  22.054  1.00  0.00     0.023 A 
ATOM     17  C   UNL A   1      28.351  28.431  23.067  1.00  0.00     0.060 A 
ATOM     18  C   UNL A   1      28.785  29.572  22.386  1.00  0.00     0.059 A 
ATOM     19  Cl  UNL A   1      26.700  28.190  23.519  1.00  0.00    -0.083 Cl
ATOM     20  Cl  UNL A   1      27.704  30.833  21.910  1.00  0.00    -0.083 Cl
ENDBRANCH  11  13
BRANCH  12  21
ATOM     21  C   UNL A   1      32.747  27.173  25.443  1.00  0.00     0.020 A 
ATOM     22  C   UNL A   1      33.959  27.865  25.539  1.00  0.00     0.012 A 
ATOM     23  C   UNL A   1      31.791  27.334  26.455  1.00  0.00     0.012 A 
ATOM     24  C   UNL A   1      34.194  28.734  26.608  1.00  0.00     0.001 A 
ATOM     25  C   UNL A   1      32.033  28.189  27.531  1.00  0.00     0.001 A 
ATOM     26  C   UNL A   1      33.230  28.897  27.601  1.00  0.00     0.000 A 
ENDBRANCH  12  21
ENDBRANCH   7   8
ENDBRANCH   6   7
ENDBRANCH   5   6
ENDBRANCH   3   5
ENDBRANCH   2   3
ENDBRANCH   1   2
BRANCH   1  27
ATOM     27  C   UNL A   1      37.290  20.440  24.979  1.00  0.00     0.275 C 
BRANCH  27  28
ATOM     28  O   UNL A   1      38.207  21.525  25.177  1.00  0.00    -0.458 OA
BRANCH  28  29
ATOM     29  C   UNL A   1      39.233  21.232  26.013  1.00  0.00     0.338 C 
ATOM     30  O   UNL A   1      39.789  20.156  26.131  1.00  0.00    -0.246 OA
BRANCH  29  31
ATOM     31  C   UNL A   1      39.712  22.461  26.682  1.00  0.00     0.060 A 
ATOM     32  C   UNL A   1      39.092  23.661  26.318  1.00  0.00     0.016 A 
ATOM     33  C   UNL A   1      40.747  22.460  27.624  1.00  0.00     0.016 A 
ATOM     34  C   UNL A   1      39.547  24.870  26.839  1.00  0.00     0.010 A 
ATOM     35  C   UNL A   1      41.202  23.674  28.150  1.00  0.00     0.010 A 
ATOM     36  C   UNL A   1      40.631  24.887  27.726  1.00  0.00    -0.014 A 
BRANCH  36  37
ATOM     37  C   UNL A   1      41.248  26.188  28.070  1.00  0.00     0.031 A 
ATOM     38  C   UNL A   1      42.653  26.468  27.615  1.00  0.00     0.074 A 
ATOM     39  C   UNL A   1      40.545  27.136  28.713  1.00  0.00     0.049 A 
ATOM     40  N   UNL A   1      43.357  27.567  27.715  1.00  0.00    -0.248 NA
ATOM     41  C   UNL A   1      43.359  25.360  26.952  1.00  0.00     0.031 C 
ATOM     42  C   UNL A   1      39.171  26.994  29.185  1.00  0.00     0.029 A 
ATOM     43  N   UNL A   1      40.895  28.415  29.069  1.00  0.00    -0.354 N 
ATOM     44  C   UNL A   1      44.577  27.288  27.115  1.00  0.00     0.074 A 
ATOM     45  C   UNL A   1      44.538  25.904  26.695  1.00  0.00     0.031 C 
ATOM     46  C   UNL A   1      38.790  28.143  29.770  1.00  0.00     0.029 A 
ATOM     47  C   UNL A   1      39.899  29.095  29.722  1.00  0.00     0.049 A 
ATOM     48  H   UNL A   1      41.778  28.806  28.875  1.00  0.00     0.167 HD
ATOM     49  C   UNL A   1      45.628  28.118  26.912  1.00  0.00     0.037 A 
ATOM     50  C   UNL A   1      39.887  30.347  30.222  1.00  0.00     0.037 A 
ATOM     51  C   UNL A   1      45.672  29.491  27.335  1.00  0.00     0.049 A 
ATOM     52  C   UNL A   1      41.098  31.227  30.049  1.00  0.00     0.074 A 
ATOM     53  C   UNL A   1      46.682  30.419  27.153  1.00  0.00     0.029 A 
ATOM     54  N   UNL A   1      44.661  30.131  28.037  1.00  0.00    -0.354 N 
ATOM     55  N   UNL A   1      42.224  30.975  29.426  1.00  0.00    -0.248 NA
ATOM     56  C   UNL A   1      41.030  32.570  30.641  1.00  0.00     0.031 C 
ATOM     57  C   UNL A   1      46.304  31.606  27.790  1.00  0.00     0.029 A 
ATOM     58  C   UNL A   1      45.038  31.432  28.325  1.00  0.00     0.049 A 
ATOM     59  H   UNL A   1      43.804  29.720  28.294  1.00  0.00     0.167 HD
ATOM     60  C   UNL A   1      42.985  32.132  29.528  1.00  0.00     0.074 A 
ATOM     61  C   UNL A   1      42.188  33.093  30.261  1.00  0.00     0.031 C 
ATOM     62  C   UNL A   1      44.231  32.378  29.054  1.00  0.00     0.037 A 
BRANCH  49  63
ATOM     63  C   UNL A   1      46.825  27.550  26.211  1.00  0.00     0.064 A 
ATOM     64  C   UNL A   1      47.860  26.921  26.920  1.00  0.00     0.173 A 
ATOM     65  C   UNL A   1      46.929  27.615  24.814  1.00  0.00     0.173 A 
ATOM     66  F   UNL A   1      47.813  26.848  28.259  1.00  0.00    -0.203 F 
ATOM     67  C   UNL A   1      48.966  26.399  26.257  1.00  0.00     0.198 A 
ATOM     68  C   UNL A   1      48.025  27.069  24.152  1.00  0.00     0.198 A 
ATOM     69  F   UNL A   1      45.965  28.204  24.091  1.00  0.00    -0.203 F 
ATOM     70  F   UNL A   1      49.964  25.840  26.957  1.00  0.00    -0.200 F 
ATOM     71  C   UNL A   1      49.045  26.466  24.874  1.00  0.00     0.200 A 
ATOM     72  F   UNL A   1      48.096  27.128  22.816  1.00  0.00    -0.200 F 
ATOM     73  F   UNL A   1      50.110  25.959  24.236  1.00  0.00    -0.200 F 
ENDBRANCH  49  63
BRANCH  50  74
ATOM     74  C   UNL A   1      38.684  30.848  30.932  1.00  0.00     0.064 A 
ATOM     75  C   UNL A   1      37.610  31.413  30.230  1.00  0.00     0.173 A 
ATOM     76  C   UNL A   1      38.593  30.795  32.331  1.00  0.00     0.173 A 
ATOM     77  F   UNL A   1      37.663  31.510  28.893  1.00  0.00    -0.203 F 
ATOM     78  C   UNL A   1      36.499  31.921  30.901  1.00  0.00     0.198 A 
ATOM     79  C   UNL A   1      37.471  31.280  32.999  1.00  0.00     0.198 A 
ATOM     80  F   UNL A   1      39.596  30.268  33.049  1.00  0.00    -0.203 F 
ATOM     81  F   UNL A   1      35.507  32.497  30.208  1.00  0.00    -0.200 F 
ATOM     82  C   UNL A   1      36.429  31.850  32.284  1.00  0.00     0.200 A 
ATOM     83  F   UNL A   1      37.404  31.204  34.335  1.00  0.00    -0.200 F 
ATOM     84  F   UNL A   1      35.361  32.340  32.928  1.00  0.00    -0.200 F 
ENDBRANCH  50  74
BRANCH  62  85
ATOM     85  C   UNL A   1      44.804  33.745  29.292  1.00  0.00     0.064 A 
ATOM     86  C   UNL A   1      45.597  34.023  30.414  1.00  0.00     0.173 A 
ATOM     87  C   UNL A   1      44.598  34.774  28.360  1.00  0.00     0.173 A 
ATOM     88  F   UNL A   1      45.811  33.077  31.340  1.00  0.00    -0.203 F 
ATOM     89  C   UNL A   1      46.145  35.288  30.606  1.00  0.00     0.198 A 
ATOM     90  C   UNL A   1      45.170  36.030  28.541  1.00  0.00     0.198 A 
ATOM     91  F   UNL A   1      43.853  34.557  27.266  1.00  0.00    -0.203 F 
ATOM     92  F   UNL A   1      46.866  35.544  31.708  1.00  0.00    -0.200 F 
ATOM     93  C   UNL A   1      45.939  36.288  29.667  1.00  0.00     0.200 A 
ATOM     94  F   UNL A   1      44.981  36.991  27.626  1.00  0.00    -0.200 F 
ATOM     95  F   UNL A   1      46.475  37.502  29.850  1.00  0.00    -0.200 F 
ENDBRANCH  62  85
ENDBRANCH  36  37
ENDBRANCH  29  31
ENDBRANCH  28  29
ENDBRANCH  27  28
ENDBRANCH   1  27
TORSDOF 16
ENDMDL
MODEL 3
REMARK VINA RESULT:     -12.5      3.638      8.888
REMARK SMILES O=C(CCCc1nc(-c2ccc(Cl)c(Cl)c2)c(-c2ccccc2)o1)OCCOC(=O)c1ccc(-c2c3nc(c(-c4c(F)c(F)c(F)c(F)c4F)c4ccc([nH]4)c(-c4c(F)c(F)c(F)c(F)c4F)c4nc(c(-c5c(F)c(F)c(F)c(F)c5F)c5ccc2[nH]5)C=C4)C=C3)cc1
REMARK SMILES IDX 26 1 25 2 2 3 1 4 3 5 4 6 5 7 6 8 7 9 24 10 8 11 17 12 9 13
REMARK SMILES IDX 10 14 16 15 11 16 14 17 12 18 15 19 13 20 18 21 19 22 23 23
REMARK SMILES IDX 20 24 22 25 21 26 27 27 28 28 29 29 30 30 31 31 32 32 93 33
REMARK SMILES IDX 33 34 92 35 34 36 35 37 36 38 86 39 37 40 91 41 85 42 87 43
REMARK SMILES IDX 38 44 90 45 84 46 83 47 39 49 71 50 51 51 70 52 52 53 55 54
REMARK SMILES IDX 69 55 88 56 53 57 54 58 68 60 89 61 56 62 40 63 41 64 49 65
REMARK SMILES IDX 42 66 43 67 47 68 50 69 44 70 45 71 48 72 46 73 72 74 73 75
REMARK SMILES IDX 81 76 74 77 75 78 79 79 82 80 76 81 77 82 80 83 78 84 57 85
REMARK SMILES IDX 58 86 66 87 59 88 60 89 64 90 67 91 61 92 62 93 65 94 63 95
REMARK H PARENT 87 48 55 59
REMARK Flexibility Score: inf
ROOT
ATOM      1  C   UNL A   1      31.709  29.215  25.448  1.00  0.00     0.274 C 
ENDROOT
BRANCH   1   2
ATOM      2  O   UNL A   1      31.370  29.252  24.049  1.00  0.00    -0.462 OA
BRANCH   2   3
ATOM      3  C   UNL A   1      30.571  28.325  23.467  1.00  0.00     0.305 C 
ATOM      4  O   UNL A   1      29.551  28.663  22.873  1.00  0.00    -0.252 OA
BRANCH   3   5
ATOM      5  C   UNL A   1      30.900  26.861  23.669  1.00  0.00     0.123 C 
BRANCH   5   6
ATOM      6  C   UNL A   1      29.812  26.068  24.394  1.00  0.00     0.021 C 
BRANCH   6   7
ATOM      7  C   UNL A   1      30.288  25.288  25.624  1.00  0.00     0.098 C 
BRANCH   7   8
ATOM      8  C   UNL A   1      31.235  24.180  25.303  1.00  0.00     0.195 A 
ATOM      9  N   UNL A   1      30.994  22.895  25.121  1.00  0.00    -0.213 NA
ATOM     10  O   UNL A   1      32.565  24.521  25.262  1.00  0.00    -0.440 OA
ATOM     11  C   UNL A   1      32.246  22.350  24.958  1.00  0.00     0.117 A 
ATOM     12  C   UNL A   1      33.207  23.339  25.021  1.00  0.00     0.162 A 
BRANCH  11  13
ATOM     13  C   UNL A   1      32.509  20.950  24.708  1.00  0.00     0.006 A 
ATOM     14  C   UNL A   1      32.881  20.116  25.767  1.00  0.00     0.012 A 
ATOM     15  C   UNL A   1      32.315  20.400  23.433  1.00  0.00     0.032 A 
ATOM     16  C   UNL A   1      33.005  18.739  25.566  1.00  0.00     0.023 A 
ATOM     17  C   UNL A   1      32.444  19.022  23.229  1.00  0.00     0.060 A 
ATOM     18  C   UNL A   1      32.776  18.188  24.301  1.00  0.00     0.059 A 
ATOM     19  Cl  UNL A   1      32.157  18.417  21.636  1.00  0.00    -0.083 Cl
ATOM     20  Cl  UNL A   1      32.904  16.474  24.136  1.00  0.00    -0.083 Cl
ENDBRANCH  11  13
BRANCH  12  21
ATOM     21  C   UNL A   1      34.649  23.384  24.853  1.00  0.00     0.020 A 
ATOM     22  C   UNL A   1      35.492  23.714  25.920  1.00  0.00     0.012 A 
ATOM     23  C   UNL A   1      35.217  23.016  23.626  1.00  0.00     0.012 A 
ATOM     24  C   UNL A   1      36.880  23.639  25.772  1.00  0.00     0.001 A 
ATOM     25  C   UNL A   1      36.604  22.957  23.475  1.00  0.00     0.001 A 
ATOM     26  C   UNL A   1      37.434  23.258  24.551  1.00  0.00     0.000 A 
ENDBRANCH  12  21
ENDBRANCH   7   8
ENDBRANCH   6   7
ENDBRANCH   5   6
ENDBRANCH   3   5
ENDBRANCH   2   3
ENDBRANCH   1   2
BRANCH   1  27
ATOM     27  C   UNL A   1      31.851  30.605  26.068  1.00  0.00     0.275 C 
BRANCH  27  28
ATOM     28  O   UNL A   1      32.655  30.553  27.254  1.00  0.00    -0.458 OA
BRANCH  28  29
ATOM     29  C   UNL A   1      33.409  31.661  27.458  1.00  0.00     0.338 C 
ATOM     30  O   UNL A   1      33.022  32.815  27.445  1.00  0.00    -0.246 OA
BRANCH  29  31
ATOM     31  C   UNL A   1      34.780  31.278  27.860  1.00  0.00     0.060 A 
ATOM     32  C   UNL A   1      35.009  29.920  28.108  1.00  0.00     0.016 A 
ATOM     33  C   UNL A   1      35.815  32.207  28.013  1.00  0.00     0.016 A 
ATOM     34  C   UNL A   1      36.250  29.495  28.575  1.00  0.00     0.010 A 
ATOM     35  C   UNL A   1      37.063  31.779  28.478  1.00  0.00     0.010 A 
ATOM     36  C   UNL A   1      37.271  30.427  28.802  1.00  0.00    -0.014 A 
BRANCH  36  37
ATOM     37  C   UNL A   1      38.487  29.988  29.525  1.00  0.00     0.031 A 
ATOM     38  C   UNL A   1      38.723  30.493  30.921  1.00  0.00     0.074 A 
ATOM     39  C   UNL A   1      39.331  29.097  28.977  1.00  0.00     0.049 A 
ATOM     40  N   UNL A   1      39.660  30.169  31.775  1.00  0.00    -0.248 NA
ATOM     41  C   UNL A   1      37.769  31.494  31.425  1.00  0.00     0.031 C 
ATOM     42  C   UNL A   1      39.199  28.519  27.643  1.00  0.00     0.029 A 
ATOM     43  N   UNL A   1      40.465  28.516  29.488  1.00  0.00    -0.354 N 
ATOM     44  C   UNL A   1      39.399  30.912  32.918  1.00  0.00     0.074 A 
ATOM     45  C   UNL A   1      38.245  31.738  32.636  1.00  0.00     0.031 C 
ATOM     46  C   UNL A   1      40.213  27.661  27.438  1.00  0.00     0.029 A 
ATOM     47  C   UNL A   1      41.070  27.641  28.623  1.00  0.00     0.049 A 
ATOM     48  H   UNL A   1      40.810  28.710  30.389  1.00  0.00     0.167 HD
ATOM     49  C   UNL A   1      40.051  30.891  34.105  1.00  0.00     0.037 A 
ATOM     50  C   UNL A   1      42.191  26.907  28.774  1.00  0.00     0.037 A 
ATOM     51  C   UNL A   1      41.203  30.078  34.386  1.00  0.00     0.049 A 
ATOM     52  C   UNL A   1      42.940  26.958  30.081  1.00  0.00     0.074 A 
ATOM     53  C   UNL A   1      41.916  29.969  35.566  1.00  0.00     0.029 A 
ATOM     54  N   UNL A   1      41.816  29.240  33.468  1.00  0.00    -0.354 N 
ATOM     55  N   UNL A   1      42.651  27.616  31.177  1.00  0.00    -0.248 NA
ATOM     56  C   UNL A   1      44.167  26.154  30.171  1.00  0.00     0.031 C 
ATOM     57  C   UNL A   1      42.993  29.103  35.348  1.00  0.00     0.029 A 
ATOM     58  C   UNL A   1      42.920  28.635  34.045  1.00  0.00     0.049 A 
ATOM     59  H   UNL A   1      41.512  29.097  32.542  1.00  0.00     0.167 HD
ATOM     60  C   UNL A   1      43.641  27.286  32.093  1.00  0.00     0.074 A 
ATOM     61  C   UNL A   1      44.533  26.359  31.429  1.00  0.00     0.031 C 
ATOM     62  C   UNL A   1      43.797  27.712  33.371  1.00  0.00     0.037 A 
BRANCH  49  63
ATOM     63  C   UNL A   1      39.535  31.793  35.187  1.00  0.00     0.064 A 
ATOM     64  C   UNL A   1      38.619  31.335  36.147  1.00  0.00     0.173 A 
ATOM     65  C   UNL A   1      39.978  33.120  35.279  1.00  0.00     0.173 A 
ATOM     66  F   UNL A   1      38.154  30.078  36.092  1.00  0.00    -0.203 F 
ATOM     67  C   UNL A   1      38.148  32.182  37.146  1.00  0.00     0.198 A 
ATOM     68  C   UNL A   1      39.524  33.957  36.294  1.00  0.00     0.198 A 
ATOM     69  F   UNL A   1      40.854  33.604  34.386  1.00  0.00    -0.203 F 
ATOM     70  F   UNL A   1      37.241  31.738  38.027  1.00  0.00    -0.200 F 
ATOM     71  C   UNL A   1      38.605  33.489  37.223  1.00  0.00     0.200 A 
ATOM     72  F   UNL A   1      39.972  35.217  36.373  1.00  0.00    -0.200 F 
ATOM     73  F   UNL A   1      38.153  34.303  38.188  1.00  0.00    -0.200 F 
ENDBRANCH  49  63
BRANCH  50  74
ATOM     74  C   UNL A   1      42.672  26.052  27.660  1.00  0.00     0.064 A 
ATOM     75  C   UNL A   1      43.629  26.520  26.749  1.00  0.00     0.173 A 
ATOM     76  C   UNL A   1      42.166  24.758  27.468  1.00  0.00     0.173 A 
ATOM     77  F   UNL A   1      44.122  27.761  26.875  1.00  0.00    -0.203 F 
ATOM     78  C   UNL A   1      44.049  25.732  25.679  1.00  0.00     0.198 A 
ATOM     79  C   UNL A   1      42.604  23.961  26.413  1.00  0.00     0.198 A 
ATOM     80  F   UNL A   1      41.245  24.267  28.310  1.00  0.00    -0.203 F 
ATOM     81  F   UNL A   1      44.931  26.219  24.796  1.00  0.00    -0.200 F 
ATOM     82  C   UNL A   1      43.540  24.452  25.515  1.00  0.00     0.200 A 
ATOM     83  F   UNL A   1      42.115  22.724  26.263  1.00  0.00    -0.200 F 
ATOM     84  F   UNL A   1      43.942  23.695  24.485  1.00  0.00    -0.200 F 
ENDBRANCH  50  74
BRANCH  62  85
ATOM     85  C   UNL A   1      44.960  27.163  34.146  1.00  0.00     0.064 A 
ATOM     86  C   UNL A   1      46.188  27.837  34.201  1.00  0.00     0.173 A 
ATOM     87  C   UNL A   1      44.828  25.975  34.881  1.00  0.00     0.173 A 
ATOM     88  F   UNL A   1      46.369  28.968  33.503  1.00  0.00    -0.203 F 
ATOM     89  C   UNL A   1      47.249  27.330  34.947  1.00  0.00     0.198 A 
ATOM     90  C   UNL A   1      45.881  25.487  35.648  1.00  0.00     0.198 A 
ATOM     91  F   UNL A   1      43.671  25.297  34.869  1.00  0.00    -0.203 F 
ATOM     92  F   UNL A   1      48.428  27.970  34.951  1.00  0.00    -0.200 F 
ATOM     93  C   UNL A   1      47.093  26.161  35.676  1.00  0.00     0.200 A 
ATOM     94  F   UNL A   1      45.725  24.363  36.363  1.00  0.00    -0.200 F 
ATOM     95  F   UNL A   1      48.112  25.680  36.400  1.00  0.00    -0.200 F 
ENDBRANCH  62  85
ENDBRANCH  36  37
ENDBRANCH  29  31
ENDBRANCH  28  29
ENDBRANCH  27  28
ENDBRANCH   1  27
TORSDOF 16
ENDMDL
