MODEL 1
REMARK VINA RESULT:     -11.7      0.000      0.000
REMARK SMILES O=C(CC1(CC(=O)OCCOC(=O)c2ccc(-c3c4nc(c(-c5c(F)c(F)c(F)c(F)c5F)c5ccc([nH]5)c(-c5c(F)c(F)c(F)c(F)c5F)c5nc(c(-c6c(F)c(F)c(F)c(F)c6F)c6ccc3[nH]6)C=C5)C=C4)cc2)CCCCC1)Nc1ccc(F)cc1F
REMARK SMILES IDX 9 1 8 2 6 3 7 4 5 5 4 6 77 7 81 8 78 9 80 10 79 11 3 12 2 13
REMARK SMILES IDX 1 14 82 15 83 17 84 18 89 19 85 20 88 21 90 22 86 23 87 24
REMARK SMILES IDX 10 25 11 26 12 27 13 28 14 29 15 30 76 31 16 32 75 33 17 34
REMARK SMILES IDX 18 35 19 36 69 37 20 38 74 39 68 40 70 41 21 42 73 43 67 44
REMARK SMILES IDX 66 45 22 47 54 48 34 49 53 50 35 51 38 52 52 53 71 54 36 55
REMARK SMILES IDX 37 56 51 58 72 59 39 60 23 61 24 62 32 63 25 64 26 65 30 66
REMARK SMILES IDX 33 67 27 68 28 69 31 70 29 71 55 72 56 73 64 74 57 75 58 76
REMARK SMILES IDX 62 77 65 78 59 79 60 80 63 81 61 82 40 83 41 84 49 85 42 86
REMARK SMILES IDX 43 87 47 88 50 89 44 90 45 91 48 92 46 93
REMARK H PARENT 82 16 70 46 38 57
REMARK Flexibility Score: inf
ROOT
ATOM      1  C   UNL A   1      33.008  29.495  25.066  1.00  0.00     0.274 C 
ENDROOT
BRANCH   1   2
ATOM      2  O   UNL A   1      32.603  28.112  24.991  1.00  0.00    -0.462 OA
BRANCH   2   3
ATOM      3  C   UNL A   1      33.544  27.203  25.320  1.00  0.00     0.306 C 
ATOM      4  O   UNL A   1      34.189  27.220  26.364  1.00  0.00    -0.252 OA
BRANCH   3   5
ATOM      5  C   UNL A   1      33.870  26.192  24.237  1.00  0.00     0.130 C 
BRANCH   5   6
ATOM      6  C   UNL A   1      33.148  24.821  24.082  1.00  0.00    -0.011 C 
ATOM      7  C   UNL A   1      33.136  24.071  25.458  1.00  0.00     0.008 C 
ATOM      8  C   UNL A   1      33.920  23.866  23.115  1.00  0.00     0.008 C 
ATOM      9  C   UNL A   1      34.528  23.691  25.978  1.00  0.00     0.001 C 
ATOM     10  C   UNL A   1      35.340  23.548  23.580  1.00  0.00     0.001 C 
ATOM     11  C   UNL A   1      35.336  22.898  24.958  1.00  0.00     0.000 C 
BRANCH   6  12
ATOM     12  C   UNL A   1      31.689  24.943  23.532  1.00  0.00     0.108 C 
BRANCH  12  13
ATOM     13  C   UNL A   1      31.129  26.150  22.753  1.00  0.00     0.225 C 
ATOM     14  O   UNL A   1      31.413  26.264  21.563  1.00  0.00    -0.275 OA
ATOM     15  N   UNL A   1      30.336  27.030  23.448  1.00  0.00    -0.324 N 
ATOM     16  H   UNL A   1      30.212  26.832  24.404  1.00  0.00     0.170 HD
BRANCH  15  17
ATOM     17  C   UNL A   1      29.675  28.187  22.968  1.00  0.00     0.077 A 
ATOM     18  C   UNL A   1      28.277  28.190  23.127  1.00  0.00     0.032 A 
ATOM     19  C   UNL A   1      30.275  29.304  22.369  1.00  0.00     0.149 A 
ATOM     20  C   UNL A   1      27.516  29.300  22.754  1.00  0.00     0.041 A 
ATOM     21  C   UNL A   1      29.511  30.402  21.970  1.00  0.00     0.080 A 
ATOM     22  F   UNL A   1      31.584  29.348  22.090  1.00  0.00    -0.205 F 
ATOM     23  C   UNL A   1      28.143  30.399  22.185  1.00  0.00     0.126 A 
ATOM     24  F   UNL A   1      27.410  31.459  21.826  1.00  0.00    -0.207 F 
ENDBRANCH  15  17
ENDBRANCH  12  13
ENDBRANCH   6  12
ENDBRANCH   5   6
ENDBRANCH   3   5
ENDBRANCH   2   3
ENDBRANCH   1   2
BRANCH   1  25
ATOM     25  C   UNL A   1      32.020  30.342  25.865  1.00  0.00     0.275 C 
BRANCH  25  26
ATOM     26  O   UNL A   1      32.491  30.545  27.209  1.00  0.00    -0.458 OA
BRANCH  26  27
ATOM     27  C   UNL A   1      33.235  31.658  27.389  1.00  0.00     0.338 C 
ATOM     28  O   UNL A   1      32.879  32.816  27.226  1.00  0.00    -0.246 OA
BRANCH  27  29
ATOM     29  C   UNL A   1      34.575  31.285  27.858  1.00  0.00     0.060 A 
ATOM     30  C   UNL A   1      34.805  29.981  28.292  1.00  0.00     0.016 A 
ATOM     31  C   UNL A   1      35.573  32.253  27.976  1.00  0.00     0.016 A 
ATOM     32  C   UNL A   1      36.013  29.660  28.903  1.00  0.00     0.010 A 
ATOM     33  C   UNL A   1      36.807  31.911  28.544  1.00  0.00     0.010 A 
ATOM     34  C   UNL A   1      37.027  30.619  29.047  1.00  0.00    -0.014 A 
BRANCH  34  35
ATOM     35  C   UNL A   1      38.280  30.247  29.763  1.00  0.00     0.031 A 
ATOM     36  C   UNL A   1      38.573  30.786  31.138  1.00  0.00     0.074 A 
ATOM     37  C   UNL A   1      39.116  29.340  29.220  1.00  0.00     0.049 A 
ATOM     38  N   UNL A   1      39.595  30.535  31.922  1.00  0.00    -0.248 NA
ATOM     39  C   UNL A   1      37.585  31.703  31.726  1.00  0.00     0.031 C 
ATOM     40  C   UNL A   1      38.930  28.699  27.919  1.00  0.00     0.029 A 
ATOM     41  N   UNL A   1      40.276  28.784  29.702  1.00  0.00    -0.354 N 
ATOM     42  C   UNL A   1      39.358  31.234  33.096  1.00  0.00     0.074 A 
ATOM     43  C   UNL A   1      38.125  31.970  32.907  1.00  0.00     0.031 C 
ATOM     44  C   UNL A   1      39.914  27.809  27.723  1.00  0.00     0.029 A 
ATOM     45  C   UNL A   1      40.844  27.871  28.848  1.00  0.00     0.049 A 
ATOM     46  H   UNL A   1      40.663  29.017  30.577  1.00  0.00     0.167 HD
ATOM     47  C   UNL A   1      40.079  31.235  34.243  1.00  0.00     0.037 A 
ATOM     48  C   UNL A   1      41.998  27.184  28.935  1.00  0.00     0.037 A 
ATOM     49  C   UNL A   1      41.314  30.523  34.444  1.00  0.00     0.049 A 
ATOM     50  C   UNL A   1      42.882  27.368  30.135  1.00  0.00     0.074 A 
ATOM     51  C   UNL A   1      42.115  30.483  35.573  1.00  0.00     0.029 A 
ATOM     52  N   UNL A   1      41.934  29.734  33.488  1.00  0.00    -0.354 N 
ATOM     53  N   UNL A   1      42.653  28.043  31.233  1.00  0.00    -0.248 NA
ATOM     54  C   UNL A   1      44.198  26.715  30.095  1.00  0.00     0.031 C 
ATOM     55  C   UNL A   1      43.246  29.711  35.282  1.00  0.00     0.029 A 
ATOM     56  C   UNL A   1      43.133  29.244  33.984  1.00  0.00     0.049 A 
ATOM     57  H   UNL A   1      41.577  29.549  32.589  1.00  0.00     0.167 HD
ATOM     58  C   UNL A   1      43.790  27.897  32.015  1.00  0.00     0.074 A 
ATOM     59  C   UNL A   1      44.702  27.050  31.276  1.00  0.00     0.031 C 
ATOM     60  C   UNL A   1      44.051  28.425  33.236  1.00  0.00     0.037 A 
BRANCH  47  61
ATOM     61  C   UNL A   1      39.544  32.039  35.388  1.00  0.00     0.064 A 
ATOM     62  C   UNL A   1      39.862  33.399  35.528  1.00  0.00     0.173 A 
ATOM     63  C   UNL A   1      38.667  31.466  36.319  1.00  0.00     0.173 A 
ATOM     64  F   UNL A   1      40.704  33.986  34.665  1.00  0.00    -0.203 F 
ATOM     65  C   UNL A   1      39.325  34.153  36.568  1.00  0.00     0.198 A 
ATOM     66  C   UNL A   1      38.121  32.228  37.348  1.00  0.00     0.198 A 
ATOM     67  F   UNL A   1      38.329  30.171  36.221  1.00  0.00    -0.203 F 
ATOM     68  F   UNL A   1      39.654  35.446  36.696  1.00  0.00    -0.200 F 
ATOM     69  C   UNL A   1      38.452  33.569  37.474  1.00  0.00     0.200 A 
ATOM     70  F   UNL A   1      37.269  31.665  38.217  1.00  0.00    -0.200 F 
ATOM     71  F   UNL A   1      37.928  34.298  38.469  1.00  0.00    -0.200 F 
ENDBRANCH  47  61
BRANCH  48  72
ATOM     72  C   UNL A   1      42.408  26.295  27.817  1.00  0.00     0.064 A 
ATOM     73  C   UNL A   1      41.918  24.988  27.712  1.00  0.00     0.173 A 
ATOM     74  C   UNL A   1      43.289  26.746  26.822  1.00  0.00     0.173 A 
ATOM     75  F   UNL A   1      41.097  24.501  28.655  1.00  0.00    -0.203 F 
ATOM     76  C   UNL A   1      42.289  24.166  26.649  1.00  0.00     0.198 A 
ATOM     77  C   UNL A   1      43.635  25.935  25.746  1.00  0.00     0.198 A 
ATOM     78  F   UNL A   1      43.794  27.987  26.884  1.00  0.00    -0.203 F 
ATOM     79  F   UNL A   1      41.829  22.910  26.584  1.00  0.00    -0.200 F 
ATOM     80  C   UNL A   1      43.137  24.645  25.661  1.00  0.00     0.200 A 
ATOM     81  F   UNL A   1      44.445  26.408  24.788  1.00  0.00    -0.200 F 
ATOM     82  F   UNL A   1      43.479  23.860  24.631  1.00  0.00    -0.200 F 
ENDBRANCH  48  72
BRANCH  60  83
ATOM     83  C   UNL A   1      45.387  28.117  33.843  1.00  0.00     0.064 A 
ATOM     84  C   UNL A   1      46.486  28.966  33.645  1.00  0.00     0.173 A 
ATOM     85  C   UNL A   1      45.568  26.983  34.648  1.00  0.00     0.173 A 
ATOM     86  F   UNL A   1      46.368  30.053  32.867  1.00  0.00    -0.203 F 
ATOM     87  C   UNL A   1      47.724  28.680  34.215  1.00  0.00     0.198 A 
ATOM     88  C   UNL A   1      46.802  26.712  35.236  1.00  0.00     0.198 A 
ATOM     89  F   UNL A   1      44.549  26.141  34.871  1.00  0.00    -0.203 F 
ATOM     90  F   UNL A   1      48.770  29.482  33.978  1.00  0.00    -0.200 F 
ATOM     91  C   UNL A   1      47.878  27.558  35.014  1.00  0.00     0.200 A 
ATOM     92  F   UNL A   1      46.949  25.632  36.015  1.00  0.00    -0.200 F 
ATOM     93  F   UNL A   1      49.071  27.285  35.564  1.00  0.00    -0.200 F 
ENDBRANCH  60  83
ENDBRANCH  34  35
ENDBRANCH  27  29
ENDBRANCH  26  27
ENDBRANCH  25  26
ENDBRANCH   1  25
TORSDOF 15
ENDMDL
MODEL 2
REMARK VINA RESULT:     -11.6      1.114      7.357
REMARK SMILES O=C(CC1(CC(=O)OCCOC(=O)c2ccc(-c3c4nc(c(-c5c(F)c(F)c(F)c(F)c5F)c5ccc([nH]5)c(-c5c(F)c(F)c(F)c(F)c5F)c5nc(c(-c6c(F)c(F)c(F)c(F)c6F)c6ccc3[nH]6)C=C5)C=C4)cc2)CCCCC1)Nc1ccc(F)cc1F
REMARK SMILES IDX 9 1 8 2 6 3 7 4 5 5 4 6 77 7 81 8 78 9 80 10 79 11 3 12 2 13
REMARK SMILES IDX 1 14 82 15 83 17 84 18 89 19 85 20 88 21 90 22 86 23 87 24
REMARK SMILES IDX 10 25 11 26 12 27 13 28 14 29 15 30 76 31 16 32 75 33 17 34
REMARK SMILES IDX 18 35 19 36 69 37 20 38 74 39 68 40 70 41 21 42 73 43 67 44
REMARK SMILES IDX 66 45 22 47 54 48 34 49 53 50 35 51 38 52 52 53 71 54 36 55
REMARK SMILES IDX 37 56 51 58 72 59 39 60 23 61 24 62 32 63 25 64 26 65 30 66
REMARK SMILES IDX 33 67 27 68 28 69 31 70 29 71 55 72 56 73 64 74 57 75 58 76
REMARK SMILES IDX 62 77 65 78 59 79 60 80 63 81 61 82 40 83 41 84 49 85 42 86
REMARK SMILES IDX 43 87 47 88 50 89 44 90 45 91 48 92 46 93
REMARK H PARENT 82 16 70 46 38 57
REMARK Flexibility Score: inf
ROOT
ATOM      1  C   UNL A   1      31.896  28.768  25.860  1.00  0.00     0.274 C 
ENDROOT
BRANCH   1   2
ATOM      2  O   UNL A   1      33.226  28.272  25.600  1.00  0.00    -0.462 OA
BRANCH   2   3
ATOM      3  C   UNL A   1      33.299  27.091  24.954  1.00  0.00     0.306 C 
ATOM      4  O   UNL A   1      33.246  26.963  23.733  1.00  0.00    -0.252 OA
BRANCH   3   5
ATOM      5  C   UNL A   1      33.319  25.866  25.849  1.00  0.00     0.130 C 
BRANCH   5   6
ATOM      6  C   UNL A   1      32.866  24.448  25.391  1.00  0.00    -0.011 C 
ATOM      7  C   UNL A   1      33.239  23.393  26.489  1.00  0.00     0.008 C 
ATOM      8  C   UNL A   1      33.635  23.980  24.114  1.00  0.00     0.008 C 
ATOM      9  C   UNL A   1      34.746  23.235  26.722  1.00  0.00     0.001 C 
ATOM     10  C   UNL A   1      35.148  23.901  24.309  1.00  0.00     0.001 C 
ATOM     11  C   UNL A   1      35.509  22.941  25.436  1.00  0.00     0.000 C 
BRANCH   6  12
ATOM     12  C   UNL A   1      31.341  24.356  25.064  1.00  0.00     0.108 C 
BRANCH  12  13
ATOM     13  C   UNL A   1      30.374  25.554  24.977  1.00  0.00     0.225 C 
ATOM     14  O   UNL A   1      29.820  25.938  26.004  1.00  0.00    -0.275 OA
ATOM     15  N   UNL A   1      30.191  26.123  23.740  1.00  0.00    -0.324 N 
ATOM     16  H   UNL A   1      30.676  25.696  22.997  1.00  0.00     0.170 HD
BRANCH  15  17
ATOM     17  C   UNL A   1      29.395  27.241  23.394  1.00  0.00     0.077 A 
ATOM     18  C   UNL A   1      30.080  28.294  22.761  1.00  0.00     0.032 A 
ATOM     19  C   UNL A   1      28.017  27.386  23.616  1.00  0.00     0.149 A 
ATOM     20  C   UNL A   1      29.396  29.425  22.311  1.00  0.00     0.041 A 
ATOM     21  C   UNL A   1      27.339  28.529  23.192  1.00  0.00     0.080 A 
ATOM     22  F   UNL A   1      27.304  26.479  24.295  1.00  0.00    -0.205 F 
ATOM     23  C   UNL A   1      28.029  29.529  22.525  1.00  0.00     0.126 A 
ATOM     24  F   UNL A   1      27.378  30.616  22.097  1.00  0.00    -0.207 F 
ENDBRANCH  15  17
ENDBRANCH  12  13
ENDBRANCH   6  12
ENDBRANCH   5   6
ENDBRANCH   3   5
ENDBRANCH   2   3
ENDBRANCH   1   2
BRANCH   1  25
ATOM     25  C   UNL A   1      31.884  30.272  26.130  1.00  0.00     0.275 C 
BRANCH  25  26
ATOM     26  O   UNL A   1      33.219  30.806  26.107  1.00  0.00    -0.458 OA
BRANCH  26  27
ATOM     27  C   UNL A   1      33.525  31.618  27.142  1.00  0.00     0.338 C 
ATOM     28  O   UNL A   1      32.867  32.561  27.557  1.00  0.00    -0.246 OA
BRANCH  27  29
ATOM     29  C   UNL A   1      34.787  31.184  27.754  1.00  0.00     0.060 A 
ATOM     30  C   UNL A   1      34.908  29.872  28.206  1.00  0.00     0.016 A 
ATOM     31  C   UNL A   1      35.810  32.106  27.983  1.00  0.00     0.016 A 
ATOM     32  C   UNL A   1      36.026  29.497  28.944  1.00  0.00     0.010 A 
ATOM     33  C   UNL A   1      36.958  31.707  28.680  1.00  0.00     0.010 A 
ATOM     34  C   UNL A   1      37.062  30.408  29.201  1.00  0.00    -0.014 A 
BRANCH  34  35
ATOM     35  C   UNL A   1      38.211  29.980  30.048  1.00  0.00     0.031 A 
ATOM     36  C   UNL A   1      39.261  29.045  29.510  1.00  0.00     0.074 A 
ATOM     37  C   UNL A   1      38.369  30.512  31.276  1.00  0.00     0.049 A 
ATOM     38  N   UNL A   1      40.348  28.603  30.096  1.00  0.00    -0.248 NA
ATOM     39  C   UNL A   1      39.090  28.563  28.131  1.00  0.00     0.031 C 
ATOM     40  C   UNL A   1      37.457  31.468  31.903  1.00  0.00     0.029 A 
ATOM     41  N   UNL A   1      39.364  30.342  32.208  1.00  0.00    -0.354 N 
ATOM     42  C   UNL A   1      41.000  27.821  29.153  1.00  0.00     0.074 A 
ATOM     43  C   UNL A   1      40.161  27.797  27.973  1.00  0.00     0.031 C 
ATOM     44  C   UNL A   1      37.953  31.831  33.095  1.00  0.00     0.029 A 
ATOM     45  C   UNL A   1      39.177  31.078  33.352  1.00  0.00     0.049 A 
ATOM     46  H   UNL A   1      40.139  29.750  32.068  1.00  0.00     0.167 HD
ATOM     47  C   UNL A   1      42.205  27.209  29.245  1.00  0.00     0.037 A 
ATOM     48  C   UNL A   1      39.885  31.121  34.497  1.00  0.00     0.037 A 
ATOM     49  C   UNL A   1      43.045  27.208  30.414  1.00  0.00     0.049 A 
ATOM     50  C   UNL A   1      41.109  30.265  34.644  1.00  0.00     0.074 A 
ATOM     51  C   UNL A   1      44.276  26.600  30.594  1.00  0.00     0.029 A 
ATOM     52  N   UNL A   1      42.734  27.839  31.608  1.00  0.00    -0.354 N 
ATOM     53  N   UNL A   1      41.707  29.519  33.749  1.00  0.00    -0.248 NA
ATOM     54  C   UNL A   1      41.743  30.237  35.970  1.00  0.00     0.031 C 
ATOM     55  C   UNL A   1      44.685  26.819  31.915  1.00  0.00     0.029 A 
ATOM     56  C   UNL A   1      43.727  27.591  32.547  1.00  0.00     0.049 A 
ATOM     57  H   UNL A   1      41.929  28.381  31.769  1.00  0.00     0.167 HD
ATOM     58  C   UNL A   1      42.785  28.934  34.399  1.00  0.00     0.074 A 
ATOM     59  C   UNL A   1      42.774  29.429  35.760  1.00  0.00     0.031 C 
ATOM     60  C   UNL A   1      43.698  28.062  33.907  1.00  0.00     0.037 A 
BRANCH  47  61
ATOM     61  C   UNL A   1      42.698  26.479  28.033  1.00  0.00     0.064 A 
ATOM     62  C   UNL A   1      42.357  25.136  27.809  1.00  0.00     0.173 A 
ATOM     63  C   UNL A   1      43.466  27.137  27.064  1.00  0.00     0.173 A 
ATOM     64  F   UNL A   1      41.629  24.465  28.714  1.00  0.00    -0.203 F 
ATOM     65  C   UNL A   1      42.779  24.477  26.657  1.00  0.00     0.198 A 
ATOM     66  C   UNL A   1      43.873  26.478  25.907  1.00  0.00     0.198 A 
ATOM     67  F   UNL A   1      43.811  28.423  27.232  1.00  0.00    -0.203 F 
ATOM     68  F   UNL A   1      42.458  23.189  26.469  1.00  0.00    -0.200 F 
ATOM     69  C   UNL A   1      43.532  25.148  25.706  1.00  0.00     0.200 A 
ATOM     70  F   UNL A   1      44.593  27.130  24.983  1.00  0.00    -0.200 F 
ATOM     71  F   UNL A   1      43.929  24.515  24.594  1.00  0.00    -0.200 F 
ENDBRANCH  47  61
BRANCH  48  72
ATOM     72  C   UNL A   1      39.412  31.973  35.619  1.00  0.00     0.064 A 
ATOM     73  C   UNL A   1      38.482  31.497  36.550  1.00  0.00     0.173 A 
ATOM     74  C   UNL A   1      39.898  33.279  35.788  1.00  0.00     0.173 A 
ATOM     75  F   UNL A   1      37.966  30.267  36.414  1.00  0.00    -0.203 F 
ATOM     76  C   UNL A   1      38.059  32.294  37.612  1.00  0.00     0.198 A 
ATOM     77  C   UNL A   1      39.499  34.062  36.865  1.00  0.00     0.198 A 
ATOM     78  F   UNL A   1      40.784  33.784  34.915  1.00  0.00    -0.203 F 
ATOM     79  F   UNL A   1      37.147  31.827  38.476  1.00  0.00    -0.200 F 
ATOM     80  C   UNL A   1      38.577  33.571  37.776  1.00  0.00     0.200 A 
ATOM     81  F   UNL A   1      40.011  35.291  37.024  1.00  0.00    -0.200 F 
ATOM     82  F   UNL A   1      38.183  34.329  38.807  1.00  0.00    -0.200 F 
ENDBRANCH  48  72
BRANCH  60  83
ATOM     83  C   UNL A   1      44.753  27.569  34.852  1.00  0.00     0.064 A 
ATOM     84  C   UNL A   1      45.940  28.290  35.052  1.00  0.00     0.173 A 
ATOM     85  C   UNL A   1      44.571  26.385  35.582  1.00  0.00     0.173 A 
ATOM     86  F   UNL A   1      46.169  29.418  34.362  1.00  0.00    -0.203 F 
ATOM     87  C   UNL A   1      46.916  27.832  35.934  1.00  0.00     0.198 A 
ATOM     88  C   UNL A   1      45.538  25.943  36.481  1.00  0.00     0.198 A 
ATOM     89  F   UNL A   1      43.453  25.661  35.428  1.00  0.00    -0.203 F 
ATOM     90  F   UNL A   1      48.059  28.514  36.078  1.00  0.00    -0.200 F 
ATOM     91  C   UNL A   1      46.711  26.663  36.652  1.00  0.00     0.200 A 
ATOM     92  F   UNL A   1      45.337  24.818  37.180  1.00  0.00    -0.200 F 
ATOM     93  F   UNL A   1      47.650  26.226  37.502  1.00  0.00    -0.200 F 
ENDBRANCH  60  83
ENDBRANCH  34  35
ENDBRANCH  27  29
ENDBRANCH  26  27
ENDBRANCH  25  26
ENDBRANCH   1  25
TORSDOF 15
ENDMDL
MODEL 3
REMARK VINA RESULT:     -11.6      4.586      7.364
REMARK SMILES O=C(CC1(CC(=O)OCCOC(=O)c2ccc(-c3c4nc(c(-c5c(F)c(F)c(F)c(F)c5F)c5ccc([nH]5)c(-c5c(F)c(F)c(F)c(F)c5F)c5nc(c(-c6c(F)c(F)c(F)c(F)c6F)c6ccc3[nH]6)C=C5)C=C4)cc2)CCCCC1)Nc1ccc(F)cc1F
REMARK SMILES IDX 9 1 8 2 6 3 7 4 5 5 4 6 77 7 81 8 78 9 80 10 79 11 3 12 2 13
REMARK SMILES IDX 1 14 82 15 83 17 84 18 89 19 85 20 88 21 90 22 86 23 87 24
REMARK SMILES IDX 10 25 11 26 12 27 13 28 14 29 15 30 76 31 16 32 75 33 17 34
REMARK SMILES IDX 18 35 19 36 69 37 20 38 74 39 68 40 70 41 21 42 73 43 67 44
REMARK SMILES IDX 66 45 22 47 54 48 34 49 53 50 35 51 38 52 52 53 71 54 36 55
REMARK SMILES IDX 37 56 51 58 72 59 39 60 23 61 24 62 32 63 25 64 26 65 30 66
REMARK SMILES IDX 33 67 27 68 28 69 31 70 29 71 55 72 56 73 64 74 57 75 58 76
REMARK SMILES IDX 62 77 65 78 59 79 60 80 63 81 61 82 40 83 41 84 49 85 42 86
REMARK SMILES IDX 43 87 47 88 50 89 44 90 45 91 48 92 46 93
REMARK H PARENT 82 16 70 46 38 57
REMARK Flexibility Score: inf
ROOT
ATOM      1  C   UNL A   1      36.127  22.598  23.830  1.00  0.00     0.274 C 
ENDROOT
BRANCH   1   2
ATOM      2  O   UNL A   1      34.965  23.090  24.530  1.00  0.00    -0.462 OA
BRANCH   2   3
ATOM      3  C   UNL A   1      34.359  24.164  23.985  1.00  0.00     0.306 C 
ATOM      4  O   UNL A   1      34.424  24.469  22.797  1.00  0.00    -0.252 OA
BRANCH   3   5
ATOM      5  C   UNL A   1      33.673  25.089  24.973  1.00  0.00     0.130 C 
BRANCH   5   6
ATOM      6  C   UNL A   1      32.187  24.939  25.414  1.00  0.00    -0.011 C 
ATOM      7  C   UNL A   1      31.262  24.885  24.150  1.00  0.00     0.008 C 
ATOM      8  C   UNL A   1      31.693  26.187  26.214  1.00  0.00     0.008 C 
ATOM      9  C   UNL A   1      31.265  26.171  23.315  1.00  0.00     0.001 C 
ATOM     10  C   UNL A   1      31.771  27.489  25.420  1.00  0.00     0.001 C 
ATOM     11  C   UNL A   1      30.942  27.407  24.144  1.00  0.00     0.000 C 
BRANCH   6  12
ATOM     12  C   UNL A   1      31.927  23.688  26.315  1.00  0.00     0.108 C 
BRANCH  12  13
ATOM     13  C   UNL A   1      31.675  22.256  25.801  1.00  0.00     0.225 C 
ATOM     14  O   UNL A   1      30.524  21.826  25.801  1.00  0.00    -0.275 OA
ATOM     15  N   UNL A   1      32.768  21.544  25.370  1.00  0.00    -0.324 N 
ATOM     16  H   UNL A   1      33.636  22.001  25.453  1.00  0.00     0.170 HD
BRANCH  15  17
ATOM     17  C   UNL A   1      32.809  20.238  24.826  1.00  0.00     0.077 A 
ATOM     18  C   UNL A   1      33.222  19.228  25.714  1.00  0.00     0.032 A 
ATOM     19  C   UNL A   1      32.476  19.870  23.513  1.00  0.00     0.149 A 
ATOM     20  C   UNL A   1      33.242  17.889  25.318  1.00  0.00     0.041 A 
ATOM     21  C   UNL A   1      32.524  18.535  23.109  1.00  0.00     0.080 A 
ATOM     22  F   UNL A   1      32.166  20.773  22.576  1.00  0.00    -0.205 F 
ATOM     23  C   UNL A   1      32.885  17.555  24.019  1.00  0.00     0.126 A 
ATOM     24  F   UNL A   1      32.909  16.272  23.642  1.00  0.00    -0.207 F 
ENDBRANCH  15  17
ENDBRANCH  12  13
ENDBRANCH   6  12
ENDBRANCH   5   6
ENDBRANCH   3   5
ENDBRANCH   2   3
ENDBRANCH   1   2
BRANCH   1  25
ATOM     25  C   UNL A   1      36.755  21.394  24.530  1.00  0.00     0.275 C 
BRANCH  25  26
ATOM     26  O   UNL A   1      37.260  21.762  25.826  1.00  0.00    -0.458 OA
BRANCH  26  27
ATOM     27  C   UNL A   1      38.586  21.566  25.995  1.00  0.00     0.338 C 
ATOM     28  O   UNL A   1      39.217  20.549  25.750  1.00  0.00    -0.246 OA
BRANCH  27  29
ATOM     29  C   UNL A   1      39.205  22.796  26.503  1.00  0.00     0.060 A 
ATOM     30  C   UNL A   1      38.680  24.029  26.122  1.00  0.00     0.016 A 
ATOM     31  C   UNL A   1      40.374  22.733  27.262  1.00  0.00     0.016 A 
ATOM     32  C   UNL A   1      39.358  25.199  26.449  1.00  0.00     0.010 A 
ATOM     33  C   UNL A   1      41.025  23.917  27.633  1.00  0.00     0.010 A 
ATOM     34  C   UNL A   1      40.543  25.163  27.199  1.00  0.00    -0.014 A 
BRANCH  34  35
ATOM     35  C   UNL A   1      41.269  26.435  27.471  1.00  0.00     0.031 A 
ATOM     36  C   UNL A   1      40.627  27.534  28.276  1.00  0.00     0.074 A 
ATOM     37  C   UNL A   1      42.552  26.569  27.080  1.00  0.00     0.049 A 
ATOM     38  N   UNL A   1      41.130  28.689  28.642  1.00  0.00    -0.248 NA
ATOM     39  C   UNL A   1      39.257  27.302  28.757  1.00  0.00     0.031 C 
ATOM     40  C   UNL A   1      43.315  25.565  26.339  1.00  0.00     0.029 A 
ATOM     41  N   UNL A   1      43.449  27.593  27.270  1.00  0.00    -0.354 N 
ATOM     42  C   UNL A   1      40.155  29.303  29.414  1.00  0.00     0.074 A 
ATOM     43  C   UNL A   1      39.006  28.423  29.421  1.00  0.00     0.031 C 
ATOM     44  C   UNL A   1      44.571  26.002  26.172  1.00  0.00     0.029 A 
ATOM     45  C   UNL A   1      44.684  27.349  26.726  1.00  0.00     0.049 A 
ATOM     46  H   UNL A   1      43.225  28.423  27.752  1.00  0.00     0.167 HD
ATOM     47  C   UNL A   1      40.222  30.474  30.091  1.00  0.00     0.037 A 
ATOM     48  C   UNL A   1      45.780  28.128  26.646  1.00  0.00     0.037 A 
ATOM     49  C   UNL A   1      41.350  31.370  30.085  1.00  0.00     0.049 A 
ATOM     50  C   UNL A   1      45.751  29.511  27.228  1.00  0.00     0.074 A 
ATOM     51  C   UNL A   1      41.493  32.585  30.733  1.00  0.00     0.029 A 
ATOM     52  N   UNL A   1      42.526  31.151  29.385  1.00  0.00    -0.354 N 
ATOM     53  N   UNL A   1      44.817  30.085  27.945  1.00  0.00    -0.248 NA
ATOM     54  C   UNL A   1      46.919  30.365  26.967  1.00  0.00     0.031 C 
ATOM     55  C   UNL A   1      42.735  33.126  30.383  1.00  0.00     0.029 A 
ATOM     56  C   UNL A   1      43.380  32.233  29.544  1.00  0.00     0.049 A 
ATOM     57  H   UNL A   1      42.726  30.348  28.852  1.00  0.00     0.167 HD
ATOM     58  C   UNL A   1      45.282  31.363  28.222  1.00  0.00     0.074 A 
ATOM     59  C   UNL A   1      46.592  31.475  27.616  1.00  0.00     0.031 C 
ATOM     60  C   UNL A   1      44.670  32.354  28.916  1.00  0.00     0.037 A 
BRANCH  47  61
ATOM     61  C   UNL A   1      39.029  30.863  30.909  1.00  0.00     0.064 A 
ATOM     62  C   UNL A   1      38.941  30.519  32.267  1.00  0.00     0.173 A 
ATOM     63  C   UNL A   1      37.997  31.629  30.353  1.00  0.00     0.173 A 
ATOM     64  F   UNL A   1      39.903  29.780  32.840  1.00  0.00    -0.203 F 
ATOM     65  C   UNL A   1      37.852  30.923  33.035  1.00  0.00     0.198 A 
ATOM     66  C   UNL A   1      36.917  32.044  31.128  1.00  0.00     0.198 A 
ATOM     67  F   UNL A   1      38.042  31.987  29.060  1.00  0.00    -0.203 F 
ATOM     68  F   UNL A   1      37.776  30.570  34.326  1.00  0.00    -0.200 F 
ATOM     69  C   UNL A   1      36.844  31.688  32.467  1.00  0.00     0.200 A 
ATOM     70  F   UNL A   1      35.949  32.791  30.581  1.00  0.00    -0.200 F 
ATOM     71  F   UNL A   1      35.801  32.084  33.210  1.00  0.00    -0.200 F 
ENDBRANCH  47  61
BRANCH  48  72
ATOM     72  C   UNL A   1      46.984  27.627  25.933  1.00  0.00     0.064 A 
ATOM     73  C   UNL A   1      47.089  27.709  24.539  1.00  0.00     0.173 A 
ATOM     74  C   UNL A   1      48.062  27.071  26.639  1.00  0.00     0.173 A 
ATOM     75  F   UNL A   1      46.073  28.206  23.818  1.00  0.00    -0.203 F 
ATOM     76  C   UNL A   1      48.230  27.258  23.879  1.00  0.00     0.198 A 
ATOM     77  C   UNL A   1      49.213  26.648  25.981  1.00  0.00     0.198 A 
ATOM     78  F   UNL A   1      48.005  26.961  27.975  1.00  0.00    -0.203 F 
ATOM     79  F   UNL A   1      48.297  27.321  22.542  1.00  0.00    -0.200 F 
ATOM     80  C   UNL A   1      49.295  26.739  24.601  1.00  0.00     0.200 A 
ATOM     81  F   UNL A   1      50.243  26.159  26.686  1.00  0.00    -0.200 F 
ATOM     82  F   UNL A   1      50.399  26.322  23.966  1.00  0.00    -0.200 F 
ENDBRANCH  48  72
BRANCH  60  83
ATOM     83  C   UNL A   1      45.403  33.656  29.041  1.00  0.00     0.064 A 
ATOM     84  C   UNL A   1      45.198  34.694  28.119  1.00  0.00     0.173 A 
ATOM     85  C   UNL A   1      46.295  33.882  30.099  1.00  0.00     0.173 A 
ATOM     86  F   UNL A   1      44.369  34.519  27.079  1.00  0.00    -0.203 F 
ATOM     87  C   UNL A   1      45.876  35.904  28.241  1.00  0.00     0.198 A 
ATOM     88  C   UNL A   1      46.954  35.102  30.231  1.00  0.00     0.198 A 
ATOM     89  F   UNL A   1      46.524  32.923  31.008  1.00  0.00    -0.203 F 
ATOM     90  F   UNL A   1      45.698  36.865  27.325  1.00  0.00    -0.200 F 
ATOM     91  C   UNL A   1      46.748  36.108  29.300  1.00  0.00     0.200 A 
ATOM     92  F   UNL A   1      47.791  35.303  31.258  1.00  0.00    -0.200 F 
ATOM     93  F   UNL A   1      47.399  37.275  29.416  1.00  0.00    -0.200 F 
ENDBRANCH  60  83
ENDBRANCH  34  35
ENDBRANCH  27  29
ENDBRANCH  26  27
ENDBRANCH  25  26
ENDBRANCH   1  25
TORSDOF 15
ENDMDL
