MODEL 1
REMARK VINA RESULT:     -11.1      0.000      0.000
REMARK SMILES C[C@](NC(=O)CSCc1cccs1)(C(=O)OCCOC(=O)c1ccc(-c2c3nc(c(-c4c(F)c(F)c(F)c(F)c4F)c4ccc([nH]4)c(-c4c(F)c(F)c(F)c(F)c4F)c4nc(c(-c5c(F)c(F)c(F)c(F)c5F)c5ccc2[nH]5)C=C4)C=C3)cc1)C(F)(F)F
REMARK SMILES IDX 16 1 14 2 15 3 2 4 1 5 85 6 86 7 87 8 88 9 3 10 4 11 5 13
REMARK SMILES IDX 6 14 7 15 8 16 9 17 10 18 13 19 11 20 12 21 17 22 18 23
REMARK SMILES IDX 19 24 20 25 21 26 22 27 23 28 84 29 24 30 83 31 25 32 26 33
REMARK SMILES IDX 27 34 77 35 28 36 82 37 76 38 78 39 29 40 81 41 75 42 74 43
REMARK SMILES IDX 30 45 62 46 42 47 61 48 43 49 46 50 60 51 79 52 44 53 45 54
REMARK SMILES IDX 59 56 80 57 47 58 31 59 32 60 40 61 33 62 34 63 38 64 41 65
REMARK SMILES IDX 35 66 36 67 39 68 37 69 63 70 64 71 72 72 65 73 66 74 70 75
REMARK SMILES IDX 73 76 67 77 68 78 71 79 69 80 48 81 49 82 57 83 50 84 51 85
REMARK SMILES IDX 55 86 58 87 52 88 53 89 56 90 54 91
REMARK H PARENT 3 12 78 44 46 55
REMARK Flexibility Score: inf
ROOT
ATOM      1  O   UNL A   1      32.077  28.360  25.132  1.00  0.00    -0.460 OA
ENDROOT
BRANCH   1   2
ATOM      2  C   UNL A   1      31.484  27.275  25.722  1.00  0.00     0.341 C 
ATOM      3  O   UNL A   1      31.076  27.272  26.877  1.00  0.00    -0.249 OA
BRANCH   2   4
ATOM      4  C   UNL A   1      31.505  26.034  24.805  1.00  0.00     0.231 C 
ATOM      5  C   UNL A   1      31.792  24.861  25.743  1.00  0.00     0.058 C 
BRANCH   4   6
ATOM      6  C   UNL A   1      30.094  25.925  24.212  1.00  0.00     0.422 C 
ATOM      7  F   UNL A   1      29.849  26.937  23.348  1.00  0.00    -0.168 F 
ATOM      8  F   UNL A   1      29.940  24.778  23.510  1.00  0.00    -0.168 F 
ATOM      9  F   UNL A   1      29.115  25.931  25.140  1.00  0.00    -0.168 F 
ENDBRANCH   4   6
BRANCH   4  10
ATOM     10  N   UNL A   1      32.571  26.245  23.770  1.00  0.00    -0.332 N 
ATOM     11  C   UNL A   1      33.225  25.459  22.881  1.00  0.00     0.231 C 
ATOM     12  H   UNL A   1      32.868  27.183  23.726  1.00  0.00     0.164 HD
ATOM     13  O   UNL A   1      33.905  26.048  22.035  1.00  0.00    -0.274 OA
BRANCH  11  14
ATOM     14  C   UNL A   1      33.186  23.946  22.910  1.00  0.00     0.169 C 
BRANCH  14  15
ATOM     15  S   UNL A   1      34.830  23.197  23.109  1.00  0.00    -0.146 SA
BRANCH  15  16
ATOM     16  C   UNL A   1      34.917  23.008  24.919  1.00  0.00     0.116 C 
BRANCH  16  17
ATOM     17  C   UNL A   1      36.335  22.881  25.357  1.00  0.00     0.014 A 
ATOM     18  C   UNL A   1      37.131  23.854  25.929  1.00  0.00     0.016 A 
ATOM     19  S   UNL A   1      37.176  21.400  25.178  1.00  0.00    -0.148 S 
ATOM     20  C   UNL A   1      38.430  23.369  26.246  1.00  0.00     0.012 A 
ATOM     21  C   UNL A   1      38.584  22.046  25.898  1.00  0.00     0.065 A 
ENDBRANCH  16  17
ENDBRANCH  15  16
ENDBRANCH  14  15
ENDBRANCH  11  14
ENDBRANCH   4  10
ENDBRANCH   2   4
ENDBRANCH   1   2
BRANCH   1  22
ATOM     22  C   UNL A   1      31.215  29.484  24.840  1.00  0.00     0.274 C 
BRANCH  22  23
ATOM     23  C   UNL A   1      31.465  30.634  25.809  1.00  0.00     0.275 C 
BRANCH  23  24
ATOM     24  O   UNL A   1      32.746  30.448  26.432  1.00  0.00    -0.458 OA
BRANCH  24  25
ATOM     25  C   UNL A   1      33.235  31.512  27.102  1.00  0.00     0.338 C 
ATOM     26  O   UNL A   1      32.682  32.581  27.310  1.00  0.00    -0.246 OA
BRANCH  25  27
ATOM     27  C   UNL A   1      34.576  31.189  27.619  1.00  0.00     0.060 A 
ATOM     28  C   UNL A   1      34.893  29.866  27.914  1.00  0.00     0.016 A 
ATOM     29  C   UNL A   1      35.469  32.207  27.939  1.00  0.00     0.016 A 
ATOM     30  C   UNL A   1      36.045  29.561  28.630  1.00  0.00     0.010 A 
ATOM     31  C   UNL A   1      36.680  31.888  28.562  1.00  0.00     0.010 A 
ATOM     32  C   UNL A   1      36.962  30.566  28.956  1.00  0.00    -0.014 A 
BRANCH  32  33
ATOM     33  C   UNL A   1      38.168  30.251  29.770  1.00  0.00     0.031 A 
ATOM     34  C   UNL A   1      39.272  29.418  29.176  1.00  0.00     0.074 A 
ATOM     35  C   UNL A   1      38.306  30.728  31.023  1.00  0.00     0.049 A 
ATOM     36  N   UNL A   1      40.284  28.837  29.769  1.00  0.00    -0.248 NA
ATOM     37  C   UNL A   1      39.222  29.196  27.722  1.00  0.00     0.031 C 
ATOM     38  C   UNL A   1      37.358  31.609  31.708  1.00  0.00     0.029 A 
ATOM     39  N   UNL A   1      39.311  30.549  31.941  1.00  0.00    -0.354 N 
ATOM     40  C   UNL A   1      40.938  28.116  28.779  1.00  0.00     0.074 A 
ATOM     41  C   UNL A   1      40.226  28.350  27.541  1.00  0.00     0.031 C 
ATOM     42  C   UNL A   1      37.851  31.933  32.913  1.00  0.00     0.029 A 
ATOM     43  C   UNL A   1      39.098  31.208  33.127  1.00  0.00     0.049 A 
ATOM     44  H   UNL A   1      40.111  30.000  31.765  1.00  0.00     0.167 HD
ATOM     45  C   UNL A   1      42.027  27.320  28.900  1.00  0.00     0.037 A 
ATOM     46  C   UNL A   1      39.802  31.195  34.275  1.00  0.00     0.037 A 
ATOM     47  C   UNL A   1      42.782  27.157  30.113  1.00  0.00     0.049 A 
ATOM     48  C   UNL A   1      41.015  30.316  34.383  1.00  0.00     0.074 A 
ATOM     49  C   UNL A   1      43.897  26.368  30.341  1.00  0.00     0.029 A 
ATOM     50  N   UNL A   1      42.518  27.827  31.298  1.00  0.00    -0.354 N 
ATOM     51  N   UNL A   1      41.555  29.539  33.477  1.00  0.00    -0.248 NA
ATOM     52  C   UNL A   1      41.696  30.286  35.685  1.00  0.00     0.031 C 
ATOM     53  C   UNL A   1      44.299  26.551  31.669  1.00  0.00     0.029 A 
ATOM     54  C   UNL A   1      43.450  27.473  32.258  1.00  0.00     0.049 A 
ATOM     55  H   UNL A   1      41.777  28.461  31.435  1.00  0.00     0.167 HD
ATOM     56  C   UNL A   1      42.631  28.921  34.099  1.00  0.00     0.074 A 
ATOM     57  C   UNL A   1      42.687  29.437  35.451  1.00  0.00     0.031 C 
ATOM     58  C   UNL A   1      43.485  27.997  33.598  1.00  0.00     0.037 A 
BRANCH  45  59
ATOM     59  C   UNL A   1      42.439  26.524  27.699  1.00  0.00     0.064 A 
ATOM     60  C   UNL A   1      43.415  26.978  26.802  1.00  0.00     0.173 A 
ATOM     61  C   UNL A   1      41.860  25.267  27.462  1.00  0.00     0.173 A 
ATOM     62  F   UNL A   1      43.982  28.181  26.976  1.00  0.00    -0.203 F 
ATOM     63  C   UNL A   1      43.787  26.209  25.702  1.00  0.00     0.198 A 
ATOM     64  C   UNL A   1      42.250  24.491  26.375  1.00  0.00     0.198 A 
ATOM     65  F   UNL A   1      40.923  24.787  28.293  1.00  0.00    -0.203 F 
ATOM     66  F   UNL A   1      44.696  26.677  24.836  1.00  0.00    -0.200 F 
ATOM     67  C   UNL A   1      43.209  24.965  25.493  1.00  0.00     0.200 A 
ATOM     68  F   UNL A   1      41.697  23.286  26.179  1.00  0.00    -0.200 F 
ATOM     69  F   UNL A   1      43.572  24.224  24.436  1.00  0.00    -0.200 F 
ENDBRANCH  45  59
BRANCH  46  70
ATOM     70  C   UNL A   1      39.340  32.007  35.430  1.00  0.00     0.064 A 
ATOM     71  C   UNL A   1      39.703  33.354  35.553  1.00  0.00     0.173 A 
ATOM     72  C   UNL A   1      38.515  31.457  36.422  1.00  0.00     0.173 A 
ATOM     73  F   UNL A   1      40.514  33.914  34.642  1.00  0.00    -0.203 F 
ATOM     74  C   UNL A   1      39.257  34.123  36.625  1.00  0.00     0.198 A 
ATOM     75  C   UNL A   1      38.048  32.234  37.479  1.00  0.00     0.198 A 
ATOM     76  F   UNL A   1      38.144  30.171  36.351  1.00  0.00    -0.203 F 
ATOM     77  F   UNL A   1      39.642  35.401  36.737  1.00  0.00    -0.200 F 
ATOM     78  C   UNL A   1      38.423  33.565  37.583  1.00  0.00     0.200 A 
ATOM     79  F   UNL A   1      37.232  31.694  38.395  1.00  0.00    -0.200 F 
ATOM     80  F   UNL A   1      37.984  34.307  38.608  1.00  0.00    -0.200 F 
ENDBRANCH  46  70
BRANCH  58  81
ATOM     81  C   UNL A   1      44.553  27.491  34.518  1.00  0.00     0.064 A 
ATOM     82  C   UNL A   1      44.372  26.318  35.264  1.00  0.00     0.173 A 
ATOM     83  C   UNL A   1      45.777  28.166  34.629  1.00  0.00     0.173 A 
ATOM     84  F   UNL A   1      43.210  25.651  35.201  1.00  0.00    -0.203 F 
ATOM     85  C   UNL A   1      45.376  25.846  36.104  1.00  0.00     0.198 A 
ATOM     86  C   UNL A   1      46.785  27.680  35.456  1.00  0.00     0.198 A 
ATOM     87  F   UNL A   1      45.994  29.290  33.931  1.00  0.00    -0.203 F 
ATOM     88  F   UNL A   1      45.171  24.742  36.835  1.00  0.00    -0.200 F 
ATOM     89  C   UNL A   1      46.583  26.524  36.195  1.00  0.00     0.200 A 
ATOM     90  F   UNL A   1      47.953  28.333  35.540  1.00  0.00    -0.200 F 
ATOM     91  F   UNL A   1      47.548  26.068  37.005  1.00  0.00    -0.200 F 
ENDBRANCH  58  81
ENDBRANCH  32  33
ENDBRANCH  25  27
ENDBRANCH  24  25
ENDBRANCH  23  24
ENDBRANCH  22  23
ENDBRANCH   1  22
TORSDOF 17
ENDMDL
MODEL 2
REMARK VINA RESULT:     -11.0      4.519      9.767
REMARK SMILES C[C@](NC(=O)CSCc1cccs1)(C(=O)OCCOC(=O)c1ccc(-c2c3nc(c(-c4c(F)c(F)c(F)c(F)c4F)c4ccc([nH]4)c(-c4c(F)c(F)c(F)c(F)c4F)c4nc(c(-c5c(F)c(F)c(F)c(F)c5F)c5ccc2[nH]5)C=C4)C=C3)cc1)C(F)(F)F
REMARK SMILES IDX 16 1 14 2 15 3 2 4 1 5 85 6 86 7 87 8 88 9 3 10 4 11 5 13
REMARK SMILES IDX 6 14 7 15 8 16 9 17 10 18 13 19 11 20 12 21 17 22 18 23
REMARK SMILES IDX 19 24 20 25 21 26 22 27 23 28 84 29 24 30 83 31 25 32 26 33
REMARK SMILES IDX 27 34 77 35 28 36 82 37 76 38 78 39 29 40 81 41 75 42 74 43
REMARK SMILES IDX 30 45 62 46 42 47 61 48 43 49 46 50 60 51 79 52 44 53 45 54
REMARK SMILES IDX 59 56 80 57 47 58 31 59 32 60 40 61 33 62 34 63 38 64 41 65
REMARK SMILES IDX 35 66 36 67 39 68 37 69 63 70 64 71 72 72 65 73 66 74 70 75
REMARK SMILES IDX 73 76 67 77 68 78 71 79 69 80 48 81 49 82 57 83 50 84 51 85
REMARK SMILES IDX 55 86 58 87 52 88 53 89 56 90 54 91
REMARK H PARENT 3 12 78 44 46 55
REMARK Flexibility Score: inf
ROOT
ATOM      1  O   UNL A   1      34.655  21.277  24.438  1.00  0.00    -0.460 OA
ENDROOT
BRANCH   1   2
ATOM      2  C   UNL A   1      33.829  21.911  25.328  1.00  0.00     0.341 C 
ATOM      3  O   UNL A   1      33.240  21.333  26.233  1.00  0.00    -0.249 OA
BRANCH   2   4
ATOM      4  C   UNL A   1      33.636  23.402  24.980  1.00  0.00     0.231 C 
ATOM      5  C   UNL A   1      32.427  23.841  25.806  1.00  0.00     0.058 C 
BRANCH   4   6
ATOM      6  C   UNL A   1      34.909  24.113  25.456  1.00  0.00     0.422 C 
ATOM      7  F   UNL A   1      35.868  24.088  24.502  1.00  0.00    -0.168 F 
ATOM      8  F   UNL A   1      34.675  25.419  25.727  1.00  0.00    -0.168 F 
ATOM      9  F   UNL A   1      35.436  23.586  26.581  1.00  0.00    -0.168 F 
ENDBRANCH   4   6
BRANCH   4  10
ATOM     10  N   UNL A   1      33.416  23.503  23.499  1.00  0.00    -0.332 N 
ATOM     11  C   UNL A   1      33.223  24.513  22.617  1.00  0.00     0.231 C 
ATOM     12  H   UNL A   1      33.411  22.621  23.061  1.00  0.00     0.164 HD
ATOM     13  O   UNL A   1      33.287  24.209  21.422  1.00  0.00    -0.274 OA
BRANCH  11  14
ATOM     14  C   UNL A   1      32.904  25.936  23.025  1.00  0.00     0.169 C 
BRANCH  14  15
ATOM     15  S   UNL A   1      31.119  26.254  23.158  1.00  0.00    -0.146 SA
BRANCH  15  16
ATOM     16  C   UNL A   1      31.108  28.009  23.649  1.00  0.00     0.116 C 
BRANCH  16  17
ATOM     17  C   UNL A   1      31.715  28.170  24.999  1.00  0.00     0.014 A 
ATOM     18  C   UNL A   1      31.410  27.468  26.150  1.00  0.00     0.016 A 
ATOM     19  S   UNL A   1      32.941  29.332  25.273  1.00  0.00    -0.148 S 
ATOM     20  C   UNL A   1      32.212  27.871  27.253  1.00  0.00     0.012 A 
ATOM     21  C   UNL A   1      33.094  28.871  26.911  1.00  0.00     0.065 A 
ENDBRANCH  16  17
ENDBRANCH  15  16
ENDBRANCH  14  15
ENDBRANCH  11  14
ENDBRANCH   4  10
ENDBRANCH   2   4
ENDBRANCH   1   2
BRANCH   1  22
ATOM     22  C   UNL A   1      35.664  20.409  25.002  1.00  0.00     0.274 C 
BRANCH  22  23
ATOM     23  C   UNL A   1      37.065  20.894  24.650  1.00  0.00     0.275 C 
BRANCH  23  24
ATOM     24  O   UNL A   1      37.576  21.675  25.741  1.00  0.00    -0.458 OA
BRANCH  24  25
ATOM     25  C   UNL A   1      38.865  21.450  26.076  1.00  0.00     0.338 C 
ATOM     26  O   UNL A   1      39.507  20.424  25.915  1.00  0.00    -0.246 OA
BRANCH  25  27
ATOM     27  C   UNL A   1      39.442  22.676  26.650  1.00  0.00     0.060 A 
ATOM     28  C   UNL A   1      38.986  23.916  26.211  1.00  0.00     0.016 A 
ATOM     29  C   UNL A   1      40.525  22.602  27.521  1.00  0.00     0.016 A 
ATOM     30  C   UNL A   1      39.674  25.078  26.542  1.00  0.00     0.010 A 
ATOM     31  C   UNL A   1      41.150  23.780  27.942  1.00  0.00     0.010 A 
ATOM     32  C   UNL A   1      40.761  25.029  27.422  1.00  0.00    -0.014 A 
BRANCH  32  33
ATOM     33  C   UNL A   1      41.534  26.263  27.734  1.00  0.00     0.031 A 
ATOM     34  C   UNL A   1      40.921  27.325  28.607  1.00  0.00     0.074 A 
ATOM     35  C   UNL A   1      42.789  26.432  27.276  1.00  0.00     0.049 A 
ATOM     36  N   UNL A   1      41.312  28.557  28.813  1.00  0.00    -0.248 NA
ATOM     37  C   UNL A   1      39.696  26.956  29.335  1.00  0.00     0.031 C 
ATOM     38  C   UNL A   1      43.544  25.461  26.482  1.00  0.00     0.029 A 
ATOM     39  N   UNL A   1      43.661  27.482  27.427  1.00  0.00    -0.354 N 
ATOM     40  C   UNL A   1      40.340  29.132  29.621  1.00  0.00     0.074 A 
ATOM     41  C   UNL A   1      39.352  28.108  29.891  1.00  0.00     0.031 C 
ATOM     42  C   UNL A   1      44.779  25.938  26.261  1.00  0.00     0.029 A 
ATOM     43  C   UNL A   1      44.872  27.286  26.810  1.00  0.00     0.049 A 
ATOM     44  H   UNL A   1      43.439  28.300  27.930  1.00  0.00     0.167 HD
ATOM     45  C   UNL A   1      40.274  30.403  30.082  1.00  0.00     0.037 A 
ATOM     46  C   UNL A   1      45.924  28.114  26.662  1.00  0.00     0.037 A 
ATOM     47  C   UNL A   1      41.299  31.392  29.883  1.00  0.00     0.049 A 
ATOM     48  C   UNL A   1      45.837  29.515  27.194  1.00  0.00     0.074 A 
ATOM     49  C   UNL A   1      41.325  32.711  30.304  1.00  0.00     0.029 A 
ATOM     50  N   UNL A   1      42.502  31.156  29.233  1.00  0.00    -0.354 N 
ATOM     51  N   UNL A   1      44.859  30.090  27.850  1.00  0.00    -0.248 NA
ATOM     52  C   UNL A   1      46.985  30.394  26.934  1.00  0.00     0.031 C 
ATOM     53  C   UNL A   1      42.539  33.277  29.896  1.00  0.00     0.029 A 
ATOM     54  C   UNL A   1      43.277  32.303  29.245  1.00  0.00     0.049 A 
ATOM     55  H   UNL A   1      42.764  30.300  28.823  1.00  0.00     0.167 HD
ATOM     56  C   UNL A   1      45.268  31.397  28.073  1.00  0.00     0.074 A 
ATOM     57  C   UNL A   1      46.596  31.523  27.510  1.00  0.00     0.031 C 
ATOM     58  C   UNL A   1      44.595  32.406  28.676  1.00  0.00     0.037 A 
BRANCH  45  59
ATOM     59  C   UNL A   1      39.029  30.812  30.807  1.00  0.00     0.064 A 
ATOM     60  C   UNL A   1      38.902  30.693  32.198  1.00  0.00     0.173 A 
ATOM     61  C   UNL A   1      37.953  31.364  30.092  1.00  0.00     0.173 A 
ATOM     62  F   UNL A   1      39.895  30.155  32.921  1.00  0.00    -0.203 F 
ATOM     63  C   UNL A   1      37.736  31.096  32.845  1.00  0.00     0.198 A 
ATOM     64  C   UNL A   1      36.799  31.785  30.745  1.00  0.00     0.198 A 
ATOM     65  F   UNL A   1      38.027  31.501  28.759  1.00  0.00    -0.203 F 
ATOM     66  F   UNL A   1      37.620  30.940  34.171  1.00  0.00    -0.200 F 
ATOM     67  C   UNL A   1      36.689  31.646  32.119  1.00  0.00     0.200 A 
ATOM     68  F   UNL A   1      35.792  32.325  30.042  1.00  0.00    -0.200 F 
ATOM     69  F   UNL A   1      35.570  32.038  32.745  1.00  0.00    -0.200 F 
ENDBRANCH  45  59
BRANCH  46  70
ATOM     70  C   UNL A   1      47.130  27.646  25.932  1.00  0.00     0.064 A 
ATOM     71  C   UNL A   1      47.212  27.751  24.538  1.00  0.00     0.173 A 
ATOM     72  C   UNL A   1      48.229  27.102  26.613  1.00  0.00     0.173 A 
ATOM     73  F   UNL A   1      46.174  28.239  23.841  1.00  0.00    -0.203 F 
ATOM     74  C   UNL A   1      48.348  27.331  23.851  1.00  0.00     0.198 A 
ATOM     75  C   UNL A   1      49.375  26.707  25.929  1.00  0.00     0.198 A 
ATOM     76  F   UNL A   1      48.197  26.978  27.948  1.00  0.00    -0.203 F 
ATOM     77  F   UNL A   1      48.391  27.413  22.515  1.00  0.00    -0.200 F 
ATOM     78  C   UNL A   1      49.433  26.817  24.548  1.00  0.00     0.200 A 
ATOM     79  F   UNL A   1      50.424  26.224  26.607  1.00  0.00    -0.200 F 
ATOM     80  F   UNL A   1      50.531  26.423  23.889  1.00  0.00    -0.200 F 
ENDBRANCH  46  70
BRANCH  58  81
ATOM     81  C   UNL A   1      45.290  33.731  28.760  1.00  0.00     0.064 A 
ATOM     82  C   UNL A   1      45.114  34.705  27.768  1.00  0.00     0.173 A 
ATOM     83  C   UNL A   1      46.109  34.038  29.855  1.00  0.00     0.173 A 
ATOM     84  F   UNL A   1      44.352  34.447  26.695  1.00  0.00    -0.203 F 
ATOM     85  C   UNL A   1      45.751  35.939  27.862  1.00  0.00     0.198 A 
ATOM     86  C   UNL A   1      46.729  35.279  29.954  1.00  0.00     0.198 A 
ATOM     87  F   UNL A   1      46.303  33.135  30.828  1.00  0.00    -0.203 F 
ATOM     88  F   UNL A   1      45.598  36.846  26.887  1.00  0.00    -0.200 F 
ATOM     89  C   UNL A   1      46.553  36.227  28.956  1.00  0.00     0.200 A 
ATOM     90  F   UNL A   1      47.500  35.559  31.014  1.00  0.00    -0.200 F 
ATOM     91  F   UNL A   1      47.165  37.416  29.045  1.00  0.00    -0.200 F 
ENDBRANCH  58  81
ENDBRANCH  32  33
ENDBRANCH  25  27
ENDBRANCH  24  25
ENDBRANCH  23  24
ENDBRANCH  22  23
ENDBRANCH   1  22
TORSDOF 17
ENDMDL
MODEL 3
REMARK VINA RESULT:     -11.0      1.137      1.909
REMARK SMILES C[C@](NC(=O)CSCc1cccs1)(C(=O)OCCOC(=O)c1ccc(-c2c3nc(c(-c4c(F)c(F)c(F)c(F)c4F)c4ccc([nH]4)c(-c4c(F)c(F)c(F)c(F)c4F)c4nc(c(-c5c(F)c(F)c(F)c(F)c5F)c5ccc2[nH]5)C=C4)C=C3)cc1)C(F)(F)F
REMARK SMILES IDX 16 1 14 2 15 3 2 4 1 5 85 6 86 7 87 8 88 9 3 10 4 11 5 13
REMARK SMILES IDX 6 14 7 15 8 16 9 17 10 18 13 19 11 20 12 21 17 22 18 23
REMARK SMILES IDX 19 24 20 25 21 26 22 27 23 28 84 29 24 30 83 31 25 32 26 33
REMARK SMILES IDX 27 34 77 35 28 36 82 37 76 38 78 39 29 40 81 41 75 42 74 43
REMARK SMILES IDX 30 45 62 46 42 47 61 48 43 49 46 50 60 51 79 52 44 53 45 54
REMARK SMILES IDX 59 56 80 57 47 58 31 59 32 60 40 61 33 62 34 63 38 64 41 65
REMARK SMILES IDX 35 66 36 67 39 68 37 69 63 70 64 71 72 72 65 73 66 74 70 75
REMARK SMILES IDX 73 76 67 77 68 78 71 79 69 80 48 81 49 82 57 83 50 84 51 85
REMARK SMILES IDX 55 86 58 87 52 88 53 89 56 90 54 91
REMARK H PARENT 3 12 78 44 46 55
REMARK Flexibility Score: inf
ROOT
ATOM      1  O   UNL A   1      32.359  27.798  25.103  1.00  0.00    -0.460 OA
ENDROOT
BRANCH   1   2
ATOM      2  C   UNL A   1      31.663  27.181  24.097  1.00  0.00     0.341 C 
ATOM      3  O   UNL A   1      30.865  27.761  23.372  1.00  0.00    -0.249 OA
BRANCH   2   4
ATOM      4  C   UNL A   1      31.911  25.658  24.071  1.00  0.00     0.231 C 
ATOM      5  C   UNL A   1      30.891  25.114  23.069  1.00  0.00     0.058 C 
BRANCH   4   6
ATOM      6  C   UNL A   1      33.340  25.473  23.547  1.00  0.00     0.422 C 
ATOM      7  F   UNL A   1      33.482  24.281  22.924  1.00  0.00    -0.168 F 
ATOM      8  F   UNL A   1      33.660  26.421  22.634  1.00  0.00    -0.168 F 
ATOM      9  F   UNL A   1      34.284  25.548  24.510  1.00  0.00    -0.168 F 
ENDBRANCH   4   6
BRANCH   4  10
ATOM     10  N   UNL A   1      31.714  25.136  25.465  1.00  0.00    -0.332 N 
ATOM     11  C   UNL A   1      31.708  23.913  26.047  1.00  0.00     0.231 C 
ATOM     12  H   UNL A   1      31.552  25.858  26.114  1.00  0.00     0.164 HD
ATOM     13  O   UNL A   1      31.718  23.901  27.281  1.00  0.00    -0.274 OA
BRANCH  11  14
ATOM     14  C   UNL A   1      31.649  22.614  25.272  1.00  0.00     0.169 C 
BRANCH  14  15
ATOM     15  S   UNL A   1      32.845  21.379  25.865  1.00  0.00    -0.146 SA
BRANCH  15  16
ATOM     16  C   UNL A   1      34.086  21.418  24.530  1.00  0.00     0.116 C 
BRANCH  16  17
ATOM     17  C   UNL A   1      35.224  22.299  24.911  1.00  0.00     0.014 A 
ATOM     18  C   UNL A   1      35.405  22.977  26.101  1.00  0.00     0.016 A 
ATOM     19  S   UNL A   1      36.516  22.577  23.822  1.00  0.00    -0.148 S 
ATOM     20  C   UNL A   1      36.626  23.705  26.126  1.00  0.00     0.012 A 
ATOM     21  C   UNL A   1      37.332  23.566  24.952  1.00  0.00     0.065 A 
ENDBRANCH  16  17
ENDBRANCH  15  16
ENDBRANCH  14  15
ENDBRANCH  11  14
ENDBRANCH   4  10
ENDBRANCH   2   4
ENDBRANCH   1   2
BRANCH   1  22
ATOM     22  C   UNL A   1      32.766  29.164  24.859  1.00  0.00     0.274 C 
BRANCH  22  23
ATOM     23  C   UNL A   1      31.891  30.143  25.632  1.00  0.00     0.275 C 
BRANCH  23  24
ATOM     24  O   UNL A   1      32.414  30.284  26.963  1.00  0.00    -0.458 OA
BRANCH  24  25
ATOM     25  C   UNL A   1      33.076  31.432  27.219  1.00  0.00     0.338 C 
ATOM     26  O   UNL A   1      32.658  32.574  27.105  1.00  0.00    -0.246 OA
BRANCH  25  27
ATOM     27  C   UNL A   1      34.423  31.117  27.722  1.00  0.00     0.060 A 
ATOM     28  C   UNL A   1      34.740  29.801  28.045  1.00  0.00     0.016 A 
ATOM     29  C   UNL A   1      35.326  32.139  28.001  1.00  0.00     0.016 A 
ATOM     30  C   UNL A   1      35.903  29.508  28.750  1.00  0.00     0.010 A 
ATOM     31  C   UNL A   1      36.545  31.831  28.612  1.00  0.00     0.010 A 
ATOM     32  C   UNL A   1      36.829  30.518  29.035  1.00  0.00    -0.014 A 
BRANCH  32  33
ATOM     33  C   UNL A   1      38.047  30.219  29.838  1.00  0.00     0.031 A 
ATOM     34  C   UNL A   1      39.138  29.367  29.248  1.00  0.00     0.074 A 
ATOM     35  C   UNL A   1      38.206  30.727  31.075  1.00  0.00     0.049 A 
ATOM     36  N   UNL A   1      40.157  28.797  29.838  1.00  0.00    -0.248 NA
ATOM     37  C   UNL A   1      39.063  29.108  27.800  1.00  0.00     0.031 C 
ATOM     38  C   UNL A   1      37.273  31.629  31.753  1.00  0.00     0.029 A 
ATOM     39  N   UNL A   1      39.226  30.567  31.981  1.00  0.00    -0.354 N 
ATOM     40  C   UNL A   1      40.793  28.048  28.857  1.00  0.00     0.074 A 
ATOM     41  C   UNL A   1      40.061  28.254  27.624  1.00  0.00     0.031 C 
ATOM     42  C   UNL A   1      37.787  31.981  32.942  1.00  0.00     0.029 A 
ATOM     43  C   UNL A   1      39.034  31.257  33.154  1.00  0.00     0.049 A 
ATOM     44  H   UNL A   1      40.020  30.011  31.807  1.00  0.00     0.167 HD
ATOM     45  C   UNL A   1      41.880  27.251  28.980  1.00  0.00     0.037 A 
ATOM     46  C   UNL A   1      39.756  31.270  34.290  1.00  0.00     0.037 A 
ATOM     47  C   UNL A   1      42.655  27.117  30.184  1.00  0.00     0.049 A 
ATOM     48  C   UNL A   1      40.968  30.390  34.401  1.00  0.00     0.074 A 
ATOM     49  C   UNL A   1      43.770  26.328  30.414  1.00  0.00     0.029 A 
ATOM     50  N   UNL A   1      42.412  27.817  31.356  1.00  0.00    -0.354 N 
ATOM     51  N   UNL A   1      41.490  29.588  33.507  1.00  0.00    -0.248 NA
ATOM     52  C   UNL A   1      41.670  30.390  35.692  1.00  0.00     0.031 C 
ATOM     53  C   UNL A   1      44.194  26.544  31.731  1.00  0.00     0.029 A 
ATOM     54  C   UNL A   1      43.358  27.484  32.310  1.00  0.00     0.049 A 
ATOM     55  H   UNL A   1      41.675  28.457  31.489  1.00  0.00     0.167 HD
ATOM     56  C   UNL A   1      42.574  28.982  34.126  1.00  0.00     0.074 A 
ATOM     57  C   UNL A   1      42.654  29.531  35.464  1.00  0.00     0.031 C 
ATOM     58  C   UNL A   1      43.417  28.042  33.636  1.00  0.00     0.037 A 
BRANCH  45  59
ATOM     59  C   UNL A   1      42.270  26.424  27.793  1.00  0.00     0.064 A 
ATOM     60  C   UNL A   1      43.283  26.818  26.910  1.00  0.00     0.173 A 
ATOM     61  C   UNL A   1      41.630  25.196  27.558  1.00  0.00     0.173 A 
ATOM     62  F   UNL A   1      43.910  27.991  27.083  1.00  0.00    -0.203 F 
ATOM     63  C   UNL A   1      43.633  26.020  25.823  1.00  0.00     0.198 A 
ATOM     64  C   UNL A   1      41.997  24.391  26.484  1.00  0.00     0.198 A 
ATOM     65  F   UNL A   1      40.655  24.774  28.376  1.00  0.00    -0.203 F 
ATOM     66  F   UNL A   1      44.580  26.431  24.968  1.00  0.00    -0.200 F 
ATOM     67  C   UNL A   1      42.994  24.806  25.614  1.00  0.00     0.200 A 
ATOM     68  F   UNL A   1      41.384  23.214  26.289  1.00  0.00    -0.200 F 
ATOM     69  F   UNL A   1      43.335  24.037  24.570  1.00  0.00    -0.200 F 
ENDBRANCH  45  59
BRANCH  46  70
ATOM     70  C   UNL A   1      39.316  32.113  35.431  1.00  0.00     0.064 A 
ATOM     71  C   UNL A   1      38.515  31.582  36.450  1.00  0.00     0.173 A 
ATOM     72  C   UNL A   1      39.700  33.458  35.534  1.00  0.00     0.173 A 
ATOM     73  F   UNL A   1      38.100  30.307  36.379  1.00  0.00    -0.203 F 
ATOM     74  C   UNL A   1      38.115  32.364  37.531  1.00  0.00     0.198 A 
ATOM     75  C   UNL A   1      39.321  34.231  36.628  1.00  0.00     0.198 A 
ATOM     76  F   UNL A   1      40.463  34.013  34.581  1.00  0.00    -0.203 F 
ATOM     77  F   UNL A   1      37.324  31.841  38.478  1.00  0.00    -0.200 F 
ATOM     78  C   UNL A   1      38.526  33.686  37.624  1.00  0.00     0.200 A 
ATOM     79  F   UNL A   1      39.731  35.504  36.720  1.00  0.00    -0.200 F 
ATOM     80  F   UNL A   1      38.150  34.435  38.669  1.00  0.00    -0.200 F 
ENDBRANCH  46  70
BRANCH  58  81
ATOM     81  C   UNL A   1      44.498  27.555  34.550  1.00  0.00     0.064 A 
ATOM     82  C   UNL A   1      44.311  26.422  35.355  1.00  0.00     0.173 A 
ATOM     83  C   UNL A   1      45.739  28.206  34.598  1.00  0.00     0.173 A 
ATOM     84  F   UNL A   1      43.134  25.779  35.353  1.00  0.00    -0.203 F 
ATOM     85  C   UNL A   1      45.327  25.967  36.191  1.00  0.00     0.198 A 
ATOM     86  C   UNL A   1      46.758  27.737  35.421  1.00  0.00     0.198 A 
ATOM     87  F   UNL A   1      45.961  29.292  33.843  1.00  0.00    -0.203 F 
ATOM     88  F   UNL A   1      45.118  24.903  36.978  1.00  0.00    -0.200 F 
ATOM     89  C   UNL A   1      46.550  26.621  36.219  1.00  0.00     0.200 A 
ATOM     90  F   UNL A   1      47.941  28.366  35.445  1.00  0.00    -0.200 F 
ATOM     91  F   UNL A   1      47.527  26.181  37.025  1.00  0.00    -0.200 F 
ENDBRANCH  58  81
ENDBRANCH  32  33
ENDBRANCH  25  27
ENDBRANCH  24  25
ENDBRANCH  23  24
ENDBRANCH  22  23
ENDBRANCH   1  22
TORSDOF 17
ENDMDL
