MODEL 1
REMARK VINA RESULT:     -12.1      0.000      0.000
REMARK SMILES CCC[C@@]1(C(=O)OCCOC(=O)c2ccc(-c3c4nc(c(-c5c(F)c(F)c(F)c(F)c5F)c5ccc([nH]5)c(-c5c(F)c(F)c(F)c(F)c5F)c5nc(c(-c6c(F)c(F)c(F)c(F)c6F)c6ccc3[nH]6)C=C5)C=C4)cc2)CCN(C(=O)[C@@H]2CC[NH2+][C@@H]2C)C1
REMARK SMILES IDX 8 1 7 2 5 3 6 4 4 5 76 6 87 7 77 8 78 9 3 10 2 11 1 12 79 13
REMARK SMILES IDX 80 14 81 15 82 16 85 17 83 18 84 19 86 20 9 23 10 24 11 25
REMARK SMILES IDX 12 26 13 27 14 28 75 29 15 30 74 31 16 32 17 33 18 34 68 35
REMARK SMILES IDX 19 36 73 37 67 38 69 39 20 40 72 41 66 42 65 43 21 45 53 46
REMARK SMILES IDX 33 47 52 48 34 49 37 50 51 51 70 52 35 53 36 54 50 56 71 57
REMARK SMILES IDX 38 58 22 59 23 60 31 61 24 62 25 63 29 64 32 65 26 66 27 67
REMARK SMILES IDX 30 68 28 69 54 70 55 71 63 72 56 73 57 74 61 75 64 76 58 77
REMARK SMILES IDX 59 78 62 79 60 80 39 81 40 82 48 83 41 84 42 85 46 86 49 87
REMARK SMILES IDX 43 88 44 89 47 90 45 91
REMARK H PARENT 84 21 84 22 69 44 37 55
REMARK Flexibility Score: inf
ROOT
ATOM      1  C   UNL A   1      31.805  28.581  27.240  1.00  0.00     0.274 C 
ENDROOT
BRANCH   1   2
ATOM      2  O   UNL A   1      32.089  27.652  26.169  1.00  0.00    -0.462 OA
BRANCH   2   3
ATOM      3  C   UNL A   1      31.030  26.913  25.753  1.00  0.00     0.314 C 
ATOM      4  O   UNL A   1      30.343  26.243  26.516  1.00  0.00    -0.252 OA
BRANCH   3   5
ATOM      5  C   UNL A   1      30.768  26.963  24.250  1.00  0.00     0.087 C 
ATOM      6  C   UNL A   1      29.795  25.894  23.727  1.00  0.00     0.042 C 
ATOM      7  C   UNL A   1      32.061  26.630  23.486  1.00  0.00     0.138 C 
ATOM      8  C   UNL A   1      30.682  24.700  23.360  1.00  0.00     0.120 C 
ATOM      9  N   UNL A   1      31.946  25.285  22.954  1.00  0.00    -0.341 N 
BRANCH   5  10
ATOM     10  C   UNL A   1      30.328  28.409  23.868  1.00  0.00     0.020 C 
BRANCH  10  11
ATOM     11  C   UNL A   1      29.351  28.577  22.694  1.00  0.00    -0.002 C 
ATOM     12  C   UNL A   1      28.071  29.336  23.042  1.00  0.00     0.004 C 
ENDBRANCH  10  11
ENDBRANCH   5  10
BRANCH   9  13
ATOM     13  C   UNL A   1      33.040  24.773  22.292  1.00  0.00     0.231 C 
ATOM     14  O   UNL A   1      33.663  25.499  21.501  1.00  0.00    -0.274 OA
BRANCH  13  15
ATOM     15  C   UNL A   1      33.577  23.360  22.496  1.00  0.00     0.142 C 
ATOM     16  C   UNL A   1      32.606  22.196  22.557  1.00  0.00     0.081 C 
ATOM     17  C   UNL A   1      34.551  23.153  23.663  1.00  0.00     0.192 C 
ATOM     18  C   UNL A   1      32.743  21.674  23.973  1.00  0.00     0.261 C 
ATOM     19  N   UNL A   1      34.147  21.893  24.326  1.00  0.00    -0.343 N 
ATOM     20  C   UNL A   1      34.685  24.274  24.681  1.00  0.00     0.076 C 
ATOM     21  H   UNL A   1      34.721  21.118  23.991  1.00  0.00     0.346 HD
ATOM     22  H   UNL A   1      34.271  21.950  25.337  1.00  0.00     0.346 HD
ENDBRANCH  13  15
ENDBRANCH   9  13
ENDBRANCH   3   5
ENDBRANCH   2   3
ENDBRANCH   1   2
BRANCH   1  23
ATOM     23  C   UNL A   1      31.815  30.054  26.811  1.00  0.00     0.275 C 
BRANCH  23  24
ATOM     24  O   UNL A   1      33.133  30.530  26.474  1.00  0.00    -0.458 OA
BRANCH  24  25
ATOM     25  C   UNL A   1      33.600  31.499  27.295  1.00  0.00     0.338 C 
ATOM     26  O   UNL A   1      32.988  32.477  27.687  1.00  0.00    -0.246 OA
BRANCH  25  27
ATOM     27  C   UNL A   1      34.958  31.191  27.765  1.00  0.00     0.060 A 
ATOM     28  C   UNL A   1      35.237  29.890  28.192  1.00  0.00     0.016 A 
ATOM     29  C   UNL A   1      35.891  32.208  27.959  1.00  0.00     0.016 A 
ATOM     30  C   UNL A   1      36.408  29.598  28.870  1.00  0.00     0.010 A 
ATOM     31  C   UNL A   1      37.095  31.907  28.601  1.00  0.00     0.010 A 
ATOM     32  C   UNL A   1      37.344  30.606  29.080  1.00  0.00    -0.014 A 
BRANCH  32  33
ATOM     33  C   UNL A   1      38.562  30.310  29.858  1.00  0.00     0.031 A 
ATOM     34  C   UNL A   1      39.600  29.411  29.268  1.00  0.00     0.074 A 
ATOM     35  C   UNL A   1      38.736  30.866  31.069  1.00  0.00     0.049 A 
ATOM     36  N   UNL A   1      40.602  28.810  29.854  1.00  0.00    -0.248 NA
ATOM     37  C   UNL A   1      39.498  29.152  27.823  1.00  0.00     0.031 C 
ATOM     38  C   UNL A   1      37.848  31.855  31.682  1.00  0.00     0.029 A 
ATOM     39  N   UNL A   1      39.714  30.665  32.007  1.00  0.00    -0.354 N 
ATOM     40  C   UNL A   1      41.214  28.057  28.863  1.00  0.00     0.074 A 
ATOM     41  C   UNL A   1      40.488  28.293  27.633  1.00  0.00     0.031 C 
ATOM     42  C   UNL A   1      38.313  32.161  32.903  1.00  0.00     0.029 A 
ATOM     43  C   UNL A   1      39.477  31.329  33.184  1.00  0.00     0.049 A 
ATOM     44  H   UNL A   1      40.506  30.101  31.851  1.00  0.00     0.167 HD
ATOM     45  C   UNL A   1      42.279  27.232  28.989  1.00  0.00     0.037 A 
ATOM     46  C   UNL A   1      40.093  31.220  34.375  1.00  0.00     0.037 A 
ATOM     47  C   UNL A   1      42.999  27.043  30.220  1.00  0.00     0.049 A 
ATOM     48  C   UNL A   1      41.225  30.240  34.514  1.00  0.00     0.074 A 
ATOM     49  C   UNL A   1      44.072  26.210  30.479  1.00  0.00     0.029 A 
ATOM     50  N   UNL A   1      42.719  27.718  31.401  1.00  0.00    -0.354 N 
ATOM     51  N   UNL A   1      41.748  29.451  33.607  1.00  0.00    -0.248 NA
ATOM     52  C   UNL A   1      41.836  30.117  35.843  1.00  0.00     0.031 C 
ATOM     53  C   UNL A   1      44.423  26.360  31.825  1.00  0.00     0.029 A 
ATOM     54  C   UNL A   1      43.593  27.315  32.394  1.00  0.00     0.049 A 
ATOM     55  H   UNL A   1      42.003  28.385  31.514  1.00  0.00     0.167 HD
ATOM     56  C   UNL A   1      42.762  28.754  34.246  1.00  0.00     0.074 A 
ATOM     57  C   UNL A   1      42.783  29.217  35.619  1.00  0.00     0.031 C 
ATOM     58  C   UNL A   1      43.600  27.816  33.745  1.00  0.00     0.037 A 
BRANCH  45  59
ATOM     59  C   UNL A   1      42.680  26.432  27.789  1.00  0.00     0.064 A 
ATOM     60  C   UNL A   1      42.109  25.185  27.499  1.00  0.00     0.173 A 
ATOM     61  C   UNL A   1      43.645  26.935  26.903  1.00  0.00     0.173 A 
ATOM     62  F   UNL A   1      41.196  24.654  28.326  1.00  0.00    -0.203 F 
ATOM     63  C   UNL A   1      42.502  24.462  26.375  1.00  0.00     0.198 A 
ATOM     64  C   UNL A   1      44.018  26.221  25.767  1.00  0.00     0.198 A 
ATOM     65  F   UNL A   1      44.222  28.124  27.134  1.00  0.00    -0.203 F 
ATOM     66  F   UNL A   1      41.972  23.255  26.137  1.00  0.00    -0.200 F 
ATOM     67  C   UNL A   1      43.452  24.984  25.508  1.00  0.00     0.200 A 
ATOM     68  F   UNL A   1      44.930  26.731  24.926  1.00  0.00    -0.200 F 
ATOM     69  F   UNL A   1      43.825  24.289  24.424  1.00  0.00    -0.200 F 
ENDBRANCH  45  59
BRANCH  46  70
ATOM     70  C   UNL A   1      39.603  32.010  35.532  1.00  0.00     0.064 A 
ATOM     71  C   UNL A   1      40.091  33.298  35.785  1.00  0.00     0.173 A 
ATOM     72  C   UNL A   1      38.622  31.501  36.398  1.00  0.00     0.173 A 
ATOM     73  F   UNL A   1      41.046  33.817  35.000  1.00  0.00    -0.203 F 
ATOM     74  C   UNL A   1      39.622  34.045  36.863  1.00  0.00     0.198 A 
ATOM     75  C   UNL A   1      38.134  32.259  37.459  1.00  0.00     0.198 A 
ATOM     76  F   UNL A   1      38.122  30.272  36.198  1.00  0.00    -0.203 F 
ATOM     77  F   UNL A   1      40.129  35.262  37.104  1.00  0.00    -0.200 F 
ATOM     78  C   UNL A   1      38.638  33.528  37.694  1.00  0.00     0.200 A 
ATOM     79  F   UNL A   1      37.173  31.761  38.250  1.00  0.00    -0.200 F 
ATOM     80  F   UNL A   1      38.180  34.252  38.725  1.00  0.00    -0.200 F 
ENDBRANCH  46  70
BRANCH  58  81
ATOM     81  C   UNL A   1      44.643  27.267  34.668  1.00  0.00     0.064 A 
ATOM     82  C   UNL A   1      45.870  27.919  34.858  1.00  0.00     0.173 A 
ATOM     83  C   UNL A   1      44.380  26.114  35.422  1.00  0.00     0.173 A 
ATOM     84  F   UNL A   1      46.168  29.016  34.146  1.00  0.00    -0.203 F 
ATOM     85  C   UNL A   1      46.802  27.428  35.767  1.00  0.00     0.198 A 
ATOM     86  C   UNL A   1      45.305  25.639  36.344  1.00  0.00     0.198 A 
ATOM     87  F   UNL A   1      43.217  25.462  35.274  1.00  0.00    -0.203 F 
ATOM     88  F   UNL A   1      47.979  28.049  35.918  1.00  0.00    -0.200 F 
ATOM     89  C   UNL A   1      46.515  26.294  36.516  1.00  0.00     0.200 A 
ATOM     90  F   UNL A   1      45.023  24.549  37.073  1.00  0.00    -0.200 F 
ATOM     91  F   UNL A   1      47.409  25.831  37.400  1.00  0.00    -0.200 F 
ENDBRANCH  58  81
ENDBRANCH  32  33
ENDBRANCH  25  27
ENDBRANCH  24  25
ENDBRANCH  23  24
ENDBRANCH   1  23
TORSDOF 15
ENDMDL
MODEL 2
REMARK VINA RESULT:     -11.9      0.900      2.291
REMARK SMILES CCC[C@@]1(C(=O)OCCOC(=O)c2ccc(-c3c4nc(c(-c5c(F)c(F)c(F)c(F)c5F)c5ccc([nH]5)c(-c5c(F)c(F)c(F)c(F)c5F)c5nc(c(-c6c(F)c(F)c(F)c(F)c6F)c6ccc3[nH]6)C=C5)C=C4)cc2)CCN(C(=O)[C@@H]2CC[NH2+][C@@H]2C)C1
REMARK SMILES IDX 8 1 7 2 5 3 6 4 4 5 76 6 87 7 77 8 78 9 3 10 2 11 1 12 79 13
REMARK SMILES IDX 80 14 81 15 82 16 85 17 83 18 84 19 86 20 9 23 10 24 11 25
REMARK SMILES IDX 12 26 13 27 14 28 75 29 15 30 74 31 16 32 17 33 18 34 68 35
REMARK SMILES IDX 19 36 73 37 67 38 69 39 20 40 72 41 66 42 65 43 21 45 53 46
REMARK SMILES IDX 33 47 52 48 34 49 37 50 51 51 70 52 35 53 36 54 50 56 71 57
REMARK SMILES IDX 38 58 22 59 23 60 31 61 24 62 25 63 29 64 32 65 26 66 27 67
REMARK SMILES IDX 30 68 28 69 54 70 55 71 63 72 56 73 57 74 61 75 64 76 58 77
REMARK SMILES IDX 59 78 62 79 60 80 39 81 40 82 48 83 41 84 42 85 46 86 49 87
REMARK SMILES IDX 43 88 44 89 47 90 45 91
REMARK H PARENT 84 21 84 22 69 44 37 55
REMARK Flexibility Score: inf
ROOT
ATOM      1  C   UNL A   1      31.760  28.206  27.475  1.00  0.00     0.274 C 
ENDROOT
BRANCH   1   2
ATOM      2  O   UNL A   1      32.232  27.222  26.526  1.00  0.00    -0.462 OA
BRANCH   2   3
ATOM      3  C   UNL A   1      31.266  26.444  25.977  1.00  0.00     0.314 C 
ATOM      4  O   UNL A   1      30.283  26.060  26.601  1.00  0.00    -0.252 OA
BRANCH   3   5
ATOM      5  C   UNL A   1      31.506  26.064  24.518  1.00  0.00     0.087 C 
ATOM      6  C   UNL A   1      30.553  24.994  23.963  1.00  0.00     0.042 C 
ATOM      7  C   UNL A   1      32.879  25.384  24.377  1.00  0.00     0.138 C 
ATOM      8  C   UNL A   1      31.250  23.659  24.247  1.00  0.00     0.120 C 
ATOM      9  N   UNL A   1      32.668  23.961  24.191  1.00  0.00    -0.341 N 
BRANCH   5  10
ATOM     10  C   UNL A   1      31.510  27.364  23.658  1.00  0.00     0.020 C 
BRANCH  10  11
ATOM     11  C   UNL A   1      30.266  28.265  23.709  1.00  0.00    -0.002 C 
ATOM     12  C   UNL A   1      30.037  29.098  22.448  1.00  0.00     0.004 C 
ENDBRANCH  10  11
ENDBRANCH   5  10
BRANCH   9  13
ATOM     13  C   UNL A   1      33.787  23.162  24.115  1.00  0.00     0.231 C 
ATOM     14  O   UNL A   1      33.690  22.031  23.613  1.00  0.00    -0.274 OA
BRANCH  13  15
ATOM     15  C   UNL A   1      35.177  23.592  24.575  1.00  0.00     0.142 C 
ATOM     16  C   UNL A   1      36.396  23.097  23.821  1.00  0.00     0.081 C 
ATOM     17  C   UNL A   1      35.501  23.404  26.063  1.00  0.00     0.192 C 
ATOM     18  C   UNL A   1      37.124  22.227  24.825  1.00  0.00     0.261 C 
ATOM     19  N   UNL A   1      36.873  22.853  26.125  1.00  0.00    -0.343 N 
ATOM     20  C   UNL A   1      34.547  22.561  26.894  1.00  0.00     0.076 C 
ATOM     21  H   UNL A   1      37.546  23.602  26.293  1.00  0.00     0.346 HD
ATOM     22  H   UNL A   1      36.968  22.180  26.886  1.00  0.00     0.346 HD
ENDBRANCH  13  15
ENDBRANCH   9  13
ENDBRANCH   3   5
ENDBRANCH   2   3
ENDBRANCH   1   2
BRANCH   1  23
ATOM     23  C   UNL A   1      31.734  29.640  26.929  1.00  0.00     0.275 C 
BRANCH  23  24
ATOM     24  O   UNL A   1      33.028  30.096  26.488  1.00  0.00    -0.458 OA
BRANCH  24  25
ATOM     25  C   UNL A   1      33.500  31.167  27.167  1.00  0.00     0.338 C 
ATOM     26  O   UNL A   1      32.883  32.180  27.446  1.00  0.00    -0.246 OA
BRANCH  25  27
ATOM     27  C   UNL A   1      34.873  30.938  27.637  1.00  0.00     0.060 A 
ATOM     28  C   UNL A   1      35.253  29.637  27.978  1.00  0.00     0.016 A 
ATOM     29  C   UNL A   1      35.717  32.011  27.916  1.00  0.00     0.016 A 
ATOM     30  C   UNL A   1      36.437  29.394  28.653  1.00  0.00     0.010 A 
ATOM     31  C   UNL A   1      36.935  31.765  28.556  1.00  0.00     0.010 A 
ATOM     32  C   UNL A   1      37.285  30.458  28.947  1.00  0.00    -0.014 A 
BRANCH  32  33
ATOM     33  C   UNL A   1      38.514  30.208  29.723  1.00  0.00     0.031 A 
ATOM     34  C   UNL A   1      39.575  29.329  29.141  1.00  0.00     0.074 A 
ATOM     35  C   UNL A   1      38.678  30.786  30.925  1.00  0.00     0.049 A 
ATOM     36  N   UNL A   1      40.596  28.766  29.730  1.00  0.00    -0.248 NA
ATOM     37  C   UNL A   1      39.472  29.046  27.700  1.00  0.00     0.031 C 
ATOM     38  C   UNL A   1      37.767  31.760  31.528  1.00  0.00     0.029 A 
ATOM     39  N   UNL A   1      39.666  30.627  31.860  1.00  0.00    -0.354 N 
ATOM     40  C   UNL A   1      41.224  28.015  28.748  1.00  0.00     0.074 A 
ATOM     41  C   UNL A   1      40.485  28.212  27.519  1.00  0.00     0.031 C 
ATOM     42  C   UNL A   1      38.228  32.097  32.742  1.00  0.00     0.029 A 
ATOM     43  C   UNL A   1      39.417  31.302  33.029  1.00  0.00     0.049 A 
ATOM     44  H   UNL A   1      40.474  30.083  31.709  1.00  0.00     0.167 HD
ATOM     45  C   UNL A   1      42.312  27.222  28.880  1.00  0.00     0.037 A 
ATOM     46  C   UNL A   1      40.042  31.228  34.219  1.00  0.00     0.037 A 
ATOM     47  C   UNL A   1      43.043  27.072  30.110  1.00  0.00     0.049 A 
ATOM     48  C   UNL A   1      41.201  30.282  34.365  1.00  0.00     0.074 A 
ATOM     49  C   UNL A   1      44.140  26.273  30.375  1.00  0.00     0.029 A 
ATOM     50  N   UNL A   1      42.750  27.756  31.282  1.00  0.00    -0.354 N 
ATOM     51  N   UNL A   1      41.742  29.494  33.468  1.00  0.00    -0.248 NA
ATOM     52  C   UNL A   1      41.822  30.196  35.693  1.00  0.00     0.031 C 
ATOM     53  C   UNL A   1      44.493  26.453  31.717  1.00  0.00     0.029 A 
ATOM     54  C   UNL A   1      43.640  27.393  32.277  1.00  0.00     0.049 A 
ATOM     55  H   UNL A   1      42.016  28.404  31.389  1.00  0.00     0.167 HD
ATOM     56  C   UNL A   1      42.778  28.836  34.112  1.00  0.00     0.074 A 
ATOM     57  C   UNL A   1      42.793  29.319  35.478  1.00  0.00     0.031 C 
ATOM     58  C   UNL A   1      43.640  27.914  33.620  1.00  0.00     0.037 A 
BRANCH  45  59
ATOM     59  C   UNL A   1      42.730  26.416  27.690  1.00  0.00     0.064 A 
ATOM     60  C   UNL A   1      43.701  26.869  26.787  1.00  0.00     0.173 A 
ATOM     61  C   UNL A   1      42.158  25.154  27.463  1.00  0.00     0.173 A 
ATOM     62  F   UNL A   1      44.265  28.075  26.951  1.00  0.00    -0.203 F 
ATOM     63  C   UNL A   1      44.071  26.096  25.688  1.00  0.00     0.198 A 
ATOM     64  C   UNL A   1      42.547  24.375  26.378  1.00  0.00     0.198 A 
ATOM     65  F   UNL A   1      41.224  24.674  28.298  1.00  0.00    -0.203 F 
ATOM     66  F   UNL A   1      44.973  26.564  24.815  1.00  0.00    -0.200 F 
ATOM     67  C   UNL A   1      43.498  24.848  25.488  1.00  0.00     0.200 A 
ATOM     68  F   UNL A   1      41.998  23.166  26.191  1.00  0.00    -0.200 F 
ATOM     69  F   UNL A   1      43.859  24.104  24.433  1.00  0.00    -0.200 F 
ENDBRANCH  45  59
BRANCH  46  70
ATOM     70  C   UNL A   1      39.535  32.021  35.366  1.00  0.00     0.064 A 
ATOM     71  C   UNL A   1      38.614  31.476  36.269  1.00  0.00     0.173 A 
ATOM     72  C   UNL A   1      39.977  33.334  35.595  1.00  0.00     0.173 A 
ATOM     73  F   UNL A   1      38.145  30.234  36.078  1.00  0.00    -0.203 F 
ATOM     74  C   UNL A   1      38.148  32.215  37.355  1.00  0.00     0.198 A 
ATOM     75  C   UNL A   1      39.532  34.062  36.695  1.00  0.00     0.198 A 
ATOM     76  F   UNL A   1      40.860  33.901  34.760  1.00  0.00    -0.203 F 
ATOM     77  F   UNL A   1      37.242  31.683  38.185  1.00  0.00    -0.200 F 
ATOM     78  C   UNL A   1      38.614  33.504  37.571  1.00  0.00     0.200 A 
ATOM     79  F   UNL A   1      39.995  35.301  36.909  1.00  0.00    -0.200 F 
ATOM     80  F   UNL A   1      38.173  34.210  38.621  1.00  0.00    -0.200 F 
ENDBRANCH  46  70
BRANCH  58  81
ATOM     81  C   UNL A   1      44.702  27.408  34.546  1.00  0.00     0.064 A 
ATOM     82  C   UNL A   1      44.518  26.247  35.309  1.00  0.00     0.173 A 
ATOM     83  C   UNL A   1      45.943  28.058  34.615  1.00  0.00     0.173 A 
ATOM     84  F   UNL A   1      43.341  25.603  35.283  1.00  0.00    -0.203 F 
ATOM     85  C   UNL A   1      45.539  25.758  36.117  1.00  0.00     0.198 A 
ATOM     86  C   UNL A   1      46.968  27.555  35.408  1.00  0.00     0.198 A 
ATOM     87  F   UNL A   1      46.163  29.171  33.899  1.00  0.00    -0.203 F 
ATOM     88  F   UNL A   1      45.337  24.660  36.858  1.00  0.00    -0.200 F 
ATOM     89  C   UNL A   1      46.766  26.407  36.159  1.00  0.00     0.200 A 
ATOM     90  F   UNL A   1      48.155  28.178  35.441  1.00  0.00    -0.200 F 
ATOM     91  F   UNL A   1      47.752  25.927  36.928  1.00  0.00    -0.200 F 
ENDBRANCH  58  81
ENDBRANCH  32  33
ENDBRANCH  25  27
ENDBRANCH  24  25
ENDBRANCH  23  24
ENDBRANCH   1  23
TORSDOF 15
ENDMDL
MODEL 3
REMARK VINA RESULT:     -11.6      4.308      9.828
REMARK SMILES CCC[C@@]1(C(=O)OCCOC(=O)c2ccc(-c3c4nc(c(-c5c(F)c(F)c(F)c(F)c5F)c5ccc([nH]5)c(-c5c(F)c(F)c(F)c(F)c5F)c5nc(c(-c6c(F)c(F)c(F)c(F)c6F)c6ccc3[nH]6)C=C5)C=C4)cc2)CCN(C(=O)[C@@H]2CC[NH2+][C@@H]2C)C1
REMARK SMILES IDX 8 1 7 2 5 3 6 4 4 5 76 6 87 7 77 8 78 9 3 10 2 11 1 12 79 13
REMARK SMILES IDX 80 14 81 15 82 16 85 17 83 18 84 19 86 20 9 23 10 24 11 25
REMARK SMILES IDX 12 26 13 27 14 28 75 29 15 30 74 31 16 32 17 33 18 34 68 35
REMARK SMILES IDX 19 36 73 37 67 38 69 39 20 40 72 41 66 42 65 43 21 45 53 46
REMARK SMILES IDX 33 47 52 48 34 49 37 50 51 51 70 52 35 53 36 54 50 56 71 57
REMARK SMILES IDX 38 58 22 59 23 60 31 61 24 62 25 63 29 64 32 65 26 66 27 67
REMARK SMILES IDX 30 68 28 69 54 70 55 71 63 72 56 73 57 74 61 75 64 76 58 77
REMARK SMILES IDX 59 78 62 79 60 80 39 81 40 82 48 83 41 84 42 85 46 86 49 87
REMARK SMILES IDX 43 88 44 89 47 90 45 91
REMARK H PARENT 84 21 84 22 69 44 37 55
REMARK Flexibility Score: inf
ROOT
ATOM      1  C   UNL A   1      35.556  21.062  24.666  1.00  0.00     0.274 C 
ENDROOT
BRANCH   1   2
ATOM      2  O   UNL A   1      35.197  22.455  24.818  1.00  0.00    -0.462 OA
BRANCH   2   3
ATOM      3  C   UNL A   1      34.902  23.101  23.662  1.00  0.00     0.314 C 
ATOM      4  O   UNL A   1      35.697  23.211  22.736  1.00  0.00    -0.252 OA
BRANCH   3   5
ATOM      5  C   UNL A   1      33.500  23.704  23.609  1.00  0.00     0.087 C 
ATOM      6  C   UNL A   1      33.195  24.522  22.345  1.00  0.00     0.042 C 
ATOM      7  C   UNL A   1      33.343  24.753  24.723  1.00  0.00     0.138 C 
ATOM      8  C   UNL A   1      33.612  25.955  22.693  1.00  0.00     0.120 C 
ATOM      9  N   UNL A   1      33.389  26.071  24.121  1.00  0.00    -0.341 N 
BRANCH   5  10
ATOM     10  C   UNL A   1      32.459  22.569  23.851  1.00  0.00     0.020 C 
BRANCH  10  11
ATOM     11  C   UNL A   1      32.221  21.557  22.718  1.00  0.00    -0.002 C 
ATOM     12  C   UNL A   1      32.349  20.094  23.142  1.00  0.00     0.004 C 
ENDBRANCH  10  11
ENDBRANCH   5  10
BRANCH   9  13
ATOM     13  C   UNL A   1      33.335  27.155  24.970  1.00  0.00     0.231 C 
ATOM     14  O   UNL A   1      33.647  27.006  26.162  1.00  0.00    -0.274 OA
BRANCH  13  15
ATOM     15  C   UNL A   1      32.952  28.565  24.532  1.00  0.00     0.142 C 
ATOM     16  C   UNL A   1      33.177  29.726  25.482  1.00  0.00     0.081 C 
ATOM     17  C   UNL A   1      31.536  28.753  23.970  1.00  0.00     0.192 C 
ATOM     18  C   UNL A   1      31.781  30.223  25.795  1.00  0.00     0.261 C 
ATOM     19  N   UNL A   1      31.012  30.001  24.569  1.00  0.00    -0.343 N 
ATOM     20  C   UNL A   1      30.546  27.615  24.152  1.00  0.00     0.076 C 
ATOM     21  H   UNL A   1      31.140  30.782  23.925  1.00  0.00     0.346 HD
ATOM     22  H   UNL A   1      30.014  29.927  24.765  1.00  0.00     0.346 HD
ENDBRANCH  13  15
ENDBRANCH   9  13
ENDBRANCH   3   5
ENDBRANCH   2   3
ENDBRANCH   1   2
BRANCH   1  23
ATOM     23  C   UNL A   1      37.010  20.745  25.041  1.00  0.00     0.275 C 
BRANCH  23  24
ATOM     24  O   UNL A   1      37.724  21.894  25.537  1.00  0.00    -0.458 OA
BRANCH  24  25
ATOM     25  C   UNL A   1      38.938  21.609  26.061  1.00  0.00     0.338 C 
ATOM     26  O   UNL A   1      39.548  20.560  25.953  1.00  0.00    -0.246 OA
BRANCH  25  27
ATOM     27  C   UNL A   1      39.519  22.781  26.730  1.00  0.00     0.060 A 
ATOM     28  C   UNL A   1      39.064  24.051  26.365  1.00  0.00     0.016 A 
ATOM     29  C   UNL A   1      40.624  22.646  27.568  1.00  0.00     0.016 A 
ATOM     30  C   UNL A   1      39.734  25.192  26.771  1.00  0.00     0.010 A 
ATOM     31  C   UNL A   1      41.275  23.798  28.019  1.00  0.00     0.010 A 
ATOM     32  C   UNL A   1      40.846  25.072  27.600  1.00  0.00    -0.014 A 
BRANCH  32  33
ATOM     33  C   UNL A   1      41.597  26.283  27.980  1.00  0.00     0.031 A 
ATOM     34  C   UNL A   1      40.916  27.337  28.792  1.00  0.00     0.074 A 
ATOM     35  C   UNL A   1      42.884  26.415  27.616  1.00  0.00     0.049 A 
ATOM     36  N   UNL A   1      41.279  28.571  29.015  1.00  0.00    -0.248 NA
ATOM     37  C   UNL A   1      39.653  26.948  29.442  1.00  0.00     0.031 C 
ATOM     38  C   UNL A   1      43.681  25.394  26.934  1.00  0.00     0.029 A 
ATOM     39  N   UNL A   1      43.743  27.473  27.757  1.00  0.00    -0.354 N 
ATOM     40  C   UNL A   1      40.264  29.125  29.781  1.00  0.00     0.074 A 
ATOM     41  C   UNL A   1      39.280  28.087  30.006  1.00  0.00     0.031 C 
ATOM     42  C   UNL A   1      44.908  25.882  26.699  1.00  0.00     0.029 A 
ATOM     43  C   UNL A   1      44.952  27.272  27.138  1.00  0.00     0.049 A 
ATOM     44  H   UNL A   1      43.516  28.293  28.252  1.00  0.00     0.167 HD
ATOM     45  C   UNL A   1      40.167  30.396  30.234  1.00  0.00     0.037 A 
ATOM     46  C   UNL A   1      45.951  28.140  26.894  1.00  0.00     0.037 A 
ATOM     47  C   UNL A   1      41.178  31.397  30.020  1.00  0.00     0.049 A 
ATOM     48  C   UNL A   1      45.790  29.567  27.339  1.00  0.00     0.074 A 
ATOM     49  C   UNL A   1      41.178  32.726  30.402  1.00  0.00     0.029 A 
ATOM     50  N   UNL A   1      42.383  31.164  29.370  1.00  0.00    -0.354 N 
ATOM     51  N   UNL A   1      44.790  30.124  27.979  1.00  0.00    -0.248 NA
ATOM     52  C   UNL A   1      46.882  30.491  27.009  1.00  0.00     0.031 C 
ATOM     53  C   UNL A   1      42.372  33.305  29.958  1.00  0.00     0.029 A 
ATOM     54  C   UNL A   1      43.132  32.327  29.334  1.00  0.00     0.049 A 
ATOM     55  H   UNL A   1      42.663  30.300  28.992  1.00  0.00     0.167 HD
ATOM     56  C   UNL A   1      45.139  31.455  28.148  1.00  0.00     0.074 A 
ATOM     57  C   UNL A   1      46.446  31.623  27.546  1.00  0.00     0.031 C 
ATOM     58  C   UNL A   1      44.441  32.450  28.747  1.00  0.00     0.037 A 
BRANCH  45  59
ATOM     59  C   UNL A   1      38.907  30.784  30.944  1.00  0.00     0.064 A 
ATOM     60  C   UNL A   1      37.766  31.217  30.254  1.00  0.00     0.173 A 
ATOM     61  C   UNL A   1      38.838  30.703  32.343  1.00  0.00     0.173 A 
ATOM     62  F   UNL A   1      37.788  31.328  28.918  1.00  0.00    -0.203 F 
ATOM     63  C   UNL A   1      36.608  31.571  30.941  1.00  0.00     0.198 A 
ATOM     64  C   UNL A   1      37.671  31.035  33.025  1.00  0.00     0.198 A 
ATOM     65  F   UNL A   1      39.903  30.294  33.051  1.00  0.00    -0.203 F 
ATOM     66  F   UNL A   1      35.540  32.019  30.265  1.00  0.00    -0.200 F 
ATOM     67  C   UNL A   1      36.559  31.475  32.324  1.00  0.00     0.200 A 
ATOM     68  F   UNL A   1      37.624  30.933  34.361  1.00  0.00    -0.200 F 
ATOM     69  F   UNL A   1      35.442  31.812  32.983  1.00  0.00    -0.200 F 
ENDBRANCH  45  59
BRANCH  46  70
ATOM     70  C   UNL A   1      47.147  27.692  26.139  1.00  0.00     0.064 A 
ATOM     71  C   UNL A   1      48.290  27.232  26.804  1.00  0.00     0.173 A 
ATOM     72  C   UNL A   1      47.165  27.695  24.735  1.00  0.00     0.173 A 
ATOM     73  F   UNL A   1      48.329  27.232  28.145  1.00  0.00    -0.203 F 
ATOM     74  C   UNL A   1      49.408  26.798  26.095  1.00  0.00     0.198 A 
ATOM     75  C   UNL A   1      48.272  27.236  24.027  1.00  0.00     0.198 A 
ATOM     76  F   UNL A   1      46.095  28.126  24.051  1.00  0.00    -0.203 F 
ATOM     77  F   UNL A   1      50.502  26.394  26.755  1.00  0.00    -0.200 F 
ATOM     78  C   UNL A   1      49.395  26.793  24.708  1.00  0.00     0.200 A 
ATOM     79  F   UNL A   1      48.250  27.220  22.687  1.00  0.00    -0.200 F 
ATOM     80  F   UNL A   1      50.468  26.366  24.027  1.00  0.00    -0.200 F 
ENDBRANCH  46  70
BRANCH  58  81
ATOM     81  C   UNL A   1      45.099  33.793  28.827  1.00  0.00     0.064 A 
ATOM     82  C   UNL A   1      44.901  34.767  27.839  1.00  0.00     0.173 A 
ATOM     83  C   UNL A   1      45.881  34.128  29.942  1.00  0.00     0.173 A 
ATOM     84  F   UNL A   1      44.173  34.483  26.748  1.00  0.00    -0.203 F 
ATOM     85  C   UNL A   1      45.471  36.030  27.962  1.00  0.00     0.198 A 
ATOM     86  C   UNL A   1      46.431  35.398  30.072  1.00  0.00     0.198 A 
ATOM     87  F   UNL A   1      46.093  33.227  30.913  1.00  0.00    -0.203 F 
ATOM     88  F   UNL A   1      45.291  36.941  26.996  1.00  0.00    -0.200 F 
ATOM     89  C   UNL A   1      46.227  36.348  29.082  1.00  0.00     0.200 A 
ATOM     90  F   UNL A   1      47.154  35.706  31.158  1.00  0.00    -0.200 F 
ATOM     91  F   UNL A   1      46.764  37.569  29.204  1.00  0.00    -0.200 F 
ENDBRANCH  58  81
ENDBRANCH  32  33
ENDBRANCH  25  27
ENDBRANCH  24  25
ENDBRANCH  23  24
ENDBRANCH   1  23
TORSDOF 15
ENDMDL
