MODEL 1
REMARK VINA RESULT:     -11.3      0.000      0.000
REMARK SMILES O=C(OCCOC(=O)c1ccn(-c2cc(-c3ccncc3)nc(-c3ccccc3F)n2)n1)c1ccc(-c2c3nc(c(-c4c(F)c(F)c(F)c(F)c4F)c4ccc([nH]4)c(-c4c(F)c(F)c(F)c(F)c4F)c4nc(c(-c5c(F)c(F)c(F)c(F)c5F)c5ccc2[nH]5)C=C4)C=C3)cc1
REMARK SMILES IDX 4 1 3 2 2 3 1 4 33 5 34 6 95 7 35 8 94 9 36 10 37 11 38 12
REMARK SMILES IDX 88 13 39 14 93 15 87 16 89 17 40 18 92 19 86 20 85 21 41 23
REMARK SMILES IDX 73 24 53 25 72 26 54 27 57 28 71 29 90 30 55 31 56 32 70 34
REMARK SMILES IDX 91 35 58 36 42 37 43 38 51 39 44 40 45 41 49 42 52 43 46 44
REMARK SMILES IDX 47 45 50 46 48 47 74 48 75 49 83 50 76 51 77 52 81 53 84 54
REMARK SMILES IDX 78 55 79 56 82 57 80 58 59 59 60 60 68 61 61 62 62 63 66 64
REMARK SMILES IDX 69 65 63 66 64 67 67 68 65 69 5 70 6 71 7 72 8 73 9 74 10 75
REMARK SMILES IDX 32 76 11 77 12 78 13 79 14 80 31 81 15 82 23 83 22 84 16 85
REMARK SMILES IDX 17 86 21 87 18 88 20 89 19 90 24 91 25 92 29 93 26 94 28 95
REMARK SMILES IDX 30 96 27 97
REMARK H PARENT 89 22 57 33
REMARK Flexibility Score: inf
ROOT
ATOM      1  C   UNL A   1      33.478  35.200  28.788  1.00  0.00     0.275 C 
ENDROOT
BRANCH   1   2
ATOM      2  O   UNL A   1      34.580  34.301  29.031  1.00  0.00    -0.458 OA
BRANCH   2   3
ATOM      3  C   UNL A   1      34.527  33.021  28.598  1.00  0.00     0.338 C 
ATOM      4  O   UNL A   1      33.662  32.601  27.842  1.00  0.00    -0.246 OA
BRANCH   3   5
ATOM      5  C   UNL A   1      35.765  32.259  28.889  1.00  0.00     0.060 A 
ATOM      6  C   UNL A   1      35.788  30.867  29.038  1.00  0.00     0.016 A 
ATOM      7  C   UNL A   1      36.953  32.989  29.008  1.00  0.00     0.016 A 
ATOM      8  C   UNL A   1      36.962  30.220  29.391  1.00  0.00     0.010 A 
ATOM      9  C   UNL A   1      38.134  32.342  29.337  1.00  0.00     0.010 A 
ATOM     10  C   UNL A   1      38.132  30.963  29.560  1.00  0.00    -0.014 A 
BRANCH  10  11
ATOM     11  C   UNL A   1      39.380  30.246  29.829  1.00  0.00     0.031 A 
ATOM     12  C   UNL A   1      39.810  30.212  31.270  1.00  0.00     0.074 A 
ATOM     13  C   UNL A   1      39.989  29.546  28.843  1.00  0.00     0.049 A 
ATOM     14  N   UNL A   1      41.010  30.179  31.749  1.00  0.00    -0.248 NA
ATOM     15  C   UNL A   1      38.783  30.244  32.331  1.00  0.00     0.031 C 
ATOM     16  C   UNL A   1      39.500  29.354  27.470  1.00  0.00     0.029 A 
ATOM     17  N   UNL A   1      41.103  28.756  28.875  1.00  0.00    -0.354 N 
ATOM     18  C   UNL A   1      40.898  30.085  33.142  1.00  0.00     0.074 A 
ATOM     19  C   UNL A   1      39.499  30.113  33.450  1.00  0.00     0.031 C 
ATOM     20  C   UNL A   1      40.158  28.324  26.897  1.00  0.00     0.029 A 
ATOM     21  C   UNL A   1      41.203  27.877  27.797  1.00  0.00     0.049 A 
ATOM     22  H   UNL A   1      41.774  28.804  29.593  1.00  0.00     0.167 HD
ATOM     23  C   UNL A   1      42.000  29.908  33.923  1.00  0.00     0.037 A 
ATOM     24  C   UNL A   1      42.051  26.826  27.668  1.00  0.00     0.037 A 
ATOM     25  C   UNL A   1      43.144  30.456  33.246  1.00  0.00     0.049 A 
ATOM     26  C   UNL A   1      43.182  27.061  28.592  1.00  0.00     0.074 A 
ATOM     27  C   UNL A   1      43.605  31.728  32.998  1.00  0.00     0.029 A 
ATOM     28  N   UNL A   1      43.769  29.610  32.370  1.00  0.00    -0.354 N 
ATOM     29  N   UNL A   1      44.045  28.029  28.456  1.00  0.00    -0.248 NA
ATOM     30  C   UNL A   1      43.183  26.401  29.889  1.00  0.00     0.031 C 
ATOM     31  C   UNL A   1      44.316  31.643  31.766  1.00  0.00     0.029 A 
ATOM     32  C   UNL A   1      44.320  30.315  31.339  1.00  0.00     0.049 A 
ATOM     33  H   UNL A   1      43.814  28.631  32.470  1.00  0.00     0.167 HD
ATOM     34  C   UNL A   1      44.345  28.395  29.754  1.00  0.00     0.074 A 
ATOM     35  C   UNL A   1      43.946  27.258  30.572  1.00  0.00     0.031 C 
ATOM     36  C   UNL A   1      44.591  29.701  30.057  1.00  0.00     0.037 A 
BRANCH  23  37
ATOM     37  C   UNL A   1      42.146  28.784  34.941  1.00  0.00     0.064 A 
ATOM     38  C   UNL A   1      41.725  27.460  34.733  1.00  0.00     0.173 A 
ATOM     39  C   UNL A   1      43.064  28.960  36.005  1.00  0.00     0.173 A 
ATOM     40  F   UNL A   1      40.763  27.160  33.858  1.00  0.00    -0.203 F 
ATOM     41  C   UNL A   1      42.327  26.380  35.387  1.00  0.00     0.198 A 
ATOM     42  C   UNL A   1      43.666  27.882  36.655  1.00  0.00     0.198 A 
ATOM     43  F   UNL A   1      43.468  30.186  36.368  1.00  0.00    -0.203 F 
ATOM     44  F   UNL A   1      41.974  25.129  35.057  1.00  0.00    -0.200 F 
ATOM     45  C   UNL A   1      43.329  26.588  36.313  1.00  0.00     0.200 A 
ATOM     46  F   UNL A   1      44.634  28.104  37.556  1.00  0.00    -0.200 F 
ATOM     47  F   UNL A   1      43.977  25.550  36.859  1.00  0.00    -0.200 F 
ENDBRANCH  23  37
BRANCH  24  48
ATOM     48  C   UNL A   1      41.846  25.516  26.999  1.00  0.00     0.064 A 
ATOM     49  C   UNL A   1      41.013  24.524  27.550  1.00  0.00     0.173 A 
ATOM     50  C   UNL A   1      42.699  25.099  25.959  1.00  0.00     0.173 A 
ATOM     51  F   UNL A   1      40.191  24.799  28.573  1.00  0.00    -0.203 F 
ATOM     52  C   UNL A   1      41.067  23.194  27.129  1.00  0.00     0.198 A 
ATOM     53  C   UNL A   1      42.759  23.764  25.544  1.00  0.00     0.198 A 
ATOM     54  F   UNL A   1      43.541  25.969  25.384  1.00  0.00    -0.203 F 
ATOM     55  F   UNL A   1      40.301  22.274  27.734  1.00  0.00    -0.200 F 
ATOM     56  C   UNL A   1      41.955  22.809  26.141  1.00  0.00     0.200 A 
ATOM     57  F   UNL A   1      43.641  23.393  24.606  1.00  0.00    -0.200 F 
ATOM     58  F   UNL A   1      42.060  21.519  25.795  1.00  0.00    -0.200 F 
ENDBRANCH  24  48
BRANCH  36  59
ATOM     59  C   UNL A   1      45.025  30.603  28.941  1.00  0.00     0.064 A 
ATOM     60  C   UNL A   1      46.404  30.801  28.778  1.00  0.00     0.173 A 
ATOM     61  C   UNL A   1      44.163  31.333  28.108  1.00  0.00     0.173 A 
ATOM     62  F   UNL A   1      47.275  30.166  29.579  1.00  0.00    -0.203 F 
ATOM     63  C   UNL A   1      46.900  31.688  27.831  1.00  0.00     0.198 A 
ATOM     64  C   UNL A   1      44.664  32.187  27.128  1.00  0.00     0.198 A 
ATOM     65  F   UNL A   1      42.834  31.273  28.260  1.00  0.00    -0.203 F 
ATOM     66  F   UNL A   1      48.220  31.900  27.746  1.00  0.00    -0.200 F 
ATOM     67  C   UNL A   1      46.031  32.371  26.997  1.00  0.00     0.200 A 
ATOM     68  F   UNL A   1      43.823  32.860  26.329  1.00  0.00    -0.200 F 
ATOM     69  F   UNL A   1      46.511  33.224  26.082  1.00  0.00    -0.200 F 
ENDBRANCH  36  59
ENDBRANCH  10  11
ENDBRANCH   3   5
ENDBRANCH   2   3
ENDBRANCH   1   2
BRANCH   1  70
ATOM     70  C   UNL A   1      33.027  36.078  29.953  1.00  0.00     0.275 C 
BRANCH  70  71
ATOM     71  O   UNL A   1      32.868  35.289  31.147  1.00  0.00    -0.457 OA
BRANCH  71  72
ATOM     72  C   UNL A   1      33.560  35.728  32.238  1.00  0.00     0.358 C 
ATOM     73  O   UNL A   1      33.429  36.845  32.747  1.00  0.00    -0.244 OA
BRANCH  72  74
ATOM     74  C   UNL A   1      34.598  34.793  32.671  1.00  0.00     0.170 A 
ATOM     75  C   UNL A   1      34.644  33.437  32.278  1.00  0.00     0.058 A 
ATOM     76  N   UNL A   1      35.660  35.117  33.446  1.00  0.00    -0.159 NA
ATOM     77  C   UNL A   1      35.879  33.000  32.671  1.00  0.00     0.118 A 
ATOM     78  N   UNL A   1      36.507  34.060  33.289  1.00  0.00    -0.222 N 
BRANCH  78  79
ATOM     79  C   UNL A   1      37.871  34.047  33.714  1.00  0.00     0.158 A 
ATOM     80  C   UNL A   1      38.197  34.015  35.055  1.00  0.00     0.078 A 
ATOM     81  N   UNL A   1      38.801  33.983  32.737  1.00  0.00    -0.209 NA
ATOM     82  C   UNL A   1      39.530  33.764  35.344  1.00  0.00     0.077 A 
ATOM     83  C   UNL A   1      40.079  33.905  33.129  1.00  0.00     0.165 A 
ATOM     84  N   UNL A   1      40.484  33.762  34.395  1.00  0.00    -0.228 NA
BRANCH  82  85
ATOM     85  C   UNL A   1      39.998  33.269  36.644  1.00  0.00     0.003 A 
ATOM     86  C   UNL A   1      41.270  32.698  36.739  1.00  0.00     0.030 A 
ATOM     87  C   UNL A   1      39.299  33.463  37.834  1.00  0.00     0.030 A 
ATOM     88  C   UNL A   1      41.765  32.301  37.969  1.00  0.00     0.111 A 
ATOM     89  C   UNL A   1      39.883  33.051  39.027  1.00  0.00     0.111 A 
ATOM     90  N   UNL A   1      41.095  32.459  39.125  1.00  0.00    -0.265 NA
ENDBRANCH  82  85
BRANCH  83  91
ATOM     91  C   UNL A   1      41.093  34.174  32.127  1.00  0.00     0.055 A 
ATOM     92  C   UNL A   1      40.984  33.602  30.847  1.00  0.00     0.015 A 
ATOM     93  C   UNL A   1      42.177  35.011  32.390  1.00  0.00     0.134 A 
ATOM     94  C   UNL A   1      41.929  33.875  29.858  1.00  0.00     0.001 A 
ATOM     95  C   UNL A   1      43.130  35.283  31.410  1.00  0.00     0.040 A 
ATOM     96  F   UNL A   1      42.333  35.559  33.604  1.00  0.00    -0.206 F 
ATOM     97  C   UNL A   1      43.003  34.717  30.140  1.00  0.00     0.003 A 
ENDBRANCH  83  91
ENDBRANCH  78  79
ENDBRANCH  72  74
ENDBRANCH  71  72
ENDBRANCH  70  71
ENDBRANCH   1  70
TORSDOF 14
ENDMDL
MODEL 2
REMARK VINA RESULT:     -11.3      5.565     12.108
REMARK SMILES O=C(OCCOC(=O)c1ccn(-c2cc(-c3ccncc3)nc(-c3ccccc3F)n2)n1)c1ccc(-c2c3nc(c(-c4c(F)c(F)c(F)c(F)c4F)c4ccc([nH]4)c(-c4c(F)c(F)c(F)c(F)c4F)c4nc(c(-c5c(F)c(F)c(F)c(F)c5F)c5ccc2[nH]5)C=C4)C=C3)cc1
REMARK SMILES IDX 4 1 3 2 2 3 1 4 33 5 34 6 95 7 35 8 94 9 36 10 37 11 38 12
REMARK SMILES IDX 88 13 39 14 93 15 87 16 89 17 40 18 92 19 86 20 85 21 41 23
REMARK SMILES IDX 73 24 53 25 72 26 54 27 57 28 71 29 90 30 55 31 56 32 70 34
REMARK SMILES IDX 91 35 58 36 42 37 43 38 51 39 44 40 45 41 49 42 52 43 46 44
REMARK SMILES IDX 47 45 50 46 48 47 74 48 75 49 83 50 76 51 77 52 81 53 84 54
REMARK SMILES IDX 78 55 79 56 82 57 80 58 59 59 60 60 68 61 61 62 62 63 66 64
REMARK SMILES IDX 69 65 63 66 64 67 67 68 65 69 5 70 6 71 7 72 8 73 9 74 10 75
REMARK SMILES IDX 32 76 11 77 12 78 13 79 14 80 31 81 15 82 23 83 22 84 16 85
REMARK SMILES IDX 17 86 21 87 18 88 20 89 19 90 24 91 25 92 29 93 26 94 28 95
REMARK SMILES IDX 30 96 27 97
REMARK H PARENT 89 22 57 33
REMARK Flexibility Score: inf
ROOT
ATOM      1  C   UNL A   1      43.824  18.845  25.003  1.00  0.00     0.275 C 
ENDROOT
BRANCH   1   2
ATOM      2  O   UNL A   1      44.723  19.947  25.252  1.00  0.00    -0.458 OA
BRANCH   2   3
ATOM      3  C   UNL A   1      44.699  21.041  24.459  1.00  0.00     0.338 C 
ATOM      4  O   UNL A   1      44.571  20.990  23.244  1.00  0.00    -0.246 OA
BRANCH   3   5
ATOM      5  C   UNL A   1      44.551  22.306  25.220  1.00  0.00     0.060 A 
ATOM      6  C   UNL A   1      45.269  22.582  26.390  1.00  0.00     0.016 A 
ATOM      7  C   UNL A   1      43.648  23.250  24.720  1.00  0.00     0.016 A 
ATOM      8  C   UNL A   1      45.026  23.746  27.102  1.00  0.00     0.010 A 
ATOM      9  C   UNL A   1      43.421  24.428  25.417  1.00  0.00     0.010 A 
ATOM     10  C   UNL A   1      44.085  24.660  26.624  1.00  0.00    -0.014 A 
BRANCH  10  11
ATOM     11  C   UNL A   1      43.923  25.930  27.336  1.00  0.00     0.031 A 
ATOM     12  C   UNL A   1      44.926  26.996  26.994  1.00  0.00     0.074 A 
ATOM     13  C   UNL A   1      42.839  26.136  28.120  1.00  0.00     0.049 A 
ATOM     14  N   UNL A   1      45.395  27.930  27.755  1.00  0.00    -0.248 NA
ATOM     15  C   UNL A   1      45.516  27.028  25.640  1.00  0.00     0.031 C 
ATOM     16  C   UNL A   1      41.708  25.218  28.316  1.00  0.00     0.029 A 
ATOM     17  N   UNL A   1      42.444  27.246  28.812  1.00  0.00    -0.354 N 
ATOM     18  C   UNL A   1      46.246  28.717  26.969  1.00  0.00     0.074 A 
ATOM     19  C   UNL A   1      46.274  28.126  25.665  1.00  0.00     0.031 C 
ATOM     20  C   UNL A   1      40.667  25.891  28.851  1.00  0.00     0.029 A 
ATOM     21  C   UNL A   1      41.096  27.240  29.166  1.00  0.00     0.049 A 
ATOM     22  H   UNL A   1      43.057  27.982  29.040  1.00  0.00     0.167 HD
ATOM     23  C   UNL A   1      46.799  29.860  27.463  1.00  0.00     0.037 A 
ATOM     24  C   UNL A   1      40.366  28.281  29.641  1.00  0.00     0.037 A 
ATOM     25  C   UNL A   1      46.906  29.745  28.892  1.00  0.00     0.049 A 
ATOM     26  C   UNL A   1      41.318  29.261  30.207  1.00  0.00     0.074 A 
ATOM     27  C   UNL A   1      47.731  29.054  29.750  1.00  0.00     0.029 A 
ATOM     28  N   UNL A   1      45.792  30.115  29.596  1.00  0.00    -0.354 N 
ATOM     29  N   UNL A   1      42.055  29.038  31.260  1.00  0.00    -0.248 NA
ATOM     30  C   UNL A   1      41.709  30.410  29.403  1.00  0.00     0.031 C 
ATOM     31  C   UNL A   1      46.943  28.790  30.907  1.00  0.00     0.029 A 
ATOM     32  C   UNL A   1      45.692  29.384  30.746  1.00  0.00     0.049 A 
ATOM     33  H   UNL A   1      45.154  30.810  29.314  1.00  0.00     0.167 HD
ATOM     34  C   UNL A   1      43.235  29.704  30.991  1.00  0.00     0.074 A 
ATOM     35  C   UNL A   1      42.900  30.667  29.950  1.00  0.00     0.031 C 
ATOM     36  C   UNL A   1      44.424  29.188  31.414  1.00  0.00     0.037 A 
BRANCH  23  37
ATOM     37  C   UNL A   1      46.685  31.219  26.785  1.00  0.00     0.064 A 
ATOM     38  C   UNL A   1      45.474  31.875  26.511  1.00  0.00     0.173 A 
ATOM     39  C   UNL A   1      47.835  32.045  26.744  1.00  0.00     0.173 A 
ATOM     40  F   UNL A   1      44.327  31.205  26.382  1.00  0.00    -0.203 F 
ATOM     41  C   UNL A   1      45.391  33.269  26.416  1.00  0.00     0.198 A 
ATOM     42  C   UNL A   1      47.752  33.435  26.651  1.00  0.00     0.198 A 
ATOM     43  F   UNL A   1      49.062  31.523  26.891  1.00  0.00    -0.203 F 
ATOM     44  F   UNL A   1      44.190  33.850  26.281  1.00  0.00    -0.200 F 
ATOM     45  C   UNL A   1      46.522  34.051  26.532  1.00  0.00     0.200 A 
ATOM     46  F   UNL A   1      48.862  34.178  26.761  1.00  0.00    -0.200 F 
ATOM     47  F   UNL A   1      46.427  35.387  26.547  1.00  0.00    -0.200 F 
ENDBRANCH  23  37
BRANCH  24  48
ATOM     48  C   UNL A   1      38.934  28.614  29.427  1.00  0.00     0.064 A 
ATOM     49  C   UNL A   1      38.451  29.035  28.173  1.00  0.00     0.173 A 
ATOM     50  C   UNL A   1      38.071  28.814  30.520  1.00  0.00     0.173 A 
ATOM     51  F   UNL A   1      39.205  28.932  27.070  1.00  0.00    -0.203 F 
ATOM     52  C   UNL A   1      37.212  29.663  28.031  1.00  0.00     0.198 A 
ATOM     53  C   UNL A   1      36.833  29.452  30.378  1.00  0.00     0.198 A 
ATOM     54  F   UNL A   1      38.451  28.460  31.757  1.00  0.00    -0.203 F 
ATOM     55  F   UNL A   1      36.828  30.107  26.825  1.00  0.00    -0.200 F 
ATOM     56  C   UNL A   1      36.413  29.891  29.135  1.00  0.00     0.200 A 
ATOM     57  F   UNL A   1      36.076  29.694  31.457  1.00  0.00    -0.200 F 
ATOM     58  F   UNL A   1      35.261  30.564  29.006  1.00  0.00    -0.200 F 
ENDBRANCH  24  48
BRANCH  36  59
ATOM     59  C   UNL A   1      44.392  28.223  32.561  1.00  0.00     0.064 A 
ATOM     60  C   UNL A   1      44.586  28.750  33.846  1.00  0.00     0.173 A 
ATOM     61  C   UNL A   1      44.277  26.829  32.442  1.00  0.00     0.173 A 
ATOM     62  F   UNL A   1      44.750  30.072  34.014  1.00  0.00    -0.203 F 
ATOM     63  C   UNL A   1      44.663  27.925  34.961  1.00  0.00     0.198 A 
ATOM     64  C   UNL A   1      44.308  26.008  33.567  1.00  0.00     0.198 A 
ATOM     65  F   UNL A   1      44.183  26.238  31.245  1.00  0.00    -0.203 F 
ATOM     66  F   UNL A   1      44.912  28.458  36.165  1.00  0.00    -0.200 F 
ATOM     67  C   UNL A   1      44.511  26.556  34.824  1.00  0.00     0.200 A 
ATOM     68  F   UNL A   1      44.176  24.680  33.435  1.00  0.00    -0.200 F 
ATOM     69  F   UNL A   1      44.583  25.762  35.902  1.00  0.00    -0.200 F 
ENDBRANCH  36  59
ENDBRANCH  10  11
ENDBRANCH   3   5
ENDBRANCH   2   3
ENDBRANCH   1   2
BRANCH   1  70
ATOM     70  C   UNL A   1      42.595  18.735  25.903  1.00  0.00     0.275 C 
BRANCH  70  71
ATOM     71  O   UNL A   1      41.685  19.821  25.648  1.00  0.00    -0.457 OA
BRANCH  71  72
ATOM     72  C   UNL A   1      41.564  20.736  26.653  1.00  0.00     0.358 C 
ATOM     73  O   UNL A   1      42.353  20.846  27.597  1.00  0.00    -0.244 OA
BRANCH  72  74
ATOM     74  C   UNL A   1      40.314  21.490  26.593  1.00  0.00     0.170 A 
ATOM     75  C   UNL A   1      40.249  22.902  26.590  1.00  0.00     0.058 A 
ATOM     76  N   UNL A   1      39.080  20.941  26.480  1.00  0.00    -0.159 NA
ATOM     77  C   UNL A   1      38.954  23.193  26.263  1.00  0.00     0.118 A 
ATOM     78  N   UNL A   1      38.293  21.992  26.110  1.00  0.00    -0.222 N 
BRANCH  78  79
ATOM     79  C   UNL A   1      36.954  21.869  25.630  1.00  0.00     0.158 A 
ATOM     80  C   UNL A   1      36.515  20.700  25.040  1.00  0.00     0.078 A 
ATOM     81  N   UNL A   1      36.136  22.919  25.861  1.00  0.00    -0.209 NA
ATOM     82  C   UNL A   1      35.147  20.609  24.832  1.00  0.00     0.077 A 
ATOM     83  C   UNL A   1      34.863  22.786  25.470  1.00  0.00     0.165 A 
ATOM     84  N   UNL A   1      34.323  21.660  24.991  1.00  0.00    -0.228 NA
BRANCH  82  85
ATOM     85  C   UNL A   1      34.441  19.337  24.635  1.00  0.00     0.003 A 
ATOM     86  C   UNL A   1      35.181  18.157  24.514  1.00  0.00     0.030 A 
ATOM     87  C   UNL A   1      33.055  19.213  24.704  1.00  0.00     0.030 A 
ATOM     88  C   UNL A   1      34.535  16.938  24.412  1.00  0.00     0.111 A 
ATOM     89  C   UNL A   1      32.492  17.944  24.613  1.00  0.00     0.111 A 
ATOM     90  N   UNL A   1      33.197  16.800  24.452  1.00  0.00    -0.265 NA
ENDBRANCH  82  85
BRANCH  83  91
ATOM     91  C   UNL A   1      34.066  23.995  25.398  1.00  0.00     0.055 A 
ATOM     92  C   UNL A   1      34.334  24.954  24.404  1.00  0.00     0.015 A 
ATOM     93  C   UNL A   1      33.012  24.231  26.280  1.00  0.00     0.134 A 
ATOM     94  C   UNL A   1      33.556  26.107  24.295  1.00  0.00     0.001 A 
ATOM     95  C   UNL A   1      32.236  25.384  26.182  1.00  0.00     0.040 A 
ATOM     96  F   UNL A   1      32.735  23.355  27.257  1.00  0.00    -0.206 F 
ATOM     97  C   UNL A   1      32.506  26.321  25.184  1.00  0.00     0.003 A 
ENDBRANCH  83  91
ENDBRANCH  78  79
ENDBRANCH  72  74
ENDBRANCH  71  72
ENDBRANCH  70  71
ENDBRANCH   1  70
TORSDOF 14
ENDMDL
MODEL 3
REMARK VINA RESULT:     -11.3      4.408     11.316
REMARK SMILES O=C(OCCOC(=O)c1ccn(-c2cc(-c3ccncc3)nc(-c3ccccc3F)n2)n1)c1ccc(-c2c3nc(c(-c4c(F)c(F)c(F)c(F)c4F)c4ccc([nH]4)c(-c4c(F)c(F)c(F)c(F)c4F)c4nc(c(-c5c(F)c(F)c(F)c(F)c5F)c5ccc2[nH]5)C=C4)C=C3)cc1
REMARK SMILES IDX 4 1 3 2 2 3 1 4 33 5 34 6 95 7 35 8 94 9 36 10 37 11 38 12
REMARK SMILES IDX 88 13 39 14 93 15 87 16 89 17 40 18 92 19 86 20 85 21 41 23
REMARK SMILES IDX 73 24 53 25 72 26 54 27 57 28 71 29 90 30 55 31 56 32 70 34
REMARK SMILES IDX 91 35 58 36 42 37 43 38 51 39 44 40 45 41 49 42 52 43 46 44
REMARK SMILES IDX 47 45 50 46 48 47 74 48 75 49 83 50 76 51 77 52 81 53 84 54
REMARK SMILES IDX 78 55 79 56 82 57 80 58 59 59 60 60 68 61 61 62 62 63 66 64
REMARK SMILES IDX 69 65 63 66 64 67 67 68 65 69 5 70 6 71 7 72 8 73 9 74 10 75
REMARK SMILES IDX 32 76 11 77 12 78 13 79 14 80 31 81 15 82 23 83 22 84 16 85
REMARK SMILES IDX 17 86 21 87 18 88 20 89 19 90 24 91 25 92 29 93 26 94 28 95
REMARK SMILES IDX 30 96 27 97
REMARK H PARENT 89 22 57 33
REMARK Flexibility Score: inf
ROOT
ATOM      1  C   UNL A   1      41.145  19.480  26.361  1.00  0.00     0.275 C 
ENDROOT
BRANCH   1   2
ATOM      2  O   UNL A   1      41.053  20.727  27.081  1.00  0.00    -0.458 OA
BRANCH   2   3
ATOM      3  C   UNL A   1      40.198  21.691  26.672  1.00  0.00     0.338 C 
ATOM      4  O   UNL A   1      39.130  21.456  26.126  1.00  0.00    -0.246 OA
BRANCH   3   5
ATOM      5  C   UNL A   1      40.539  23.032  27.205  1.00  0.00     0.060 A 
ATOM      6  C   UNL A   1      41.560  23.247  28.137  1.00  0.00     0.016 A 
ATOM      7  C   UNL A   1      39.791  24.116  26.732  1.00  0.00     0.016 A 
ATOM      8  C   UNL A   1      41.777  24.513  28.660  1.00  0.00     0.010 A 
ATOM      9  C   UNL A   1      40.021  25.389  27.234  1.00  0.00     0.010 A 
ATOM     10  C   UNL A   1      40.991  25.581  28.221  1.00  0.00    -0.014 A 
BRANCH  10  11
ATOM     11  C   UNL A   1      41.308  26.925  28.708  1.00  0.00     0.031 A 
ATOM     12  C   UNL A   1      42.572  27.530  28.163  1.00  0.00     0.074 A 
ATOM     13  C   UNL A   1      40.417  27.599  29.473  1.00  0.00     0.049 A 
ATOM     14  N   UNL A   1      43.378  28.360  28.739  1.00  0.00    -0.248 NA
ATOM     15  C   UNL A   1      43.028  27.155  26.809  1.00  0.00     0.031 C 
ATOM     16  C   UNL A   1      39.069  27.152  29.853  1.00  0.00     0.029 A 
ATOM     17  N   UNL A   1      40.461  28.869  29.974  1.00  0.00    -0.354 N 
ATOM     18  C   UNL A   1      44.371  28.688  27.808  1.00  0.00     0.074 A 
ATOM     19  C   UNL A   1      44.100  27.928  26.625  1.00  0.00     0.031 C 
ATOM     20  C   UNL A   1      38.350  28.208  30.291  1.00  0.00     0.029 A 
ATOM     21  C   UNL A   1      39.218  29.368  30.359  1.00  0.00     0.049 A 
ATOM     22  H   UNL A   1      41.296  29.384  30.057  1.00  0.00     0.167 HD
ATOM     23  C   UNL A   1      45.304  29.642  28.084  1.00  0.00     0.037 A 
ATOM     24  C   UNL A   1      38.905  30.652  30.667  1.00  0.00     0.037 A 
ATOM     25  C   UNL A   1      45.483  29.719  29.509  1.00  0.00     0.049 A 
ATOM     26  C   UNL A   1      40.167  31.333  31.031  1.00  0.00     0.074 A 
ATOM     27  C   UNL A   1      46.106  28.932  30.451  1.00  0.00     0.029 A 
ATOM     28  N   UNL A   1      44.611  30.542  30.167  1.00  0.00    -0.354 N 
ATOM     29  N   UNL A   1      40.874  31.042  32.087  1.00  0.00    -0.248 NA
ATOM     30  C   UNL A   1      40.842  32.148  30.032  1.00  0.00     0.031 C 
ATOM     31  C   UNL A   1      45.372  29.127  31.656  1.00  0.00     0.029 A 
ATOM     32  C   UNL A   1      44.372  30.072  31.427  1.00  0.00     0.049 A 
ATOM     33  H   UNL A   1      44.212  31.358  29.787  1.00  0.00     0.167 HD
ATOM     34  C   UNL A   1      42.180  31.226  31.677  1.00  0.00     0.074 A 
ATOM     35  C   UNL A   1      42.092  32.074  30.495  1.00  0.00     0.031 C 
ATOM     36  C   UNL A   1      43.168  30.415  32.152  1.00  0.00     0.037 A 
BRANCH  23  37
ATOM     37  C   UNL A   1      45.582  30.840  27.186  1.00  0.00     0.064 A 
ATOM     38  C   UNL A   1      44.592  31.652  26.610  1.00  0.00     0.173 A 
ATOM     39  C   UNL A   1      46.881  31.403  27.206  1.00  0.00     0.173 A 
ATOM     40  F   UNL A   1      43.352  31.204  26.400  1.00  0.00    -0.203 F 
ATOM     41  C   UNL A   1      44.831  32.990  26.278  1.00  0.00     0.198 A 
ATOM     42  C   UNL A   1      47.119  32.739  26.877  1.00  0.00     0.198 A 
ATOM     43  F   UNL A   1      47.933  30.692  27.640  1.00  0.00    -0.203 F 
ATOM     44  F   UNL A   1      43.816  33.756  25.851  1.00  0.00    -0.200 F 
ATOM     45  C   UNL A   1      46.082  33.546  26.455  1.00  0.00     0.200 A 
ATOM     46  F   UNL A   1      48.342  33.260  27.051  1.00  0.00    -0.200 F 
ATOM     47  F   UNL A   1      46.283  34.852  26.237  1.00  0.00    -0.200 F 
ENDBRANCH  23  37
BRANCH  24  48
ATOM     48  C   UNL A   1      37.647  31.406  30.435  1.00  0.00     0.064 A 
ATOM     49  C   UNL A   1      37.164  31.661  29.138  1.00  0.00     0.173 A 
ATOM     50  C   UNL A   1      37.053  32.149  31.473  1.00  0.00     0.173 A 
ATOM     51  F   UNL A   1      37.686  31.042  28.069  1.00  0.00    -0.203 F 
ATOM     52  C   UNL A   1      36.192  32.632  28.887  1.00  0.00     0.198 A 
ATOM     53  C   UNL A   1      36.085  33.128  31.220  1.00  0.00     0.198 A 
ATOM     54  F   UNL A   1      37.459  31.987  32.740  1.00  0.00    -0.203 F 
ATOM     55  F   UNL A   1      35.815  32.884  27.625  1.00  0.00    -0.200 F 
ATOM     56  C   UNL A   1      35.668  33.380  29.925  1.00  0.00     0.200 A 
ATOM     57  F   UNL A   1      35.602  33.869  32.227  1.00  0.00    -0.200 F 
ATOM     58  F   UNL A   1      34.794  34.364  29.672  1.00  0.00    -0.200 F 
ENDBRANCH  24  48
BRANCH  36  59
ATOM     59  C   UNL A   1      42.918  29.704  33.448  1.00  0.00     0.064 A 
ATOM     60  C   UNL A   1      42.401  28.403  33.374  1.00  0.00     0.173 A 
ATOM     61  C   UNL A   1      43.074  30.269  34.723  1.00  0.00     0.173 A 
ATOM     62  F   UNL A   1      42.187  27.830  32.179  1.00  0.00    -0.203 F 
ATOM     63  C   UNL A   1      42.053  27.697  34.520  1.00  0.00     0.198 A 
ATOM     64  C   UNL A   1      42.767  29.543  35.872  1.00  0.00     0.198 A 
ATOM     65  F   UNL A   1      43.472  31.538  34.879  1.00  0.00    -0.203 F 
ATOM     66  F   UNL A   1      41.503  26.481  34.409  1.00  0.00    -0.200 F 
ATOM     67  C   UNL A   1      42.248  28.262  35.768  1.00  0.00     0.200 A 
ATOM     68  F   UNL A   1      42.942  30.093  37.083  1.00  0.00    -0.200 F 
ATOM     69  F   UNL A   1      41.914  27.579  36.873  1.00  0.00    -0.200 F 
ENDBRANCH  36  59
ENDBRANCH  10  11
ENDBRANCH   3   5
ENDBRANCH   2   3
ENDBRANCH   1   2
BRANCH   1  70
ATOM     70  C   UNL A   1      42.534  18.859  26.219  1.00  0.00     0.275 C 
BRANCH  70  71
ATOM     71  O   UNL A   1      43.150  19.278  24.988  1.00  0.00    -0.457 OA
BRANCH  71  72
ATOM     72  C   UNL A   1      44.451  19.678  25.088  1.00  0.00     0.358 C 
ATOM     73  O   UNL A   1      45.414  18.911  25.180  1.00  0.00    -0.244 OA
BRANCH  72  74
ATOM     74  C   UNL A   1      44.595  21.126  25.228  1.00  0.00     0.170 A 
ATOM     75  C   UNL A   1      43.549  22.046  24.984  1.00  0.00     0.058 A 
ATOM     76  N   UNL A   1      45.715  21.758  25.655  1.00  0.00    -0.159 NA
ATOM     77  C   UNL A   1      44.008  23.236  25.475  1.00  0.00     0.118 A 
ATOM     78  N   UNL A   1      45.280  23.014  25.959  1.00  0.00    -0.222 N 
BRANCH  78  79
ATOM     79  C   UNL A   1      46.043  23.981  26.682  1.00  0.00     0.158 A 
ATOM     80  C   UNL A   1      47.153  24.577  26.117  1.00  0.00     0.078 A 
ATOM     81  N   UNL A   1      45.568  24.331  27.897  1.00  0.00    -0.209 NA
ATOM     82  C   UNL A   1      47.670  25.662  26.807  1.00  0.00     0.077 A 
ATOM     83  C   UNL A   1      46.243  25.283  28.553  1.00  0.00     0.165 A 
ATOM     84  N   UNL A   1      47.260  25.989  28.046  1.00  0.00    -0.228 NA
BRANCH  82  85
ATOM     85  C   UNL A   1      48.537  26.675  26.193  1.00  0.00     0.003 A 
ATOM     86  C   UNL A   1      49.168  27.618  27.009  1.00  0.00     0.030 A 
ATOM     87  C   UNL A   1      48.887  26.667  24.844  1.00  0.00     0.030 A 
ATOM     88  C   UNL A   1      50.054  28.530  26.462  1.00  0.00     0.111 A 
ATOM     89  C   UNL A   1      49.802  27.608  24.385  1.00  0.00     0.111 A 
ATOM     90  N   UNL A   1      50.386  28.552  25.158  1.00  0.00    -0.265 NA
ENDBRANCH  82  85
BRANCH  83  91
ATOM     91  C   UNL A   1      45.963  25.433  29.968  1.00  0.00     0.055 A 
ATOM     92  C   UNL A   1      44.633  25.411  30.427  1.00  0.00     0.015 A 
ATOM     93  C   UNL A   1      46.985  25.578  30.905  1.00  0.00     0.134 A 
ATOM     94  C   UNL A   1      44.344  25.517  31.787  1.00  0.00     0.001 A 
ATOM     95  C   UNL A   1      46.704  25.693  32.265  1.00  0.00     0.040 A 
ATOM     96  F   UNL A   1      48.266  25.628  30.510  1.00  0.00    -0.206 F 
ATOM     97  C   UNL A   1      45.381  25.658  32.707  1.00  0.00     0.003 A 
ENDBRANCH  83  91
ENDBRANCH  78  79
ENDBRANCH  72  74
ENDBRANCH  71  72
ENDBRANCH  70  71
ENDBRANCH   1  70
TORSDOF 14
ENDMDL
