MODEL 1
REMARK VINA RESULT:     -11.6      0.000      0.000
REMARK SMILES O=C(OCCOC(=O)c1cncc(Nc2cccnc2)n1)c1ccc(-c2c3nc(c(-c4c(F)c(F)c(F)c(F)c4F)c4ccc([nH]4)c(-c4c(F)c(F)c(F)c(F)c4F)c4nc(c(-c5c(F)c(F)c(F)c(F)c5F)c5ccc2[nH]5)C=C4)C=C3)cc1
REMARK SMILES IDX 4 1 3 2 2 3 1 4 22 5 23 6 84 7 24 8 83 9 25 10 26 11 27 12
REMARK SMILES IDX 77 13 28 14 82 15 76 16 78 17 29 18 81 19 75 20 74 21 30 23
REMARK SMILES IDX 62 24 42 25 61 26 43 27 46 28 60 29 79 30 44 31 45 32 59 34
REMARK SMILES IDX 80 35 47 36 31 37 32 38 40 39 33 40 34 41 38 42 41 43 35 44
REMARK SMILES IDX 36 45 39 46 37 47 63 48 64 49 72 50 65 51 66 52 70 53 73 54
REMARK SMILES IDX 67 55 68 56 71 57 69 58 48 59 49 60 57 61 50 62 51 63 55 64
REMARK SMILES IDX 58 65 52 66 53 67 56 68 54 69 5 70 6 71 7 72 8 73 9 74 10 75
REMARK SMILES IDX 21 76 11 77 13 78 12 79 14 80 15 82 16 83 20 84 17 85 19 86
REMARK SMILES IDX 18 87
REMARK H PARENT 78 22 46 33 14 81
REMARK Flexibility Score: inf
ROOT
ATOM      1  C   UNL A   1      34.321  33.357  28.139  1.00  0.00     0.275 C 
ENDROOT
BRANCH   1   2
ATOM      2  O   UNL A   1      33.988  31.997  28.470  1.00  0.00    -0.458 OA
BRANCH   2   3
ATOM      3  C   UNL A   1      34.451  30.847  27.929  1.00  0.00     0.338 C 
ATOM      4  O   UNL A   1      33.732  30.205  27.164  1.00  0.00    -0.246 OA
BRANCH   3   5
ATOM      5  C   UNL A   1      35.747  30.227  28.328  1.00  0.00     0.060 A 
ATOM      6  C   UNL A   1      36.050  29.722  29.594  1.00  0.00     0.016 A 
ATOM      7  C   UNL A   1      36.768  30.245  27.360  1.00  0.00     0.016 A 
ATOM      8  C   UNL A   1      37.318  29.198  29.872  1.00  0.00     0.010 A 
ATOM      9  C   UNL A   1      38.038  29.726  27.633  1.00  0.00     0.010 A 
ATOM     10  C   UNL A   1      38.322  29.210  28.900  1.00  0.00    -0.014 A 
BRANCH  10  11
ATOM     11  C   UNL A   1      39.704  28.842  29.282  1.00  0.00     0.031 A 
ATOM     12  C   UNL A   1      40.433  29.717  30.258  1.00  0.00     0.074 A 
ATOM     13  C   UNL A   1      40.271  27.715  28.818  1.00  0.00     0.049 A 
ATOM     14  N   UNL A   1      41.586  29.524  30.844  1.00  0.00    -0.248 NA
ATOM     15  C   UNL A   1      39.767  30.973  30.638  1.00  0.00     0.031 C 
ATOM     16  C   UNL A   1      39.648  26.785  27.882  1.00  0.00     0.029 A 
ATOM     17  N   UNL A   1      41.496  27.156  29.078  1.00  0.00    -0.354 N 
ATOM     18  C   UNL A   1      41.766  30.615  31.681  1.00  0.00     0.074 A 
ATOM     19  C   UNL A   1      40.640  31.500  31.482  1.00  0.00     0.031 C 
ATOM     20  C   UNL A   1      40.497  25.776  27.630  1.00  0.00     0.029 A 
ATOM     21  C   UNL A   1      41.720  25.982  28.401  1.00  0.00     0.049 A 
ATOM     22  H   UNL A   1      42.153  27.559  29.690  1.00  0.00     0.167 HD
ATOM     23  C   UNL A   1      42.766  30.843  32.564  1.00  0.00     0.037 A 
ATOM     24  C   UNL A   1      42.789  25.164  28.417  1.00  0.00     0.037 A 
ATOM     25  C   UNL A   1      43.896  29.973  32.737  1.00  0.00     0.049 A 
ATOM     26  C   UNL A   1      43.929  25.479  29.351  1.00  0.00     0.074 A 
ATOM     27  C   UNL A   1      44.969  30.106  33.600  1.00  0.00     0.029 A 
ATOM     28  N   UNL A   1      44.104  28.808  32.011  1.00  0.00    -0.354 N 
ATOM     29  N   UNL A   1      44.052  26.470  30.200  1.00  0.00    -0.248 NA
ATOM     30  C   UNL A   1      45.064  24.546  29.349  1.00  0.00     0.031 C 
ATOM     31  C   UNL A   1      45.846  29.039  33.367  1.00  0.00     0.029 A 
ATOM     32  C   UNL A   1      45.299  28.221  32.390  1.00  0.00     0.049 A 
ATOM     33  H   UNL A   1      43.494  28.453  31.326  1.00  0.00     0.167 HD
ATOM     34  C   UNL A   1      45.252  26.258  30.864  1.00  0.00     0.074 A 
ATOM     35  C   UNL A   1      45.819  25.042  30.319  1.00  0.00     0.031 C 
ATOM     36  C   UNL A   1      45.829  26.997  31.844  1.00  0.00     0.037 A 
BRANCH  23  37
ATOM     37  C   UNL A   1      42.666  32.092  33.386  1.00  0.00     0.064 A 
ATOM     38  C   UNL A   1      42.043  32.087  34.644  1.00  0.00     0.173 A 
ATOM     39  C   UNL A   1      43.159  33.310  32.901  1.00  0.00     0.173 A 
ATOM     40  F   UNL A   1      41.535  30.949  35.142  1.00  0.00    -0.203 F 
ATOM     41  C   UNL A   1      41.884  33.266  35.369  1.00  0.00     0.198 A 
ATOM     42  C   UNL A   1      43.020  34.482  33.639  1.00  0.00     0.198 A 
ATOM     43  F   UNL A   1      43.761  33.367  31.703  1.00  0.00    -0.203 F 
ATOM     44  F   UNL A   1      41.232  33.248  36.539  1.00  0.00    -0.200 F 
ATOM     45  C   UNL A   1      42.374  34.461  34.865  1.00  0.00     0.200 A 
ATOM     46  F   UNL A   1      43.496  35.638  33.154  1.00  0.00    -0.200 F 
ATOM     47  F   UNL A   1      42.209  35.597  35.558  1.00  0.00    -0.200 F 
ENDBRANCH  23  37
BRANCH  24  48
ATOM     48  C   UNL A   1      42.813  23.947  27.565  1.00  0.00     0.064 A 
ATOM     49  C   UNL A   1      42.359  22.713  28.049  1.00  0.00     0.173 A 
ATOM     50  C   UNL A   1      43.306  23.989  26.251  1.00  0.00     0.173 A 
ATOM     51  F   UNL A   1      41.898  22.615  29.305  1.00  0.00    -0.203 F 
ATOM     52  C   UNL A   1      42.417  21.563  27.263  1.00  0.00     0.198 A 
ATOM     53  C   UNL A   1      43.342  22.844  25.458  1.00  0.00     0.198 A 
ATOM     54  F   UNL A   1      43.754  25.145  25.740  1.00  0.00    -0.203 F 
ATOM     55  F   UNL A   1      42.018  20.388  27.768  1.00  0.00    -0.200 F 
ATOM     56  C   UNL A   1      42.905  21.631  25.967  1.00  0.00     0.200 A 
ATOM     57  F   UNL A   1      43.809  22.915  24.204  1.00  0.00    -0.200 F 
ATOM     58  F   UNL A   1      42.963  20.524  25.212  1.00  0.00    -0.200 F 
ENDBRANCH  24  48
BRANCH  36  59
ATOM     59  C   UNL A   1      47.110  26.482  32.424  1.00  0.00     0.064 A 
ATOM     60  C   UNL A   1      47.125  25.605  33.519  1.00  0.00     0.173 A 
ATOM     61  C   UNL A   1      48.339  26.837  31.846  1.00  0.00     0.173 A 
ATOM     62  F   UNL A   1      45.977  25.251  34.115  1.00  0.00    -0.203 F 
ATOM     63  C   UNL A   1      48.327  25.121  34.029  1.00  0.00     0.198 A 
ATOM     64  C   UNL A   1      49.536  26.330  32.342  1.00  0.00     0.198 A 
ATOM     65  F   UNL A   1      48.376  27.669  30.794  1.00  0.00    -0.203 F 
ATOM     66  F   UNL A   1      48.322  24.320  35.103  1.00  0.00    -0.200 F 
ATOM     67  C   UNL A   1      49.530  25.477  33.435  1.00  0.00     0.200 A 
ATOM     68  F   UNL A   1      50.696  26.665  31.760  1.00  0.00    -0.200 F 
ATOM     69  F   UNL A   1      50.684  25.004  33.924  1.00  0.00    -0.200 F 
ENDBRANCH  36  59
ENDBRANCH  10  11
ENDBRANCH   3   5
ENDBRANCH   2   3
ENDBRANCH   1   2
BRANCH   1  70
ATOM     70  C   UNL A   1      33.117  34.288  28.021  1.00  0.00     0.275 C 
BRANCH  70  71
ATOM     71  O   UNL A   1      32.642  34.771  29.286  1.00  0.00    -0.457 OA
BRANCH  71  72
ATOM     72  C   UNL A   1      32.928  36.077  29.549  1.00  0.00     0.358 C 
ATOM     73  O   UNL A   1      32.896  37.002  28.755  1.00  0.00    -0.244 OA
BRANCH  72  74
ATOM     74  C   UNL A   1      33.248  36.217  30.983  1.00  0.00     0.169 A 
ATOM     75  C   UNL A   1      33.406  37.474  31.537  1.00  0.00     0.147 A 
ATOM     76  N   UNL A   1      33.404  35.071  31.700  1.00  0.00    -0.220 NA
ATOM     77  N   UNL A   1      33.749  37.644  32.833  1.00  0.00    -0.258 NA
ATOM     78  C   UNL A   1      33.781  35.213  32.989  1.00  0.00     0.149 A 
ATOM     79  C   UNL A   1      33.947  36.490  33.531  1.00  0.00     0.158 A 
BRANCH  78  80
ATOM     80  N   UNL A   1      34.085  34.030  33.658  1.00  0.00    -0.338 N 
ATOM     81  H   UNL A   1      33.349  33.690  34.216  1.00  0.00     0.168 HD
BRANCH  80  82
ATOM     82  C   UNL A   1      35.230  33.232  33.694  1.00  0.00     0.058 A 
ATOM     83  C   UNL A   1      35.505  32.257  32.737  1.00  0.00     0.029 A 
ATOM     84  C   UNL A   1      36.143  33.343  34.745  1.00  0.00     0.137 A 
ATOM     85  C   UNL A   1      36.642  31.458  32.854  1.00  0.00     0.022 A 
ATOM     86  N   UNL A   1      37.251  32.578  34.895  1.00  0.00    -0.263 NA
ATOM     87  C   UNL A   1      37.474  31.649  33.944  1.00  0.00     0.111 A 
ENDBRANCH  80  82
ENDBRANCH  78  80
ENDBRANCH  72  74
ENDBRANCH  71  72
ENDBRANCH  70  71
ENDBRANCH   1  70
TORSDOF 13
ENDMDL
MODEL 2
REMARK VINA RESULT:     -11.6      4.579     12.078
REMARK SMILES O=C(OCCOC(=O)c1cncc(Nc2cccnc2)n1)c1ccc(-c2c3nc(c(-c4c(F)c(F)c(F)c(F)c4F)c4ccc([nH]4)c(-c4c(F)c(F)c(F)c(F)c4F)c4nc(c(-c5c(F)c(F)c(F)c(F)c5F)c5ccc2[nH]5)C=C4)C=C3)cc1
REMARK SMILES IDX 4 1 3 2 2 3 1 4 22 5 23 6 84 7 24 8 83 9 25 10 26 11 27 12
REMARK SMILES IDX 77 13 28 14 82 15 76 16 78 17 29 18 81 19 75 20 74 21 30 23
REMARK SMILES IDX 62 24 42 25 61 26 43 27 46 28 60 29 79 30 44 31 45 32 59 34
REMARK SMILES IDX 80 35 47 36 31 37 32 38 40 39 33 40 34 41 38 42 41 43 35 44
REMARK SMILES IDX 36 45 39 46 37 47 63 48 64 49 72 50 65 51 66 52 70 53 73 54
REMARK SMILES IDX 67 55 68 56 71 57 69 58 48 59 49 60 57 61 50 62 51 63 55 64
REMARK SMILES IDX 58 65 52 66 53 67 56 68 54 69 5 70 6 71 7 72 8 73 9 74 10 75
REMARK SMILES IDX 21 76 11 77 13 78 12 79 14 80 15 82 16 83 20 84 17 85 19 86
REMARK SMILES IDX 18 87
REMARK H PARENT 78 22 46 33 14 81
REMARK Flexibility Score: inf
ROOT
ATOM      1  C   UNL A   1      40.773  20.680  26.991  1.00  0.00     0.275 C 
ENDROOT
BRANCH   1   2
ATOM      2  O   UNL A   1      40.502  21.864  26.218  1.00  0.00    -0.458 OA
BRANCH   2   3
ATOM      3  C   UNL A   1      39.494  22.756  26.345  1.00  0.00     0.338 C 
ATOM      4  O   UNL A   1      38.373  22.469  25.926  1.00  0.00    -0.246 OA
BRANCH   3   5
ATOM      5  C   UNL A   1      39.701  24.148  26.839  1.00  0.00     0.060 A 
ATOM      6  C   UNL A   1      40.265  25.195  26.106  1.00  0.00     0.016 A 
ATOM      7  C   UNL A   1      39.380  24.383  28.188  1.00  0.00     0.016 A 
ATOM      8  C   UNL A   1      40.451  26.455  26.683  1.00  0.00     0.010 A 
ATOM      9  C   UNL A   1      39.567  25.640  28.772  1.00  0.00     0.010 A 
ATOM     10  C   UNL A   1      40.118  26.682  28.022  1.00  0.00    -0.014 A 
BRANCH  10  11
ATOM     11  C   UNL A   1      40.515  27.956  28.662  1.00  0.00     0.031 A 
ATOM     12  C   UNL A   1      41.959  28.160  29.013  1.00  0.00     0.074 A 
ATOM     13  C   UNL A   1      39.617  28.936  28.862  1.00  0.00     0.049 A 
ATOM     14  N   UNL A   1      42.562  29.236  29.447  1.00  0.00    -0.248 NA
ATOM     15  C   UNL A   1      42.847  26.999  28.840  1.00  0.00     0.031 C 
ATOM     16  C   UNL A   1      38.196  28.852  28.543  1.00  0.00     0.029 A 
ATOM     17  N   UNL A   1      39.769  30.198  29.377  1.00  0.00    -0.354 N 
ATOM     18  C   UNL A   1      43.900  28.891  29.567  1.00  0.00     0.074 A 
ATOM     19  C   UNL A   1      44.014  27.490  29.225  1.00  0.00     0.031 C 
ATOM     20  C   UNL A   1      37.598  30.006  28.880  1.00  0.00     0.029 A 
ATOM     21  C   UNL A   1      38.599  30.916  29.428  1.00  0.00     0.049 A 
ATOM     22  H   UNL A   1      40.634  30.555  29.683  1.00  0.00     0.167 HD
ATOM     23  C   UNL A   1      44.947  29.680  29.900  1.00  0.00     0.037 A 
ATOM     24  C   UNL A   1      38.372  32.173  29.856  1.00  0.00     0.037 A 
ATOM     25  C   UNL A   1      44.824  31.064  30.264  1.00  0.00     0.049 A 
ATOM     26  C   UNL A   1      39.544  33.010  30.298  1.00  0.00     0.074 A 
ATOM     27  C   UNL A   1      45.816  31.959  30.621  1.00  0.00     0.029 A 
ATOM     28  N   UNL A   1      43.618  31.749  30.334  1.00  0.00    -0.354 N 
ATOM     29  N   UNL A   1      40.818  32.700  30.328  1.00  0.00    -0.248 NA
ATOM     30  C   UNL A   1      39.250  34.381  30.736  1.00  0.00     0.031 C 
ATOM     31  C   UNL A   1      45.204  33.177  30.945  1.00  0.00     0.029 A 
ATOM     32  C   UNL A   1      43.837  33.051  30.748  1.00  0.00     0.049 A 
ATOM     33  H   UNL A   1      42.737  31.365  30.122  1.00  0.00     0.167 HD
ATOM     34  C   UNL A   1      41.481  33.846  30.745  1.00  0.00     0.074 A 
ATOM     35  C   UNL A   1      40.467  34.859  30.954  1.00  0.00     0.031 C 
ATOM     36  C   UNL A   1      42.809  34.046  30.928  1.00  0.00     0.037 A 
BRANCH  23  37
ATOM     37  C   UNL A   1      46.303  29.040  29.890  1.00  0.00     0.064 A 
ATOM     38  C   UNL A   1      46.846  28.470  31.053  1.00  0.00     0.173 A 
ATOM     39  C   UNL A   1      47.081  29.029  28.726  1.00  0.00     0.173 A 
ATOM     40  F   UNL A   1      46.148  28.476  32.198  1.00  0.00    -0.203 F 
ATOM     41  C   UNL A   1      48.137  27.947  31.056  1.00  0.00     0.198 A 
ATOM     42  C   UNL A   1      48.361  28.483  28.727  1.00  0.00     0.198 A 
ATOM     43  F   UNL A   1      46.607  29.564  27.590  1.00  0.00    -0.203 F 
ATOM     44  F   UNL A   1      48.659  27.463  32.192  1.00  0.00    -0.200 F 
ATOM     45  C   UNL A   1      48.892  27.953  29.893  1.00  0.00     0.200 A 
ATOM     46  F   UNL A   1      49.091  28.486  27.602  1.00  0.00    -0.200 F 
ATOM     47  F   UNL A   1      50.139  27.460  29.902  1.00  0.00    -0.200 F 
ENDBRANCH  23  37
BRANCH  24  48
ATOM     48  C   UNL A   1      36.995  32.731  29.840  1.00  0.00     0.064 A 
ATOM     49  C   UNL A   1      36.155  32.620  30.956  1.00  0.00     0.173 A 
ATOM     50  C   UNL A   1      36.486  33.375  28.702  1.00  0.00     0.173 A 
ATOM     51  F   UNL A   1      36.588  31.995  32.061  1.00  0.00    -0.203 F 
ATOM     52  C   UNL A   1      34.850  33.110  30.928  1.00  0.00     0.198 A 
ATOM     53  C   UNL A   1      35.189  33.886  28.683  1.00  0.00     0.198 A 
ATOM     54  F   UNL A   1      37.249  33.507  27.607  1.00  0.00    -0.203 F 
ATOM     55  F   UNL A   1      34.053  32.950  31.993  1.00  0.00    -0.200 F 
ATOM     56  C   UNL A   1      34.370  33.746  29.792  1.00  0.00     0.200 A 
ATOM     57  F   UNL A   1      34.731  34.504  27.586  1.00  0.00    -0.200 F 
ATOM     58  F   UNL A   1      33.114  34.215  29.765  1.00  0.00    -0.200 F 
ENDBRANCH  24  48
BRANCH  36  59
ATOM     59  C   UNL A   1      43.245  35.423  31.325  1.00  0.00     0.064 A 
ATOM     60  C   UNL A   1      43.322  35.814  32.670  1.00  0.00     0.173 A 
ATOM     61  C   UNL A   1      43.634  36.350  30.345  1.00  0.00     0.173 A 
ATOM     62  F   UNL A   1      42.946  34.968  33.641  1.00  0.00    -0.203 F 
ATOM     63  C   UNL A   1      43.751  37.091  33.018  1.00  0.00     0.198 A 
ATOM     64  C   UNL A   1      44.087  37.616  30.699  1.00  0.00     0.198 A 
ATOM     65  F   UNL A   1      43.582  36.021  29.045  1.00  0.00    -0.203 F 
ATOM     66  F   UNL A   1      43.775  37.460  34.306  1.00  0.00    -0.200 F 
ATOM     67  C   UNL A   1      44.140  37.989  32.033  1.00  0.00     0.200 A 
ATOM     68  F   UNL A   1      44.474  38.478  29.747  1.00  0.00    -0.200 F 
ATOM     69  F   UNL A   1      44.558  39.216  32.371  1.00  0.00    -0.200 F 
ENDBRANCH  36  59
ENDBRANCH  10  11
ENDBRANCH   3   5
ENDBRANCH   2   3
ENDBRANCH   1   2
BRANCH   1  70
ATOM     70  C   UNL A   1      40.767  19.385  26.181  1.00  0.00     0.275 C 
BRANCH  70  71
ATOM     71  O   UNL A   1      41.914  19.239  25.332  1.00  0.00    -0.457 OA
BRANCH  71  72
ATOM     72  C   UNL A   1      42.951  18.543  25.878  1.00  0.00     0.358 C 
ATOM     73  O   UNL A   1      42.868  17.590  26.633  1.00  0.00    -0.244 OA
BRANCH  72  74
ATOM     74  C   UNL A   1      44.221  19.101  25.373  1.00  0.00     0.169 A 
ATOM     75  C   UNL A   1      45.412  18.444  25.618  1.00  0.00     0.147 A 
ATOM     76  N   UNL A   1      44.156  20.281  24.698  1.00  0.00    -0.220 NA
ATOM     77  N   UNL A   1      46.600  18.947  25.218  1.00  0.00    -0.258 NA
ATOM     78  C   UNL A   1      45.334  20.823  24.317  1.00  0.00     0.149 A 
ATOM     79  C   UNL A   1      46.530  20.151  24.582  1.00  0.00     0.158 A 
BRANCH  78  80
ATOM     80  N   UNL A   1      45.256  22.100  23.768  1.00  0.00    -0.338 N 
ATOM     81  H   UNL A   1      45.290  22.112  22.784  1.00  0.00     0.168 HD
BRANCH  80  82
ATOM     82  C   UNL A   1      45.140  23.369  24.340  1.00  0.00     0.058 A 
ATOM     83  C   UNL A   1      43.921  23.911  24.743  1.00  0.00     0.029 A 
ATOM     84  C   UNL A   1      46.260  24.190  24.485  1.00  0.00     0.137 A 
ATOM     85  C   UNL A   1      43.863  25.203  25.263  1.00  0.00     0.022 A 
ATOM     86  N   UNL A   1      46.240  25.452  24.975  1.00  0.00    -0.263 NA
ATOM     87  C   UNL A   1      45.037  25.931  25.353  1.00  0.00     0.111 A 
ENDBRANCH  80  82
ENDBRANCH  78  80
ENDBRANCH  72  74
ENDBRANCH  71  72
ENDBRANCH  70  71
ENDBRANCH   1  70
TORSDOF 13
ENDMDL
MODEL 3
REMARK VINA RESULT:     -11.5      0.408      1.683
REMARK SMILES O=C(OCCOC(=O)c1cncc(Nc2cccnc2)n1)c1ccc(-c2c3nc(c(-c4c(F)c(F)c(F)c(F)c4F)c4ccc([nH]4)c(-c4c(F)c(F)c(F)c(F)c4F)c4nc(c(-c5c(F)c(F)c(F)c(F)c5F)c5ccc2[nH]5)C=C4)C=C3)cc1
REMARK SMILES IDX 4 1 3 2 2 3 1 4 22 5 23 6 84 7 24 8 83 9 25 10 26 11 27 12
REMARK SMILES IDX 77 13 28 14 82 15 76 16 78 17 29 18 81 19 75 20 74 21 30 23
REMARK SMILES IDX 62 24 42 25 61 26 43 27 46 28 60 29 79 30 44 31 45 32 59 34
REMARK SMILES IDX 80 35 47 36 31 37 32 38 40 39 33 40 34 41 38 42 41 43 35 44
REMARK SMILES IDX 36 45 39 46 37 47 63 48 64 49 72 50 65 51 66 52 70 53 73 54
REMARK SMILES IDX 67 55 68 56 71 57 69 58 48 59 49 60 57 61 50 62 51 63 55 64
REMARK SMILES IDX 58 65 52 66 53 67 56 68 54 69 5 70 6 71 7 72 8 73 9 74 10 75
REMARK SMILES IDX 21 76 11 77 13 78 12 79 14 80 15 82 16 83 20 84 17 85 19 86
REMARK SMILES IDX 18 87
REMARK H PARENT 78 22 46 33 14 81
REMARK Flexibility Score: inf
ROOT
ATOM      1  C   UNL A   1      34.224  33.205  28.562  1.00  0.00     0.275 C 
ENDROOT
BRANCH   1   2
ATOM      2  O   UNL A   1      34.372  32.172  27.572  1.00  0.00    -0.458 OA
BRANCH   2   3
ATOM      3  C   UNL A   1      34.500  30.837  27.740  1.00  0.00     0.338 C 
ATOM      4  O   UNL A   1      33.509  30.115  27.639  1.00  0.00    -0.246 OA
BRANCH   3   5
ATOM      5  C   UNL A   1      35.767  30.195  28.195  1.00  0.00     0.060 A 
ATOM      6  C   UNL A   1      36.003  29.677  29.470  1.00  0.00     0.016 A 
ATOM      7  C   UNL A   1      36.832  30.204  27.276  1.00  0.00     0.016 A 
ATOM      8  C   UNL A   1      37.249  29.132  29.803  1.00  0.00     0.010 A 
ATOM      9  C   UNL A   1      38.080  29.664  27.604  1.00  0.00     0.010 A 
ATOM     10  C   UNL A   1      38.297  29.135  28.879  1.00  0.00    -0.014 A 
BRANCH  10  11
ATOM     11  C   UNL A   1      39.655  28.745  29.322  1.00  0.00     0.031 A 
ATOM     12  C   UNL A   1      40.333  29.579  30.368  1.00  0.00     0.074 A 
ATOM     13  C   UNL A   1      40.240  27.631  28.850  1.00  0.00     0.049 A 
ATOM     14  N   UNL A   1      41.451  29.356  31.008  1.00  0.00    -0.248 NA
ATOM     15  C   UNL A   1      39.654  30.825  30.756  1.00  0.00     0.031 C 
ATOM     16  C   UNL A   1      39.665  26.739  27.848  1.00  0.00     0.029 A 
ATOM     17  N   UNL A   1      41.446  27.054  29.155  1.00  0.00    -0.354 N 
ATOM     18  C   UNL A   1      41.591  30.415  31.893  1.00  0.00     0.074 A 
ATOM     19  C   UNL A   1      40.482  31.315  31.664  1.00  0.00     0.031 C 
ATOM     20  C   UNL A   1      40.521  25.733  27.606  1.00  0.00     0.029 A 
ATOM     21  C   UNL A   1      41.702  25.904  28.449  1.00  0.00     0.049 A 
ATOM     22  H   UNL A   1      42.071  27.430  29.817  1.00  0.00     0.167 HD
ATOM     23  C   UNL A   1      42.542  30.604  32.836  1.00  0.00     0.037 A 
ATOM     24  C   UNL A   1      42.764  25.078  28.495  1.00  0.00     0.037 A 
ATOM     25  C   UNL A   1      43.657  29.721  33.039  1.00  0.00     0.049 A 
ATOM     26  C   UNL A   1      43.852  25.351  29.499  1.00  0.00     0.074 A 
ATOM     27  C   UNL A   1      44.681  29.815  33.964  1.00  0.00     0.029 A 
ATOM     28  N   UNL A   1      43.899  28.582  32.284  1.00  0.00    -0.354 N 
ATOM     29  N   UNL A   1      43.933  26.310  30.390  1.00  0.00    -0.248 NA
ATOM     30  C   UNL A   1      44.980  24.411  29.526  1.00  0.00     0.031 C 
ATOM     31  C   UNL A   1      45.564  28.752  33.741  1.00  0.00     0.029 A 
ATOM     32  C   UNL A   1      45.067  27.973  32.707  1.00  0.00     0.049 A 
ATOM     33  H   UNL A   1      43.324  28.255  31.555  1.00  0.00     0.167 HD
ATOM     34  C   UNL A   1      45.094  26.067  31.111  1.00  0.00     0.074 A 
ATOM     35  C   UNL A   1      45.684  24.867  30.553  1.00  0.00     0.031 C 
ATOM     36  C   UNL A   1      45.620  26.765  32.147  1.00  0.00     0.037 A 
BRANCH  23  37
ATOM     37  C   UNL A   1      42.404  31.824  33.696  1.00  0.00     0.064 A 
ATOM     38  C   UNL A   1      43.048  33.027  33.363  1.00  0.00     0.173 A 
ATOM     39  C   UNL A   1      41.657  31.784  34.880  1.00  0.00     0.173 A 
ATOM     40  F   UNL A   1      43.793  33.108  32.250  1.00  0.00    -0.203 F 
ATOM     41  C   UNL A   1      42.979  34.133  34.206  1.00  0.00     0.198 A 
ATOM     42  C   UNL A   1      41.571  32.899  35.709  1.00  0.00     0.198 A 
ATOM     43  F   UNL A   1      41.026  30.658  35.244  1.00  0.00    -0.203 F 
ATOM     44  F   UNL A   1      43.651  35.251  33.899  1.00  0.00    -0.200 F 
ATOM     45  C   UNL A   1      42.239  34.068  35.377  1.00  0.00     0.200 A 
ATOM     46  F   UNL A   1      40.853  32.838  36.840  1.00  0.00    -0.200 F 
ATOM     47  F   UNL A   1      42.184  35.129  36.194  1.00  0.00    -0.200 F 
ENDBRANCH  23  37
BRANCH  24  48
ATOM     48  C   UNL A   1      42.828  23.892  27.601  1.00  0.00     0.064 A 
ATOM     49  C   UNL A   1      42.415  22.628  28.043  1.00  0.00     0.173 A 
ATOM     50  C   UNL A   1      43.320  23.995  26.291  1.00  0.00     0.173 A 
ATOM     51  F   UNL A   1      41.956  22.473  29.294  1.00  0.00    -0.203 F 
ATOM     52  C   UNL A   1      42.511  21.508  27.218  1.00  0.00     0.198 A 
ATOM     53  C   UNL A   1      43.394  22.879  25.459  1.00  0.00     0.198 A 
ATOM     54  F   UNL A   1      43.729  25.182  25.819  1.00  0.00    -0.203 F 
ATOM     55  F   UNL A   1      42.151  20.304  27.682  1.00  0.00    -0.200 F 
ATOM     56  C   UNL A   1      42.997  21.636  25.926  1.00  0.00     0.200 A 
ATOM     57  F   UNL A   1      43.859  23.008  24.209  1.00  0.00    -0.200 F 
ATOM     58  F   UNL A   1      43.091  20.559  25.133  1.00  0.00    -0.200 F 
ENDBRANCH  24  48
BRANCH  36  59
ATOM     59  C   UNL A   1      46.866  26.221  32.777  1.00  0.00     0.064 A 
ATOM     60  C   UNL A   1      48.141  26.640  32.372  1.00  0.00     0.173 A 
ATOM     61  C   UNL A   1      46.777  25.299  33.831  1.00  0.00     0.173 A 
ATOM     62  F   UNL A   1      48.276  27.507  31.357  1.00  0.00    -0.203 F 
ATOM     63  C   UNL A   1      49.285  26.138  32.986  1.00  0.00     0.198 A 
ATOM     64  C   UNL A   1      47.922  24.820  34.460  1.00  0.00     0.198 A 
ATOM     65  F   UNL A   1      45.579  24.872  34.258  1.00  0.00    -0.203 F 
ATOM     66  F   UNL A   1      50.496  26.517  32.554  1.00  0.00    -0.200 F 
ATOM     67  C   UNL A   1      49.175  25.235  34.033  1.00  0.00     0.200 A 
ATOM     68  F   UNL A   1      47.814  23.957  35.480  1.00  0.00    -0.200 F 
ATOM     69  F   UNL A   1      50.277  24.758  34.627  1.00  0.00    -0.200 F 
ENDBRANCH  36  59
ENDBRANCH  10  11
ENDBRANCH   3   5
ENDBRANCH   2   3
ENDBRANCH   1   2
BRANCH   1  70
ATOM     70  C   UNL A   1      33.281  34.336  28.157  1.00  0.00     0.275 C 
BRANCH  70  71
ATOM     71  O   UNL A   1      32.575  34.914  29.264  1.00  0.00    -0.457 OA
BRANCH  71  72
ATOM     72  C   UNL A   1      32.901  36.208  29.542  1.00  0.00     0.358 C 
ATOM     73  O   UNL A   1      32.908  37.140  28.757  1.00  0.00    -0.244 OA
BRANCH  72  74
ATOM     74  C   UNL A   1      33.209  36.325  30.981  1.00  0.00     0.169 A 
ATOM     75  C   UNL A   1      33.369  37.572  31.556  1.00  0.00     0.147 A 
ATOM     76  N   UNL A   1      33.355  35.167  31.681  1.00  0.00    -0.220 NA
ATOM     77  N   UNL A   1      33.701  37.721  32.857  1.00  0.00    -0.258 NA
ATOM     78  C   UNL A   1      33.722  35.288  32.976  1.00  0.00     0.149 A 
ATOM     79  C   UNL A   1      33.889  36.556  33.539  1.00  0.00     0.158 A 
BRANCH  78  80
ATOM     80  N   UNL A   1      34.015  34.093  33.629  1.00  0.00    -0.338 N 
ATOM     81  H   UNL A   1      33.274  33.749  34.177  1.00  0.00     0.168 HD
BRANCH  80  82
ATOM     82  C   UNL A   1      35.156  33.289  33.660  1.00  0.00     0.058 A 
ATOM     83  C   UNL A   1      35.432  32.326  32.691  1.00  0.00     0.029 A 
ATOM     84  C   UNL A   1      36.063  33.379  34.719  1.00  0.00     0.137 A 
ATOM     85  C   UNL A   1      36.564  31.520  32.804  1.00  0.00     0.022 A 
ATOM     86  N   UNL A   1      37.165  32.607  34.865  1.00  0.00    -0.263 NA
ATOM     87  C   UNL A   1      37.390  31.691  33.901  1.00  0.00     0.111 A 
ENDBRANCH  80  82
ENDBRANCH  78  80
ENDBRANCH  72  74
ENDBRANCH  71  72
ENDBRANCH  70  71
ENDBRANCH   1  70
TORSDOF 13
ENDMDL
