MODEL 1
REMARK VINA RESULT:     -11.0      0.000      0.000
REMARK SMILES Cc1nc(C[N@H+](C)[C@H](C)c2ccc(C(=O)OCCOC(=O)c3ccc(-c4c5nc(c(-c6c(F)c(F)c(F)c(F)c6F)c6ccc([nH]6)c(-c6c(F)c(F)c(F)c(F)c6F)c6nc(c(-c7c(F)c(F)c(F)c(F)c7F)c7ccc4[nH]7)C=C6)C=C5)cc3)o2)cs1
REMARK SMILES IDX 17 1 16 2 14 3 15 4 13 5 10 6 11 7 85 8 12 9 8 10 9 11 6 12
REMARK SMILES IDX 7 13 5 15 4 16 1 17 2 18 3 19 87 20 86 21 18 22 19 23 20 24
REMARK SMILES IDX 21 25 22 26 23 27 84 28 24 29 83 30 25 31 26 32 27 33 77 34
REMARK SMILES IDX 28 35 82 36 76 37 78 38 29 39 81 40 75 41 74 42 30 44 62 45
REMARK SMILES IDX 42 46 61 47 43 48 46 49 60 50 79 51 44 52 45 53 59 55 80 56
REMARK SMILES IDX 47 57 31 58 32 59 40 60 33 61 34 62 38 63 41 64 35 65 36 66
REMARK SMILES IDX 39 67 37 68 63 69 64 70 72 71 65 72 66 73 70 74 73 75 67 76
REMARK SMILES IDX 68 77 71 78 69 79 48 80 49 81 57 82 50 83 51 84 55 85 58 86
REMARK SMILES IDX 52 87 53 88 56 89 54 90
REMARK H PARENT 6 14 78 43 46 54
REMARK Flexibility Score: inf
ROOT
ATOM      1  C   UNL A   1      41.101  19.490  26.117  1.00  0.00     0.275 C 
ENDROOT
BRANCH   1   2
ATOM      2  O   UNL A   1      40.871  20.907  25.975  1.00  0.00    -0.456 OA
BRANCH   2   3
ATOM      3  C   UNL A   1      40.396  21.547  27.087  1.00  0.00     0.374 C 
ATOM      4  O   UNL A   1      40.764  21.312  28.228  1.00  0.00    -0.242 OA
BRANCH   3   5
ATOM      5  C   UNL A   1      39.443  22.567  26.709  1.00  0.00     0.212 A 
ATOM      6  C   UNL A   1      37.643  23.320  25.656  1.00  0.00     0.162 A 
ATOM      7  C   UNL A   1      38.181  24.385  26.354  1.00  0.00     0.053 A 
ATOM      8  O   UNL A   1      38.471  22.245  25.795  1.00  0.00    -0.448 OA
ATOM      9  C   UNL A   1      39.285  23.885  27.086  1.00  0.00     0.059 A 
BRANCH   6  10
ATOM     10  C   UNL A   1      36.419  23.171  24.775  1.00  0.00     0.248 C 
ATOM     11  C   UNL A   1      36.706  22.731  23.331  1.00  0.00     0.084 C 
BRANCH  10  12
ATOM     12  N   UNL A   1      35.355  22.378  25.440  1.00  0.00    -0.324 N 
ATOM     13  C   UNL A   1      34.991  22.988  26.725  1.00  0.00     0.333 C 
ATOM     14  H   UNL A   1      35.787  21.461  25.548  1.00  0.00     0.348 HD
BRANCH  12  15
ATOM     15  C   UNL A   1      34.110  22.123  24.668  1.00  0.00     0.320 C 
BRANCH  15  16
ATOM     16  C   UNL A   1      33.728  20.672  24.517  1.00  0.00     0.106 A 
ATOM     17  C   UNL A   1      34.938  17.221  24.519  1.00  0.00     0.079 C 
ATOM     18  C   UNL A   1      34.168  18.493  24.494  1.00  0.00     0.090 A 
ATOM     19  N   UNL A   1      34.684  19.681  24.734  1.00  0.00    -0.241 NA
ATOM     20  S   UNL A   1      32.503  18.474  24.084  1.00  0.00    -0.127 S 
ATOM     21  C   UNL A   1      32.472  20.180  24.205  1.00  0.00     0.096 A 
ENDBRANCH  15  16
ENDBRANCH  12  15
ENDBRANCH  10  12
ENDBRANCH   6  10
ENDBRANCH   3   5
ENDBRANCH   2   3
ENDBRANCH   1   2
BRANCH   1  22
ATOM     22  C   UNL A   1      42.574  19.092  25.952  1.00  0.00     0.275 C 
BRANCH  22  23
ATOM     23  O   UNL A   1      43.079  19.398  24.638  1.00  0.00    -0.458 OA
BRANCH  23  24
ATOM     24  C   UNL A   1      44.418  19.578  24.570  1.00  0.00     0.338 C 
ATOM     25  O   UNL A   1      45.256  18.758  24.235  1.00  0.00    -0.246 OA
BRANCH  24  26
ATOM     26  C   UNL A   1      44.750  20.990  24.808  1.00  0.00     0.060 A 
ATOM     27  C   UNL A   1      45.294  21.302  26.049  1.00  0.00     0.016 A 
ATOM     28  C   UNL A   1      44.443  22.006  23.908  1.00  0.00     0.016 A 
ATOM     29  C   UNL A   1      45.506  22.618  26.428  1.00  0.00     0.010 A 
ATOM     30  C   UNL A   1      44.681  23.340  24.276  1.00  0.00     0.010 A 
ATOM     31  C   UNL A   1      45.197  23.654  25.548  1.00  0.00    -0.014 A 
BRANCH  31  32
ATOM     32  C   UNL A   1      45.370  25.052  26.011  1.00  0.00     0.031 A 
ATOM     33  C   UNL A   1      46.705  25.724  25.882  1.00  0.00     0.074 A 
ATOM     34  C   UNL A   1      44.310  25.739  26.479  1.00  0.00     0.049 A 
ATOM     35  N   UNL A   1      47.084  26.907  26.296  1.00  0.00    -0.248 NA
ATOM     36  C   UNL A   1      47.758  24.964  25.193  1.00  0.00     0.031 C 
ATOM     37  C   UNL A   1      42.944  25.219  26.574  1.00  0.00     0.029 A 
ATOM     38  N   UNL A   1      44.211  27.022  26.954  1.00  0.00    -0.354 N 
ATOM     39  C   UNL A   1      48.424  27.018  25.950  1.00  0.00     0.074 A 
ATOM     40  C   UNL A   1      48.798  25.776  25.309  1.00  0.00     0.031 C 
ATOM     41  C   UNL A   1      42.144  26.174  27.072  1.00  0.00     0.029 A 
ATOM     42  C   UNL A   1      42.951  27.346  27.395  1.00  0.00     0.049 A 
ATOM     43  H   UNL A   1      44.969  27.650  26.977  1.00  0.00     0.167 HD
ATOM     44  C   UNL A   1      49.260  28.066  26.150  1.00  0.00     0.037 A 
ATOM     45  C   UNL A   1      42.506  28.446  28.030  1.00  0.00     0.037 A 
ATOM     46  C   UNL A   1      48.867  29.302  26.778  1.00  0.00     0.049 A 
ATOM     47  C   UNL A   1      43.474  29.561  28.315  1.00  0.00     0.074 A 
ATOM     48  C   UNL A   1      49.635  30.426  27.027  1.00  0.00     0.029 A 
ATOM     49  N   UNL A   1      47.594  29.574  27.260  1.00  0.00    -0.354 N 
ATOM     50  N   UNL A   1      44.745  29.653  28.008  1.00  0.00    -0.248 NA
ATOM     51  C   UNL A   1      42.948  30.722  29.043  1.00  0.00     0.031 C 
ATOM     52  C   UNL A   1      48.843  31.352  27.715  1.00  0.00     0.029 A 
ATOM     53  C   UNL A   1      47.561  30.837  27.831  1.00  0.00     0.049 A 
ATOM     54  H   UNL A   1      46.826  28.960  27.203  1.00  0.00     0.167 HD
ATOM     55  C   UNL A   1      45.165  30.890  28.479  1.00  0.00     0.074 A 
ATOM     56  C   UNL A   1      44.006  31.520  29.078  1.00  0.00     0.031 C 
ATOM     57  C   UNL A   1      46.398  31.452  28.420  1.00  0.00     0.037 A 
BRANCH  44  58
ATOM     58  C   UNL A   1      50.693  27.899  25.729  1.00  0.00     0.064 A 
ATOM     59  C   UNL A   1      51.106  28.074  24.399  1.00  0.00     0.173 A 
ATOM     60  C   UNL A   1      51.674  27.573  26.679  1.00  0.00     0.173 A 
ATOM     61  F   UNL A   1      50.210  28.373  23.447  1.00  0.00    -0.203 F 
ATOM     62  C   UNL A   1      52.438  27.890  24.031  1.00  0.00     0.198 A 
ATOM     63  C   UNL A   1      53.010  27.426  26.314  1.00  0.00     0.198 A 
ATOM     64  F   UNL A   1      51.339  27.400  27.967  1.00  0.00    -0.203 F 
ATOM     65  F   UNL A   1      52.797  28.002  22.744  1.00  0.00    -0.200 F 
ATOM     66  C   UNL A   1      53.389  27.573  24.989  1.00  0.00     0.200 A 
ATOM     67  F   UNL A   1      53.929  27.135  27.245  1.00  0.00    -0.200 F 
ATOM     68  F   UNL A   1      54.670  27.400  24.634  1.00  0.00    -0.200 F 
ENDBRANCH  44  58
BRANCH  45  69
ATOM     69  C   UNL A   1      41.087  28.524  28.468  1.00  0.00     0.064 A 
ATOM     70  C   UNL A   1      40.090  29.021  27.618  1.00  0.00     0.173 A 
ATOM     71  C   UNL A   1      40.699  28.102  29.749  1.00  0.00     0.173 A 
ATOM     72  F   UNL A   1      40.413  29.461  26.392  1.00  0.00    -0.203 F 
ATOM     73  C   UNL A   1      38.763  29.106  28.037  1.00  0.00     0.198 A 
ATOM     74  C   UNL A   1      39.367  28.155  30.154  1.00  0.00     0.198 A 
ATOM     75  F   UNL A   1      41.613  27.620  30.605  1.00  0.00    -0.203 F 
ATOM     76  F   UNL A   1      37.839  29.630  27.222  1.00  0.00    -0.200 F 
ATOM     77  C   UNL A   1      38.402  28.665  29.301  1.00  0.00     0.200 A 
ATOM     78  F   UNL A   1      39.022  27.713  31.371  1.00  0.00    -0.200 F 
ATOM     79  F   UNL A   1      37.126  28.741  29.701  1.00  0.00    -0.200 F 
ENDBRANCH  45  69
BRANCH  57  80
ATOM     80  C   UNL A   1      46.547  32.837  28.981  1.00  0.00     0.064 A 
ATOM     81  C   UNL A   1      46.320  33.982  28.201  1.00  0.00     0.173 A 
ATOM     82  C   UNL A   1      46.888  33.020  30.330  1.00  0.00     0.173 A 
ATOM     83  F   UNL A   1      46.007  33.863  26.902  1.00  0.00    -0.203 F 
ATOM     84  C   UNL A   1      46.458  35.256  28.745  1.00  0.00     0.198 A 
ATOM     85  C   UNL A   1      46.989  34.296  30.879  1.00  0.00     0.198 A 
ATOM     86  F   UNL A   1      47.110  31.960  31.122  1.00  0.00    -0.203 F 
ATOM     87  F   UNL A   1      46.292  36.335  27.967  1.00  0.00    -0.200 F 
ATOM     88  C   UNL A   1      46.784  35.412  30.084  1.00  0.00     0.200 A 
ATOM     89  F   UNL A   1      47.287  34.443  32.177  1.00  0.00    -0.200 F 
ATOM     90  F   UNL A   1      46.908  36.640  30.605  1.00  0.00    -0.200 F 
ENDBRANCH  57  80
ENDBRANCH  31  32
ENDBRANCH  24  26
ENDBRANCH  23  24
ENDBRANCH  22  23
ENDBRANCH   1  22
TORSDOF 15
ENDMDL
MODEL 2
REMARK VINA RESULT:     -10.9      3.317      8.799
REMARK SMILES Cc1nc(C[N@H+](C)[C@H](C)c2ccc(C(=O)OCCOC(=O)c3ccc(-c4c5nc(c(-c6c(F)c(F)c(F)c(F)c6F)c6ccc([nH]6)c(-c6c(F)c(F)c(F)c(F)c6F)c6nc(c(-c7c(F)c(F)c(F)c(F)c7F)c7ccc4[nH]7)C=C6)C=C5)cc3)o2)cs1
REMARK SMILES IDX 17 1 16 2 14 3 15 4 13 5 10 6 11 7 85 8 12 9 8 10 9 11 6 12
REMARK SMILES IDX 7 13 5 15 4 16 1 17 2 18 3 19 87 20 86 21 18 22 19 23 20 24
REMARK SMILES IDX 21 25 22 26 23 27 84 28 24 29 83 30 25 31 26 32 27 33 77 34
REMARK SMILES IDX 28 35 82 36 76 37 78 38 29 39 81 40 75 41 74 42 30 44 62 45
REMARK SMILES IDX 42 46 61 47 43 48 46 49 60 50 79 51 44 52 45 53 59 55 80 56
REMARK SMILES IDX 47 57 31 58 32 59 40 60 33 61 34 62 38 63 41 64 35 65 36 66
REMARK SMILES IDX 39 67 37 68 63 69 64 70 72 71 65 72 66 73 70 74 73 75 67 76
REMARK SMILES IDX 68 77 71 78 69 79 48 80 49 81 57 82 50 83 51 84 55 85 58 86
REMARK SMILES IDX 52 87 53 88 56 89 54 90
REMARK H PARENT 6 14 78 43 46 54
REMARK Flexibility Score: inf
ROOT
ATOM      1  C   UNL A   1      35.137  21.079  25.050  1.00  0.00     0.275 C 
ENDROOT
BRANCH   1   2
ATOM      2  O   UNL A   1      34.622  21.738  23.875  1.00  0.00    -0.456 OA
BRANCH   2   3
ATOM      3  C   UNL A   1      35.220  22.924  23.547  1.00  0.00     0.374 C 
ATOM      4  O   UNL A   1      36.094  23.045  22.703  1.00  0.00    -0.242 OA
BRANCH   3   5
ATOM      5  C   UNL A   1      34.634  24.007  24.305  1.00  0.00     0.212 A 
ATOM      6  C   UNL A   1      33.151  25.617  24.659  1.00  0.00     0.162 A 
ATOM      7  C   UNL A   1      34.007  25.607  25.744  1.00  0.00     0.053 A 
ATOM      8  O   UNL A   1      33.597  24.710  23.743  1.00  0.00    -0.448 OA
ATOM      9  C   UNL A   1      34.906  24.530  25.552  1.00  0.00     0.059 A 
BRANCH   6  10
ATOM     10  C   UNL A   1      31.930  26.444  24.310  1.00  0.00     0.248 C 
ATOM     11  C   UNL A   1      30.704  26.205  25.206  1.00  0.00     0.084 C 
BRANCH  10  12
ATOM     12  N   UNL A   1      32.268  27.878  24.131  1.00  0.00    -0.324 N 
ATOM     13  C   UNL A   1      31.996  28.298  22.751  1.00  0.00     0.333 C 
ATOM     14  H   UNL A   1      33.260  27.909  24.365  1.00  0.00     0.348 HD
BRANCH  12  15
ATOM     15  C   UNL A   1      31.628  28.850  25.056  1.00  0.00     0.320 C 
BRANCH  15  16
ATOM     16  C   UNL A   1      32.570  29.572  25.988  1.00  0.00     0.106 A 
ATOM     17  C   UNL A   1      35.790  29.439  27.717  1.00  0.00     0.079 C 
ATOM     18  C   UNL A   1      34.468  29.779  27.127  1.00  0.00     0.090 A 
ATOM     19  N   UNL A   1      33.829  29.033  26.250  1.00  0.00    -0.241 NA
ATOM     20  S   UNL A   1      33.653  31.204  27.626  1.00  0.00    -0.127 S 
ATOM     21  C   UNL A   1      32.335  30.782  26.620  1.00  0.00     0.096 A 
ENDBRANCH  15  16
ENDBRANCH  12  15
ENDBRANCH  10  12
ENDBRANCH   6  10
ENDBRANCH   3   5
ENDBRANCH   2   3
ENDBRANCH   1   2
BRANCH   1  22
ATOM     22  C   UNL A   1      36.659  20.884  25.022  1.00  0.00     0.275 C 
BRANCH  22  23
ATOM     23  O   UNL A   1      37.351  21.866  25.815  1.00  0.00    -0.458 OA
BRANCH  23  24
ATOM     24  C   UNL A   1      38.653  21.588  26.057  1.00  0.00     0.338 C 
ATOM     25  O   UNL A   1      39.260  20.575  25.751  1.00  0.00    -0.246 OA
BRANCH  24  26
ATOM     26  C   UNL A   1      39.326  22.767  26.622  1.00  0.00     0.060 A 
ATOM     27  C   UNL A   1      38.916  24.008  26.145  1.00  0.00     0.016 A 
ATOM     28  C   UNL A   1      40.401  22.681  27.501  1.00  0.00     0.016 A 
ATOM     29  C   UNL A   1      39.583  25.168  26.501  1.00  0.00     0.010 A 
ATOM     30  C   UNL A   1      41.064  23.857  27.887  1.00  0.00     0.010 A 
ATOM     31  C   UNL A   1      40.670  25.107  27.372  1.00  0.00    -0.014 A 
BRANCH  31  32
ATOM     32  C   UNL A   1      41.405  26.358  27.677  1.00  0.00     0.031 A 
ATOM     33  C   UNL A   1      40.742  27.440  28.479  1.00  0.00     0.074 A 
ATOM     34  C   UNL A   1      42.690  26.490  27.296  1.00  0.00     0.049 A 
ATOM     35  N   UNL A   1      41.180  28.635  28.785  1.00  0.00    -0.248 NA
ATOM     36  C   UNL A   1      39.404  27.137  29.010  1.00  0.00     0.031 C 
ATOM     37  C   UNL A   1      43.466  25.473  26.584  1.00  0.00     0.029 A 
ATOM     38  N   UNL A   1      43.572  27.528  27.460  1.00  0.00    -0.354 N 
ATOM     39  C   UNL A   1      40.162  29.237  29.512  1.00  0.00     0.074 A 
ATOM     40  C   UNL A   1      39.076  28.284  29.586  1.00  0.00     0.031 C 
ATOM     41  C   UNL A   1      44.709  25.935  26.377  1.00  0.00     0.029 A 
ATOM     42  C   UNL A   1      44.794  27.303  26.877  1.00  0.00     0.049 A 
ATOM     43  H   UNL A   1      43.350  28.354  27.948  1.00  0.00     0.167 HD
ATOM     44  C   UNL A   1      40.142  30.473  30.067  1.00  0.00     0.037 A 
ATOM     45  C   UNL A   1      45.851  28.123  26.724  1.00  0.00     0.037 A 
ATOM     46  C   UNL A   1      41.239  31.405  29.996  1.00  0.00     0.049 A 
ATOM     47  C   UNL A   1      45.772  29.519  27.275  1.00  0.00     0.074 A 
ATOM     48  C   UNL A   1      41.323  32.681  30.526  1.00  0.00     0.029 A 
ATOM     49  N   UNL A   1      42.444  31.161  29.351  1.00  0.00    -0.354 N 
ATOM     50  N   UNL A   1      44.799  30.093  27.941  1.00  0.00    -0.248 NA
ATOM     51  C   UNL A   1      46.936  30.386  27.048  1.00  0.00     0.031 C 
ATOM     52  C   UNL A   1      42.552  33.231  30.148  1.00  0.00     0.029 A 
ATOM     53  C   UNL A   1      43.266  32.273  29.444  1.00  0.00     0.049 A 
ATOM     54  H   UNL A   1      42.680  30.321  28.895  1.00  0.00     0.167 HD
ATOM     55  C   UNL A   1      45.242  31.375  28.236  1.00  0.00     0.074 A 
ATOM     56  C   UNL A   1      46.579  31.489  27.690  1.00  0.00     0.031 C 
ATOM     57  C   UNL A   1      44.598  32.369  28.899  1.00  0.00     0.037 A 
BRANCH  44  58
ATOM     58  C   UNL A   1      38.877  30.904  30.755  1.00  0.00     0.064 A 
ATOM     59  C   UNL A   1      37.823  31.520  30.063  1.00  0.00     0.173 A 
ATOM     60  C   UNL A   1      38.712  30.681  32.131  1.00  0.00     0.173 A 
ATOM     61  F   UNL A   1      37.931  31.770  28.750  1.00  0.00    -0.203 F 
ATOM     62  C   UNL A   1      36.670  31.931  30.730  1.00  0.00     0.198 A 
ATOM     63  C   UNL A   1      37.544  31.059  32.787  1.00  0.00     0.198 A 
ATOM     64  F   UNL A   1      39.684  30.090  32.843  1.00  0.00    -0.203 F 
ATOM     65  F   UNL A   1      35.703  32.572  30.059  1.00  0.00    -0.200 F 
ATOM     66  C   UNL A   1      36.529  31.695  32.089  1.00  0.00     0.200 A 
ATOM     67  F   UNL A   1      37.404  30.816  34.098  1.00  0.00    -0.200 F 
ATOM     68  F   UNL A   1      35.418  32.087  32.728  1.00  0.00    -0.200 F 
ENDBRANCH  44  58
BRANCH  45  69
ATOM     69  C   UNL A   1      47.052  27.651  25.984  1.00  0.00     0.064 A 
ATOM     70  C   UNL A   1      47.118  27.723  24.586  1.00  0.00     0.173 A 
ATOM     71  C   UNL A   1      48.159  27.117  26.661  1.00  0.00     0.173 A 
ATOM     72  F   UNL A   1      46.076  28.202  23.889  1.00  0.00    -0.203 F 
ATOM     73  C   UNL A   1      48.239  27.266  23.894  1.00  0.00     0.198 A 
ATOM     74  C   UNL A   1      49.292  26.693  25.971  1.00  0.00     0.198 A 
ATOM     75  F   UNL A   1      48.147  27.022  27.999  1.00  0.00    -0.203 F 
ATOM     76  F   UNL A   1      48.256  27.303  22.555  1.00  0.00    -0.200 F 
ATOM     77  C   UNL A   1      49.328  26.760  24.587  1.00  0.00     0.200 A 
ATOM     78  F   UNL A   1      50.347  26.219  26.648  1.00  0.00    -0.200 F 
ATOM     79  F   UNL A   1      50.407  26.327  23.922  1.00  0.00    -0.200 F 
ENDBRANCH  45  69
BRANCH  57  80
ATOM     80  C   UNL A   1      45.350  33.652  29.109  1.00  0.00     0.064 A 
ATOM     81  C   UNL A   1      45.263  34.720  28.202  1.00  0.00     0.173 A 
ATOM     82  C   UNL A   1      46.142  33.827  30.254  1.00  0.00     0.173 A 
ATOM     83  F   UNL A   1      44.532  34.598  27.084  1.00  0.00    -0.203 F 
ATOM     84  C   UNL A   1      45.965  35.902  28.421  1.00  0.00     0.198 A 
ATOM     85  C   UNL A   1      46.813  35.025  30.487  1.00  0.00     0.198 A 
ATOM     86  F   UNL A   1      46.255  32.841  31.157  1.00  0.00    -0.203 F 
ATOM     87  F   UNL A   1      45.912  36.887  27.513  1.00  0.00    -0.200 F 
ATOM     88  C   UNL A   1      46.732  36.057  29.566  1.00  0.00     0.200 A 
ATOM     89  F   UNL A   1      47.539  35.177  31.603  1.00  0.00    -0.200 F 
ATOM     90  F   UNL A   1      47.399  37.200  29.777  1.00  0.00    -0.200 F 
ENDBRANCH  57  80
ENDBRANCH  31  32
ENDBRANCH  24  26
ENDBRANCH  23  24
ENDBRANCH  22  23
ENDBRANCH   1  22
TORSDOF 15
ENDMDL
MODEL 3
REMARK VINA RESULT:     -10.7      3.848      9.039
REMARK SMILES Cc1nc(C[N@H+](C)[C@H](C)c2ccc(C(=O)OCCOC(=O)c3ccc(-c4c5nc(c(-c6c(F)c(F)c(F)c(F)c6F)c6ccc([nH]6)c(-c6c(F)c(F)c(F)c(F)c6F)c6nc(c(-c7c(F)c(F)c(F)c(F)c7F)c7ccc4[nH]7)C=C6)C=C5)cc3)o2)cs1
REMARK SMILES IDX 17 1 16 2 14 3 15 4 13 5 10 6 11 7 85 8 12 9 8 10 9 11 6 12
REMARK SMILES IDX 7 13 5 15 4 16 1 17 2 18 3 19 87 20 86 21 18 22 19 23 20 24
REMARK SMILES IDX 21 25 22 26 23 27 84 28 24 29 83 30 25 31 26 32 27 33 77 34
REMARK SMILES IDX 28 35 82 36 76 37 78 38 29 39 81 40 75 41 74 42 30 44 62 45
REMARK SMILES IDX 42 46 61 47 43 48 46 49 60 50 79 51 44 52 45 53 59 55 80 56
REMARK SMILES IDX 47 57 31 58 32 59 40 60 33 61 34 62 38 63 41 64 35 65 36 66
REMARK SMILES IDX 39 67 37 68 63 69 64 70 72 71 65 72 66 73 70 74 73 75 67 76
REMARK SMILES IDX 68 77 71 78 69 79 48 80 49 81 57 82 50 83 51 84 55 85 58 86
REMARK SMILES IDX 52 87 53 88 56 89 54 90
REMARK H PARENT 6 14 78 43 46 54
REMARK Flexibility Score: inf
ROOT
ATOM      1  C   UNL A   1      35.511  20.719  25.014  1.00  0.00     0.275 C 
ENDROOT
BRANCH   1   2
ATOM      2  O   UNL A   1      34.802  21.963  25.183  1.00  0.00    -0.456 OA
BRANCH   2   3
ATOM      3  C   UNL A   1      33.919  22.286  24.189  1.00  0.00     0.374 C 
ATOM      4  O   UNL A   1      33.234  21.475  23.585  1.00  0.00    -0.242 OA
BRANCH   3   5
ATOM      5  C   UNL A   1      33.881  23.719  23.998  1.00  0.00     0.212 A 
ATOM      6  C   UNL A   1      33.365  25.569  22.890  1.00  0.00     0.162 A 
ATOM      7  C   UNL A   1      34.004  25.957  24.053  1.00  0.00     0.053 A 
ATOM      8  O   UNL A   1      33.384  24.207  22.815  1.00  0.00    -0.448 OA
ATOM      9  C   UNL A   1      34.265  24.779  24.794  1.00  0.00     0.059 A 
BRANCH   6  10
ATOM     10  C   UNL A   1      32.752  26.339  21.739  1.00  0.00     0.248 C 
ATOM     11  C   UNL A   1      32.528  25.524  20.455  1.00  0.00     0.084 C 
BRANCH  10  12
ATOM     12  N   UNL A   1      31.561  27.116  22.167  1.00  0.00    -0.324 N 
ATOM     13  C   UNL A   1      30.755  26.335  23.113  1.00  0.00     0.333 C 
ATOM     14  H   UNL A   1      31.076  27.292  21.287  1.00  0.00     0.348 HD
BRANCH  12  15
ATOM     15  C   UNL A   1      31.798  28.464  22.747  1.00  0.00     0.320 C 
BRANCH  15  16
ATOM     16  C   UNL A   1      30.592  29.369  22.791  1.00  0.00     0.106 A 
ATOM     17  C   UNL A   1      28.030  31.077  20.818  1.00  0.00     0.079 C 
ATOM     18  C   UNL A   1      28.912  30.489  21.861  1.00  0.00     0.090 A 
ATOM     19  N   UNL A   1      29.886  29.635  21.620  1.00  0.00    -0.241 NA
ATOM     20  S   UNL A   1      28.722  30.956  23.501  1.00  0.00    -0.127 S 
ATOM     21  C   UNL A   1      30.057  29.971  23.918  1.00  0.00     0.096 A 
ENDBRANCH  15  16
ENDBRANCH  12  15
ENDBRANCH  10  12
ENDBRANCH   6  10
ENDBRANCH   3   5
ENDBRANCH   2   3
ENDBRANCH   1   2
BRANCH   1  22
ATOM     22  C   UNL A   1      37.020  20.900  24.803  1.00  0.00     0.275 C 
BRANCH  22  23
ATOM     23  O   UNL A   1      37.595  21.832  25.738  1.00  0.00    -0.458 OA
BRANCH  23  24
ATOM     24  C   UNL A   1      38.857  21.542  26.127  1.00  0.00     0.338 C 
ATOM     25  O   UNL A   1      39.463  20.498  25.948  1.00  0.00    -0.246 OA
BRANCH  24  26
ATOM     26  C   UNL A   1      39.504  22.740  26.682  1.00  0.00     0.060 A 
ATOM     27  C   UNL A   1      39.129  23.962  26.132  1.00  0.00     0.016 A 
ATOM     28  C   UNL A   1      40.527  22.685  27.623  1.00  0.00     0.016 A 
ATOM     29  C   UNL A   1      39.782  25.134  26.479  1.00  0.00     0.010 A 
ATOM     30  C   UNL A   1      41.174  23.874  27.999  1.00  0.00     0.010 A 
ATOM     31  C   UNL A   1      40.817  25.103  27.413  1.00  0.00    -0.014 A 
BRANCH  31  32
ATOM     32  C   UNL A   1      41.541  26.363  27.708  1.00  0.00     0.031 A 
ATOM     33  C   UNL A   1      40.873  27.440  28.513  1.00  0.00     0.074 A 
ATOM     34  C   UNL A   1      42.822  26.508  27.317  1.00  0.00     0.049 A 
ATOM     35  N   UNL A   1      41.300  28.641  28.812  1.00  0.00    -0.248 NA
ATOM     36  C   UNL A   1      39.543  27.124  29.054  1.00  0.00     0.031 C 
ATOM     37  C   UNL A   1      43.604  25.497  26.603  1.00  0.00     0.029 A 
ATOM     38  N   UNL A   1      43.694  27.555  27.472  1.00  0.00    -0.354 N 
ATOM     39  C   UNL A   1      40.282  29.234  29.544  1.00  0.00     0.074 A 
ATOM     40  C   UNL A   1      39.206  28.270  29.629  1.00  0.00     0.031 C 
ATOM     41  C   UNL A   1      44.840  25.971  26.385  1.00  0.00     0.029 A 
ATOM     42  C   UNL A   1      44.915  27.341  26.880  1.00  0.00     0.049 A 
ATOM     43  H   UNL A   1      43.468  28.380  27.959  1.00  0.00     0.167 HD
ATOM     44  C   UNL A   1      40.253  30.472  30.096  1.00  0.00     0.037 A 
ATOM     45  C   UNL A   1      45.961  28.172  26.717  1.00  0.00     0.037 A 
ATOM     46  C   UNL A   1      41.339  31.415  30.014  1.00  0.00     0.049 A 
ATOM     47  C   UNL A   1      45.872  29.569  27.265  1.00  0.00     0.074 A 
ATOM     48  C   UNL A   1      41.414  32.693  30.539  1.00  0.00     0.029 A 
ATOM     49  N   UNL A   1      42.542  31.182  29.361  1.00  0.00    -0.354 N 
ATOM     50  N   UNL A   1      44.898  30.134  27.936  1.00  0.00    -0.248 NA
ATOM     51  C   UNL A   1      47.024  30.447  27.026  1.00  0.00     0.031 C 
ATOM     52  C   UNL A   1      42.635  33.255  30.151  1.00  0.00     0.029 A 
ATOM     53  C   UNL A   1      43.353  32.303  29.445  1.00  0.00     0.049 A 
ATOM     54  H   UNL A   1      42.783  30.343  28.906  1.00  0.00     0.167 HD
ATOM     55  C   UNL A   1      45.329  31.422  28.224  1.00  0.00     0.074 A 
ATOM     56  C   UNL A   1      46.660  31.549  27.668  1.00  0.00     0.031 C 
ATOM     57  C   UNL A   1      44.679  32.411  28.889  1.00  0.00     0.037 A 
BRANCH  44  58
ATOM     58  C   UNL A   1      38.989  30.891  30.793  1.00  0.00     0.064 A 
ATOM     59  C   UNL A   1      37.918  31.483  30.105  1.00  0.00     0.173 A 
ATOM     60  C   UNL A   1      38.841  30.681  32.172  1.00  0.00     0.173 A 
ATOM     61  F   UNL A   1      38.009  31.720  28.787  1.00  0.00    -0.203 F 
ATOM     62  C   UNL A   1      36.766  31.884  30.779  1.00  0.00     0.198 A 
ATOM     63  C   UNL A   1      37.674  31.050  32.836  1.00  0.00     0.198 A 
ATOM     64  F   UNL A   1      39.829  30.113  32.881  1.00  0.00    -0.203 F 
ATOM     65  F   UNL A   1      35.783  32.503  30.110  1.00  0.00    -0.200 F 
ATOM     66  C   UNL A   1      36.642  31.661  32.141  1.00  0.00     0.200 A 
ATOM     67  F   UNL A   1      37.551  30.819  34.151  1.00  0.00    -0.200 F 
ATOM     68  F   UNL A   1      35.532  32.044  32.787  1.00  0.00    -0.200 F 
ENDBRANCH  44  58
BRANCH  45  69
ATOM     69  C   UNL A   1      47.161  27.711  25.969  1.00  0.00     0.064 A 
ATOM     70  C   UNL A   1      48.293  27.226  26.638  1.00  0.00     0.173 A 
ATOM     71  C   UNL A   1      47.201  27.745  24.566  1.00  0.00     0.173 A 
ATOM     72  F   UNL A   1      48.316  27.195  27.980  1.00  0.00    -0.203 F 
ATOM     73  C   UNL A   1      49.421  26.808  25.935  1.00  0.00     0.198 A 
ATOM     74  C   UNL A   1      48.316  27.295  23.864  1.00  0.00     0.198 A 
ATOM     75  F   UNL A   1      46.146  28.203  23.875  1.00  0.00    -0.203 F 
ATOM     76  F   UNL A   1      50.507  26.394  26.602  1.00  0.00    -0.200 F 
ATOM     77  C   UNL A   1      49.429  26.835  24.549  1.00  0.00     0.200 A 
ATOM     78  F   UNL A   1      48.311  27.309  22.524  1.00  0.00    -0.200 F 
ATOM     79  F   UNL A   1      50.511  26.427  23.873  1.00  0.00    -0.200 F 
ENDBRANCH  45  69
BRANCH  57  80
ATOM     80  C   UNL A   1      45.420  33.703  29.090  1.00  0.00     0.064 A 
ATOM     81  C   UNL A   1      46.248  33.918  30.202  1.00  0.00     0.173 A 
ATOM     82  C   UNL A   1      45.325  34.727  28.135  1.00  0.00     0.173 A 
ATOM     83  F   UNL A   1      46.361  32.977  31.152  1.00  0.00    -0.203 F 
ATOM     84  C   UNL A   1      46.929  35.121  30.364  1.00  0.00     0.198 A 
ATOM     85  C   UNL A   1      46.036  35.914  28.282  1.00  0.00     0.198 A 
ATOM     86  F   UNL A   1      44.552  34.571  27.049  1.00  0.00    -0.203 F 
ATOM     87  F   UNL A   1      47.669  35.326  31.462  1.00  0.00    -0.200 F 
ATOM     88  C   UNL A   1      46.830  36.114  29.401  1.00  0.00     0.200 A 
ATOM     89  F   UNL A   1      45.952  36.865  27.341  1.00  0.00    -0.200 F 
ATOM     90  F   UNL A   1      47.493  37.268  29.556  1.00  0.00    -0.200 F 
ENDBRANCH  57  80
ENDBRANCH  31  32
ENDBRANCH  24  26
ENDBRANCH  23  24
ENDBRANCH  22  23
ENDBRANCH   1  22
TORSDOF 15
ENDMDL
