MODEL 1
REMARK VINA RESULT:     -11.2      0.000      0.000
REMARK SMILES O=C(OCCOC(=O)[C@@H]1C[C@@H](O)CN1C(=O)C1(c2ccccc2)CC1)c1ccc(-c2c3nc(c(-c4c(F)c(F)c(F)c(F)c4F)c4ccc([nH]4)c(-c4c(F)c(F)c(F)c(F)c4F)c4nc(c(-c5c(F)c(F)c(F)c(F)c5F)c5ccc2[nH]5)C=C4)C=C3)cc1
REMARK SMILES IDX 5 1 4 2 3 3 2 4 1 5 26 6 27 7 88 8 28 9 87 10 29 11 30 12
REMARK SMILES IDX 31 13 81 14 32 15 86 16 80 17 82 18 33 19 85 20 79 21 78 22
REMARK SMILES IDX 34 24 66 25 46 26 65 27 47 28 50 29 64 30 83 31 48 32 49 33
REMARK SMILES IDX 63 35 84 36 51 37 35 38 36 39 44 40 37 41 38 42 42 43 45 44
REMARK SMILES IDX 39 45 40 46 43 47 41 48 67 49 68 50 76 51 69 52 70 53 74 54
REMARK SMILES IDX 77 55 71 56 72 57 75 58 73 59 52 60 53 61 61 62 54 63 55 64
REMARK SMILES IDX 59 65 62 66 56 67 57 68 60 69 58 70 6 71 7 72 8 73 9 74
REMARK SMILES IDX 10 75 14 76 11 77 13 78 15 79 16 80 17 81 24 82 25 83 18 84
REMARK SMILES IDX 19 85 23 86 20 87 22 88 21 89 12 90
REMARK H PARENT 82 23 50 34 12 91
REMARK Flexibility Score: inf
ROOT
ATOM      1  C   UNL A   1      33.132  33.883  28.001  1.00  0.00     0.274 C 
ENDROOT
BRANCH   1   2
ATOM      2  C   UNL A   1      33.961  32.612  28.271  1.00  0.00     0.275 C 
BRANCH   2   3
ATOM      3  O   UNL A   1      33.611  31.446  27.507  1.00  0.00    -0.458 OA
BRANCH   3   4
ATOM      4  C   UNL A   1      34.179  30.218  27.536  1.00  0.00     0.338 C 
ATOM      5  O   UNL A   1      33.508  29.226  27.261  1.00  0.00    -0.246 OA
BRANCH   4   6
ATOM      6  C   UNL A   1      35.531  30.005  28.134  1.00  0.00     0.060 A 
ATOM      7  C   UNL A   1      35.787  29.650  29.462  1.00  0.00     0.016 A 
ATOM      8  C   UNL A   1      36.620  30.099  27.250  1.00  0.00     0.016 A 
ATOM      9  C   UNL A   1      37.049  29.205  29.857  1.00  0.00     0.010 A 
ATOM     10  C   UNL A   1      37.890  29.673  27.645  1.00  0.00     0.010 A 
ATOM     11  C   UNL A   1      38.098  29.167  28.941  1.00  0.00    -0.014 A 
BRANCH  11  12
ATOM     12  C   UNL A   1      39.444  28.724  29.365  1.00  0.00     0.031 A 
ATOM     13  C   UNL A   1      40.206  29.639  30.269  1.00  0.00     0.074 A 
ATOM     14  C   UNL A   1      39.976  27.555  28.954  1.00  0.00     0.049 A 
ATOM     15  N   UNL A   1      41.413  29.518  30.745  1.00  0.00    -0.248 NA
ATOM     16  C   UNL A   1      39.498  30.856  30.709  1.00  0.00     0.031 C 
ATOM     17  C   UNL A   1      39.298  26.544  28.144  1.00  0.00     0.029 A 
ATOM     18  N   UNL A   1      41.232  27.028  29.135  1.00  0.00    -0.354 N 
ATOM     19  C   UNL A   1      41.596  30.623  31.560  1.00  0.00     0.074 A 
ATOM     20  C   UNL A   1      40.424  31.457  31.436  1.00  0.00     0.031 C 
ATOM     21  C   UNL A   1      40.171  25.578  27.803  1.00  0.00     0.029 A 
ATOM     22  C   UNL A   1      41.458  25.871  28.420  1.00  0.00     0.049 A 
ATOM     23  H   UNL A   1      41.907  27.439  29.720  1.00  0.00     0.167 HD
ATOM     24  C   UNL A   1      42.627  30.885  32.391  1.00  0.00     0.037 A 
ATOM     25  C   UNL A   1      42.580  25.136  28.295  1.00  0.00     0.037 A 
ATOM     26  C   UNL A   1      43.776  30.039  32.516  1.00  0.00     0.049 A 
ATOM     27  C   UNL A   1      43.771  25.520  29.136  1.00  0.00     0.074 A 
ATOM     28  C   UNL A   1      44.870  30.186  33.346  1.00  0.00     0.029 A 
ATOM     29  N   UNL A   1      43.978  28.882  31.775  1.00  0.00    -0.354 N 
ATOM     30  N   UNL A   1      43.898  26.515  29.982  1.00  0.00    -0.248 NA
ATOM     31  C   UNL A   1      44.954  24.651  29.054  1.00  0.00     0.031 C 
ATOM     32  C   UNL A   1      45.756  29.139  33.075  1.00  0.00     0.029 A 
ATOM     33  C   UNL A   1      45.195  28.318  32.109  1.00  0.00     0.049 A 
ATOM     34  H   UNL A   1      43.348  28.519  31.111  1.00  0.00     0.167 HD
ATOM     35  C   UNL A   1      45.141  26.358  30.575  1.00  0.00     0.074 A 
ATOM     36  C   UNL A   1      45.733  25.172  29.991  1.00  0.00     0.031 C 
ATOM     37  C   UNL A   1      45.737  27.116  31.526  1.00  0.00     0.037 A 
BRANCH  24  38
ATOM     38  C   UNL A   1      42.519  32.125  33.219  1.00  0.00     0.064 A 
ATOM     39  C   UNL A   1      43.064  33.343  32.781  1.00  0.00     0.173 A 
ATOM     40  C   UNL A   1      41.915  32.088  34.482  1.00  0.00     0.173 A 
ATOM     41  F   UNL A   1      43.684  33.417  31.593  1.00  0.00    -0.203 F 
ATOM     42  C   UNL A   1      43.043  34.470  33.597  1.00  0.00     0.198 A 
ATOM     43  C   UNL A   1      41.870  33.224  35.284  1.00  0.00     0.198 A 
ATOM     44  F   UNL A   1      41.392  30.944  34.948  1.00  0.00    -0.203 F 
ATOM     45  F   UNL A   1      43.634  35.601  33.190  1.00  0.00    -0.200 F 
ATOM     46  C   UNL A   1      42.443  34.410  34.846  1.00  0.00     0.200 A 
ATOM     47  F   UNL A   1      41.292  33.167  36.492  1.00  0.00    -0.200 F 
ATOM     48  F   UNL A   1      42.433  35.492  35.636  1.00  0.00    -0.200 F 
ENDBRANCH  24  38
BRANCH  25  49
ATOM     49  C   UNL A   1      42.641  23.949  27.396  1.00  0.00     0.064 A 
ATOM     50  C   UNL A   1      42.328  22.664  27.865  1.00  0.00     0.173 A 
ATOM     51  C   UNL A   1      43.102  24.060  26.075  1.00  0.00     0.173 A 
ATOM     52  F   UNL A   1      41.902  22.499  29.125  1.00  0.00    -0.203 F 
ATOM     53  C   UNL A   1      42.519  21.536  27.067  1.00  0.00     0.198 A 
ATOM     54  C   UNL A   1      43.270  22.932  25.270  1.00  0.00     0.198 A 
ATOM     55  F   UNL A   1      43.418  25.261  25.573  1.00  0.00    -0.203 F 
ATOM     56  F   UNL A   1      42.280  20.316  27.569  1.00  0.00    -0.200 F 
ATOM     57  C   UNL A   1      42.993  21.669  25.771  1.00  0.00     0.200 A 
ATOM     58  F   UNL A   1      43.727  23.064  24.017  1.00  0.00    -0.200 F 
ATOM     59  F   UNL A   1      43.200  20.582  25.015  1.00  0.00    -0.200 F 
ENDBRANCH  25  49
BRANCH  37  60
ATOM     60  C   UNL A   1      47.072  26.660  32.033  1.00  0.00     0.064 A 
ATOM     61  C   UNL A   1      47.182  25.720  33.066  1.00  0.00     0.173 A 
ATOM     62  C   UNL A   1      48.250  27.114  31.420  1.00  0.00     0.173 A 
ATOM     63  F   UNL A   1      46.083  25.272  33.690  1.00  0.00    -0.203 F 
ATOM     64  C   UNL A   1      48.428  25.260  33.478  1.00  0.00     0.198 A 
ATOM     65  C   UNL A   1      49.490  26.626  31.813  1.00  0.00     0.198 A 
ATOM     66  F   UNL A   1      48.192  28.010  30.423  1.00  0.00    -0.203 F 
ATOM     67  F   UNL A   1      48.515  24.389  34.493  1.00  0.00    -0.200 F 
ATOM     68  C   UNL A   1      49.579  25.703  32.843  1.00  0.00     0.200 A 
ATOM     69  F   UNL A   1      50.601  27.041  31.185  1.00  0.00    -0.200 F 
ATOM     70  F   UNL A   1      50.777  25.240  33.227  1.00  0.00    -0.200 F 
ENDBRANCH  37  60
ENDBRANCH  11  12
ENDBRANCH   4   6
ENDBRANCH   3   4
ENDBRANCH   2   3
ENDBRANCH   1   2
BRANCH   1  71
ATOM     71  O   UNL A   1      32.541  34.521  29.154  1.00  0.00    -0.461 OA
BRANCH  71  72
ATOM     72  C   UNL A   1      33.382  35.415  29.746  1.00  0.00     0.329 C 
ATOM     73  O   UNL A   1      34.227  36.018  29.098  1.00  0.00    -0.250 OA
BRANCH  72  74
ATOM     74  C   UNL A   1      33.260  35.518  31.276  1.00  0.00     0.197 C 
ATOM     75  C   UNL A   1      33.076  36.910  31.843  1.00  0.00     0.070 C 
ATOM     76  N   UNL A   1      34.518  35.053  31.867  1.00  0.00    -0.325 N 
ATOM     77  C   UNL A   1      33.999  36.992  33.050  1.00  0.00     0.136 C 
ATOM     78  C   UNL A   1      35.154  36.078  32.672  1.00  0.00     0.152 C 
BRANCH  76  79
ATOM     79  C   UNL A   1      34.624  33.727  32.213  1.00  0.00     0.234 C 
ATOM     80  O   UNL A   1      33.644  33.001  32.348  1.00  0.00    -0.274 OA
BRANCH  79  81
ATOM     81  C   UNL A   1      36.028  33.176  32.254  1.00  0.00     0.074 C 
ATOM     82  C   UNL A   1      36.686  32.837  33.590  1.00  0.00     0.023 C 
ATOM     83  C   UNL A   1      36.166  31.736  32.723  1.00  0.00     0.023 C 
BRANCH  81  84
ATOM     84  C   UNL A   1      36.914  33.679  31.102  1.00  0.00    -0.032 A 
ATOM     85  C   UNL A   1      36.778  33.201  29.783  1.00  0.00     0.005 A 
ATOM     86  C   UNL A   1      38.036  34.488  31.372  1.00  0.00     0.005 A 
ATOM     87  C   UNL A   1      37.750  33.454  28.808  1.00  0.00     0.000 A 
ATOM     88  C   UNL A   1      39.015  34.734  30.405  1.00  0.00     0.000 A 
ATOM     89  C   UNL A   1      38.878  34.203  29.127  1.00  0.00     0.000 A 
ENDBRANCH  81  84
ENDBRANCH  79  81
ENDBRANCH  76  79
BRANCH  77  90
ATOM     90  O   UNL A   1      33.314  36.503  34.202  1.00  0.00    -0.391 OA
ATOM     91  H   UNL A   1      33.365  35.535  34.221  1.00  0.00     0.211 HD
ENDBRANCH  77  90
ENDBRANCH  72  74
ENDBRANCH  71  72
ENDBRANCH   1  71
TORSDOF 15
ENDMDL
MODEL 2
REMARK VINA RESULT:     -11.1      0.950      1.904
REMARK SMILES O=C(OCCOC(=O)[C@@H]1C[C@@H](O)CN1C(=O)C1(c2ccccc2)CC1)c1ccc(-c2c3nc(c(-c4c(F)c(F)c(F)c(F)c4F)c4ccc([nH]4)c(-c4c(F)c(F)c(F)c(F)c4F)c4nc(c(-c5c(F)c(F)c(F)c(F)c5F)c5ccc2[nH]5)C=C4)C=C3)cc1
REMARK SMILES IDX 5 1 4 2 3 3 2 4 1 5 26 6 27 7 88 8 28 9 87 10 29 11 30 12
REMARK SMILES IDX 31 13 81 14 32 15 86 16 80 17 82 18 33 19 85 20 79 21 78 22
REMARK SMILES IDX 34 24 66 25 46 26 65 27 47 28 50 29 64 30 83 31 48 32 49 33
REMARK SMILES IDX 63 35 84 36 51 37 35 38 36 39 44 40 37 41 38 42 42 43 45 44
REMARK SMILES IDX 39 45 40 46 43 47 41 48 67 49 68 50 76 51 69 52 70 53 74 54
REMARK SMILES IDX 77 55 71 56 72 57 75 58 73 59 52 60 53 61 61 62 54 63 55 64
REMARK SMILES IDX 59 65 62 66 56 67 57 68 60 69 58 70 6 71 7 72 8 73 9 74
REMARK SMILES IDX 10 75 14 76 11 77 13 78 15 79 16 80 17 81 24 82 25 83 18 84
REMARK SMILES IDX 19 85 23 86 20 87 22 88 21 89 12 90
REMARK H PARENT 82 23 50 34 12 91
REMARK Flexibility Score: inf
ROOT
ATOM      1  C   UNL A   1      33.708  33.658  28.028  1.00  0.00     0.274 C 
ENDROOT
BRANCH   1   2
ATOM      2  C   UNL A   1      32.935  32.504  27.362  1.00  0.00     0.275 C 
BRANCH   2   3
ATOM      3  O   UNL A   1      33.290  31.173  27.777  1.00  0.00    -0.458 OA
BRANCH   3   4
ATOM      4  C   UNL A   1      34.246  30.361  27.271  1.00  0.00     0.338 C 
ATOM      5  O   UNL A   1      33.993  29.646  26.304  1.00  0.00    -0.246 OA
BRANCH   4   6
ATOM      6  C   UNL A   1      35.525  30.120  28.003  1.00  0.00     0.060 A 
ATOM      7  C   UNL A   1      35.638  29.781  29.355  1.00  0.00     0.016 A 
ATOM      8  C   UNL A   1      36.698  30.168  27.231  1.00  0.00     0.016 A 
ATOM      9  C   UNL A   1      36.840  29.309  29.881  1.00  0.00     0.010 A 
ATOM     10  C   UNL A   1      37.910  29.713  27.757  1.00  0.00     0.010 A 
ATOM     11  C   UNL A   1      37.973  29.224  29.075  1.00  0.00    -0.014 A 
BRANCH  11  12
ATOM     12  C   UNL A   1      39.257  28.752  29.638  1.00  0.00     0.031 A 
ATOM     13  C   UNL A   1      39.846  29.555  30.752  1.00  0.00     0.074 A 
ATOM     14  C   UNL A   1      39.883  27.654  29.168  1.00  0.00     0.049 A 
ATOM     15  N   UNL A   1      40.974  29.392  31.385  1.00  0.00    -0.248 NA
ATOM     16  C   UNL A   1      39.040  30.694  31.229  1.00  0.00     0.031 C 
ATOM     17  C   UNL A   1      39.367  26.744  28.146  1.00  0.00     0.029 A 
ATOM     18  N   UNL A   1      41.116  27.127  29.468  1.00  0.00    -0.354 N 
ATOM     19  C   UNL A   1      40.996  30.386  32.349  1.00  0.00     0.074 A 
ATOM     20  C   UNL A   1      39.828  31.211  32.156  1.00  0.00     0.031 C 
ATOM     21  C   UNL A   1      40.313  25.844  27.822  1.00  0.00     0.029 A 
ATOM     22  C   UNL A   1      41.485  26.075  28.657  1.00  0.00     0.049 A 
ATOM     23  H   UNL A   1      41.684  27.469  30.195  1.00  0.00     0.167 HD
ATOM     24  C   UNL A   1      41.885  30.555  33.352  1.00  0.00     0.037 A 
ATOM     25  C   UNL A   1      42.637  25.379  28.611  1.00  0.00     0.037 A 
ATOM     26  C   UNL A   1      43.031  29.717  33.542  1.00  0.00     0.049 A 
ATOM     27  C   UNL A   1      43.678  25.670  29.663  1.00  0.00     0.074 A 
ATOM     28  C   UNL A   1      43.986  29.773  34.538  1.00  0.00     0.029 A 
ATOM     29  N   UNL A   1      43.380  28.669  32.701  1.00  0.00    -0.354 N 
ATOM     30  N   UNL A   1      43.645  26.551  30.635  1.00  0.00    -0.248 NA
ATOM     31  C   UNL A   1      44.889  24.838  29.651  1.00  0.00     0.031 C 
ATOM     32  C   UNL A   1      44.938  28.783  34.275  1.00  0.00     0.029 A 
ATOM     33  C   UNL A   1      44.553  28.085  33.140  1.00  0.00     0.049 A 
ATOM     34  H   UNL A   1      42.867  28.384  31.909  1.00  0.00     0.167 HD
ATOM     35  C   UNL A   1      44.792  26.337  31.383  1.00  0.00     0.074 A 
ATOM     36  C   UNL A   1      45.504  25.246  30.752  1.00  0.00     0.031 C 
ATOM     37  C   UNL A   1      45.216  26.976  32.501  1.00  0.00     0.037 A 
BRANCH  24  38
ATOM     38  C   UNL A   1      41.614  31.677  34.302  1.00  0.00     0.064 A 
ATOM     39  C   UNL A   1      40.747  31.513  35.395  1.00  0.00     0.173 A 
ATOM     40  C   UNL A   1      42.180  32.940  34.092  1.00  0.00     0.173 A 
ATOM     41  F   UNL A   1      40.154  30.330  35.615  1.00  0.00    -0.203 F 
ATOM     42  C   UNL A   1      40.427  32.587  36.220  1.00  0.00     0.198 A 
ATOM     43  C   UNL A   1      41.880  34.005  34.936  1.00  0.00     0.198 A 
ATOM     44  F   UNL A   1      43.004  33.148  33.053  1.00  0.00    -0.203 F 
ATOM     45  F   UNL A   1      39.541  32.426  37.212  1.00  0.00    -0.200 F 
ATOM     46  C   UNL A   1      40.997  33.831  35.991  1.00  0.00     0.200 A 
ATOM     47  F   UNL A   1      42.428  35.208  34.715  1.00  0.00    -0.200 F 
ATOM     48  F   UNL A   1      40.678  34.866  36.779  1.00  0.00    -0.200 F 
ENDBRANCH  24  38
BRANCH  25  49
ATOM     49  C   UNL A   1      42.870  24.318  27.590  1.00  0.00     0.064 A 
ATOM     50  C   UNL A   1      42.522  22.982  27.837  1.00  0.00     0.173 A 
ATOM     51  C   UNL A   1      43.529  24.602  26.384  1.00  0.00     0.173 A 
ATOM     52  F   UNL A   1      41.908  22.653  28.983  1.00  0.00    -0.203 F 
ATOM     53  C   UNL A   1      42.866  21.967  26.944  1.00  0.00     0.198 A 
ATOM     54  C   UNL A   1      43.851  23.588  25.480  1.00  0.00     0.198 A 
ATOM     55  F   UNL A   1      43.888  25.860  26.095  1.00  0.00    -0.203 F 
ATOM     56  F   UNL A   1      42.584  20.691  27.243  1.00  0.00    -0.200 F 
ATOM     57  C   UNL A   1      43.534  22.269  25.768  1.00  0.00     0.200 A 
ATOM     58  F   UNL A   1      44.495  23.884  24.342  1.00  0.00    -0.200 F 
ATOM     59  F   UNL A   1      43.885  21.290  24.922  1.00  0.00    -0.200 F 
ENDBRANCH  25  49
BRANCH  37  60
ATOM     60  C   UNL A   1      46.477  26.479  33.140  1.00  0.00     0.064 A 
ATOM     61  C   UNL A   1      47.725  27.034  32.829  1.00  0.00     0.173 A 
ATOM     62  C   UNL A   1      46.419  25.488  34.133  1.00  0.00     0.173 A 
ATOM     63  F   UNL A   1      47.828  27.971  31.875  1.00  0.00    -0.203 F 
ATOM     64  C   UNL A   1      48.876  26.604  33.480  1.00  0.00     0.198 A 
ATOM     65  C   UNL A   1      47.567  25.086  34.804  1.00  0.00     0.198 A 
ATOM     66  F   UNL A   1      45.245  24.933  34.468  1.00  0.00    -0.203 F 
ATOM     67  F   UNL A   1      50.066  27.120  33.142  1.00  0.00    -0.200 F 
ATOM     68  C   UNL A   1      48.794  25.641  34.476  1.00  0.00     0.200 A 
ATOM     69  F   UNL A   1      47.484  24.169  35.779  1.00  0.00    -0.200 F 
ATOM     70  F   UNL A   1      49.903  25.245  35.117  1.00  0.00    -0.200 F 
ENDBRANCH  37  60
ENDBRANCH  11  12
ENDBRANCH   4   6
ENDBRANCH   3   4
ENDBRANCH   2   3
ENDBRANCH   1   2
BRANCH   1  71
ATOM     71  O   UNL A   1      33.478  33.854  29.440  1.00  0.00    -0.461 OA
BRANCH  71  72
ATOM     72  C   UNL A   1      33.499  35.169  29.796  1.00  0.00     0.329 C 
ATOM     73  O   UNL A   1      33.785  36.042  28.988  1.00  0.00    -0.250 OA
BRANCH  72  74
ATOM     74  C   UNL A   1      33.249  35.450  31.288  1.00  0.00     0.197 C 
ATOM     75  C   UNL A   1      32.966  36.890  31.663  1.00  0.00     0.070 C 
ATOM     76  N   UNL A   1      34.471  35.120  32.026  1.00  0.00    -0.325 N 
ATOM     77  C   UNL A   1      33.784  37.161  32.917  1.00  0.00     0.136 C 
ATOM     78  C   UNL A   1      35.000  36.264  32.744  1.00  0.00     0.152 C 
BRANCH  76  79
ATOM     79  C   UNL A   1      34.600  33.852  32.541  1.00  0.00     0.234 C 
ATOM     80  O   UNL A   1      33.630  33.158  32.832  1.00  0.00    -0.274 OA
BRANCH  79  81
ATOM     81  C   UNL A   1      36.004  33.301  32.570  1.00  0.00     0.074 C 
ATOM     82  C   UNL A   1      36.718  33.079  33.902  1.00  0.00     0.023 C 
ATOM     83  C   UNL A   1      36.161  31.907  33.159  1.00  0.00     0.023 C 
BRANCH  81  84
ATOM     84  C   UNL A   1      36.840  33.696  31.342  1.00  0.00    -0.032 A 
ATOM     85  C   UNL A   1      36.640  33.111  30.075  1.00  0.00     0.005 A 
ATOM     86  C   UNL A   1      37.978  34.513  31.492  1.00  0.00     0.005 A 
ATOM     87  C   UNL A   1      37.568  33.270  29.040  1.00  0.00     0.000 A 
ATOM     88  C   UNL A   1      38.913  34.666  30.465  1.00  0.00     0.000 A 
ATOM     89  C   UNL A   1      38.715  34.031  29.243  1.00  0.00     0.000 A 
ENDBRANCH  81  84
ENDBRANCH  79  81
ENDBRANCH  76  79
BRANCH  77  90
ATOM     90  O   UNL A   1      33.027  36.782  34.064  1.00  0.00    -0.391 OA
ATOM     91  H   UNL A   1      33.267  37.351  34.813  1.00  0.00     0.211 HD
ENDBRANCH  77  90
ENDBRANCH  72  74
ENDBRANCH  71  72
ENDBRANCH   1  71
TORSDOF 15
ENDMDL
MODEL 3
REMARK VINA RESULT:     -10.8      0.988      2.229
REMARK SMILES O=C(OCCOC(=O)[C@@H]1C[C@@H](O)CN1C(=O)C1(c2ccccc2)CC1)c1ccc(-c2c3nc(c(-c4c(F)c(F)c(F)c(F)c4F)c4ccc([nH]4)c(-c4c(F)c(F)c(F)c(F)c4F)c4nc(c(-c5c(F)c(F)c(F)c(F)c5F)c5ccc2[nH]5)C=C4)C=C3)cc1
REMARK SMILES IDX 5 1 4 2 3 3 2 4 1 5 26 6 27 7 88 8 28 9 87 10 29 11 30 12
REMARK SMILES IDX 31 13 81 14 32 15 86 16 80 17 82 18 33 19 85 20 79 21 78 22
REMARK SMILES IDX 34 24 66 25 46 26 65 27 47 28 50 29 64 30 83 31 48 32 49 33
REMARK SMILES IDX 63 35 84 36 51 37 35 38 36 39 44 40 37 41 38 42 42 43 45 44
REMARK SMILES IDX 39 45 40 46 43 47 41 48 67 49 68 50 76 51 69 52 70 53 74 54
REMARK SMILES IDX 77 55 71 56 72 57 75 58 73 59 52 60 53 61 61 62 54 63 55 64
REMARK SMILES IDX 59 65 62 66 56 67 57 68 60 69 58 70 6 71 7 72 8 73 9 74
REMARK SMILES IDX 10 75 14 76 11 77 13 78 15 79 16 80 17 81 24 82 25 83 18 84
REMARK SMILES IDX 19 85 23 86 20 87 22 88 21 89 12 90
REMARK H PARENT 82 23 50 34 12 91
REMARK Flexibility Score: inf
ROOT
ATOM      1  C   UNL A   1      33.069  33.638  27.568  1.00  0.00     0.274 C 
ENDROOT
BRANCH   1   2
ATOM      2  C   UNL A   1      33.117  32.160  28.003  1.00  0.00     0.275 C 
BRANCH   2   3
ATOM      3  O   UNL A   1      33.996  31.302  27.255  1.00  0.00    -0.458 OA
BRANCH   3   4
ATOM      4  C   UNL A   1      34.453  30.071  27.585  1.00  0.00     0.338 C 
ATOM      5  O   UNL A   1      33.671  29.125  27.649  1.00  0.00    -0.246 OA
BRANCH   4   6
ATOM      6  C   UNL A   1      35.834  29.875  28.116  1.00  0.00     0.060 A 
ATOM      7  C   UNL A   1      36.156  29.440  29.406  1.00  0.00     0.016 A 
ATOM      8  C   UNL A   1      36.883  30.077  27.203  1.00  0.00     0.016 A 
ATOM      9  C   UNL A   1      37.449  29.024  29.723  1.00  0.00     0.010 A 
ATOM     10  C   UNL A   1      38.184  29.679  27.521  1.00  0.00     0.010 A 
ATOM     11  C   UNL A   1      38.462  29.094  28.769  1.00  0.00    -0.014 A 
BRANCH  11  12
ATOM     12  C   UNL A   1      39.841  28.681  29.112  1.00  0.00     0.031 A 
ATOM     13  C   UNL A   1      40.677  29.666  29.862  1.00  0.00     0.074 A 
ATOM     14  C   UNL A   1      40.335  27.476  28.761  1.00  0.00     0.049 A 
ATOM     15  N   UNL A   1      41.922  29.579  30.240  1.00  0.00    -0.248 NA
ATOM     16  C   UNL A   1      40.010  30.922  30.252  1.00  0.00     0.031 C 
ATOM     17  C   UNL A   1      39.590  26.402  28.106  1.00  0.00     0.029 A 
ATOM     18  N   UNL A   1      41.602  26.958  28.878  1.00  0.00    -0.354 N 
ATOM     19  C   UNL A   1      42.174  30.750  30.935  1.00  0.00     0.074 A 
ATOM     20  C   UNL A   1      40.995  31.578  30.840  1.00  0.00     0.031 C 
ATOM     21  C   UNL A   1      40.431  25.404  27.777  1.00  0.00     0.029 A 
ATOM     22  C   UNL A   1      41.766  25.741  28.252  1.00  0.00     0.049 A 
ATOM     23  H   UNL A   1      42.326  27.414  29.364  1.00  0.00     0.167 HD
ATOM     24  C   UNL A   1      43.273  31.077  31.647  1.00  0.00     0.037 A 
ATOM     25  C   UNL A   1      42.874  24.990  28.095  1.00  0.00     0.037 A 
ATOM     26  C   UNL A   1      44.430  30.237  31.746  1.00  0.00     0.049 A 
ATOM     27  C   UNL A   1      44.133  25.438  28.792  1.00  0.00     0.074 A 
ATOM     28  C   UNL A   1      45.591  30.449  32.462  1.00  0.00     0.029 A 
ATOM     29  N   UNL A   1      44.567  29.018  31.095  1.00  0.00    -0.354 N 
ATOM     30  N   UNL A   1      44.333  26.503  29.533  1.00  0.00    -0.248 NA
ATOM     31  C   UNL A   1      45.305  24.557  28.684  1.00  0.00     0.031 C 
ATOM     32  C   UNL A   1      46.452  29.376  32.208  1.00  0.00     0.029 A 
ATOM     33  C   UNL A   1      45.809  28.477  31.371  1.00  0.00     0.049 A 
ATOM     34  H   UNL A   1      43.882  28.603  30.523  1.00  0.00     0.167 HD
ATOM     35  C   UNL A   1      45.623  26.390  30.027  1.00  0.00     0.074 A 
ATOM     36  C   UNL A   1      46.163  25.153  29.501  1.00  0.00     0.031 C 
ATOM     37  C   UNL A   1      46.299  27.225  30.852  1.00  0.00     0.037 A 
BRANCH  24  38
ATOM     38  C   UNL A   1      43.237  32.386  32.368  1.00  0.00     0.064 A 
ATOM     39  C   UNL A   1      42.736  32.484  33.676  1.00  0.00     0.173 A 
ATOM     40  C   UNL A   1      43.655  33.561  31.731  1.00  0.00     0.173 A 
ATOM     41  F   UNL A   1      42.291  31.390  34.312  1.00  0.00    -0.203 F 
ATOM     42  C   UNL A   1      42.618  33.719  34.306  1.00  0.00     0.198 A 
ATOM     43  C   UNL A   1      43.563  34.792  32.375  1.00  0.00     0.198 A 
ATOM     44  F   UNL A   1      44.130  33.520  30.477  1.00  0.00    -0.203 F 
ATOM     45  F   UNL A   1      42.069  33.798  35.525  1.00  0.00    -0.200 F 
ATOM     46  C   UNL A   1      43.035  34.871  33.655  1.00  0.00     0.200 A 
ATOM     47  F   UNL A   1      43.964  35.906  31.747  1.00  0.00    -0.200 F 
ATOM     48  F   UNL A   1      42.910  36.061  34.258  1.00  0.00    -0.200 F 
ENDBRANCH  24  38
BRANCH  25  49
ATOM     49  C   UNL A   1      42.857  23.728  27.302  1.00  0.00     0.064 A 
ATOM     50  C   UNL A   1      42.474  22.509  27.883  1.00  0.00     0.173 A 
ATOM     51  C   UNL A   1      43.310  23.697  25.975  1.00  0.00     0.173 A 
ATOM     52  F   UNL A   1      42.053  22.479  29.155  1.00  0.00    -0.203 F 
ATOM     53  C   UNL A   1      42.592  21.307  27.186  1.00  0.00     0.198 A 
ATOM     54  C   UNL A   1      43.404  22.495  25.270  1.00  0.00     0.198 A 
ATOM     55  F   UNL A   1      43.690  24.830  25.368  1.00  0.00    -0.203 F 
ATOM     56  F   UNL A   1      42.287  20.151  27.793  1.00  0.00    -0.200 F 
ATOM     57  C   UNL A   1      43.060  21.299  25.881  1.00  0.00     0.200 A 
ATOM     58  F   UNL A   1      43.855  22.492  24.008  1.00  0.00    -0.200 F 
ATOM     59  F   UNL A   1      43.196  20.140  25.221  1.00  0.00    -0.200 F 
ENDBRANCH  25  49
BRANCH  37  60
ATOM     60  C   UNL A   1      47.673  26.806  31.278  1.00  0.00     0.064 A 
ATOM     61  C   UNL A   1      48.818  27.250  30.604  1.00  0.00     0.173 A 
ATOM     62  C   UNL A   1      47.843  26.012  32.423  1.00  0.00     0.173 A 
ATOM     63  F   UNL A   1      48.701  27.996  29.496  1.00  0.00    -0.203 F 
ATOM     64  C   UNL A   1      50.087  26.902  31.054  1.00  0.00     0.198 A 
ATOM     65  C   UNL A   1      49.114  25.696  32.888  1.00  0.00     0.198 A 
ATOM     66  F   UNL A   1      46.776  25.568  33.104  1.00  0.00    -0.203 F 
ATOM     67  F   UNL A   1      51.169  27.306  30.373  1.00  0.00    -0.200 F 
ATOM     68  C   UNL A   1      50.234  26.137  32.201  1.00  0.00     0.200 A 
ATOM     69  F   UNL A   1      49.255  24.971  34.008  1.00  0.00    -0.200 F 
ATOM     70  F   UNL A   1      51.459  25.823  32.645  1.00  0.00    -0.200 F 
ENDBRANCH  37  60
ENDBRANCH  11  12
ENDBRANCH   4   6
ENDBRANCH   3   4
ENDBRANCH   2   3
ENDBRANCH   1   2
BRANCH   1  71
ATOM     71  O   UNL A   1      34.254  34.422  27.828  1.00  0.00    -0.461 OA
BRANCH  71  72
ATOM     72  C   UNL A   1      34.025  35.439  28.705  1.00  0.00     0.329 C 
ATOM     73  O   UNL A   1      34.359  36.587  28.449  1.00  0.00    -0.250 OA
BRANCH  72  74
ATOM     74  C   UNL A   1      33.428  35.017  30.059  1.00  0.00     0.197 C 
ATOM     75  C   UNL A   1      32.599  36.058  30.783  1.00  0.00     0.070 C 
ATOM     76  N   UNL A   1      34.534  34.737  30.979  1.00  0.00    -0.325 N 
ATOM     77  C   UNL A   1      33.031  35.994  32.240  1.00  0.00     0.136 C 
ATOM     78  C   UNL A   1      34.493  35.584  32.156  1.00  0.00     0.152 C 
BRANCH  76  79
ATOM     79  C   UNL A   1      35.002  33.447  31.063  1.00  0.00     0.234 C 
ATOM     80  O   UNL A   1      34.252  32.481  31.170  1.00  0.00    -0.274 OA
BRANCH  79  81
ATOM     81  C   UNL A   1      36.485  33.277  30.848  1.00  0.00     0.074 C 
ATOM     82  C   UNL A   1      37.028  32.920  29.466  1.00  0.00     0.023 C 
ATOM     83  C   UNL A   1      37.155  34.322  29.969  1.00  0.00     0.023 C 
BRANCH  81  84
ATOM     84  C   UNL A   1      37.225  32.752  32.089  1.00  0.00    -0.032 A 
ATOM     85  C   UNL A   1      38.197  33.517  32.765  1.00  0.00     0.005 A 
ATOM     86  C   UNL A   1      37.103  31.401  32.469  1.00  0.00     0.005 A 
ATOM     87  C   UNL A   1      39.051  32.944  33.714  1.00  0.00     0.000 A 
ATOM     88  C   UNL A   1      37.961  30.821  33.407  1.00  0.00     0.000 A 
ATOM     89  C   UNL A   1      38.946  31.591  34.018  1.00  0.00     0.000 A 
ENDBRANCH  81  84
ENDBRANCH  79  81
ENDBRANCH  76  79
BRANCH  77  90
ATOM     90  O   UNL A   1      32.260  35.004  32.917  1.00  0.00    -0.391 OA
ATOM     91  H   UNL A   1      31.456  34.816  32.407  1.00  0.00     0.211 HD
ENDBRANCH  77  90
ENDBRANCH  72  74
ENDBRANCH  71  72
ENDBRANCH   1  71
TORSDOF 15
ENDMDL
