MODEL 1
REMARK VINA RESULT:     -11.1      0.000      0.000
REMARK SMILES Cc1cc(C)cc([S@@](=O)Cc2ccc(C(=O)OCCOC(=O)c3ccc(-c4c5nc(c(-c6c(F)c(F)c(F)c(F)c6F)c6ccc([nH]6)c(-c6c(F)c(F)c(F)c(F)c6F)c6nc(c(-c7c(F)c(F)c(F)c(F)c7F)c7ccc4[nH]7)C=C6)C=C5)cc3)o2)c1
REMARK SMILES IDX 18 1 17 2 15 3 16 4 14 5 11 6 12 7 86 8 13 9 10 10 8 11 9 12
REMARK SMILES IDX 7 13 1 14 2 15 3 16 87 17 4 18 5 19 6 20 19 21 20 22 21 23
REMARK SMILES IDX 22 24 23 25 24 26 85 27 25 28 84 29 26 30 27 31 28 32 78 33
REMARK SMILES IDX 29 34 83 35 77 36 79 37 30 38 82 39 76 40 75 41 31 43 63 44
REMARK SMILES IDX 43 45 62 46 44 47 47 48 61 49 80 50 45 51 46 52 60 54 81 55
REMARK SMILES IDX 48 56 32 57 33 58 41 59 34 60 35 61 39 62 42 63 36 64 37 65
REMARK SMILES IDX 40 66 38 67 64 68 65 69 73 70 66 71 67 72 71 73 74 74 68 75
REMARK SMILES IDX 69 76 72 77 70 78 49 79 50 80 58 81 51 82 52 83 56 84 59 85
REMARK SMILES IDX 53 86 54 87 57 88 55 89
REMARK H PARENT 79 42 47 53
REMARK Flexibility Score: inf
ROOT
ATOM      1  C   UNL A   1      33.942  34.271  28.321  1.00  0.00     0.275 C 
ENDROOT
BRANCH   1   2
ATOM      2  O   UNL A   1      33.359  34.480  29.620  1.00  0.00    -0.456 OA
BRANCH   2   3
ATOM      3  C   UNL A   1      32.915  35.749  29.886  1.00  0.00     0.374 C 
ATOM      4  O   UNL A   1      32.218  36.408  29.135  1.00  0.00    -0.242 OA
BRANCH   3   5
ATOM      5  C   UNL A   1      33.297  36.112  31.234  1.00  0.00     0.211 A 
ATOM      6  C   UNL A   1      34.351  35.771  33.153  1.00  0.00     0.117 A 
ATOM      7  C   UNL A   1      33.959  37.095  33.138  1.00  0.00     0.047 A 
ATOM      8  O   UNL A   1      33.902  35.161  32.015  1.00  0.00    -0.453 OA
ATOM      9  C   UNL A   1      33.279  37.311  31.916  1.00  0.00     0.058 A 
BRANCH   6  10
ATOM     10  C   UNL A   1      35.274  34.965  33.998  1.00  0.00     0.185 C 
BRANCH  10  11
ATOM     11  S   UNL A   1      35.725  33.308  33.436  1.00  0.00     0.061 S 
ATOM     12  O   UNL A   1      36.367  32.552  34.562  1.00  0.00    -0.254 OA
BRANCH  11  13
ATOM     13  C   UNL A   1      37.022  33.616  32.222  1.00  0.00     0.040 A 
ATOM     14  C   UNL A   1      40.702  34.567  32.036  1.00  0.00     0.044 C 
ATOM     15  C   UNL A   1      39.300  34.226  31.625  1.00  0.00    -0.050 A 
ATOM     16  C   UNL A   1      39.012  33.961  30.281  1.00  0.00     0.007 A 
ATOM     17  C   UNL A   1      38.279  34.117  32.578  1.00  0.00     0.021 A 
ATOM     18  C   UNL A   1      37.727  33.569  29.890  1.00  0.00    -0.050 A 
ATOM     19  C   UNL A   1      37.424  33.310  28.443  1.00  0.00     0.044 C 
ATOM     20  C   UNL A   1      36.750  33.371  30.870  1.00  0.00     0.021 A 
ENDBRANCH  11  13
ENDBRANCH  10  11
ENDBRANCH   6  10
ENDBRANCH   3   5
ENDBRANCH   2   3
ENDBRANCH   1   2
BRANCH   1  21
ATOM     21  C   UNL A   1      33.591  32.884  27.769  1.00  0.00     0.275 C 
BRANCH  21  22
ATOM     22  O   UNL A   1      34.272  31.834  28.486  1.00  0.00    -0.458 OA
BRANCH  22  23
ATOM     23  C   UNL A   1      34.491  30.699  27.781  1.00  0.00     0.338 C 
ATOM     24  O   UNL A   1      33.793  30.249  26.886  1.00  0.00    -0.246 OA
BRANCH  23  25
ATOM     25  C   UNL A   1      35.798  30.112  28.144  1.00  0.00     0.060 A 
ATOM     26  C   UNL A   1      35.950  29.651  29.454  1.00  0.00     0.016 A 
ATOM     27  C   UNL A   1      36.872  30.056  27.253  1.00  0.00     0.016 A 
ATOM     28  C   UNL A   1      37.169  29.135  29.884  1.00  0.00     0.010 A 
ATOM     29  C   UNL A   1      38.104  29.548  27.688  1.00  0.00     0.010 A 
ATOM     30  C   UNL A   1      38.262  29.098  29.009  1.00  0.00    -0.014 A 
BRANCH  30  31
ATOM     31  C   UNL A   1      39.576  28.651  29.535  1.00  0.00     0.031 A 
ATOM     32  C   UNL A   1      40.174  29.340  30.728  1.00  0.00     0.074 A 
ATOM     33  C   UNL A   1      40.187  27.580  28.999  1.00  0.00     0.049 A 
ATOM     34  N   UNL A   1      41.270  29.055  31.387  1.00  0.00    -0.248 NA
ATOM     35  C   UNL A   1      39.440  30.500  31.253  1.00  0.00     0.031 C 
ATOM     36  C   UNL A   1      39.692  26.811  27.859  1.00  0.00     0.029 A 
ATOM     37  N   UNL A   1      41.351  26.945  29.356  1.00  0.00    -0.354 N 
ATOM     38  C   UNL A   1      41.357  29.999  32.401  1.00  0.00     0.074 A 
ATOM     39  C   UNL A   1      40.218  30.881  32.256  1.00  0.00     0.031 C 
ATOM     40  C   UNL A   1      40.538  25.795  27.619  1.00  0.00     0.029 A 
ATOM     41  C   UNL A   1      41.643  25.855  28.575  1.00  0.00     0.049 A 
ATOM     42  H   UNL A   1      41.920  27.242  30.101  1.00  0.00     0.167 HD
ATOM     43  C   UNL A   1      42.296  30.114  33.370  1.00  0.00     0.037 A 
ATOM     44  C   UNL A   1      42.683  25.002  28.626  1.00  0.00     0.037 A 
ATOM     45  C   UNL A   1      43.427  29.236  33.521  1.00  0.00     0.049 A 
ATOM     46  C   UNL A   1      43.726  25.169  29.697  1.00  0.00     0.074 A 
ATOM     47  C   UNL A   1      44.428  29.272  34.476  1.00  0.00     0.029 A 
ATOM     48  N   UNL A   1      43.707  28.163  32.690  1.00  0.00    -0.354 N 
ATOM     49  N   UNL A   1      43.789  26.053  30.662  1.00  0.00    -0.248 NA
ATOM     50  C   UNL A   1      44.841  24.211  29.689  1.00  0.00     0.031 C 
ATOM     51  C   UNL A   1      45.333  28.240  34.203  1.00  0.00     0.029 A 
ATOM     52  C   UNL A   1      44.874  27.537  33.102  1.00  0.00     0.049 A 
ATOM     53  H   UNL A   1      43.158  27.885  31.921  1.00  0.00     0.167 HD
ATOM     54  C   UNL A   1      44.935  25.749  31.385  1.00  0.00     0.074 A 
ATOM     55  C   UNL A   1      45.528  24.586  30.758  1.00  0.00     0.031 C 
ATOM     56  C   UNL A   1      45.452  26.381  32.468  1.00  0.00     0.037 A 
BRANCH  43  57
ATOM     57  C   UNL A   1      42.147  31.251  34.337  1.00  0.00     0.064 A 
ATOM     58  C   UNL A   1      42.824  32.464  34.152  1.00  0.00     0.173 A 
ATOM     59  C   UNL A   1      41.299  31.131  35.448  1.00  0.00     0.173 A 
ATOM     60  F   UNL A   1      43.659  32.622  33.113  1.00  0.00    -0.203 F 
ATOM     61  C   UNL A   1      42.676  33.511  35.058  1.00  0.00     0.198 A 
ATOM     62  C   UNL A   1      41.136  32.188  36.339  1.00  0.00     0.198 A 
ATOM     63  F   UNL A   1      40.629  29.990  35.666  1.00  0.00    -0.203 F 
ATOM     64  F   UNL A   1      43.364  34.648  34.887  1.00  0.00    -0.200 F 
ATOM     65  C   UNL A   1      41.828  33.373  36.149  1.00  0.00     0.200 A 
ATOM     66  F   UNL A   1      40.311  32.055  37.388  1.00  0.00    -0.200 F 
ATOM     67  F   UNL A   1      41.686  34.382  37.019  1.00  0.00    -0.200 F 
ENDBRANCH  43  57
BRANCH  44  68
ATOM     68  C   UNL A   1      42.785  23.902  27.634  1.00  0.00     0.064 A 
ATOM     69  C   UNL A   1      42.308  22.617  27.926  1.00  0.00     0.173 A 
ATOM     70  C   UNL A   1      43.374  24.112  26.378  1.00  0.00     0.173 A 
ATOM     71  F   UNL A   1      41.765  22.361  29.126  1.00  0.00    -0.203 F 
ATOM     72  C   UNL A   1      42.431  21.578  27.005  1.00  0.00     0.198 A 
ATOM     73  C   UNL A   1      43.474  23.080  25.450  1.00  0.00     0.198 A 
ATOM     74  F   UNL A   1      43.851  25.324  26.056  1.00  0.00    -0.203 F 
ATOM     75  F   UNL A   1      42.009  20.348  27.326  1.00  0.00    -0.200 F 
ATOM     76  C   UNL A   1      43.009  21.813  25.766  1.00  0.00     0.200 A 
ATOM     77  F   UNL A   1      44.029  23.311  24.251  1.00  0.00    -0.200 F 
ATOM     78  F   UNL A   1      43.128  20.813  24.881  1.00  0.00    -0.200 F 
ENDBRANCH  44  68
BRANCH  56  79
ATOM     79  C   UNL A   1      46.710  25.810  33.054  1.00  0.00     0.064 A 
ATOM     80  C   UNL A   1      46.671  24.853  34.078  1.00  0.00     0.173 A 
ATOM     81  C   UNL A   1      47.965  26.211  32.574  1.00  0.00     0.173 A 
ATOM     82  F   UNL A   1      45.495  24.448  34.580  1.00  0.00    -0.203 F 
ATOM     83  C   UNL A   1      47.846  24.338  34.621  1.00  0.00     0.198 A 
ATOM     84  C   UNL A   1      49.137  25.676  33.103  1.00  0.00     0.198 A 
ATOM     85  F   UNL A   1      48.055  27.120  31.592  1.00  0.00    -0.203 F 
ATOM     86  F   UNL A   1      47.786  23.458  35.631  1.00  0.00    -0.200 F 
ATOM     87  C   UNL A   1      49.077  24.747  34.130  1.00  0.00     0.200 A 
ATOM     88  F   UNL A   1      50.326  26.065  32.621  1.00  0.00    -0.200 F 
ATOM     89  F   UNL A   1      50.207  24.250  34.654  1.00  0.00    -0.200 F 
ENDBRANCH  56  79
ENDBRANCH  30  31
ENDBRANCH  23  25
ENDBRANCH  22  23
ENDBRANCH  21  22
ENDBRANCH   1  21
TORSDOF 14
ENDMDL
MODEL 2
REMARK VINA RESULT:     -11.1      0.281      1.634
REMARK SMILES Cc1cc(C)cc([S@@](=O)Cc2ccc(C(=O)OCCOC(=O)c3ccc(-c4c5nc(c(-c6c(F)c(F)c(F)c(F)c6F)c6ccc([nH]6)c(-c6c(F)c(F)c(F)c(F)c6F)c6nc(c(-c7c(F)c(F)c(F)c(F)c7F)c7ccc4[nH]7)C=C6)C=C5)cc3)o2)c1
REMARK SMILES IDX 18 1 17 2 15 3 16 4 14 5 11 6 12 7 86 8 13 9 10 10 8 11 9 12
REMARK SMILES IDX 7 13 1 14 2 15 3 16 87 17 4 18 5 19 6 20 19 21 20 22 21 23
REMARK SMILES IDX 22 24 23 25 24 26 85 27 25 28 84 29 26 30 27 31 28 32 78 33
REMARK SMILES IDX 29 34 83 35 77 36 79 37 30 38 82 39 76 40 75 41 31 43 63 44
REMARK SMILES IDX 43 45 62 46 44 47 47 48 61 49 80 50 45 51 46 52 60 54 81 55
REMARK SMILES IDX 48 56 32 57 33 58 41 59 34 60 35 61 39 62 42 63 36 64 37 65
REMARK SMILES IDX 40 66 38 67 64 68 65 69 73 70 66 71 67 72 71 73 74 74 68 75
REMARK SMILES IDX 69 76 72 77 70 78 49 79 50 80 58 81 51 82 52 83 56 84 59 85
REMARK SMILES IDX 53 86 54 87 57 88 55 89
REMARK H PARENT 79 42 47 53
REMARK Flexibility Score: inf
ROOT
ATOM      1  C   UNL A   1      34.089  34.259  28.612  1.00  0.00     0.275 C 
ENDROOT
BRANCH   1   2
ATOM      2  O   UNL A   1      33.251  34.496  29.758  1.00  0.00    -0.456 OA
BRANCH   2   3
ATOM      3  C   UNL A   1      32.900  35.799  29.991  1.00  0.00     0.374 C 
ATOM      4  O   UNL A   1      32.256  36.489  29.222  1.00  0.00    -0.242 OA
BRANCH   3   5
ATOM      5  C   UNL A   1      33.304  36.166  31.332  1.00  0.00     0.211 A 
ATOM      6  C   UNL A   1      34.333  35.799  33.259  1.00  0.00     0.117 A 
ATOM      7  C   UNL A   1      34.027  37.145  33.216  1.00  0.00     0.047 A 
ATOM      8  O   UNL A   1      33.847  35.195  32.134  1.00  0.00    -0.453 OA
ATOM      9  C   UNL A   1      33.363  37.378  31.988  1.00  0.00     0.058 A 
BRANCH   6  10
ATOM     10  C   UNL A   1      35.203  34.954  34.123  1.00  0.00     0.185 C 
BRANCH  10  11
ATOM     11  S   UNL A   1      35.668  33.313  33.527  1.00  0.00     0.061 S 
ATOM     12  O   UNL A   1      36.277  32.524  34.649  1.00  0.00    -0.254 OA
BRANCH  11  13
ATOM     13  C   UNL A   1      36.998  33.653  32.359  1.00  0.00     0.040 A 
ATOM     14  C   UNL A   1      40.675  34.632  32.302  1.00  0.00     0.044 C 
ATOM     15  C   UNL A   1      39.288  34.289  31.842  1.00  0.00    -0.050 A 
ATOM     16  C   UNL A   1      39.043  34.047  30.485  1.00  0.00     0.007 A 
ATOM     17  C   UNL A   1      38.240  34.155  32.762  1.00  0.00     0.021 A 
ATOM     18  C   UNL A   1      37.773  33.654  30.048  1.00  0.00    -0.050 A 
ATOM     19  C   UNL A   1      37.515  33.421  28.589  1.00  0.00     0.044 C 
ATOM     20  C   UNL A   1      36.768  33.431  30.995  1.00  0.00     0.021 A 
ENDBRANCH  11  13
ENDBRANCH  10  11
ENDBRANCH   6  10
ENDBRANCH   3   5
ENDBRANCH   2   3
ENDBRANCH   1   2
BRANCH   1  21
ATOM     21  C   UNL A   1      33.693  32.966  27.888  1.00  0.00     0.275 C 
BRANCH  21  22
ATOM     22  O   UNL A   1      34.160  31.796  28.589  1.00  0.00    -0.458 OA
BRANCH  22  23
ATOM     23  C   UNL A   1      34.465  30.734  27.805  1.00  0.00     0.338 C 
ATOM     24  O   UNL A   1      33.835  30.336  26.838  1.00  0.00    -0.246 OA
BRANCH  23  25
ATOM     25  C   UNL A   1      35.775  30.170  28.190  1.00  0.00     0.060 A 
ATOM     26  C   UNL A   1      35.907  29.694  29.497  1.00  0.00     0.016 A 
ATOM     27  C   UNL A   1      36.870  30.149  27.323  1.00  0.00     0.016 A 
ATOM     28  C   UNL A   1      37.127  29.197  29.947  1.00  0.00     0.010 A 
ATOM     29  C   UNL A   1      38.103  29.660  27.779  1.00  0.00     0.010 A 
ATOM     30  C   UNL A   1      38.240  29.195  29.098  1.00  0.00    -0.014 A 
BRANCH  30  31
ATOM     31  C   UNL A   1      39.551  28.769  29.647  1.00  0.00     0.031 A 
ATOM     32  C   UNL A   1      40.100  29.441  30.872  1.00  0.00     0.074 A 
ATOM     33  C   UNL A   1      40.204  27.727  29.102  1.00  0.00     0.049 A 
ATOM     34  N   UNL A   1      41.185  29.168  31.554  1.00  0.00    -0.248 NA
ATOM     35  C   UNL A   1      39.322  30.569  31.406  1.00  0.00     0.031 C 
ATOM     36  C   UNL A   1      39.758  26.975  27.930  1.00  0.00     0.029 A 
ATOM     37  N   UNL A   1      41.373  27.112  29.474  1.00  0.00    -0.354 N 
ATOM     38  C   UNL A   1      41.221  30.087  32.593  1.00  0.00     0.074 A 
ATOM     39  C   UNL A   1      40.063  30.944  32.439  1.00  0.00     0.031 C 
ATOM     40  C   UNL A   1      40.636  25.987  27.687  1.00  0.00     0.029 A 
ATOM     41  C   UNL A   1      41.714  26.051  28.674  1.00  0.00     0.049 A 
ATOM     42  H   UNL A   1      41.915  27.405  30.241  1.00  0.00     0.167 HD
ATOM     43  C   UNL A   1      42.130  30.201  33.589  1.00  0.00     0.037 A 
ATOM     44  C   UNL A   1      42.774  25.223  28.732  1.00  0.00     0.037 A 
ATOM     45  C   UNL A   1      43.280  29.349  33.749  1.00  0.00     0.049 A 
ATOM     46  C   UNL A   1      43.785  25.389  29.834  1.00  0.00     0.074 A 
ATOM     47  C   UNL A   1      44.254  29.386  34.731  1.00  0.00     0.029 A 
ATOM     48  N   UNL A   1      43.609  28.304  32.899  1.00  0.00    -0.354 N 
ATOM     49  N   UNL A   1      43.799  26.250  30.823  1.00  0.00    -0.248 NA
ATOM     50  C   UNL A   1      44.924  24.460  29.832  1.00  0.00     0.031 C 
ATOM     51  C   UNL A   1      45.193  28.384  34.457  1.00  0.00     0.029 A 
ATOM     52  C   UNL A   1      44.781  27.698  33.326  1.00  0.00     0.049 A 
ATOM     53  H   UNL A   1      43.088  28.033  32.109  1.00  0.00     0.167 HD
ATOM     54  C   UNL A   1      44.933  25.957  31.568  1.00  0.00     0.074 A 
ATOM     55  C   UNL A   1      45.573  24.825  30.929  1.00  0.00     0.031 C 
ATOM     56  C   UNL A   1      45.405  26.573  32.680  1.00  0.00     0.037 A 
BRANCH  43  57
ATOM     57  C   UNL A   1      41.926  31.309  34.579  1.00  0.00     0.064 A 
ATOM     58  C   UNL A   1      41.050  31.170  35.665  1.00  0.00     0.173 A 
ATOM     59  C   UNL A   1      42.633  32.513  34.453  1.00  0.00     0.173 A 
ATOM     60  F   UNL A   1      40.339  30.043  35.821  1.00  0.00    -0.203 F 
ATOM     61  C   UNL A   1      40.871  32.208  36.577  1.00  0.00     0.198 A 
ATOM     62  C   UNL A   1      42.469  33.540  35.378  1.00  0.00     0.198 A 
ATOM     63  F   UNL A   1      43.484  32.693  33.431  1.00  0.00    -0.203 F 
ATOM     64  F   UNL A   1      39.997  32.071  37.583  1.00  0.00    -0.200 F 
ATOM     65  C   UNL A   1      41.584  33.390  36.435  1.00  0.00     0.200 A 
ATOM     66  F   UNL A   1      43.164  34.679  35.244  1.00  0.00    -0.200 F 
ATOM     67  F   UNL A   1      41.411  34.386  37.313  1.00  0.00    -0.200 F 
ENDBRANCH  43  57
BRANCH  44  68
ATOM     68  C   UNL A   1      42.930  24.152  27.716  1.00  0.00     0.064 A 
ATOM     69  C   UNL A   1      43.518  24.415  26.471  1.00  0.00     0.173 A 
ATOM     70  C   UNL A   1      42.481  22.847  27.965  1.00  0.00     0.173 A 
ATOM     71  F   UNL A   1      43.934  25.656  26.176  1.00  0.00    -0.203 F 
ATOM     72  C   UNL A   1      43.637  23.415  25.507  1.00  0.00     0.198 A 
ATOM     73  C   UNL A   1      42.623  21.843  27.012  1.00  0.00     0.198 A 
ATOM     74  F   UNL A   1      41.906  22.549  29.140  1.00  0.00    -0.203 F 
ATOM     75  F   UNL A   1      44.161  23.703  24.308  1.00  0.00    -0.200 F 
ATOM     76  C   UNL A   1      43.195  22.129  25.781  1.00  0.00     0.200 A 
ATOM     77  F   UNL A   1      42.199  20.600  27.280  1.00  0.00    -0.200 F 
ATOM     78  F   UNL A   1      43.309  21.169  24.853  1.00  0.00    -0.200 F 
ENDBRANCH  44  68
BRANCH  56  79
ATOM     79  C   UNL A   1      46.661  26.020  33.286  1.00  0.00     0.064 A 
ATOM     80  C   UNL A   1      46.625  24.968  34.212  1.00  0.00     0.173 A 
ATOM     81  C   UNL A   1      47.914  26.535  32.921  1.00  0.00     0.173 A 
ATOM     82  F   UNL A   1      45.450  24.452  34.603  1.00  0.00    -0.203 F 
ATOM     83  C   UNL A   1      47.798  24.469  34.774  1.00  0.00     0.198 A 
ATOM     84  C   UNL A   1      49.086  26.017  33.467  1.00  0.00     0.198 A 
ATOM     85  F   UNL A   1      48.002  27.537  32.035  1.00  0.00    -0.203 F 
ATOM     86  F   UNL A   1      47.737  23.495  35.693  1.00  0.00    -0.200 F 
ATOM     87  C   UNL A   1      49.027  24.991  34.398  1.00  0.00     0.200 A 
ATOM     88  F   UNL A   1      50.273  26.516  33.097  1.00  0.00    -0.200 F 
ATOM     89  F   UNL A   1      50.155  24.511  34.941  1.00  0.00    -0.200 F 
ENDBRANCH  56  79
ENDBRANCH  30  31
ENDBRANCH  23  25
ENDBRANCH  22  23
ENDBRANCH  21  22
ENDBRANCH   1  21
TORSDOF 14
ENDMDL
MODEL 3
REMARK VINA RESULT:     -10.7      4.995     10.772
REMARK SMILES Cc1cc(C)cc([S@@](=O)Cc2ccc(C(=O)OCCOC(=O)c3ccc(-c4c5nc(c(-c6c(F)c(F)c(F)c(F)c6F)c6ccc([nH]6)c(-c6c(F)c(F)c(F)c(F)c6F)c6nc(c(-c7c(F)c(F)c(F)c(F)c7F)c7ccc4[nH]7)C=C6)C=C5)cc3)o2)c1
REMARK SMILES IDX 18 1 17 2 15 3 16 4 14 5 11 6 12 7 86 8 13 9 10 10 8 11 9 12
REMARK SMILES IDX 7 13 1 14 2 15 3 16 87 17 4 18 5 19 6 20 19 21 20 22 21 23
REMARK SMILES IDX 22 24 23 25 24 26 85 27 25 28 84 29 26 30 27 31 28 32 78 33
REMARK SMILES IDX 29 34 83 35 77 36 79 37 30 38 82 39 76 40 75 41 31 43 63 44
REMARK SMILES IDX 43 45 62 46 44 47 47 48 61 49 80 50 45 51 46 52 60 54 81 55
REMARK SMILES IDX 48 56 32 57 33 58 41 59 34 60 35 61 39 62 42 63 36 64 37 65
REMARK SMILES IDX 40 66 38 67 64 68 65 69 73 70 66 71 67 72 71 73 74 74 68 75
REMARK SMILES IDX 69 76 72 77 70 78 49 79 50 80 58 81 51 82 52 83 56 84 59 85
REMARK SMILES IDX 53 86 54 87 57 88 55 89
REMARK H PARENT 79 42 47 53
REMARK Flexibility Score: inf
ROOT
ATOM      1  C   UNL A   1      42.848  21.335  25.952  1.00  0.00     0.275 C 
ENDROOT
BRANCH   1   2
ATOM      2  O   UNL A   1      41.480  21.600  25.593  1.00  0.00    -0.456 OA
BRANCH   2   3
ATOM      3  C   UNL A   1      40.555  21.456  26.593  1.00  0.00     0.374 C 
ATOM      4  O   UNL A   1      40.763  20.886  27.650  1.00  0.00    -0.242 OA
BRANCH   3   5
ATOM      5  C   UNL A   1      39.360  22.192  26.242  1.00  0.00     0.211 A 
ATOM      6  C   UNL A   1      37.262  22.344  25.546  1.00  0.00     0.117 A 
ATOM      7  C   UNL A   1      37.597  23.570  26.085  1.00  0.00     0.047 A 
ATOM      8  O   UNL A   1      38.352  21.522  25.596  1.00  0.00    -0.453 OA
ATOM      9  C   UNL A   1      38.939  23.475  26.523  1.00  0.00     0.058 A 
BRANCH   6  10
ATOM     10  C   UNL A   1      35.985  21.700  25.130  1.00  0.00     0.185 C 
BRANCH  10  11
ATOM     11  S   UNL A   1      34.967  22.532  23.892  1.00  0.00     0.061 S 
ATOM     12  O   UNL A   1      35.834  23.406  23.033  1.00  0.00    -0.254 OA
BRANCH  11  13
ATOM     13  C   UNL A   1      33.936  23.640  24.873  1.00  0.00     0.040 A 
ATOM     14  C   UNL A   1      33.719  27.293  25.915  1.00  0.00     0.044 C 
ATOM     15  C   UNL A   1      33.419  25.827  25.802  1.00  0.00    -0.050 A 
ATOM     16  C   UNL A   1      32.219  25.319  26.314  1.00  0.00     0.007 A 
ATOM     17  C   UNL A   1      34.303  24.962  25.143  1.00  0.00     0.021 A 
ATOM     18  C   UNL A   1      31.889  23.969  26.153  1.00  0.00    -0.050 A 
ATOM     19  C   UNL A   1      30.612  23.431  26.727  1.00  0.00     0.044 C 
ATOM     20  C   UNL A   1      32.739  23.147  25.406  1.00  0.00     0.021 A 
ENDBRANCH  11  13
ENDBRANCH  10  11
ENDBRANCH   6  10
ENDBRANCH   3   5
ENDBRANCH   2   3
ENDBRANCH   1   2
BRANCH   1  21
ATOM     21  C   UNL A   1      43.820  22.140  25.080  1.00  0.00     0.275 C 
BRANCH  21  22
ATOM     22  O   UNL A   1      43.286  23.434  24.737  1.00  0.00    -0.458 OA
BRANCH  22  23
ATOM     23  C   UNL A   1      44.042  24.492  25.117  1.00  0.00     0.338 C 
ATOM     24  O   UNL A   1      45.084  24.867  24.603  1.00  0.00    -0.246 OA
BRANCH  23  25
ATOM     25  C   UNL A   1      43.364  25.251  26.188  1.00  0.00     0.060 A 
ATOM     26  C   UNL A   1      43.858  26.526  26.479  1.00  0.00     0.016 A 
ATOM     27  C   UNL A   1      42.306  24.724  26.932  1.00  0.00     0.016 A 
ATOM     28  C   UNL A   1      43.304  27.278  27.511  1.00  0.00     0.010 A 
ATOM     29  C   UNL A   1      41.755  25.475  27.979  1.00  0.00     0.010 A 
ATOM     30  C   UNL A   1      42.261  26.750  28.283  1.00  0.00    -0.014 A 
BRANCH  30  31
ATOM     31  C   UNL A   1      41.775  27.531  29.447  1.00  0.00     0.031 A 
ATOM     32  C   UNL A   1      42.532  27.486  30.743  1.00  0.00     0.074 A 
ATOM     33  C   UNL A   1      40.710  28.342  29.317  1.00  0.00     0.049 A 
ATOM     34  N   UNL A   1      42.321  28.152  31.851  1.00  0.00    -0.248 NA
ATOM     35  C   UNL A   1      43.686  26.576  30.798  1.00  0.00     0.031 C 
ATOM     36  C   UNL A   1      39.911  28.495  28.103  1.00  0.00     0.029 A 
ATOM     37  N   UNL A   1      40.130  29.204  30.215  1.00  0.00    -0.354 N 
ATOM     38  C   UNL A   1      43.310  27.740  32.733  1.00  0.00     0.074 A 
ATOM     39  C   UNL A   1      44.107  26.749  32.042  1.00  0.00     0.031 C 
ATOM     40  C   UNL A   1      38.951  29.408  28.325  1.00  0.00     0.029 A 
ATOM     41  C   UNL A   1      39.058  29.889  29.702  1.00  0.00     0.049 A 
ATOM     42  H   UNL A   1      40.452  29.319  31.137  1.00  0.00     0.167 HD
ATOM     43  C   UNL A   1      43.538  28.157  34.002  1.00  0.00     0.037 A 
ATOM     44  C   UNL A   1      38.254  30.803  30.278  1.00  0.00     0.037 A 
ATOM     45  C   UNL A   1      42.750  29.146  34.691  1.00  0.00     0.049 A 
ATOM     46  C   UNL A   1      38.513  31.229  31.697  1.00  0.00     0.074 A 
ATOM     47  C   UNL A   1      42.909  29.636  35.976  1.00  0.00     0.029 A 
ATOM     48  N   UNL A   1      41.652  29.795  34.150  1.00  0.00    -0.354 N 
ATOM     49  N   UNL A   1      39.462  30.848  32.516  1.00  0.00    -0.248 NA
ATOM     50  C   UNL A   1      37.591  32.221  32.269  1.00  0.00     0.031 C 
ATOM     51  C   UNL A   1      41.886  30.558  36.224  1.00  0.00     0.029 A 
ATOM     52  C   UNL A   1      41.113  30.671  35.080  1.00  0.00     0.049 A 
ATOM     53  H   UNL A   1      41.305  29.655  33.239  1.00  0.00     0.167 HD
ATOM     54  C   UNL A   1      39.265  31.563  33.690  1.00  0.00     0.074 A 
ATOM     55  C   UNL A   1      38.115  32.417  33.470  1.00  0.00     0.031 C 
ATOM     56  C   UNL A   1      39.969  31.514  34.847  1.00  0.00     0.037 A 
BRANCH  43  57
ATOM     57  C   UNL A   1      44.682  27.525  34.736  1.00  0.00     0.064 A 
ATOM     58  C   UNL A   1      45.944  28.133  34.792  1.00  0.00     0.173 A 
ATOM     59  C   UNL A   1      44.507  26.307  35.408  1.00  0.00     0.173 A 
ATOM     60  F   UNL A   1      46.166  29.291  34.151  1.00  0.00    -0.203 F 
ATOM     61  C   UNL A   1      46.997  27.533  35.478  1.00  0.00     0.198 A 
ATOM     62  C   UNL A   1      45.556  25.721  36.112  1.00  0.00     0.198 A 
ATOM     63  F   UNL A   1      43.318  25.687  35.384  1.00  0.00    -0.203 F 
ATOM     64  F   UNL A   1      48.206  28.110  35.485  1.00  0.00    -0.200 F 
ATOM     65  C   UNL A   1      46.801  26.330  36.141  1.00  0.00     0.200 A 
ATOM     66  F   UNL A   1      45.362  24.562  36.758  1.00  0.00    -0.200 F 
ATOM     67  F   UNL A   1      47.814  25.755  36.801  1.00  0.00    -0.200 F 
ENDBRANCH  43  57
BRANCH  44  68
ATOM     68  C   UNL A   1      37.128  31.386  29.505  1.00  0.00     0.064 A 
ATOM     69  C   UNL A   1      37.139  32.732  29.113  1.00  0.00     0.173 A 
ATOM     70  C   UNL A   1      36.011  30.613  29.158  1.00  0.00     0.173 A 
ATOM     71  F   UNL A   1      38.173  33.518  29.450  1.00  0.00    -0.203 F 
ATOM     72  C   UNL A   1      36.069  33.285  28.413  1.00  0.00     0.198 A 
ATOM     73  C   UNL A   1      34.953  31.160  28.438  1.00  0.00     0.198 A 
ATOM     74  F   UNL A   1      35.951  29.321  29.517  1.00  0.00    -0.203 F 
ATOM     75  F   UNL A   1      36.083  34.586  28.090  1.00  0.00    -0.200 F 
ATOM     76  C   UNL A   1      34.980  32.497  28.072  1.00  0.00     0.200 A 
ATOM     77  F   UNL A   1      33.904  30.395  28.105  1.00  0.00    -0.200 F 
ATOM     78  F   UNL A   1      33.949  33.031  27.401  1.00  0.00    -0.200 F 
ENDBRANCH  44  68
BRANCH  56  79
ATOM     79  C   UNL A   1      39.527  32.424  35.955  1.00  0.00     0.064 A 
ATOM     80  C   UNL A   1      38.549  32.031  36.880  1.00  0.00     0.173 A 
ATOM     81  C   UNL A   1      40.102  33.695  36.104  1.00  0.00     0.173 A 
ATOM     82  F   UNL A   1      37.961  30.831  36.770  1.00  0.00    -0.203 F 
ATOM     83  C   UNL A   1      38.142  32.889  37.899  1.00  0.00     0.198 A 
ATOM     84  C   UNL A   1      39.709  34.540  37.138  1.00  0.00     0.198 A 
ATOM     85  F   UNL A   1      41.045  34.116  35.249  1.00  0.00    -0.203 F 
ATOM     86  F   UNL A   1      37.172  32.510  38.743  1.00  0.00    -0.200 F 
ATOM     87  C   UNL A   1      38.724  34.140  38.029  1.00  0.00     0.200 A 
ATOM     88  F   UNL A   1      40.279  35.746  37.269  1.00  0.00    -0.200 F 
ATOM     89  F   UNL A   1      38.330  34.966  39.009  1.00  0.00    -0.200 F 
ENDBRANCH  56  79
ENDBRANCH  30  31
ENDBRANCH  23  25
ENDBRANCH  22  23
ENDBRANCH  21  22
ENDBRANCH   1  21
TORSDOF 14
ENDMDL
