MODEL 1
REMARK VINA RESULT:     -12.8      0.000      0.000
REMARK SMILES C[C@@H](C(=O)OCCOC(=O)c1ccc(-c2c3nc(c(-c4c(F)c(F)c(F)c(F)c4F)c4ccc([nH]4)c(-c4c(F)c(F)c(F)c(F)c4F)c4nc(c(-c5c(F)c(F)c(F)c(F)c5F)c5ccc2[nH]5)C=C4)C=C3)cc1)N(C)C(=O)NC[C@H]1C[N@@H+]2CCC[C@@H]2CO1
REMARK SMILES IDX 6 1 5 2 3 3 4 4 2 5 1 6 74 7 75 8 76 9 77 10 78 11 79 13
REMARK SMILES IDX 80 14 81 15 88 16 82 17 87 18 83 19 86 20 84 22 85 23 7 24
REMARK SMILES IDX 8 25 9 26 10 27 11 28 12 29 73 30 13 31 72 32 14 33 15 34
REMARK SMILES IDX 16 35 66 36 17 37 71 38 65 39 67 40 18 41 70 42 64 43 63 44
REMARK SMILES IDX 19 46 51 47 31 48 50 49 32 50 35 51 49 52 68 53 33 54 34 55
REMARK SMILES IDX 48 57 69 58 36 59 20 60 21 61 29 62 22 63 23 64 27 65 30 66
REMARK SMILES IDX 24 67 25 68 28 69 26 70 52 71 53 72 61 73 54 74 55 75 59 76
REMARK SMILES IDX 62 77 56 78 57 79 60 80 58 81 37 82 38 83 46 84 39 85 40 86
REMARK SMILES IDX 44 87 47 88 41 89 42 90 45 91 43 92
REMARK H PARENT 78 12 82 21 67 45 35 56
REMARK Flexibility Score: inf
ROOT
ATOM      1  C   UNL A   1      30.701  29.055  24.073  1.00  0.00     0.274 C 
ENDROOT
BRANCH   1   2
ATOM      2  O   UNL A   1      30.426  27.636  23.977  1.00  0.00    -0.461 OA
BRANCH   2   3
ATOM      3  C   UNL A   1      30.850  26.972  22.862  1.00  0.00     0.328 C 
ATOM      4  O   UNL A   1      30.684  27.380  21.716  1.00  0.00    -0.250 OA
BRANCH   3   5
ATOM      5  C   UNL A   1      31.505  25.595  23.194  1.00  0.00     0.193 C 
ATOM      6  C   UNL A   1      30.493  24.589  23.752  1.00  0.00     0.044 C 
BRANCH   5   7
ATOM      7  N   UNL A   1      32.806  25.750  23.946  1.00  0.00    -0.314 N 
ATOM      8  C   UNL A   1      33.881  26.321  23.160  1.00  0.00     0.149 C 
BRANCH   7   9
ATOM      9  C   UNL A   1      32.971  25.381  25.262  1.00  0.00     0.317 C 
ATOM     10  O   UNL A   1      32.410  25.964  26.191  1.00  0.00    -0.249 OA
ATOM     11  N   UNL A   1      33.845  24.401  25.640  1.00  0.00    -0.335 N 
ATOM     12  H   UNL A   1      33.724  24.156  26.586  1.00  0.00     0.165 HD
BRANCH  11  13
ATOM     13  C   UNL A   1      34.921  23.608  25.013  1.00  0.00     0.155 C 
BRANCH  13  14
ATOM     14  C   UNL A   1      34.736  22.121  24.414  1.00  0.00     0.192 C 
ATOM     15  C   UNL A   1      35.397  20.309  25.003  1.00  0.00     0.296 C 
ATOM     16  O   UNL A   1      33.126  22.253  23.542  1.00  0.00    -0.364 OA
ATOM     17  N   UNL A   1      34.369  18.793  24.611  1.00  0.00    -0.328 N 
ATOM     18  C   UNL A   1      32.148  20.797  22.966  1.00  0.00     0.225 C 
ATOM     19  C   UNL A   1      34.869  17.457  24.487  1.00  0.00     0.262 C 
ATOM     20  C   UNL A   1      32.773  18.936  23.611  1.00  0.00     0.210 C 
ATOM     21  H   UNL A   1      34.239  18.911  25.617  1.00  0.00     0.348 HD
ATOM     22  C   UNL A   1      33.677  16.700  23.858  1.00  0.00     0.068 C 
ATOM     23  C   UNL A   1      32.946  17.620  22.832  1.00  0.00     0.073 C 
ENDBRANCH  13  14
ENDBRANCH  11  13
ENDBRANCH   7   9
ENDBRANCH   5   7
ENDBRANCH   3   5
ENDBRANCH   2   3
ENDBRANCH   1   2
BRANCH   1  24
ATOM     24  C   UNL A   1      32.163  29.294  24.477  1.00  0.00     0.275 C 
BRANCH  24  25
ATOM     25  O   UNL A   1      32.260  29.300  25.917  1.00  0.00    -0.458 OA
BRANCH  25  26
ATOM     26  C   UNL A   1      32.395  30.505  26.540  1.00  0.00     0.338 C 
ATOM     27  O   UNL A   1      31.540  31.358  26.697  1.00  0.00    -0.246 OA
BRANCH  26  28
ATOM     28  C   UNL A   1      33.711  30.505  27.217  1.00  0.00     0.060 A 
ATOM     29  C   UNL A   1      34.245  31.751  27.419  1.00  0.00     0.016 A 
ATOM     30  C   UNL A   1      34.422  29.404  27.689  1.00  0.00     0.016 A 
ATOM     31  C   UNL A   1      35.414  31.911  28.155  1.00  0.00     0.010 A 
ATOM     32  C   UNL A   1      35.611  29.594  28.462  1.00  0.00     0.010 A 
ATOM     33  C   UNL A   1      36.127  30.884  28.770  1.00  0.00    -0.014 A 
BRANCH  33  34
ATOM     34  C   UNL A   1      37.383  31.129  30.000  1.00  0.00     0.031 A 
ATOM     35  C   UNL A   1      38.439  29.913  29.119  1.00  0.00     0.074 A 
ATOM     36  C   UNL A   1      37.515  31.861  31.656  1.00  0.00     0.049 A 
ATOM     37  N   UNL A   1      39.223  29.008  29.696  1.00  0.00    -0.248 NA
ATOM     38  C   UNL A   1      38.479  29.770  27.651  1.00  0.00     0.031 C 
ATOM     39  C   UNL A   1      36.669  32.867  32.701  1.00  0.00     0.029 A 
ATOM     40  N   UNL A   1      38.466  31.635  32.858  1.00  0.00    -0.354 N 
ATOM     41  C   UNL A   1      39.997  28.424  28.753  1.00  0.00     0.074 A 
ATOM     42  C   UNL A   1      39.347  28.757  27.499  1.00  0.00     0.031 C 
ATOM     43  C   UNL A   1      37.163  33.011  33.938  1.00  0.00     0.029 A 
ATOM     44  C   UNL A   1      38.308  32.204  34.077  1.00  0.00     0.049 A 
ATOM     45  H   UNL A   1      39.237  31.038  32.726  1.00  0.00     0.167 HD
ATOM     46  C   UNL A   1      41.180  27.804  28.999  1.00  0.00     0.037 A 
ATOM     47  C   UNL A   1      39.027  31.933  35.182  1.00  0.00     0.037 A 
ATOM     48  C   UNL A   1      41.930  27.833  30.272  1.00  0.00     0.049 A 
ATOM     49  C   UNL A   1      40.231  31.019  35.074  1.00  0.00     0.074 A 
ATOM     50  C   UNL A   1      43.187  27.288  30.494  1.00  0.00     0.029 A 
ATOM     51  N   UNL A   1      41.590  28.470  31.486  1.00  0.00    -0.354 N 
ATOM     52  N   UNL A   1      40.632  30.272  34.063  1.00  0.00    -0.248 NA
ATOM     53  C   UNL A   1      41.094  30.958  36.252  1.00  0.00     0.031 C 
ATOM     54  C   UNL A   1      43.578  27.546  31.811  1.00  0.00     0.029 A 
ATOM     55  C   UNL A   1      42.614  28.324  32.438  1.00  0.00     0.049 A 
ATOM     56  H   UNL A   1      40.747  28.953  31.644  1.00  0.00     0.167 HD
ATOM     57  C   UNL A   1      41.834  29.686  34.460  1.00  0.00     0.074 A 
ATOM     58  C   UNL A   1      42.068  30.172  35.818  1.00  0.00     0.031 C 
ATOM     59  C   UNL A   1      42.695  28.851  33.804  1.00  0.00     0.037 A 
BRANCH  46  60
ATOM     60  C   UNL A   1      41.760  27.026  27.856  1.00  0.00     0.064 A 
ATOM     61  C   UNL A   1      42.666  27.568  26.935  1.00  0.00     0.173 A 
ATOM     62  C   UNL A   1      41.401  25.676  27.704  1.00  0.00     0.173 A 
ATOM     63  F   UNL A   1      43.061  28.845  27.045  1.00  0.00    -0.203 F 
ATOM     64  C   UNL A   1      43.146  26.805  25.874  1.00  0.00     0.198 A 
ATOM     65  C   UNL A   1      41.915  24.905  26.667  1.00  0.00     0.198 A 
ATOM     66  F   UNL A   1      40.561  25.096  28.576  1.00  0.00    -0.203 F 
ATOM     67  F   UNL A   1      43.962  27.362  24.968  1.00  0.00    -0.200 F 
ATOM     68  C   UNL A   1      42.774  25.475  25.742  1.00  0.00     0.200 A 
ATOM     69  F   UNL A   1      41.578  23.611  26.565  1.00  0.00    -0.200 F 
ATOM     70  F   UNL A   1      43.242  24.742  24.722  1.00  0.00    -0.200 F 
ENDBRANCH  46  60
BRANCH  47  71
ATOM     71  C   UNL A   1      38.581  32.548  36.450  1.00  0.00     0.064 A 
ATOM     72  C   UNL A   1      37.947  31.792  37.442  1.00  0.00     0.173 A 
ATOM     73  C   UNL A   1      38.952  33.866  36.757  1.00  0.00     0.173 A 
ATOM     74  F   UNL A   1      37.565  30.534  37.182  1.00  0.00    -0.203 F 
ATOM     75  C   UNL A   1      37.727  32.324  38.710  1.00  0.00     0.198 A 
ATOM     76  C   UNL A   1      38.754  34.387  38.032  1.00  0.00     0.198 A 
ATOM     77  F   UNL A   1      39.573  34.619  35.837  1.00  0.00    -0.203 F 
ATOM     78  F   UNL A   1      37.134  31.577  39.652  1.00  0.00    -0.200 F 
ATOM     79  C   UNL A   1      38.149  33.612  39.010  1.00  0.00     0.200 A 
ATOM     80  F   UNL A   1      39.188  35.620  38.325  1.00  0.00    -0.200 F 
ATOM     81  F   UNL A   1      37.990  34.100  40.248  1.00  0.00    -0.200 F 
ENDBRANCH  47  71
BRANCH  59  82
ATOM     82  C   UNL A   1      43.934  28.470  34.611  1.00  0.00     0.064 A 
ATOM     83  C   UNL A   1      43.971  27.314  35.412  1.00  0.00     0.173 A 
ATOM     84  C   UNL A   1      45.080  29.287  34.614  1.00  0.00     0.173 A 
ATOM     85  F   UNL A   1      42.897  26.512  35.481  1.00  0.00    -0.203 F 
ATOM     86  C   UNL A   1      45.075  27.019  36.212  1.00  0.00     0.198 A 
ATOM     87  C   UNL A   1      46.201  28.965  35.381  1.00  0.00     0.198 A 
ATOM     88  F   UNL A   1      45.114  30.404  33.872  1.00  0.00    -0.203 F 
ATOM     89  F   UNL A   1      45.045  25.958  37.031  1.00  0.00    -0.200 F 
ATOM     90  C   UNL A   1      46.191  27.840  36.191  1.00  0.00     0.200 A 
ATOM     91  F   UNL A   1      47.284  29.754  35.351  1.00  0.00    -0.200 F 
ATOM     92  F   UNL A   1      47.249  27.558  36.965  1.00  0.00    -0.200 F 
ENDBRANCH  59  82
ENDBRANCH  33  34
ENDBRANCH  26  28
ENDBRANCH  25  26
ENDBRANCH  24  25
ENDBRANCH   1  24
TORSDOF 15
ENDMDL
MODEL 2
REMARK VINA RESULT:     -12.3      0.799      1.505
REMARK SMILES C[C@@H](C(=O)OCCOC(=O)c1ccc(-c2c3nc(c(-c4c(F)c(F)c(F)c(F)c4F)c4ccc([nH]4)c(-c4c(F)c(F)c(F)c(F)c4F)c4nc(c(-c5c(F)c(F)c(F)c(F)c5F)c5ccc2[nH]5)C=C4)C=C3)cc1)N(C)C(=O)NC[C@H]1C[N@@H+]2CCC[C@@H]2CO1
REMARK SMILES IDX 6 1 5 2 3 3 4 4 2 5 1 6 74 7 75 8 76 9 77 10 78 11 79 13
REMARK SMILES IDX 80 14 81 15 88 16 82 17 87 18 83 19 86 20 84 22 85 23 7 24
REMARK SMILES IDX 8 25 9 26 10 27 11 28 12 29 73 30 13 31 72 32 14 33 15 34
REMARK SMILES IDX 16 35 66 36 17 37 71 38 65 39 67 40 18 41 70 42 64 43 63 44
REMARK SMILES IDX 19 46 51 47 31 48 50 49 32 50 35 51 49 52 68 53 33 54 34 55
REMARK SMILES IDX 48 57 69 58 36 59 20 60 21 61 29 62 22 63 23 64 27 65 30 66
REMARK SMILES IDX 24 67 25 68 28 69 26 70 52 71 53 72 61 73 54 74 55 75 59 76
REMARK SMILES IDX 62 77 56 78 57 79 60 80 58 81 37 82 38 83 46 84 39 85 40 86
REMARK SMILES IDX 44 87 47 88 41 89 42 90 45 91 43 92
REMARK H PARENT 78 12 82 21 67 45 35 56
REMARK Flexibility Score: inf
ROOT
ATOM      1  C   UNL A   1      30.653  28.655  24.104  1.00  0.00     0.274 C 
ENDROOT
BRANCH   1   2
ATOM      2  O   UNL A   1      30.633  27.208  24.157  1.00  0.00    -0.461 OA
BRANCH   2   3
ATOM      3  C   UNL A   1      31.121  26.518  23.086  1.00  0.00     0.328 C 
ATOM      4  O   UNL A   1      30.965  26.864  21.918  1.00  0.00    -0.250 OA
BRANCH   3   5
ATOM      5  C   UNL A   1      31.838  25.195  23.498  1.00  0.00     0.193 C 
ATOM      6  C   UNL A   1      30.882  23.998  23.520  1.00  0.00     0.044 C 
BRANCH   5   7
ATOM      7  N   UNL A   1      32.732  25.383  24.701  1.00  0.00    -0.314 N 
ATOM      8  C   UNL A   1      33.928  26.158  24.436  1.00  0.00     0.149 C 
BRANCH   7   9
ATOM      9  C   UNL A   1      32.450  24.865  25.945  1.00  0.00     0.317 C 
ATOM     10  O   UNL A   1      31.654  25.396  26.721  1.00  0.00    -0.249 OA
ATOM     11  N   UNL A   1      33.106  23.775  26.447  1.00  0.00    -0.335 N 
ATOM     12  H   UNL A   1      32.677  23.445  27.269  1.00  0.00     0.165 HD
BRANCH  11  13
ATOM     13  C   UNL A   1      34.283  22.959  26.088  1.00  0.00     0.155 C 
BRANCH  13  14
ATOM     14  C   UNL A   1      34.310  21.345  26.073  1.00  0.00     0.192 C 
ATOM     15  C   UNL A   1      32.868  19.948  25.889  1.00  0.00     0.296 C 
ATOM     16  O   UNL A   1      35.993  20.992  25.433  1.00  0.00    -0.364 OA
ATOM     17  N   UNL A   1      33.290  18.301  25.103  1.00  0.00    -0.328 N 
ATOM     18  C   UNL A   1      36.530  19.339  24.811  1.00  0.00     0.225 C 
ATOM     19  C   UNL A   1      32.600  17.067  25.331  1.00  0.00     0.262 C 
ATOM     20  C   UNL A   1      35.057  17.913  24.556  1.00  0.00     0.210 C 
ATOM     21  H   UNL A   1      32.729  18.764  24.388  1.00  0.00     0.348 HD
ATOM     22  C   UNL A   1      33.547  16.020  24.700  1.00  0.00     0.068 C 
ATOM     23  C   UNL A   1      35.032  16.426  24.956  1.00  0.00     0.073 C 
ENDBRANCH  13  14
ENDBRANCH  11  13
ENDBRANCH   7   9
ENDBRANCH   5   7
ENDBRANCH   3   5
ENDBRANCH   2   3
ENDBRANCH   1   2
BRANCH   1  24
ATOM     24  C   UNL A   1      32.047  29.189  24.463  1.00  0.00     0.275 C 
BRANCH  24  25
ATOM     25  O   UNL A   1      32.175  29.247  25.900  1.00  0.00    -0.458 OA
BRANCH  25  26
ATOM     26  C   UNL A   1      32.337  30.473  26.474  1.00  0.00     0.338 C 
ATOM     27  O   UNL A   1      31.499  31.347  26.602  1.00  0.00    -0.246 OA
BRANCH  26  28
ATOM     28  C   UNL A   1      33.657  30.474  27.143  1.00  0.00     0.060 A 
ATOM     29  C   UNL A   1      34.182  31.722  27.359  1.00  0.00     0.016 A 
ATOM     30  C   UNL A   1      34.380  29.372  27.595  1.00  0.00     0.016 A 
ATOM     31  C   UNL A   1      35.354  31.880  28.091  1.00  0.00     0.010 A 
ATOM     32  C   UNL A   1      35.572  29.560  28.363  1.00  0.00     0.010 A 
ATOM     33  C   UNL A   1      36.080  30.851  28.686  1.00  0.00    -0.014 A 
BRANCH  33  34
ATOM     34  C   UNL A   1      37.341  31.088  29.913  1.00  0.00     0.031 A 
ATOM     35  C   UNL A   1      38.382  29.857  29.034  1.00  0.00     0.074 A 
ATOM     36  C   UNL A   1      37.485  31.826  31.565  1.00  0.00     0.049 A 
ATOM     37  N   UNL A   1      39.158  28.946  29.613  1.00  0.00    -0.248 NA
ATOM     38  C   UNL A   1      38.417  29.707  27.568  1.00  0.00     0.031 C 
ATOM     39  C   UNL A   1      36.651  32.846  32.607  1.00  0.00     0.029 A 
ATOM     40  N   UNL A   1      38.436  31.596  32.765  1.00  0.00    -0.354 N 
ATOM     41  C   UNL A   1      39.924  28.350  28.671  1.00  0.00     0.074 A 
ATOM     42  C   UNL A   1      39.274  28.685  27.417  1.00  0.00     0.031 C 
ATOM     43  C   UNL A   1      37.150  32.990  33.842  1.00  0.00     0.029 A 
ATOM     44  C   UNL A   1      38.287  32.172  33.982  1.00  0.00     0.049 A 
ATOM     45  H   UNL A   1      39.201  30.990  32.634  1.00  0.00     0.167 HD
ATOM     46  C   UNL A   1      41.100  27.720  28.918  1.00  0.00     0.037 A 
ATOM     47  C   UNL A   1      39.006  31.898  35.086  1.00  0.00     0.037 A 
ATOM     48  C   UNL A   1      41.854  27.746  30.189  1.00  0.00     0.049 A 
ATOM     49  C   UNL A   1      40.200  30.972  34.980  1.00  0.00     0.074 A 
ATOM     50  C   UNL A   1      43.106  27.190  30.409  1.00  0.00     0.029 A 
ATOM     51  N   UNL A   1      41.524  28.392  31.401  1.00  0.00    -0.354 N 
ATOM     52  N   UNL A   1      40.591  30.216  33.972  1.00  0.00    -0.248 NA
ATOM     53  C   UNL A   1      41.066  30.907  36.156  1.00  0.00     0.031 C 
ATOM     54  C   UNL A   1      43.503  27.449  31.724  1.00  0.00     0.029 A 
ATOM     55  C   UNL A   1      42.548  28.240  32.351  1.00  0.00     0.049 A 
ATOM     56  H   UNL A   1      40.686  28.885  31.559  1.00  0.00     0.167 HD
ATOM     57  C   UNL A   1      41.788  29.620  34.368  1.00  0.00     0.074 A 
ATOM     58  C   UNL A   1      42.030  30.109  35.723  1.00  0.00     0.031 C 
ATOM     59  C   UNL A   1      42.638  28.772  33.714  1.00  0.00     0.037 A 
BRANCH  46  60
ATOM     60  C   UNL A   1      41.670  26.931  27.777  1.00  0.00     0.064 A 
ATOM     61  C   UNL A   1      41.359  25.586  27.537  1.00  0.00     0.173 A 
ATOM     62  C   UNL A   1      42.545  27.570  26.881  1.00  0.00     0.173 A 
ATOM     63  F   UNL A   1      40.512  24.933  28.346  1.00  0.00    -0.203 F 
ATOM     64  C   UNL A   1      41.944  24.896  26.479  1.00  0.00     0.198 A 
ATOM     65  C   UNL A   1      43.095  26.889  25.801  1.00  0.00     0.198 A 
ATOM     66  F   UNL A   1      42.853  28.866  27.044  1.00  0.00    -0.203 F 
ATOM     67  F   UNL A   1      41.682  23.593  26.306  1.00  0.00    -0.200 F 
ATOM     68  C   UNL A   1      42.809  25.547  25.610  1.00  0.00     0.200 A 
ATOM     69  F   UNL A   1      43.903  27.531  24.946  1.00  0.00    -0.200 F 
ATOM     70  F   UNL A   1      43.367  24.881  24.590  1.00  0.00    -0.200 F 
ENDBRANCH  46  60
BRANCH  47  71
ATOM     71  C   UNL A   1      38.570  32.524  36.353  1.00  0.00     0.064 A 
ATOM     72  C   UNL A   1      37.931  31.779  37.351  1.00  0.00     0.173 A 
ATOM     73  C   UNL A   1      38.954  33.840  36.653  1.00  0.00     0.173 A 
ATOM     74  F   UNL A   1      37.537  30.524  37.098  1.00  0.00    -0.203 F 
ATOM     75  C   UNL A   1      37.720  32.319  38.617  1.00  0.00     0.198 A 
ATOM     76  C   UNL A   1      38.764  34.370  37.926  1.00  0.00     0.198 A 
ATOM     77  F   UNL A   1      39.579  34.582  35.727  1.00  0.00    -0.203 F 
ATOM     78  F   UNL A   1      37.123  31.583  39.564  1.00  0.00    -0.200 F 
ATOM     79  C   UNL A   1      38.155  33.604  38.909  1.00  0.00     0.200 A 
ATOM     80  F   UNL A   1      39.211  35.600  38.211  1.00  0.00    -0.200 F 
ATOM     81  F   UNL A   1      38.005  34.100  40.145  1.00  0.00    -0.200 F 
ENDBRANCH  47  71
BRANCH  59  82
ATOM     82  C   UNL A   1      43.876  28.382  34.520  1.00  0.00     0.064 A 
ATOM     83  C   UNL A   1      43.906  27.224  35.317  1.00  0.00     0.173 A 
ATOM     84  C   UNL A   1      45.025  29.193  34.525  1.00  0.00     0.173 A 
ATOM     85  F   UNL A   1      42.828  26.428  35.384  1.00  0.00    -0.203 F 
ATOM     86  C   UNL A   1      45.009  26.921  36.116  1.00  0.00     0.198 A 
ATOM     87  C   UNL A   1      46.145  28.863  35.291  1.00  0.00     0.198 A 
ATOM     88  F   UNL A   1      45.066  30.312  33.786  1.00  0.00    -0.203 F 
ATOM     89  F   UNL A   1      44.973  25.857  36.932  1.00  0.00    -0.200 F 
ATOM     90  C   UNL A   1      46.129  27.736  36.097  1.00  0.00     0.200 A 
ATOM     91  F   UNL A   1      47.233  29.647  35.263  1.00  0.00    -0.200 F 
ATOM     92  F   UNL A   1      47.186  27.446  36.870  1.00  0.00    -0.200 F 
ENDBRANCH  59  82
ENDBRANCH  33  34
ENDBRANCH  26  28
ENDBRANCH  25  26
ENDBRANCH  24  25
ENDBRANCH   1  24
TORSDOF 15
ENDMDL
MODEL 3
REMARK VINA RESULT:     -12.1      1.443      2.837
REMARK SMILES C[C@@H](C(=O)OCCOC(=O)c1ccc(-c2c3nc(c(-c4c(F)c(F)c(F)c(F)c4F)c4ccc([nH]4)c(-c4c(F)c(F)c(F)c(F)c4F)c4nc(c(-c5c(F)c(F)c(F)c(F)c5F)c5ccc2[nH]5)C=C4)C=C3)cc1)N(C)C(=O)NC[C@H]1C[N@@H+]2CCC[C@@H]2CO1
REMARK SMILES IDX 6 1 5 2 3 3 4 4 2 5 1 6 74 7 75 8 76 9 77 10 78 11 79 13
REMARK SMILES IDX 80 14 81 15 88 16 82 17 87 18 83 19 86 20 84 22 85 23 7 24
REMARK SMILES IDX 8 25 9 26 10 27 11 28 12 29 73 30 13 31 72 32 14 33 15 34
REMARK SMILES IDX 16 35 66 36 17 37 71 38 65 39 67 40 18 41 70 42 64 43 63 44
REMARK SMILES IDX 19 46 51 47 31 48 50 49 32 50 35 51 49 52 68 53 33 54 34 55
REMARK SMILES IDX 48 57 69 58 36 59 20 60 21 61 29 62 22 63 23 64 27 65 30 66
REMARK SMILES IDX 24 67 25 68 28 69 26 70 52 71 53 72 61 73 54 74 55 75 59 76
REMARK SMILES IDX 62 77 56 78 57 79 60 80 58 81 37 82 38 83 46 84 39 85 40 86
REMARK SMILES IDX 44 87 47 88 41 89 42 90 45 91 43 92
REMARK H PARENT 78 12 82 21 67 45 35 56
REMARK Flexibility Score: inf
ROOT
ATOM      1  C   UNL A   1      33.124  28.020  23.374  1.00  0.00     0.274 C 
ENDROOT
BRANCH   1   2
ATOM      2  O   UNL A   1      33.944  27.132  24.171  1.00  0.00    -0.461 OA
BRANCH   2   3
ATOM      3  C   UNL A   1      33.322  26.143  24.878  1.00  0.00     0.328 C 
ATOM      4  O   UNL A   1      33.774  25.647  25.906  1.00  0.00    -0.250 OA
BRANCH   3   5
ATOM      5  C   UNL A   1      32.005  25.655  24.199  1.00  0.00     0.193 C 
ATOM      6  C   UNL A   1      30.803  25.720  25.147  1.00  0.00     0.044 C 
BRANCH   5   7
ATOM      7  N   UNL A   1      32.203  24.371  23.428  1.00  0.00    -0.314 N 
ATOM      8  C   UNL A   1      31.068  23.472  23.472  1.00  0.00     0.149 C 
BRANCH   7   9
ATOM      9  C   UNL A   1      33.358  24.068  22.743  1.00  0.00     0.317 C 
ATOM     10  O   UNL A   1      33.609  24.526  21.627  1.00  0.00    -0.249 OA
ATOM     11  N   UNL A   1      34.266  23.160  23.211  1.00  0.00    -0.335 N 
ATOM     12  H   UNL A   1      35.099  23.180  22.686  1.00  0.00     0.165 HD
BRANCH  11  13
ATOM     13  C   UNL A   1      34.337  22.158  24.293  1.00  0.00     0.155 C 
BRANCH  13  14
ATOM     14  C   UNL A   1      35.682  21.765  25.094  1.00  0.00     0.192 C 
ATOM     15  C   UNL A   1      37.006  20.257  24.902  1.00  0.00     0.296 C 
ATOM     16  O   UNL A   1      36.259  23.397  25.704  1.00  0.00    -0.364 OA
ATOM     17  N   UNL A   1      38.791  20.543  25.390  1.00  0.00    -0.328 N 
ATOM     18  C   UNL A   1      37.953  23.705  26.370  1.00  0.00     0.225 C 
ATOM     19  C   UNL A   1      39.717  19.530  25.796  1.00  0.00     0.262 C 
ATOM     20  C   UNL A   1      39.342  22.194  26.126  1.00  0.00     0.210 C 
ATOM     21  H   UNL A   1      38.830  20.512  24.370  1.00  0.00     0.348 HD
ATOM     22  C   UNL A   1      40.896  20.349  26.371  1.00  0.00     0.068 C 
ATOM     23  C   UNL A   1      40.353  21.602  27.125  1.00  0.00     0.073 C 
ENDBRANCH  13  14
ENDBRANCH  11  13
ENDBRANCH   7   9
ENDBRANCH   5   7
ENDBRANCH   3   5
ENDBRANCH   2   3
ENDBRANCH   1   2
BRANCH   1  24
ATOM     24  C   UNL A   1      32.917  29.358  24.098  1.00  0.00     0.275 C 
BRANCH  24  25
ATOM     25  O   UNL A   1      32.613  29.102  25.486  1.00  0.00    -0.458 OA
BRANCH  25  26
ATOM     26  C   UNL A   1      32.578  30.169  26.335  1.00  0.00     0.338 C 
ATOM     27  O   UNL A   1      31.615  30.854  26.625  1.00  0.00    -0.246 OA
BRANCH  26  28
ATOM     28  C   UNL A   1      33.876  30.206  27.045  1.00  0.00     0.060 A 
ATOM     29  C   UNL A   1      34.356  31.468  27.282  1.00  0.00     0.016 A 
ATOM     30  C   UNL A   1      34.617  29.124  27.516  1.00  0.00     0.016 A 
ATOM     31  C   UNL A   1      35.499  31.658  28.051  1.00  0.00     0.010 A 
ATOM     32  C   UNL A   1      35.779  29.345  28.322  1.00  0.00     0.010 A 
ATOM     33  C   UNL A   1      36.237  30.649  28.665  1.00  0.00    -0.014 A 
BRANCH  33  34
ATOM     34  C   UNL A   1      37.451  30.918  29.931  1.00  0.00     0.031 A 
ATOM     35  C   UNL A   1      38.577  29.765  29.052  1.00  0.00     0.074 A 
ATOM     36  C   UNL A   1      37.514  31.621  31.604  1.00  0.00     0.049 A 
ATOM     37  N   UNL A   1      39.384  28.881  29.630  1.00  0.00    -0.248 NA
ATOM     38  C   UNL A   1      38.658  29.655  27.584  1.00  0.00     0.031 C 
ATOM     39  C   UNL A   1      36.601  32.570  32.647  1.00  0.00     0.029 A 
ATOM     40  N   UNL A   1      38.444  31.409  32.824  1.00  0.00    -0.354 N 
ATOM     41  C   UNL A   1      40.204  28.349  28.696  1.00  0.00     0.074 A 
ATOM     42  C   UNL A   1      39.571  28.681  27.433  1.00  0.00     0.031 C 
ATOM     43  C   UNL A   1      37.060  32.707  33.899  1.00  0.00     0.029 A 
ATOM     44  C   UNL A   1      38.233  31.945  34.050  1.00  0.00     0.049 A 
ATOM     45  H   UNL A   1      39.242  30.846  32.700  1.00  0.00     0.167 HD
ATOM     46  C   UNL A   1      41.404  27.773  28.959  1.00  0.00     0.037 A 
ATOM     47  C   UNL A   1      38.935  31.681  35.167  1.00  0.00     0.037 A 
ATOM     48  C   UNL A   1      42.122  27.805  30.251  1.00  0.00     0.049 A 
ATOM     49  C   UNL A   1      40.179  30.819  35.071  1.00  0.00     0.074 A 
ATOM     50  C   UNL A   1      43.395  27.308  30.492  1.00  0.00     0.029 A 
ATOM     51  N   UNL A   1      41.727  28.402  31.468  1.00  0.00    -0.354 N 
ATOM     52  N   UNL A   1      40.634  30.110  34.056  1.00  0.00    -0.248 NA
ATOM     53  C   UNL A   1      41.015  30.769  36.269  1.00  0.00     0.031 C 
ATOM     54  C   UNL A   1      43.744  27.553  31.824  1.00  0.00     0.029 A 
ATOM     55  C   UNL A   1      42.733  28.279  32.442  1.00  0.00     0.049 A 
ATOM     56  H   UNL A   1      40.861  28.848  31.615  1.00  0.00     0.167 HD
ATOM     57  C   UNL A   1      41.849  29.565  34.470  1.00  0.00     0.074 A 
ATOM     58  C   UNL A   1      42.031  30.032  35.843  1.00  0.00     0.031 C 
ATOM     59  C   UNL A   1      42.759  28.780  33.820  1.00  0.00     0.037 A 
BRANCH  46  60
ATOM     60  C   UNL A   1      42.043  27.043  27.816  1.00  0.00     0.064 A 
ATOM     61  C   UNL A   1      41.803  25.693  27.531  1.00  0.00     0.173 A 
ATOM     62  C   UNL A   1      42.913  27.746  26.964  1.00  0.00     0.173 A 
ATOM     63  F   UNL A   1      40.965  24.978  28.296  1.00  0.00    -0.203 F 
ATOM     64  C   UNL A   1      42.452  25.060  26.473  1.00  0.00     0.198 A 
ATOM     65  C   UNL A   1      43.527  27.122  25.884  1.00  0.00     0.198 A 
ATOM     66  F   UNL A   1      43.156  29.051  27.171  1.00  0.00    -0.203 F 
ATOM     67  F   UNL A   1      42.256  23.751  26.258  1.00  0.00    -0.200 F 
ATOM     68  C   UNL A   1      43.310  25.774  25.649  1.00  0.00     0.200 A 
ATOM     69  F   UNL A   1      44.328  27.825  25.072  1.00  0.00    -0.200 F 
ATOM     70  F   UNL A   1      43.928  25.164  24.630  1.00  0.00    -0.200 F 
ENDBRANCH  46  60
BRANCH  47  71
ATOM     71  C   UNL A   1      38.435  32.250  36.436  1.00  0.00     0.064 A 
ATOM     72  C   UNL A   1      37.765  31.459  37.375  1.00  0.00     0.173 A 
ATOM     73  C   UNL A   1      38.784  33.560  36.802  1.00  0.00     0.173 A 
ATOM     74  F   UNL A   1      37.403  30.208  37.059  1.00  0.00    -0.203 F 
ATOM     75  C   UNL A   1      37.491  31.947  38.650  1.00  0.00     0.198 A 
ATOM     76  C   UNL A   1      38.531  34.037  38.084  1.00  0.00     0.198 A 
ATOM     77  F   UNL A   1      39.437  34.346  35.933  1.00  0.00    -0.203 F 
ATOM     78  F   UNL A   1      36.865  31.166  39.541  1.00  0.00    -0.200 F 
ATOM     79  C   UNL A   1      37.891  33.226  39.010  1.00  0.00     0.200 A 
ATOM     80  F   UNL A   1      38.945  35.262  38.435  1.00  0.00    -0.200 F 
ATOM     81  F   UNL A   1      37.679  33.671  40.256  1.00  0.00    -0.200 F 
ENDBRANCH  47  71
BRANCH  59  82
ATOM     82  C   UNL A   1      43.994  28.432  34.650  1.00  0.00     0.064 A 
ATOM     83  C   UNL A   1      45.163  29.212  34.600  1.00  0.00     0.173 A 
ATOM     84  C   UNL A   1      44.019  27.291  35.472  1.00  0.00     0.173 A 
ATOM     85  F   UNL A   1      45.216  30.292  33.807  1.00  0.00    -0.203 F 
ATOM     86  C   UNL A   1      46.314  28.839  35.295  1.00  0.00     0.198 A 
ATOM     87  C   UNL A   1      45.158  26.946  36.202  1.00  0.00     0.198 A 
ATOM     88  F   UNL A   1      42.937  26.504  35.569  1.00  0.00    -0.203 F 
ATOM     89  F   UNL A   1      47.441  29.554  35.157  1.00  0.00    -0.200 F 
ATOM     90  C   UNL A   1      46.309  27.712  36.101  1.00  0.00     0.200 A 
ATOM     91  F   UNL A   1      45.147  25.861  36.991  1.00  0.00    -0.200 F 
ATOM     92  F   UNL A   1      47.418  27.353  36.764  1.00  0.00    -0.200 F 
ENDBRANCH  59  82
ENDBRANCH  33  34
ENDBRANCH  26  28
ENDBRANCH  25  26
ENDBRANCH  24  25
ENDBRANCH   1  24
TORSDOF 15
ENDMDL
